MODEL 1
REMARK VINA RESULT:     -12.1      0.000      0.000
REMARK SMILES O=C(CN1C(=O)/C(=C\c2c(F)cccc2Cl)Oc2ccccc21)NCCCCCCNC(=O)c1ccc(-c2c3nc(c(-c4c(F)cccc4F)c4ccc([nH]4)c(-c4c(F)cccc4F)c4nc(c(-c5c(F)cccc5F)c5ccc2[nH]5)C=C4)C=C3)cc1
REMARK SMILES IDX 27 1 26 2 25 3 24 4 1 5 2 6 3 8 4 9 5 10 23 11 6 12 7 13
REMARK SMILES IDX 18 14 22 15 8 16 17 17 19 18 21 19 20 20 9 21 10 22 15 23
REMARK SMILES IDX 11 24 12 25 14 26 16 27 13 28 28 29 29 30 30 31 31 32 32 33
REMARK SMILES IDX 33 35 34 36 35 37 87 38 36 39 86 40 37 41 38 42 39 43 80 44
REMARK SMILES IDX 40 45 85 46 79 47 81 48 41 49 84 50 78 51 77 52 42 54 68 55
REMARK SMILES IDX 51 56 67 57 52 58 55 59 66 60 82 61 53 62 54 63 65 65 83 66
REMARK SMILES IDX 56 67 43 68 44 69 49 70 45 71 46 72 48 73 50 74 47 75 69 76
REMARK SMILES IDX 70 77 75 78 71 79 72 80 74 81 76 82 73 83 57 84 58 85 63 86
REMARK SMILES IDX 59 87 60 88 62 89 64 90 61 91
REMARK H PARENT 24 7 31 34 81 53 55 64
REMARK Flexibility Score: inf
ROOT
ATOM      1  C   UNL A   1      35.439  32.923  28.242  1.00  0.00     0.002 C 
ENDROOT
BRANCH   1   2
ATOM      2  C   UNL A   1      35.333  31.491  27.699  1.00  0.00     0.021 C 
BRANCH   2   3
ATOM      3  C   UNL A   1      33.907  30.938  27.612  1.00  0.00     0.116 C 
BRANCH   3   4
ATOM      4  N   UNL A   1      33.633  30.310  26.339  1.00  0.00    -0.355 N 
ATOM      5  O   UNL A   1      31.915  29.034  27.139  1.00  0.00    -0.273 OA
ATOM      6  C   UNL A   1      32.630  29.376  26.197  1.00  0.00     0.240 C 
ATOM      7  H   UNL A   1      34.176  30.555  25.556  1.00  0.00     0.163 HD
BRANCH   6   8
ATOM      8  C   UNL A   1      32.605  28.611  24.872  1.00  0.00     0.226 C 
BRANCH   8   9
ATOM      9  N   UNL A   1      31.374  27.911  24.516  1.00  0.00    -0.293 N 
ATOM     10  C   UNL A   1      31.359  26.543  24.743  1.00  0.00     0.294 C 
ATOM     11  C   UNL A   1      30.276  28.553  23.886  1.00  0.00     0.088 A 
ATOM     12  O   UNL A   1      32.182  25.983  25.466  1.00  0.00    -0.265 OA
ATOM     13  C   UNL A   1      30.304  25.785  23.991  1.00  0.00     0.193 C 
ATOM     14  C   UNL A   1      29.169  27.785  23.501  1.00  0.00     0.151 A 
ATOM     15  C   UNL A   1      30.234  29.936  23.668  1.00  0.00     0.030 A 
ATOM     16  C   UNL A   1      30.518  24.526  23.564  1.00  0.00     0.065 C 
ATOM     17  O   UNL A   1      29.123  26.420  23.640  1.00  0.00    -0.449 OA
ATOM     18  C   UNL A   1      28.047  28.379  22.917  1.00  0.00     0.049 A 
ATOM     19  C   UNL A   1      29.111  30.532  23.084  1.00  0.00     0.002 A 
ATOM     20  C   UNL A   1      28.020  29.756  22.707  1.00  0.00     0.004 A 
BRANCH  16  21
ATOM     21  C   UNL A   1      31.797  23.810  23.689  1.00  0.00     0.033 A 
ATOM     22  C   UNL A   1      32.801  24.020  22.738  1.00  0.00     0.132 A 
ATOM     23  C   UNL A   1      32.018  22.842  24.684  1.00  0.00     0.051 A 
ATOM     24  F   UNL A   1      32.633  24.937  21.773  1.00  0.00    -0.206 F 
ATOM     25  C   UNL A   1      33.980  23.276  22.749  1.00  0.00     0.040 A 
ATOM     26  C   UNL A   1      33.204  22.098  24.706  1.00  0.00     0.021 A 
ATOM     27  Cl  UNL A   1      30.842  22.512  25.911  1.00  0.00    -0.084 Cl
ATOM     28  C   UNL A   1      34.180  22.308  23.732  1.00  0.00     0.005 A 
ENDBRANCH  16  21
ENDBRANCH   8   9
ENDBRANCH   6   8
ENDBRANCH   3   4
ENDBRANCH   2   3
ENDBRANCH   1   2
BRANCH   1  29
ATOM     29  C   UNL A   1      34.375  33.325  29.266  1.00  0.00     0.002 C 
BRANCH  29  30
ATOM     30  C   UNL A   1      33.383  34.388  28.795  1.00  0.00     0.021 C 
BRANCH  30  31
ATOM     31  C   UNL A   1      33.535  35.756  29.453  1.00  0.00     0.116 C 
BRANCH  31  32
ATOM     32  N   UNL A   1      32.528  36.011  30.472  1.00  0.00    -0.352 N 
ATOM     33  C   UNL A   1      32.539  35.672  31.806  1.00  0.00     0.251 C 
ATOM     34  H   UNL A   1      31.727  36.495  30.165  1.00  0.00     0.163 HD
ATOM     35  O   UNL A   1      31.544  35.851  32.502  1.00  0.00    -0.269 OA
BRANCH  33  36
ATOM     36  C   UNL A   1      33.745  35.045  32.391  1.00  0.00     0.039 A 
ATOM     37  C   UNL A   1      34.961  35.731  32.426  1.00  0.00     0.014 A 
ATOM     38  C   UNL A   1      33.662  33.736  32.873  1.00  0.00     0.014 A 
ATOM     39  C   UNL A   1      36.124  35.054  32.783  1.00  0.00     0.010 A 
ATOM     40  C   UNL A   1      34.822  33.078  33.296  1.00  0.00     0.010 A 
ATOM     41  C   UNL A   1      36.070  33.713  33.200  1.00  0.00    -0.014 A 
BRANCH  41  42
ATOM     42  C   UNL A   1      37.331  32.982  33.484  1.00  0.00     0.031 A 
ATOM     43  C   UNL A   1      38.069  33.208  34.777  1.00  0.00     0.074 A 
ATOM     44  C   UNL A   1      37.784  32.068  32.605  1.00  0.00     0.049 A 
ATOM     45  N   UNL A   1      39.171  32.646  35.208  1.00  0.00    -0.248 NA
ATOM     46  C   UNL A   1      37.497  34.194  35.708  1.00  0.00     0.031 C 
ATOM     47  C   UNL A   1      37.154  31.745  31.324  1.00  0.00     0.029 A 
ATOM     48  N   UNL A   1      38.865  31.227  32.669  1.00  0.00    -0.354 N 
ATOM     49  C   UNL A   1      39.434  33.222  36.445  1.00  0.00     0.074 A 
ATOM     50  C   UNL A   1      38.391  34.195  36.687  1.00  0.00     0.031 C 
ATOM     51  C   UNL A   1      37.836  30.746  30.742  1.00  0.00     0.029 A 
ATOM     52  C   UNL A   1      38.973  30.391  31.587  1.00  0.00     0.049 A 
ATOM     53  H   UNL A   1      39.503  31.224  33.419  1.00  0.00     0.167 HD
ATOM     54  C   UNL A   1      40.444  32.957  37.308  1.00  0.00     0.037 A 
ATOM     55  C   UNL A   1      39.889  29.447  31.301  1.00  0.00     0.037 A 
ATOM     56  C   UNL A   1      41.469  31.971  37.088  1.00  0.00     0.049 A 
ATOM     57  C   UNL A   1      41.018  29.199  32.258  1.00  0.00     0.074 A 
ATOM     58  C   UNL A   1      42.515  31.611  37.921  1.00  0.00     0.029 A 
ATOM     59  N   UNL A   1      41.574  31.185  35.951  1.00  0.00    -0.354 N 
ATOM     60  N   UNL A   1      41.249  29.748  33.424  1.00  0.00    -0.248 NA
ATOM     61  C   UNL A   1      42.022  28.205  31.850  1.00  0.00     0.031 C 
ATOM     62  C   UNL A   1      43.271  30.625  37.275  1.00  0.00     0.029 A 
ATOM     63  C   UNL A   1      42.677  30.354  36.053  1.00  0.00     0.049 A 
ATOM     64  H   UNL A   1      40.957  31.214  35.186  1.00  0.00     0.167 HD
ATOM     65  C   UNL A   1      42.418  29.167  33.893  1.00  0.00     0.074 A 
ATOM     66  C   UNL A   1      42.838  28.205  32.895  1.00  0.00     0.031 C 
ATOM     67  C   UNL A   1      43.087  29.410  35.045  1.00  0.00     0.037 A 
BRANCH  54  68
ATOM     68  C   UNL A   1      40.496  33.759  38.574  1.00  0.00     0.057 A 
ATOM     69  C   UNL A   1      41.315  34.890  38.671  1.00  0.00     0.134 A 
ATOM     70  C   UNL A   1      39.759  33.394  39.707  1.00  0.00     0.134 A 
ATOM     71  F   UNL A   1      42.050  35.290  37.621  1.00  0.00    -0.206 F 
ATOM     72  C   UNL A   1      41.402  35.630  39.851  1.00  0.00     0.040 A 
ATOM     73  C   UNL A   1      39.822  34.137  40.888  1.00  0.00     0.040 A 
ATOM     74  F   UNL A   1      38.944  32.329  39.675  1.00  0.00    -0.206 F 
ATOM     75  C   UNL A   1      40.650  35.256  40.963  1.00  0.00     0.006 A 
ENDBRANCH  54  68
BRANCH  55  76
ATOM     76  C   UNL A   1      39.780  28.669  30.044  1.00  0.00     0.057 A 
ATOM     77  C   UNL A   1      40.364  29.120  28.855  1.00  0.00     0.134 A 
ATOM     78  C   UNL A   1      39.090  27.453  30.009  1.00  0.00     0.134 A 
ATOM     79  F   UNL A   1      41.036  30.280  28.829  1.00  0.00    -0.206 F 
ATOM     80  C   UNL A   1      40.257  28.394  27.670  1.00  0.00     0.040 A 
ATOM     81  C   UNL A   1      38.992  26.706  28.834  1.00  0.00     0.040 A 
ATOM     82  F   UNL A   1      38.528  26.962  31.123  1.00  0.00    -0.206 F 
ATOM     83  C   UNL A   1      39.573  27.180  27.658  1.00  0.00     0.006 A 
ENDBRANCH  55  76
BRANCH  67  84
ATOM     84  C   UNL A   1      44.338  28.621  35.280  1.00  0.00     0.057 A 
ATOM     85  C   UNL A   1      45.579  29.100  34.847  1.00  0.00     0.134 A 
ATOM     86  C   UNL A   1      44.308  27.379  35.924  1.00  0.00     0.134 A 
ATOM     87  F   UNL A   1      45.672  30.283  34.219  1.00  0.00    -0.206 F 
ATOM     88  C   UNL A   1      46.751  28.370  35.049  1.00  0.00     0.040 A 
ATOM     89  C   UNL A   1      45.475  26.648  36.149  1.00  0.00     0.040 A 
ATOM     90  F   UNL A   1      43.150  26.875  36.376  1.00  0.00    -0.206 F 
ATOM     91  C   UNL A   1      46.701  27.142  35.708  1.00  0.00     0.006 A 
ENDBRANCH  67  84
ENDBRANCH  41  42
ENDBRANCH  33  36
ENDBRANCH  31  32
ENDBRANCH  30  31
ENDBRANCH  29  30
ENDBRANCH   1  29
TORSDOF 15
ENDMDL
MODEL 2
REMARK VINA RESULT:     -12.1      4.663      6.958
REMARK SMILES O=C(CN1C(=O)/C(=C\c2c(F)cccc2Cl)Oc2ccccc21)NCCCCCCNC(=O)c1ccc(-c2c3nc(c(-c4c(F)cccc4F)c4ccc([nH]4)c(-c4c(F)cccc4F)c4nc(c(-c5c(F)cccc5F)c5ccc2[nH]5)C=C4)C=C3)cc1
REMARK SMILES IDX 27 1 26 2 25 3 24 4 1 5 2 6 3 8 4 9 5 10 23 11 6 12 7 13
REMARK SMILES IDX 18 14 22 15 8 16 17 17 19 18 21 19 20 20 9 21 10 22 15 23
REMARK SMILES IDX 11 24 12 25 14 26 16 27 13 28 28 29 29 30 30 31 31 32 32 33
REMARK SMILES IDX 33 35 34 36 35 37 87 38 36 39 86 40 37 41 38 42 39 43 80 44
REMARK SMILES IDX 40 45 85 46 79 47 81 48 41 49 84 50 78 51 77 52 42 54 68 55
REMARK SMILES IDX 51 56 67 57 52 58 55 59 66 60 82 61 53 62 54 63 65 65 83 66
REMARK SMILES IDX 56 67 43 68 44 69 49 70 45 71 46 72 48 73 50 74 47 75 69 76
REMARK SMILES IDX 70 77 75 78 71 79 72 80 74 81 76 82 73 83 57 84 58 85 63 86
REMARK SMILES IDX 59 87 60 88 62 89 64 90 61 91
REMARK H PARENT 24 7 31 34 81 53 55 64
REMARK Flexibility Score: inf
ROOT
ATOM      1  C   UNL A   1      34.308  32.820  28.167  1.00  0.00     0.002 C 
ENDROOT
BRANCH   1   2
ATOM      2  C   UNL A   1      35.280  31.737  27.679  1.00  0.00     0.021 C 
BRANCH   2   3
ATOM      3  C   UNL A   1      34.766  30.300  27.814  1.00  0.00     0.116 C 
BRANCH   3   4
ATOM      4  N   UNL A   1      34.559  29.663  26.532  1.00  0.00    -0.355 N 
ATOM      5  O   UNL A   1      32.372  30.301  26.371  1.00  0.00    -0.273 OA
ATOM      6  C   UNL A   1      33.341  29.712  25.892  1.00  0.00     0.240 C 
ATOM      7  H   UNL A   1      35.306  29.184  26.107  1.00  0.00     0.163 HD
BRANCH   6   8
ATOM      8  C   UNL A   1      33.182  28.799  24.674  1.00  0.00     0.226 C 
BRANCH   8   9
ATOM      9  N   UNL A   1      32.201  27.721  24.757  1.00  0.00    -0.293 N 
ATOM     10  C   UNL A   1      32.634  26.540  25.341  1.00  0.00     0.294 C 
ATOM     11  C   UNL A   1      30.900  27.817  24.195  1.00  0.00     0.088 A 
ATOM     12  O   UNL A   1      33.658  26.475  26.020  1.00  0.00    -0.265 OA
ATOM     13  C   UNL A   1      31.797  25.334  25.033  1.00  0.00     0.193 C 
ATOM     14  C   UNL A   1      30.054  26.702  24.246  1.00  0.00     0.151 A 
ATOM     15  C   UNL A   1      30.409  28.999  23.627  1.00  0.00     0.030 A 
ATOM     16  C   UNL A   1      32.348  24.110  24.927  1.00  0.00     0.065 C 
ATOM     17  O   UNL A   1      30.448  25.488  24.753  1.00  0.00    -0.449 OA
ATOM     18  C   UNL A   1      28.750  26.762  23.746  1.00  0.00     0.049 A 
ATOM     19  C   UNL A   1      29.104  29.061  23.126  1.00  0.00     0.002 A 
ATOM     20  C   UNL A   1      28.276  27.944  23.184  1.00  0.00     0.004 A 
BRANCH  16  21
ATOM     21  C   UNL A   1      33.792  23.837  24.997  1.00  0.00     0.033 A 
ATOM     22  C   UNL A   1      34.591  24.060  23.871  1.00  0.00     0.132 A 
ATOM     23  C   UNL A   1      34.391  23.265  26.132  1.00  0.00     0.051 A 
ATOM     24  F   UNL A   1      34.061  24.607  22.766  1.00  0.00    -0.206 F 
ATOM     25  C   UNL A   1      35.939  23.703  23.854  1.00  0.00     0.040 A 
ATOM     26  C   UNL A   1      35.746  22.914  26.124  1.00  0.00     0.021 A 
ATOM     27  Cl  UNL A   1      33.491  22.956  27.579  1.00  0.00    -0.084 Cl
ATOM     28  C   UNL A   1      36.517  23.123  24.982  1.00  0.00     0.005 A 
ENDBRANCH  16  21
ENDBRANCH   8   9
ENDBRANCH   6   8
ENDBRANCH   3   4
ENDBRANCH   2   3
ENDBRANCH   1   2
BRANCH   1  29
ATOM     29  C   UNL A   1      34.905  33.877  29.099  1.00  0.00     0.002 C 
BRANCH  29  30
ATOM     30  C   UNL A   1      34.430  33.812  30.551  1.00  0.00     0.021 C 
BRANCH  30  31
ATOM     31  C   UNL A   1      34.695  32.489  31.263  1.00  0.00     0.116 C 
BRANCH  31  32
ATOM     32  N   UNL A   1      35.212  32.665  32.612  1.00  0.00    -0.352 N 
ATOM     33  C   UNL A   1      36.386  32.198  33.158  1.00  0.00     0.251 C 
ATOM     34  H   UNL A   1      34.643  33.191  33.219  1.00  0.00     0.163 HD
ATOM     35  O   UNL A   1      36.609  32.329  34.358  1.00  0.00    -0.269 OA
BRANCH  33  36
ATOM     36  C   UNL A   1      37.362  31.493  32.299  1.00  0.00     0.039 A 
ATOM     37  C   UNL A   1      38.308  30.627  32.854  1.00  0.00     0.014 A 
ATOM     38  C   UNL A   1      37.355  31.735  30.922  1.00  0.00     0.014 A 
ATOM     39  C   UNL A   1      39.345  30.141  32.063  1.00  0.00     0.010 A 
ATOM     40  C   UNL A   1      38.359  31.191  30.117  1.00  0.00     0.010 A 
ATOM     41  C   UNL A   1      39.394  30.436  30.690  1.00  0.00    -0.014 A 
BRANCH  41  42
ATOM     42  C   UNL A   1      40.559  29.988  29.885  1.00  0.00     0.031 A 
ATOM     43  C   UNL A   1      41.731  30.907  29.662  1.00  0.00     0.074 A 
ATOM     44  C   UNL A   1      40.592  28.731  29.403  1.00  0.00     0.049 A 
ATOM     45  N   UNL A   1      42.843  30.684  29.007  1.00  0.00    -0.248 NA
ATOM     46  C   UNL A   1      41.644  32.253  30.250  1.00  0.00     0.031 C 
ATOM     47  C   UNL A   1      39.528  27.738  29.560  1.00  0.00     0.029 A 
ATOM     48  N   UNL A   1      41.568  28.069  28.703  1.00  0.00    -0.354 N 
ATOM     49  C   UNL A   1      43.576  31.861  29.087  1.00  0.00     0.074 A 
ATOM     50  C   UNL A   1      42.774  32.807  29.833  1.00  0.00     0.031 C 
ATOM     51  C   UNL A   1      39.927  26.581  29.011  1.00  0.00     0.029 A 
ATOM     52  C   UNL A   1      41.252  26.763  28.425  1.00  0.00     0.049 A 
ATOM     53  H   UNL A   1      42.413  28.490  28.425  1.00  0.00     0.167 HD
ATOM     54  C   UNL A   1      44.810  32.129  28.595  1.00  0.00     0.037 A 
ATOM     55  C   UNL A   1      41.948  25.818  27.767  1.00  0.00     0.037 A 
ATOM     56  C   UNL A   1      45.626  31.186  27.877  1.00  0.00     0.049 A 
ATOM     57  C   UNL A   1      43.298  26.152  27.202  1.00  0.00     0.074 A 
ATOM     58  C   UNL A   1      46.902  31.358  27.369  1.00  0.00     0.029 A 
ATOM     59  N   UNL A   1      45.244  29.890  27.569  1.00  0.00    -0.354 N 
ATOM     60  N   UNL A   1      43.977  27.268  27.291  1.00  0.00    -0.248 NA
ATOM     61  C   UNL A   1      43.971  25.095  26.433  1.00  0.00     0.031 C 
ATOM     62  C   UNL A   1      47.282  30.174  26.727  1.00  0.00     0.029 A 
ATOM     63  C   UNL A   1      46.252  29.257  26.861  1.00  0.00     0.049 A 
ATOM     64  H   UNL A   1      44.384  29.481  27.815  1.00  0.00     0.167 HD
ATOM     65  C   UNL A   1      45.158  27.050  26.596  1.00  0.00     0.074 A 
ATOM     66  C   UNL A   1      45.113  25.686  26.110  1.00  0.00     0.031 C 
ATOM     67  C   UNL A   1      46.186  27.903  26.376  1.00  0.00     0.037 A 
BRANCH  54  68
ATOM     68  C   UNL A   1      45.351  33.511  28.810  1.00  0.00     0.057 A 
ATOM     69  C   UNL A   1      45.055  34.542  27.912  1.00  0.00     0.134 A 
ATOM     70  C   UNL A   1      46.191  33.813  29.890  1.00  0.00     0.134 A 
ATOM     71  F   UNL A   1      44.259  34.317  26.855  1.00  0.00    -0.206 F 
ATOM     72  C   UNL A   1      45.576  35.827  28.077  1.00  0.00     0.040 A 
ATOM     73  C   UNL A   1      46.703  35.099  30.077  1.00  0.00     0.040 A 
ATOM     74  F   UNL A   1      46.501  32.873  30.794  1.00  0.00    -0.206 F 
ATOM     75  C   UNL A   1      46.399  36.108  29.165  1.00  0.00     0.006 A 
ENDBRANCH  54  68
BRANCH  55  76
ATOM     76  C   UNL A   1      41.375  24.461  27.600  1.00  0.00     0.057 A 
ATOM     77  C   UNL A   1      40.364  24.208  26.665  1.00  0.00     0.134 A 
ATOM     78  C   UNL A   1      41.830  23.387  28.372  1.00  0.00     0.134 A 
ATOM     79  F   UNL A   1      39.887  25.200  25.899  1.00  0.00    -0.206 F 
ATOM     80  C   UNL A   1      39.818  22.935  26.511  1.00  0.00     0.040 A 
ATOM     81  C   UNL A   1      41.307  22.104  28.213  1.00  0.00     0.040 A 
ATOM     82  F   UNL A   1      42.811  23.568  29.267  1.00  0.00    -0.206 F 
ATOM     83  C   UNL A   1      40.293  21.876  27.283  1.00  0.00     0.006 A 
ENDBRANCH  55  76
BRANCH  67  84
ATOM     84  C   UNL A   1      47.340  27.380  25.577  1.00  0.00     0.057 A 
ATOM     85  C   UNL A   1      47.388  27.553  24.189  1.00  0.00     0.134 A 
ATOM     86  C   UNL A   1      48.396  26.691  26.184  1.00  0.00     0.134 A 
ATOM     87  F   UNL A   1      46.403  28.202  23.549  1.00  0.00    -0.206 F 
ATOM     88  C   UNL A   1      48.451  27.061  23.432  1.00  0.00     0.040 A 
ATOM     89  C   UNL A   1      49.474  26.210  25.440  1.00  0.00     0.040 A 
ATOM     90  F   UNL A   1      48.413  26.507  27.513  1.00  0.00    -0.206 F 
ATOM     91  C   UNL A   1      49.502  26.392  24.058  1.00  0.00     0.006 A 
ENDBRANCH  67  84
ENDBRANCH  41  42
ENDBRANCH  33  36
ENDBRANCH  31  32
ENDBRANCH  30  31
ENDBRANCH  29  30
ENDBRANCH   1  29
TORSDOF 15
ENDMDL
MODEL 3
REMARK VINA RESULT:     -11.9      2.005      2.964
REMARK SMILES O=C(CN1C(=O)/C(=C\c2c(F)cccc2Cl)Oc2ccccc21)NCCCCCCNC(=O)c1ccc(-c2c3nc(c(-c4c(F)cccc4F)c4ccc([nH]4)c(-c4c(F)cccc4F)c4nc(c(-c5c(F)cccc5F)c5ccc2[nH]5)C=C4)C=C3)cc1
REMARK SMILES IDX 27 1 26 2 25 3 24 4 1 5 2 6 3 8 4 9 5 10 23 11 6 12 7 13
REMARK SMILES IDX 18 14 22 15 8 16 17 17 19 18 21 19 20 20 9 21 10 22 15 23
REMARK SMILES IDX 11 24 12 25 14 26 16 27 13 28 28 29 29 30 30 31 31 32 32 33
REMARK SMILES IDX 33 35 34 36 35 37 87 38 36 39 86 40 37 41 38 42 39 43 80 44
REMARK SMILES IDX 40 45 85 46 79 47 81 48 41 49 84 50 78 51 77 52 42 54 68 55
REMARK SMILES IDX 51 56 67 57 52 58 55 59 66 60 82 61 53 62 54 63 65 65 83 66
REMARK SMILES IDX 56 67 43 68 44 69 49 70 45 71 46 72 48 73 50 74 47 75 69 76
REMARK SMILES IDX 70 77 75 78 71 79 72 80 74 81 76 82 73 83 57 84 58 85 63 86
REMARK SMILES IDX 59 87 60 88 62 89 64 90 61 91
REMARK H PARENT 24 7 31 34 81 53 55 64
REMARK Flexibility Score: inf
ROOT
ATOM      1  C   UNL A   1      32.962  29.980  27.266  1.00  0.00     0.002 C 
ENDROOT
BRANCH   1   2
ATOM      2  C   UNL A   1      32.902  28.468  27.518  1.00  0.00     0.021 C 
BRANCH   2   3
ATOM      3  C   UNL A   1      31.498  27.913  27.784  1.00  0.00     0.116 C 
BRANCH   3   4
ATOM      4  N   UNL A   1      30.874  27.393  26.588  1.00  0.00    -0.355 N 
ATOM      5  O   UNL A   1      31.411  25.219  27.040  1.00  0.00    -0.273 OA
ATOM      6  C   UNL A   1      30.881  26.046  26.298  1.00  0.00     0.240 C 
ATOM      7  H   UNL A   1      30.433  28.015  25.966  1.00  0.00     0.163 HD
BRANCH   6   8
ATOM      8  C   UNL A   1      30.409  25.656  24.896  1.00  0.00     0.226 C 
BRANCH   8   9
ATOM      9  N   UNL A   1      31.423  25.502  23.857  1.00  0.00    -0.293 N 
ATOM     10  C   UNL A   1      31.682  24.204  23.441  1.00  0.00     0.294 C 
ATOM     11  C   UNL A   1      32.181  26.590  23.351  1.00  0.00     0.088 A 
ATOM     12  O   UNL A   1      30.924  23.268  23.685  1.00  0.00    -0.265 OA
ATOM     13  C   UNL A   1      32.987  24.015  22.725  1.00  0.00     0.193 C 
ATOM     14  C   UNL A   1      33.194  26.337  22.416  1.00  0.00     0.151 A 
ATOM     15  C   UNL A   1      31.932  27.919  23.716  1.00  0.00     0.030 A 
ATOM     16  C   UNL A   1      33.686  22.869  22.835  1.00  0.00     0.065 C 
ATOM     17  O   UNL A   1      33.540  25.070  22.015  1.00  0.00    -0.449 OA
ATOM     18  C   UNL A   1      33.937  27.380  21.857  1.00  0.00     0.049 A 
ATOM     19  C   UNL A   1      32.675  28.964  23.157  1.00  0.00     0.002 A 
ATOM     20  C   UNL A   1      33.678  28.696  22.230  1.00  0.00     0.004 A 
BRANCH  16  21
ATOM     21  C   UNL A   1      33.316  21.750  23.717  1.00  0.00     0.033 A 
ATOM     22  C   UNL A   1      33.825  21.701  25.019  1.00  0.00     0.132 A 
ATOM     23  C   UNL A   1      32.540  20.668  23.268  1.00  0.00     0.051 A 
ATOM     24  F   UNL A   1      34.568  22.715  25.490  1.00  0.00    -0.206 F 
ATOM     25  C   UNL A   1      33.599  20.602  25.847  1.00  0.00     0.040 A 
ATOM     26  C   UNL A   1      32.302  19.566  24.097  1.00  0.00     0.021 A 
ATOM     27  Cl  UNL A   1      31.858  20.635  21.676  1.00  0.00    -0.084 Cl
ATOM     28  C   UNL A   1      32.841  19.529  25.383  1.00  0.00     0.005 A 
ENDBRANCH  16  21
ENDBRANCH   8   9
ENDBRANCH   6   8
ENDBRANCH   3   4
ENDBRANCH   2   3
ENDBRANCH   1   2
BRANCH   1  29
ATOM     29  C   UNL A   1      31.787  30.569  26.481  1.00  0.00     0.002 C 
BRANCH  29  30
ATOM     30  C   UNL A   1      31.528  32.058  26.711  1.00  0.00     0.021 C 
BRANCH  30  31
ATOM     31  C   UNL A   1      32.681  32.827  27.349  1.00  0.00     0.116 C 
BRANCH  31  32
ATOM     32  N   UNL A   1      32.336  34.205  27.667  1.00  0.00    -0.352 N 
ATOM     33  C   UNL A   1      32.926  35.060  28.570  1.00  0.00     0.251 C 
ATOM     34  H   UNL A   1      31.576  34.578  27.166  1.00  0.00     0.163 HD
ATOM     35  O   UNL A   1      32.426  36.155  28.809  1.00  0.00    -0.269 OA
BRANCH  33  36
ATOM     36  C   UNL A   1      34.145  34.633  29.291  1.00  0.00     0.039 A 
ATOM     37  C   UNL A   1      35.404  34.748  28.695  1.00  0.00     0.014 A 
ATOM     38  C   UNL A   1      34.020  34.074  30.566  1.00  0.00     0.014 A 
ATOM     39  C   UNL A   1      36.508  34.152  29.298  1.00  0.00     0.010 A 
ATOM     40  C   UNL A   1      35.143  33.535  31.200  1.00  0.00     0.010 A 
ATOM     41  C   UNL A   1      36.385  33.519  30.546  1.00  0.00    -0.014 A 
BRANCH  41  42
ATOM     42  C   UNL A   1      37.552  32.807  31.126  1.00  0.00     0.031 A 
ATOM     43  C   UNL A   1      38.109  33.216  32.464  1.00  0.00     0.074 A 
ATOM     44  C   UNL A   1      38.078  31.750  30.478  1.00  0.00     0.049 A 
ATOM     45  N   UNL A   1      39.107  32.700  33.137  1.00  0.00    -0.248 NA
ATOM     46  C   UNL A   1      37.462  34.356  33.134  1.00  0.00     0.031 C 
ATOM     47  C   UNL A   1      37.622  31.243  29.182  1.00  0.00     0.029 A 
ATOM     48  N   UNL A   1      39.093  30.900  30.832  1.00  0.00    -0.354 N 
ATOM     49  C   UNL A   1      39.220  33.460  34.295  1.00  0.00     0.074 A 
ATOM     50  C   UNL A   1      38.205  34.489  34.224  1.00  0.00     0.031 C 
ATOM     51  C   UNL A   1      38.327  30.144  28.871  1.00  0.00     0.029 A 
ATOM     52  C   UNL A   1      39.311  29.897  29.921  1.00  0.00     0.049 A 
ATOM     53  H   UNL A   1      39.616  30.999  31.660  1.00  0.00     0.167 HD
ATOM     54  C   UNL A   1      40.081  33.308  35.330  1.00  0.00     0.037 A 
ATOM     55  C   UNL A   1      40.208  28.893  29.925  1.00  0.00     0.037 A 
ATOM     56  C   UNL A   1      41.074  32.271  35.422  1.00  0.00     0.049 A 
ATOM     57  C   UNL A   1      41.173  28.770  31.068  1.00  0.00     0.074 A 
ATOM     58  C   UNL A   1      41.969  32.019  36.447  1.00  0.00     0.029 A 
ATOM     59  N   UNL A   1      41.299  31.308  34.449  1.00  0.00    -0.354 N 
ATOM     60  N   UNL A   1      41.263  29.493  32.156  1.00  0.00    -0.248 NA
ATOM     61  C   UNL A   1      42.172  27.695  30.974  1.00  0.00     0.031 C 
ATOM     62  C   UNL A   1      42.757  30.920  36.082  1.00  0.00     0.029 A 
ATOM     63  C   UNL A   1      42.331  30.473  34.842  1.00  0.00     0.049 A 
ATOM     64  H   UNL A   1      40.799  31.231  33.605  1.00  0.00     0.167 HD
ATOM     65  C   UNL A   1      42.321  28.961  32.879  1.00  0.00     0.074 A 
ATOM     66  C   UNL A   1      42.828  27.839  32.116  1.00  0.00     0.031 C 
ATOM     67  C   UNL A   1      42.830  29.368  34.066  1.00  0.00     0.037 A 
BRANCH  54  68
ATOM     68  C   UNL A   1      39.993  34.302  36.449  1.00  0.00     0.057 A 
ATOM     69  C   UNL A   1      39.229  34.029  37.590  1.00  0.00     0.134 A 
ATOM     70  C   UNL A   1      40.640  35.543  36.384  1.00  0.00     0.134 A 
ATOM     71  F   UNL A   1      38.582  32.859  37.711  1.00  0.00    -0.206 F 
ATOM     72  C   UNL A   1      39.109  34.955  38.627  1.00  0.00     0.040 A 
ATOM     73  C   UNL A   1      40.543  36.470  37.424  1.00  0.00     0.040 A 
ATOM     74  F   UNL A   1      41.399  35.860  35.325  1.00  0.00    -0.206 F 
ATOM     75  C   UNL A   1      39.771  36.178  38.547  1.00  0.00     0.006 A 
ENDBRANCH  54  68
BRANCH  55  76
ATOM     76  C   UNL A   1      40.239  27.926  28.803  1.00  0.00     0.057 A 
ATOM     77  C   UNL A   1      40.957  28.193  27.632  1.00  0.00     0.134 A 
ATOM     78  C   UNL A   1      39.551  26.711  28.881  1.00  0.00     0.134 A 
ATOM     79  F   UNL A   1      41.634  29.342  27.500  1.00  0.00    -0.206 F 
ATOM     80  C   UNL A   1      40.982  27.288  26.572  1.00  0.00     0.040 A 
ATOM     81  C   UNL A   1      39.584  25.788  27.836  1.00  0.00     0.040 A 
ATOM     82  F   UNL A   1      38.863  26.394  29.987  1.00  0.00    -0.206 F 
ATOM     83  C   UNL A   1      40.298  26.078  26.674  1.00  0.00     0.006 A 
ENDBRANCH  55  76
BRANCH  67  84
ATOM     84  C   UNL A   1      43.992  28.591  34.605  1.00  0.00     0.057 A 
ATOM     85  C   UNL A   1      45.306  28.975  34.317  1.00  0.00     0.134 A 
ATOM     86  C   UNL A   1      43.805  27.453  35.399  1.00  0.00     0.134 A 
ATOM     87  F   UNL A   1      45.550  30.054  33.558  1.00  0.00    -0.206 F 
ATOM     88  C   UNL A   1      46.397  28.254  34.804  1.00  0.00     0.040 A 
ATOM     89  C   UNL A   1      44.887  26.734  35.907  1.00  0.00     0.040 A 
ATOM     90  F   UNL A   1      42.568  27.046  35.722  1.00  0.00    -0.206 F 
ATOM     91  C   UNL A   1      46.188  27.132  35.606  1.00  0.00     0.006 A 
ENDBRANCH  67  84
ENDBRANCH  41  42
ENDBRANCH  33  36
ENDBRANCH  31  32
ENDBRANCH  30  31
ENDBRANCH  29  30
ENDBRANCH   1  29
TORSDOF 15
ENDMDL
