MODEL 1
REMARK VINA RESULT:     -12.5      0.000      0.000
REMARK SMILES CCc1ccnc(C(=O)c2[nH]c3ccc(OC(F)(F)F)cc3c2CC(=O)NCCCCCCNC(=O)c2ccc(-c3c4nc(c(-c5c(F)cccc5F)c5ccc([nH]5)c(-c5c(F)cccc5F)c5nc(c(-c6c(F)cccc6F)c6ccc3[nH]6)C=C5)C=C4)cc2)c1
REMARK SMILES IDX 29 1 28 2 27 3 25 4 26 5 24 7 23 8 10 9 11 10 12 11 22 13
REMARK SMILES IDX 13 14 21 15 14 16 15 17 8 18 9 19 7 20 3 21 4 22 91 23 5 24
REMARK SMILES IDX 6 25 2 26 1 27 16 28 17 29 18 30 19 31 20 32 30 33 31 34
REMARK SMILES IDX 32 35 33 36 34 37 35 38 36 40 37 41 38 42 90 43 39 44 89 45
REMARK SMILES IDX 40 46 41 47 42 48 83 49 43 50 88 51 82 52 84 53 44 54 87 55
REMARK SMILES IDX 81 56 80 57 45 59 71 60 54 61 70 62 55 63 58 64 69 65 85 66
REMARK SMILES IDX 56 67 57 68 68 70 86 71 59 72 46 73 47 74 52 75 48 76 49 77
REMARK SMILES IDX 51 78 53 79 50 80 72 81 73 82 78 83 74 84 75 85 77 86 79 87
REMARK SMILES IDX 76 88 60 89 61 90 66 91 62 92 63 93 65 94 67 95 64 96
REMARK H PARENT 27 6 11 12 34 39 84 58 58 69
REMARK Flexibility Score: inf
ROOT
ATOM      1  C   UNL A   1      31.298  27.982  26.431  1.00  0.00     0.021 C 
ENDROOT
BRANCH   1   2
ATOM      2  C   UNL A   1      32.214  26.759  26.472  1.00  0.00     0.116 C 
BRANCH   2   3
ATOM      3  N   UNL A   1      31.529  25.558  26.900  1.00  0.00    -0.356 N 
ATOM      4  C   UNL A   1      31.852  24.249  26.679  1.00  0.00     0.224 C 
ATOM      5  O   UNL A   1      31.188  23.378  27.245  1.00  0.00    -0.275 OA
ATOM      6  H   UNL A   1      30.710  25.705  27.428  1.00  0.00     0.163 HD
BRANCH   4   7
ATOM      7  C   UNL A   1      33.070  23.880  25.849  1.00  0.00     0.138 C 
BRANCH   7   8
ATOM      8  C   UNL A   1      32.769  23.287  24.501  1.00  0.00    -0.002 A 
ATOM      9  C   UNL A   1      32.556  23.963  23.304  1.00  0.00     0.093 A 
ATOM     10  N   UNL A   1      32.380  23.018  22.321  1.00  0.00    -0.352 N 
ATOM     11  C   UNL A   1      32.354  21.756  22.858  1.00  0.00     0.046 A 
ATOM     12  H   UNL A   1      32.284  23.220  21.362  1.00  0.00     0.167 HD
ATOM     13  C   UNL A   1      32.590  21.888  24.224  1.00  0.00     0.008 A 
ATOM     14  C   UNL A   1      32.153  20.519  22.240  1.00  0.00     0.030 A 
ATOM     15  C   UNL A   1      32.619  20.716  25.008  1.00  0.00     0.057 A 
ATOM     16  C   UNL A   1      32.189  19.372  23.044  1.00  0.00     0.049 A 
ATOM     17  C   UNL A   1      32.419  19.459  24.416  1.00  0.00     0.130 A 
BRANCH   9  18
ATOM     18  C   UNL A   1      32.583  25.388  23.023  1.00  0.00     0.227 C 
ATOM     19  O   UNL A   1      33.614  25.932  22.641  1.00  0.00    -0.285 OA
BRANCH  18  20
ATOM     20  C   UNL A   1      31.291  26.165  23.143  1.00  0.00     0.113 A 
ATOM     21  C   UNL A   1      29.966  28.166  22.895  1.00  0.00    -0.044 A 
ATOM     22  C   UNL A   1      28.907  27.486  23.497  1.00  0.00     0.024 A 
ATOM     23  C   UNL A   1      31.173  27.483  22.698  1.00  0.00     0.036 A 
ATOM     24  C   UNL A   1      29.102  26.174  23.896  1.00  0.00     0.112 A 
ATOM     25  N   UNL A   1      30.265  25.509  23.746  1.00  0.00    -0.253 NA
BRANCH  21  26
ATOM     26  C   UNL A   1      29.817  29.607  22.475  1.00  0.00     0.032 C 
ATOM     27  C   UNL A   1      28.411  29.937  22.001  1.00  0.00     0.009 C 
ENDBRANCH  21  26
ENDBRANCH  18  20
ENDBRANCH   9  18
BRANCH  17  28
ATOM     28  O   UNL A   1      32.479  18.416  25.297  1.00  0.00    -0.406 OA
BRANCH  28  29
ATOM     29  C   UNL A   1      33.347  17.339  24.991  1.00  0.00     0.573 C 
ATOM     30  F   UNL A   1      32.785  16.499  24.096  1.00  0.00    -0.132 F 
ATOM     31  F   UNL A   1      34.527  17.788  24.511  1.00  0.00    -0.132 F 
ATOM     32  F   UNL A   1      33.591  16.644  26.125  1.00  0.00    -0.132 F 
ENDBRANCH  28  29
ENDBRANCH  17  28
ENDBRANCH   7   8
ENDBRANCH   4   7
ENDBRANCH   2   3
ENDBRANCH   1   2
BRANCH   1  33
ATOM     33  C   UNL A   1      32.007  29.331  26.595  1.00  0.00     0.002 C 
BRANCH  33  34
ATOM     34  C   UNL A   1      31.487  30.476  25.719  1.00  0.00     0.002 C 
BRANCH  34  35
ATOM     35  C   UNL A   1      31.279  31.824  26.419  1.00  0.00     0.021 C 
BRANCH  35  36
ATOM     36  C   UNL A   1      32.547  32.519  26.918  1.00  0.00     0.116 C 
BRANCH  36  37
ATOM     37  N   UNL A   1      32.294  33.860  27.412  1.00  0.00    -0.352 N 
ATOM     38  C   UNL A   1      32.963  34.574  28.376  1.00  0.00     0.251 C 
ATOM     39  H   UNL A   1      31.531  34.325  26.997  1.00  0.00     0.163 HD
ATOM     40  O   UNL A   1      32.525  35.656  28.751  1.00  0.00    -0.269 OA
BRANCH  38  41
ATOM     41  C   UNL A   1      34.202  34.041  28.989  1.00  0.00     0.039 A 
ATOM     42  C   UNL A   1      34.083  33.189  30.093  1.00  0.00     0.014 A 
ATOM     43  C   UNL A   1      35.468  34.420  28.533  1.00  0.00     0.014 A 
ATOM     44  C   UNL A   1      35.228  32.677  30.710  1.00  0.00     0.010 A 
ATOM     45  C   UNL A   1      36.612  33.896  29.140  1.00  0.00     0.010 A 
ATOM     46  C   UNL A   1      36.500  33.018  30.229  1.00  0.00    -0.014 A 
BRANCH  46  47
ATOM     47  C   UNL A   1      37.723  32.462  30.854  1.00  0.00     0.031 A 
ATOM     48  C   UNL A   1      38.417  31.279  30.248  1.00  0.00     0.074 A 
ATOM     49  C   UNL A   1      38.186  32.998  31.997  1.00  0.00     0.049 A 
ATOM     50  N   UNL A   1      39.426  30.588  30.714  1.00  0.00    -0.248 NA
ATOM     51  C   UNL A   1      37.902  30.804  28.955  1.00  0.00     0.031 C 
ATOM     52  C   UNL A   1      37.600  34.141  32.696  1.00  0.00     0.029 A 
ATOM     53  N   UNL A   1      39.255  32.637  32.779  1.00  0.00    -0.354 N 
ATOM     54  C   UNL A   1      39.648  29.576  29.792  1.00  0.00     0.074 A 
ATOM     55  C   UNL A   1      38.679  29.752  28.729  1.00  0.00     0.031 C 
ATOM     56  C   UNL A   1      38.317  34.387  33.806  1.00  0.00     0.029 A 
ATOM     57  C   UNL A   1      39.398  33.410  33.903  1.00  0.00     0.049 A 
ATOM     58  H   UNL A   1      39.860  31.893  32.554  1.00  0.00     0.167 HD
ATOM     59  C   UNL A   1      40.568  28.584  29.832  1.00  0.00     0.037 A 
ATOM     60  C   UNL A   1      40.292  33.332  34.904  1.00  0.00     0.037 A 
ATOM     61  C   UNL A   1      41.557  28.417  30.861  1.00  0.00     0.049 A 
ATOM     62  C   UNL A   1      41.340  32.260  34.893  1.00  0.00     0.074 A 
ATOM     63  C   UNL A   1      42.534  27.441  30.974  1.00  0.00     0.029 A 
ATOM     64  N   UNL A   1      41.704  29.256  31.954  1.00  0.00    -0.354 N 
ATOM     65  N   UNL A   1      41.523  31.298  34.025  1.00  0.00    -0.248 NA
ATOM     66  C   UNL A   1      42.301  32.263  36.007  1.00  0.00     0.031 C 
ATOM     67  C   UNL A   1      43.274  27.693  32.135  1.00  0.00     0.029 A 
ATOM     68  C   UNL A   1      42.758  28.826  32.742  1.00  0.00     0.049 A 
ATOM     69  H   UNL A   1      41.142  30.042  32.141  1.00  0.00     0.167 HD
ATOM     70  C   UNL A   1      42.616  30.577  34.486  1.00  0.00     0.074 A 
ATOM     71  C   UNL A   1      43.062  31.218  35.707  1.00  0.00     0.031 C 
ATOM     72  C   UNL A   1      43.191  29.476  33.948  1.00  0.00     0.037 A 
BRANCH  59  73
ATOM     73  C   UNL A   1      40.531  27.584  28.722  1.00  0.00     0.057 A 
ATOM     74  C   UNL A   1      41.333  27.726  27.585  1.00  0.00     0.134 A 
ATOM     75  C   UNL A   1      39.700  26.461  28.803  1.00  0.00     0.134 A 
ATOM     76  F   UNL A   1      42.139  28.790  27.450  1.00  0.00    -0.206 F 
ATOM     77  C   UNL A   1      41.305  26.781  26.558  1.00  0.00     0.040 A 
ATOM     78  C   UNL A   1      39.667  25.508  27.785  1.00  0.00     0.040 A 
ATOM     79  F   UNL A   1      38.904  26.279  29.868  1.00  0.00    -0.206 F 
ATOM     80  C   UNL A   1      40.473  25.668  26.659  1.00  0.00     0.006 A 
ENDBRANCH  59  73
BRANCH  60  81
ATOM     81  C   UNL A   1      40.227  34.303  36.016  1.00  0.00     0.057 A 
ATOM     82  C   UNL A   1      39.500  34.019  37.175  1.00  0.00     0.134 A 
ATOM     83  C   UNL A   1      40.895  35.529  35.943  1.00  0.00     0.134 A 
ATOM     84  F   UNL A   1      38.831  32.863  37.287  1.00  0.00    -0.206 F 
ATOM     85  C   UNL A   1      39.437  34.929  38.232  1.00  0.00     0.040 A 
ATOM     86  C   UNL A   1      40.844  36.445  36.993  1.00  0.00     0.040 A 
ATOM     87  F   UNL A   1      41.601  35.850  34.849  1.00  0.00    -0.206 F 
ATOM     88  C   UNL A   1      40.113  36.145  38.142  1.00  0.00     0.006 A 
ENDBRANCH  60  81
BRANCH  72  89
ATOM     89  C   UNL A   1      44.361  28.902  34.677  1.00  0.00     0.057 A 
ATOM     90  C   UNL A   1      44.185  27.970  35.705  1.00  0.00     0.134 A 
ATOM     91  C   UNL A   1      45.670  29.266  34.340  1.00  0.00     0.134 A 
ATOM     92  F   UNL A   1      42.953  27.591  36.076  1.00  0.00    -0.206 F 
ATOM     93  C   UNL A   1      45.276  27.418  36.378  1.00  0.00     0.040 A 
ATOM     94  C   UNL A   1      46.767  28.722  35.004  1.00  0.00     0.040 A 
ATOM     95  F   UNL A   1      45.897  30.163  33.368  1.00  0.00    -0.206 F 
ATOM     96  C   UNL A   1      46.572  27.794  36.027  1.00  0.00     0.006 A 
ENDBRANCH  72  89
ENDBRANCH  46  47
ENDBRANCH  38  41
ENDBRANCH  36  37
ENDBRANCH  35  36
ENDBRANCH  34  35
ENDBRANCH  33  34
ENDBRANCH   1  33
TORSDOF 19
ENDMDL
MODEL 2
REMARK VINA RESULT:     -12.0      3.287      7.897
REMARK SMILES CCc1ccnc(C(=O)c2[nH]c3ccc(OC(F)(F)F)cc3c2CC(=O)NCCCCCCNC(=O)c2ccc(-c3c4nc(c(-c5c(F)cccc5F)c5ccc([nH]5)c(-c5c(F)cccc5F)c5nc(c(-c6c(F)cccc6F)c6ccc3[nH]6)C=C5)C=C4)cc2)c1
REMARK SMILES IDX 29 1 28 2 27 3 25 4 26 5 24 7 23 8 10 9 11 10 12 11 22 13
REMARK SMILES IDX 13 14 21 15 14 16 15 17 8 18 9 19 7 20 3 21 4 22 91 23 5 24
REMARK SMILES IDX 6 25 2 26 1 27 16 28 17 29 18 30 19 31 20 32 30 33 31 34
REMARK SMILES IDX 32 35 33 36 34 37 35 38 36 40 37 41 38 42 90 43 39 44 89 45
REMARK SMILES IDX 40 46 41 47 42 48 83 49 43 50 88 51 82 52 84 53 44 54 87 55
REMARK SMILES IDX 81 56 80 57 45 59 71 60 54 61 70 62 55 63 58 64 69 65 85 66
REMARK SMILES IDX 56 67 57 68 68 70 86 71 59 72 46 73 47 74 52 75 48 76 49 77
REMARK SMILES IDX 51 78 53 79 50 80 72 81 73 82 78 83 74 84 75 85 77 86 79 87
REMARK SMILES IDX 76 88 60 89 61 90 66 91 62 92 63 93 65 94 67 95 64 96
REMARK H PARENT 27 6 11 12 34 39 84 58 58 69
REMARK Flexibility Score: inf
ROOT
ATOM      1  C   UNL A   1      33.371  31.988  27.365  1.00  0.00     0.021 C 
ENDROOT
BRANCH   1   2
ATOM      2  C   UNL A   1      33.545  30.526  26.955  1.00  0.00     0.116 C 
BRANCH   2   3
ATOM      3  N   UNL A   1      32.684  29.628  27.695  1.00  0.00    -0.356 N 
ATOM      4  C   UNL A   1      32.162  28.423  27.322  1.00  0.00     0.224 C 
ATOM      5  O   UNL A   1      31.547  27.764  28.165  1.00  0.00    -0.275 OA
ATOM      6  H   UNL A   1      32.438  29.931  28.600  1.00  0.00     0.163 HD
BRANCH   4   7
ATOM      7  C   UNL A   1      32.431  27.854  25.939  1.00  0.00     0.138 C 
BRANCH   7   8
ATOM      8  C   UNL A   1      31.218  27.353  25.207  1.00  0.00    -0.002 A 
ATOM      9  C   UNL A   1      30.740  26.047  25.149  1.00  0.00     0.093 A 
ATOM     10  N   UNL A   1      29.574  26.066  24.421  1.00  0.00    -0.352 N 
ATOM     11  C   UNL A   1      29.341  27.316  23.907  1.00  0.00     0.046 A 
ATOM     12  H   UNL A   1      28.985  25.287  24.287  1.00  0.00     0.167 HD
ATOM     13  C   UNL A   1      30.355  28.146  24.375  1.00  0.00     0.008 A 
ATOM     14  C   UNL A   1      28.312  27.771  23.079  1.00  0.00     0.030 A 
ATOM     15  C   UNL A   1      30.336  29.502  23.985  1.00  0.00     0.057 A 
ATOM     16  C   UNL A   1      28.317  29.123  22.710  1.00  0.00     0.049 A 
ATOM     17  C   UNL A   1      29.315  29.987  23.153  1.00  0.00     0.130 A 
BRANCH   9  18
ATOM     18  C   UNL A   1      31.250  24.841  25.777  1.00  0.00     0.227 C 
ATOM     19  O   UNL A   1      31.050  24.620  26.966  1.00  0.00    -0.285 OA
BRANCH  18  20
ATOM     20  C   UNL A   1      31.971  23.833  24.909  1.00  0.00     0.113 A 
ATOM     21  C   UNL A   1      33.934  22.599  24.240  1.00  0.00    -0.044 A 
ATOM     22  C   UNL A   1      33.178  22.047  23.205  1.00  0.00     0.024 A 
ATOM     23  C   UNL A   1      33.309  23.494  25.118  1.00  0.00     0.036 A 
ATOM     24  C   UNL A   1      31.852  22.424  23.077  1.00  0.00     0.112 A 
ATOM     25  N   UNL A   1      31.241  23.309  23.890  1.00  0.00    -0.253 NA
BRANCH  21  26
ATOM     26  C   UNL A   1      35.391  22.249  24.403  1.00  0.00     0.032 C 
ATOM     27  C   UNL A   1      36.277  22.936  23.376  1.00  0.00     0.009 C 
ENDBRANCH  21  26
ENDBRANCH  18  20
ENDBRANCH   9  18
BRANCH  17  28
ATOM     28  O   UNL A   1      29.424  31.319  22.863  1.00  0.00    -0.406 OA
BRANCH  28  29
ATOM     29  C   UNL A   1      28.238  32.094  22.852  1.00  0.00     0.573 C 
ATOM     30  F   UNL A   1      27.644  32.059  21.640  1.00  0.00    -0.132 F 
ATOM     31  F   UNL A   1      27.370  31.666  23.794  1.00  0.00    -0.132 F 
ATOM     32  F   UNL A   1      28.558  33.378  23.126  1.00  0.00    -0.132 F 
ENDBRANCH  28  29
ENDBRANCH  17  28
ENDBRANCH   7   8
ENDBRANCH   4   7
ENDBRANCH   2   3
ENDBRANCH   1   2
BRANCH   1  33
ATOM     33  C   UNL A   1      34.588  32.620  28.052  1.00  0.00     0.002 C 
BRANCH  33  34
ATOM     34  C   UNL A   1      34.284  33.636  29.159  1.00  0.00     0.002 C 
BRANCH  34  35
ATOM     35  C   UNL A   1      33.081  34.556  28.921  1.00  0.00     0.021 C 
BRANCH  35  36
ATOM     36  C   UNL A   1      33.236  35.996  29.411  1.00  0.00     0.116 C 
BRANCH  36  37
ATOM     37  N   UNL A   1      32.431  36.279  30.585  1.00  0.00    -0.352 N 
ATOM     38  C   UNL A   1      32.604  35.861  31.882  1.00  0.00     0.251 C 
ATOM     39  H   UNL A   1      31.646  36.853  30.430  1.00  0.00     0.163 HD
ATOM     40  O   UNL A   1      31.746  36.101  32.724  1.00  0.00    -0.269 OA
BRANCH  38  41
ATOM     41  C   UNL A   1      33.812  35.098  32.276  1.00  0.00     0.039 A 
ATOM     42  C   UNL A   1      33.643  33.808  32.795  1.00  0.00     0.014 A 
ATOM     43  C   UNL A   1      35.091  35.658  32.202  1.00  0.00     0.014 A 
ATOM     44  C   UNL A   1      34.756  33.062  33.193  1.00  0.00     0.010 A 
ATOM     45  C   UNL A   1      36.204  34.906  32.585  1.00  0.00     0.010 A 
ATOM     46  C   UNL A   1      36.044  33.602  33.078  1.00  0.00    -0.014 A 
BRANCH  46  47
ATOM     47  C   UNL A   1      37.236  32.813  33.470  1.00  0.00     0.031 A 
ATOM     48  C   UNL A   1      37.925  33.072  34.776  1.00  0.00     0.074 A 
ATOM     49  C   UNL A   1      37.728  31.890  32.624  1.00  0.00     0.049 A 
ATOM     50  N   UNL A   1      39.041  32.565  35.234  1.00  0.00    -0.248 NA
ATOM     51  C   UNL A   1      37.281  34.036  35.681  1.00  0.00     0.031 C 
ATOM     52  C   UNL A   1      37.161  31.547  31.320  1.00  0.00     0.029 A 
ATOM     53  N   UNL A   1      38.829  31.078  32.738  1.00  0.00    -0.354 N 
ATOM     54  C   UNL A   1      39.253  33.170  36.464  1.00  0.00     0.074 A 
ATOM     55  C   UNL A   1      38.141  34.070  36.690  1.00  0.00     0.031 C 
ATOM     56  C   UNL A   1      37.921  30.595  30.751  1.00  0.00     0.029 A 
ATOM     57  C   UNL A   1      39.033  30.276  31.643  1.00  0.00     0.049 A 
ATOM     58  H   UNL A   1      39.416  31.073  33.528  1.00  0.00     0.167 HD
ATOM     59  C   UNL A   1      40.286  32.999  37.322  1.00  0.00     0.037 A 
ATOM     60  C   UNL A   1      40.012  29.393  31.383  1.00  0.00     0.037 A 
ATOM     61  C   UNL A   1      41.379  32.086  37.127  1.00  0.00     0.049 A 
ATOM     62  C   UNL A   1      41.113  29.178  32.378  1.00  0.00     0.074 A 
ATOM     63  C   UNL A   1      42.464  31.845  37.953  1.00  0.00     0.029 A 
ATOM     64  N   UNL A   1      41.518  31.251  36.030  1.00  0.00    -0.354 N 
ATOM     65  N   UNL A   1      41.311  29.773  33.527  1.00  0.00    -0.248 NA
ATOM     66  C   UNL A   1      42.128  28.170  32.034  1.00  0.00     0.031 C 
ATOM     67  C   UNL A   1      43.261  30.860  37.355  1.00  0.00     0.029 A 
ATOM     68  C   UNL A   1      42.667  30.489  36.160  1.00  0.00     0.049 A 
ATOM     69  H   UNL A   1      40.893  31.206  35.272  1.00  0.00     0.167 HD
ATOM     70  C   UNL A   1      42.473  29.218  34.044  1.00  0.00     0.074 A 
ATOM     71  C   UNL A   1      42.933  28.231  33.088  1.00  0.00     0.031 C 
ATOM     72  C   UNL A   1      43.106  29.510  35.205  1.00  0.00     0.037 A 
BRANCH  59  73
ATOM     73  C   UNL A   1      40.286  33.843  38.555  1.00  0.00     0.057 A 
ATOM     74  C   UNL A   1      39.586  33.458  39.702  1.00  0.00     0.134 A 
ATOM     75  C   UNL A   1      41.009  35.041  38.598  1.00  0.00     0.134 A 
ATOM     76  F   UNL A   1      38.866  32.326  39.712  1.00  0.00    -0.206 F 
ATOM     77  C   UNL A   1      39.601  34.243  40.856  1.00  0.00     0.040 A 
ATOM     78  C   UNL A   1      41.036  35.831  39.747  1.00  0.00     0.040 A 
ATOM     79  F   UNL A   1      41.693  35.462  37.523  1.00  0.00    -0.206 F 
ATOM     80  C   UNL A   1      40.330  35.431  40.881  1.00  0.00     0.006 A 
ENDBRANCH  59  73
BRANCH  60  81
ATOM     81  C   UNL A   1      40.001  28.646  30.109  1.00  0.00     0.057 A 
ATOM     82  C   UNL A   1      39.294  27.447  29.985  1.00  0.00     0.134 A 
ATOM     83  C   UNL A   1      40.691  29.120  28.989  1.00  0.00     0.134 A 
ATOM     84  F   UNL A   1      38.629  26.944  31.036  1.00  0.00    -0.206 F 
ATOM     85  C   UNL A   1      39.275  26.737  28.784  1.00  0.00     0.040 A 
ATOM     86  C   UNL A   1      40.676  28.423  27.780  1.00  0.00     0.040 A 
ATOM     87  F   UNL A   1      41.388  30.263  29.058  1.00  0.00    -0.206 F 
ATOM     88  C   UNL A   1      39.966  27.227  27.677  1.00  0.00     0.006 A 
ENDBRANCH  60  81
BRANCH  72  89
ATOM     89  C   UNL A   1      44.359  28.750  35.498  1.00  0.00     0.057 A 
ATOM     90  C   UNL A   1      44.324  27.553  36.221  1.00  0.00     0.134 A 
ATOM     91  C   UNL A   1      45.601  29.205  35.042  1.00  0.00     0.134 A 
ATOM     92  F   UNL A   1      43.162  27.076  36.691  1.00  0.00    -0.206 F 
ATOM     93  C   UNL A   1      45.489  26.832  36.485  1.00  0.00     0.040 A 
ATOM     94  C   UNL A   1      46.772  28.492  35.298  1.00  0.00     0.040 A 
ATOM     95  F   UNL A   1      45.694  30.351  34.352  1.00  0.00    -0.206 F 
ATOM     96  C   UNL A   1      46.717  27.300  36.021  1.00  0.00     0.006 A 
ENDBRANCH  72  89
ENDBRANCH  46  47
ENDBRANCH  38  41
ENDBRANCH  36  37
ENDBRANCH  35  36
ENDBRANCH  34  35
ENDBRANCH  33  34
ENDBRANCH   1  33
TORSDOF 19
ENDMDL
MODEL 3
REMARK VINA RESULT:     -11.5      3.257      5.724
REMARK SMILES CCc1ccnc(C(=O)c2[nH]c3ccc(OC(F)(F)F)cc3c2CC(=O)NCCCCCCNC(=O)c2ccc(-c3c4nc(c(-c5c(F)cccc5F)c5ccc([nH]5)c(-c5c(F)cccc5F)c5nc(c(-c6c(F)cccc6F)c6ccc3[nH]6)C=C5)C=C4)cc2)c1
REMARK SMILES IDX 29 1 28 2 27 3 25 4 26 5 24 7 23 8 10 9 11 10 12 11 22 13
REMARK SMILES IDX 13 14 21 15 14 16 15 17 8 18 9 19 7 20 3 21 4 22 91 23 5 24
REMARK SMILES IDX 6 25 2 26 1 27 16 28 17 29 18 30 19 31 20 32 30 33 31 34
REMARK SMILES IDX 32 35 33 36 34 37 35 38 36 40 37 41 38 42 90 43 39 44 89 45
REMARK SMILES IDX 40 46 41 47 42 48 83 49 43 50 88 51 82 52 84 53 44 54 87 55
REMARK SMILES IDX 81 56 80 57 45 59 71 60 54 61 70 62 55 63 58 64 69 65 85 66
REMARK SMILES IDX 56 67 57 68 68 70 86 71 59 72 46 73 47 74 52 75 48 76 49 77
REMARK SMILES IDX 51 78 53 79 50 80 72 81 73 82 78 83 74 84 75 85 77 86 79 87
REMARK SMILES IDX 76 88 60 89 61 90 66 91 62 92 63 93 65 94 67 95 64 96
REMARK H PARENT 27 6 11 12 34 39 84 58 58 69
REMARK Flexibility Score: inf
ROOT
ATOM      1  C   UNL A   1      35.419  31.314  27.936  1.00  0.00     0.021 C 
ENDROOT
BRANCH   1   2
ATOM      2  C   UNL A   1      34.196  30.517  27.485  1.00  0.00     0.116 C 
BRANCH   2   3
ATOM      3  N   UNL A   1      34.453  29.706  26.314  1.00  0.00    -0.356 N 
ATOM      4  C   UNL A   1      33.716  28.683  25.788  1.00  0.00     0.224 C 
ATOM      5  O   UNL A   1      34.064  28.208  24.705  1.00  0.00    -0.275 OA
ATOM      6  H   UNL A   1      35.281  29.922  25.825  1.00  0.00     0.163 HD
BRANCH   4   7
ATOM      7  C   UNL A   1      32.435  28.222  26.463  1.00  0.00     0.138 C 
BRANCH   7   8
ATOM      8  C   UNL A   1      31.424  27.590  25.548  1.00  0.00    -0.002 A 
ATOM      9  C   UNL A   1      31.140  26.236  25.402  1.00  0.00     0.093 A 
ATOM     10  N   UNL A   1      30.103  26.126  24.505  1.00  0.00    -0.352 N 
ATOM     11  C   UNL A   1      29.785  27.351  23.976  1.00  0.00     0.046 A 
ATOM     12  H   UNL A   1      29.652  25.281  24.273  1.00  0.00     0.167 HD
ATOM     13  C   UNL A   1      30.597  28.291  24.604  1.00  0.00     0.008 A 
ATOM     14  C   UNL A   1      28.839  27.694  23.006  1.00  0.00     0.030 A 
ATOM     15  C   UNL A   1      30.454  29.644  24.233  1.00  0.00     0.057 A 
ATOM     16  C   UNL A   1      28.718  29.046  22.659  1.00  0.00     0.049 A 
ATOM     17  C   UNL A   1      29.513  30.019  23.261  1.00  0.00     0.130 A 
BRANCH   9  18
ATOM     18  C   UNL A   1      31.708  25.088  26.085  1.00  0.00     0.227 C 
ATOM     19  O   UNL A   1      31.391  24.825  27.240  1.00  0.00    -0.285 OA
BRANCH  18  20
ATOM     20  C   UNL A   1      32.641  24.184  25.310  1.00  0.00     0.113 A 
ATOM     21  C   UNL A   1      33.785  22.090  24.949  1.00  0.00    -0.044 A 
ATOM     22  C   UNL A   1      34.427  22.680  23.860  1.00  0.00     0.024 A 
ATOM     23  C   UNL A   1      32.861  22.854  25.674  1.00  0.00     0.036 A 
ATOM     24  C   UNL A   1      34.141  24.001  23.556  1.00  0.00     0.112 A 
ATOM     25  N   UNL A   1      33.280  24.763  24.260  1.00  0.00    -0.253 NA
BRANCH  21  26
ATOM     26  C   UNL A   1      34.087  20.667  25.344  1.00  0.00     0.032 C 
ATOM     27  C   UNL A   1      32.884  19.749  25.194  1.00  0.00     0.009 C 
ENDBRANCH  21  26
ENDBRANCH  18  20
ENDBRANCH   9  18
BRANCH  17  28
ATOM     28  O   UNL A   1      29.484  31.362  23.007  1.00  0.00    -0.406 OA
BRANCH  28  29
ATOM     29  C   UNL A   1      28.222  32.006  22.991  1.00  0.00     0.573 C 
ATOM     30  F   UNL A   1      27.405  31.502  23.940  1.00  0.00    -0.132 F 
ATOM     31  F   UNL A   1      28.354  33.339  23.169  1.00  0.00    -0.132 F 
ATOM     32  F   UNL A   1      27.647  31.798  21.786  1.00  0.00    -0.132 F 
ENDBRANCH  28  29
ENDBRANCH  17  28
ENDBRANCH   7   8
ENDBRANCH   4   7
ENDBRANCH   2   3
ENDBRANCH   1   2
BRANCH   1  33
ATOM     33  C   UNL A   1      35.215  32.831  28.015  1.00  0.00     0.002 C 
BRANCH  33  34
ATOM     34  C   UNL A   1      34.257  33.326  29.105  1.00  0.00     0.002 C 
BRANCH  34  35
ATOM     35  C   UNL A   1      33.240  34.391  28.679  1.00  0.00     0.021 C 
BRANCH  35  36
ATOM     36  C   UNL A   1      33.383  35.757  29.353  1.00  0.00     0.116 C 
BRANCH  36  37
ATOM     37  N   UNL A   1      32.529  35.900  30.517  1.00  0.00    -0.352 N 
ATOM     38  C   UNL A   1      32.726  35.459  31.802  1.00  0.00     0.251 C 
ATOM     39  H   UNL A   1      31.684  36.383  30.363  1.00  0.00     0.163 HD
ATOM     40  O   UNL A   1      31.830  35.567  32.632  1.00  0.00    -0.269 OA
BRANCH  38  41
ATOM     41  C   UNL A   1      34.008  34.830  32.198  1.00  0.00     0.039 A 
ATOM     42  C   UNL A   1      33.976  33.535  32.730  1.00  0.00     0.014 A 
ATOM     43  C   UNL A   1      35.221  35.520  32.113  1.00  0.00     0.014 A 
ATOM     44  C   UNL A   1      35.161  32.913  33.130  1.00  0.00     0.010 A 
ATOM     45  C   UNL A   1      36.408  34.891  32.498  1.00  0.00     0.010 A 
ATOM     46  C   UNL A   1      36.386  33.582  33.004  1.00  0.00    -0.014 A 
BRANCH  46  47
ATOM     47  C   UNL A   1      37.655  32.926  33.398  1.00  0.00     0.031 A 
ATOM     48  C   UNL A   1      38.289  31.900  32.507  1.00  0.00     0.074 A 
ATOM     49  C   UNL A   1      38.216  33.222  34.584  1.00  0.00     0.049 A 
ATOM     50  N   UNL A   1      39.331  31.141  32.735  1.00  0.00    -0.248 NA
ATOM     51  C   UNL A   1      37.664  31.692  31.192  1.00  0.00     0.031 C 
ATOM     52  C   UNL A   1      37.697  34.192  35.548  1.00  0.00     0.029 A 
ATOM     53  N   UNL A   1      39.345  32.723  35.183  1.00  0.00    -0.354 N 
ATOM     54  C   UNL A   1      39.469  30.341  31.611  1.00  0.00     0.074 A 
ATOM     55  C   UNL A   1      38.414  30.718  30.692  1.00  0.00     0.031 C 
ATOM     56  C   UNL A   1      38.506  34.215  36.621  1.00  0.00     0.029 A 
ATOM     57  C   UNL A   1      39.587  33.252  36.425  1.00  0.00     0.049 A 
ATOM     58  H   UNL A   1      39.925  32.047  34.761  1.00  0.00     0.167 HD
ATOM     59  C   UNL A   1      40.384  29.373  31.370  1.00  0.00     0.037 A 
ATOM     60  C   UNL A   1      40.562  32.983  37.310  1.00  0.00     0.037 A 
ATOM     61  C   UNL A   1      41.455  29.011  32.257  1.00  0.00     0.049 A 
ATOM     62  C   UNL A   1      41.600  31.948  36.993  1.00  0.00     0.074 A 
ATOM     63  C   UNL A   1      42.433  28.045  32.085  1.00  0.00     0.029 A 
ATOM     64  N   UNL A   1      41.698  29.611  33.481  1.00  0.00    -0.354 N 
ATOM     65  N   UNL A   1      41.704  31.185  35.934  1.00  0.00    -0.248 NA
ATOM     66  C   UNL A   1      42.652  31.736  37.999  1.00  0.00     0.031 C 
ATOM     67  C   UNL A   1      43.270  28.063  33.208  1.00  0.00     0.029 A 
ATOM     68  C   UNL A   1      42.813  29.042  34.074  1.00  0.00     0.049 A 
ATOM     69  H   UNL A   1      41.158  30.336  33.872  1.00  0.00     0.167 HD
ATOM     70  C   UNL A   1      42.827  30.399  36.145  1.00  0.00     0.074 A 
ATOM     71  C   UNL A   1      43.378  30.783  37.429  1.00  0.00     0.031 C 
ATOM     72  C   UNL A   1      43.349  29.438  35.347  1.00  0.00     0.037 A 
BRANCH  59  73
ATOM     73  C   UNL A   1      40.248  28.620  30.086  1.00  0.00     0.057 A 
ATOM     74  C   UNL A   1      39.418  27.501  29.982  1.00  0.00     0.134 A 
ATOM     75  C   UNL A   1      40.938  29.034  28.941  1.00  0.00     0.134 A 
ATOM     76  F   UNL A   1      38.742  27.053  31.051  1.00  0.00    -0.206 F 
ATOM     77  C   UNL A   1      39.282  26.810  28.776  1.00  0.00     0.040 A 
ATOM     78  C   UNL A   1      40.808  28.355  27.730  1.00  0.00     0.040 A 
ATOM     79  F   UNL A   1      41.755  30.098  28.987  1.00  0.00    -0.206 F 
ATOM     80  C   UNL A   1      39.976  27.239  27.647  1.00  0.00     0.006 A 
ENDBRANCH  59  73
BRANCH  60  81
ATOM     81  C   UNL A   1      40.596  33.705  38.598  1.00  0.00     0.057 A 
ATOM     82  C   UNL A   1      41.469  34.777  38.798  1.00  0.00     0.134 A 
ATOM     83  C   UNL A   1      39.753  33.340  39.652  1.00  0.00     0.134 A 
ATOM     84  F   UNL A   1      42.308  35.155  37.822  1.00  0.00    -0.206 F 
ATOM     85  C   UNL A   1      41.506  35.467  40.010  1.00  0.00     0.040 A 
ATOM     86  C   UNL A   1      39.775  34.024  40.868  1.00  0.00     0.040 A 
ATOM     87  F   UNL A   1      38.900  32.314  39.513  1.00  0.00    -0.206 F 
ATOM     88  C   UNL A   1      40.655  35.091  41.048  1.00  0.00     0.006 A 
ENDBRANCH  60  81
BRANCH  72  89
ATOM     89  C   UNL A   1      44.575  28.742  35.842  1.00  0.00     0.057 A 
ATOM     90  C   UNL A   1      45.852  29.215  35.523  1.00  0.00     0.134 A 
ATOM     91  C   UNL A   1      44.479  27.608  36.656  1.00  0.00     0.134 A 
ATOM     92  F   UNL A   1      46.002  30.292  34.739  1.00  0.00    -0.206 F 
ATOM     93  C   UNL A   1      47.000  28.577  35.997  1.00  0.00     0.040 A 
ATOM     94  C   UNL A   1      45.618  26.964  37.137  1.00  0.00     0.040 A 
ATOM     95  F   UNL A   1      43.279  27.106  36.986  1.00  0.00    -0.206 F 
ATOM     96  C   UNL A   1      46.884  27.449  36.807  1.00  0.00     0.006 A 
ENDBRANCH  72  89
ENDBRANCH  46  47
ENDBRANCH  38  41
ENDBRANCH  36  37
ENDBRANCH  35  36
ENDBRANCH  34  35
ENDBRANCH  33  34
ENDBRANCH   1  33
TORSDOF 19
ENDMDL
