MODEL 1
REMARK VINA RESULT:      -9.5      0.000      0.000
REMARK SMILES Cc1cc([N+](=O)[O-])c(-c2ccc(C(=O)NCCCCCCNC(=O)c3ccc(-c4c5nc(c(-c6c(F)cccc6F)c6ccc([nH]6)c(-c6c(F)cccc6F)c6nc(c(-c7c(F)cccc7F)c7ccc4[nH]7)C=C6)C=C5)cc3)o2)cc1Cl
REMARK SMILES IDX 18 1 17 2 16 3 15 4 13 5 14 6 12 8 9 9 10 10 79 11 11 12
REMARK SMILES IDX 8 13 1 14 2 15 3 16 81 17 4 18 80 19 82 20 5 21 6 22 7 23
REMARK SMILES IDX 19 24 20 25 21 26 22 27 23 28 24 30 25 31 26 32 78 33 27 34
REMARK SMILES IDX 77 35 28 36 29 37 30 38 71 39 31 40 76 41 70 42 72 43 32 44
REMARK SMILES IDX 75 45 69 46 68 47 33 49 59 50 42 51 58 52 43 53 46 54 57 55
REMARK SMILES IDX 73 56 44 57 45 58 56 60 74 61 47 62 34 63 35 64 40 65 36 66
REMARK SMILES IDX 37 67 39 68 41 69 38 70 60 71 61 72 66 73 62 74 63 75 65 76
REMARK SMILES IDX 67 77 64 78 48 79 49 80 54 81 50 82 51 83 53 84 55 85 52 86
REMARK H PARENT 15 7 22 29 72 48 46 59
REMARK Flexibility Score: inf
ROOT
ATOM      1  C   UNL A   1      35.744  34.697  33.434  1.00  0.00     0.002 C 
ENDROOT
BRANCH   1   2
ATOM      2  C   UNL A   1      35.957  33.705  34.587  1.00  0.00     0.021 C 
BRANCH   2   3
ATOM      3  C   UNL A   1      37.357  33.777  35.199  1.00  0.00     0.116 C 
BRANCH   3   4
ATOM      4  N   UNL A   1      37.403  33.074  36.462  1.00  0.00    -0.349 N 
ATOM      5  C   UNL A   1      38.160  32.002  36.880  1.00  0.00     0.287 C 
ATOM      6  O   UNL A   1      38.014  31.673  38.059  1.00  0.00    -0.266 OA
ATOM      7  H   UNL A   1      36.784  33.422  37.144  1.00  0.00     0.163 HD
BRANCH   5   8
ATOM      8  C   UNL A   1      39.079  31.328  35.982  1.00  0.00     0.192 A 
ATOM      9  C   UNL A   1      41.007  30.343  35.531  1.00  0.00     0.142 A 
ATOM     10  C   UNL A   1      40.308  30.367  34.348  1.00  0.00     0.052 A 
ATOM     11  O   UNL A   1      40.271  30.899  36.526  1.00  0.00    -0.451 OA
ATOM     12  C   UNL A   1      39.056  30.955  34.647  1.00  0.00     0.057 A 
BRANCH   9  13
ATOM     13  C   UNL A   1      42.297  29.805  35.913  1.00  0.00     0.096 A 
ATOM     14  C   UNL A   1      46.052  28.545  37.686  1.00  0.00     0.046 C 
ATOM     15  C   UNL A   1      44.780  28.983  37.013  1.00  0.00    -0.026 A 
ATOM     16  C   UNL A   1      43.736  28.061  36.838  1.00  0.00     0.091 A 
ATOM     17  C   UNL A   1      44.591  30.304  36.578  1.00  0.00     0.045 A 
ATOM     18  C   UNL A   1      42.509  28.471  36.287  1.00  0.00     0.280 A 
ATOM     19  C   UNL A   1      43.368  30.706  36.032  1.00  0.00     0.040 A 
ATOM     20  Cl  UNL A   1      45.831  31.494  36.740  1.00  0.00    -0.084 Cl
BRANCH  18  21
ATOM     21  N   UNL A   1      41.462  27.462  36.139  1.00  0.00     0.063 N 
ATOM     22  O   UNL A   1      41.249  26.997  35.012  1.00  0.00    -0.258 OA
ATOM     23  O   UNL A   1      40.873  27.111  37.172  1.00  0.00    -0.258 OA
ENDBRANCH  18  21
ENDBRANCH   9  13
ENDBRANCH   5   8
ENDBRANCH   3   4
ENDBRANCH   2   3
ENDBRANCH   1   2
BRANCH   1  24
ATOM     24  C   UNL A   1      34.581  35.680  33.627  1.00  0.00     0.002 C 
BRANCH  24  25
ATOM     25  C   UNL A   1      33.428  35.527  32.631  1.00  0.00     0.021 C 
BRANCH  25  26
ATOM     26  C   UNL A   1      33.619  36.288  31.322  1.00  0.00     0.116 C 
BRANCH  26  27
ATOM     27  N   UNL A   1      32.828  35.716  30.242  1.00  0.00    -0.352 N 
ATOM     28  C   UNL A   1      33.176  34.759  29.320  1.00  0.00     0.251 C 
ATOM     29  H   UNL A   1      31.910  36.065  30.160  1.00  0.00     0.163 HD
ATOM     30  O   UNL A   1      32.462  34.547  28.346  1.00  0.00    -0.269 OA
BRANCH  28  31
ATOM     31  C   UNL A   1      34.429  33.998  29.497  1.00  0.00     0.039 A 
ATOM     32  C   UNL A   1      35.556  34.362  28.755  1.00  0.00     0.014 A 
ATOM     33  C   UNL A   1      34.491  32.930  30.397  1.00  0.00     0.014 A 
ATOM     34  C   UNL A   1      36.769  33.707  28.976  1.00  0.00     0.010 A 
ATOM     35  C   UNL A   1      35.714  32.320  30.661  1.00  0.00     0.010 A 
ATOM     36  C   UNL A   1      36.867  32.711  29.962  1.00  0.00    -0.014 A 
BRANCH  36  37
ATOM     37  C   UNL A   1      38.168  32.081  30.303  1.00  0.00     0.031 A 
ATOM     38  C   UNL A   1      39.155  32.811  31.169  1.00  0.00     0.074 A 
ATOM     39  C   UNL A   1      38.489  30.888  29.765  1.00  0.00     0.049 A 
ATOM     40  N   UNL A   1      40.386  32.486  31.471  1.00  0.00    -0.248 NA
ATOM     41  C   UNL A   1      38.705  34.082  31.760  1.00  0.00     0.031 C 
ATOM     42  C   UNL A   1      37.625  30.093  28.889  1.00  0.00     0.029 A 
ATOM     43  N   UNL A   1      39.637  30.142  29.863  1.00  0.00    -0.354 N 
ATOM     44  C   UNL A   1      40.857  33.509  32.283  1.00  0.00     0.074 A 
ATOM     45  C   UNL A   1      39.800  34.493  32.385  1.00  0.00     0.031 C 
ATOM     46  C   UNL A   1      38.269  28.967  28.540  1.00  0.00     0.029 A 
ATOM     47  C   UNL A   1      39.605  28.983  29.126  1.00  0.00     0.049 A 
ATOM     48  H   UNL A   1      40.411  30.413  30.408  1.00  0.00     0.167 HD
ATOM     49  C   UNL A   1      42.054  33.608  32.909  1.00  0.00     0.037 A 
ATOM     50  C   UNL A   1      40.556  28.049  28.926  1.00  0.00     0.037 A 
ATOM     51  C   UNL A   1      43.101  32.624  32.816  1.00  0.00     0.049 A 
ATOM     52  C   UNL A   1      41.900  28.220  29.580  1.00  0.00     0.074 A 
ATOM     53  C   UNL A   1      44.339  32.621  33.436  1.00  0.00     0.029 A 
ATOM     54  N   UNL A   1      43.032  31.468  32.054  1.00  0.00    -0.354 N 
ATOM     55  N   UNL A   1      42.315  29.169  30.383  1.00  0.00    -0.248 NA
ATOM     56  C   UNL A   1      42.912  27.192  29.293  1.00  0.00     0.031 C 
ATOM     57  C   UNL A   1      45.034  31.483  33.020  1.00  0.00     0.029 A 
ATOM     58  C   UNL A   1      44.214  30.755  32.172  1.00  0.00     0.049 A 
ATOM     59  H   UNL A   1      42.257  31.194  31.511  1.00  0.00     0.167 HD
ATOM     60  C   UNL A   1      43.621  28.839  30.718  1.00  0.00     0.074 A 
ATOM     61  C   UNL A   1      43.926  27.594  30.045  1.00  0.00     0.031 C 
ATOM     62  C   UNL A   1      44.493  29.510  31.508  1.00  0.00     0.037 A 
BRANCH  49  63
ATOM     63  C   UNL A   1      42.294  34.814  33.767  1.00  0.00     0.057 A 
ATOM     64  C   UNL A   1      41.996  34.809  35.135  1.00  0.00     0.134 A 
ATOM     65  C   UNL A   1      42.887  35.968  33.238  1.00  0.00     0.134 A 
ATOM     66  F   UNL A   1      41.419  33.737  35.700  1.00  0.00    -0.206 F 
ATOM     67  C   UNL A   1      42.265  35.913  35.946  1.00  0.00     0.040 A 
ATOM     68  C   UNL A   1      43.182  37.070  34.044  1.00  0.00     0.040 A 
ATOM     69  F   UNL A   1      43.203  36.037  31.937  1.00  0.00    -0.206 F 
ATOM     70  C   UNL A   1      42.869  37.045  35.401  1.00  0.00     0.006 A 
ENDBRANCH  49  63
BRANCH  50  71
ATOM     71  C   UNL A   1      40.286  26.870  28.063  1.00  0.00     0.057 A 
ATOM     72  C   UNL A   1      39.515  25.798  28.530  1.00  0.00     0.134 A 
ATOM     73  C   UNL A   1      40.826  26.762  26.777  1.00  0.00     0.134 A 
ATOM     74  F   UNL A   1      38.988  25.832  29.763  1.00  0.00    -0.206 F 
ATOM     75  C   UNL A   1      39.317  24.649  27.761  1.00  0.00     0.040 A 
ATOM     76  C   UNL A   1      40.613  25.632  25.986  1.00  0.00     0.040 A 
ATOM     77  F   UNL A   1      41.570  27.756  26.269  1.00  0.00    -0.206 F 
ATOM     78  C   UNL A   1      39.866  24.566  26.483  1.00  0.00     0.006 A 
ENDBRANCH  50  71
BRANCH  62  79
ATOM     79  C   UNL A   1      45.846  28.896  31.716  1.00  0.00     0.057 A 
ATOM     80  C   UNL A   1      46.109  28.041  32.793  1.00  0.00     0.134 A 
ATOM     81  C   UNL A   1      46.880  29.118  30.796  1.00  0.00     0.134 A 
ATOM     82  F   UNL A   1      45.165  27.800  33.715  1.00  0.00    -0.206 F 
ATOM     83  C   UNL A   1      47.358  27.441  32.958  1.00  0.00     0.040 A 
ATOM     84  C   UNL A   1      48.124  28.504  30.936  1.00  0.00     0.040 A 
ATOM     85  F   UNL A   1      46.689  29.921  29.737  1.00  0.00    -0.206 F 
ATOM     86  C   UNL A   1      48.366  27.665  32.022  1.00  0.00     0.006 A 
ENDBRANCH  62  79
ENDBRANCH  36  37
ENDBRANCH  28  31
ENDBRANCH  26  27
ENDBRANCH  25  26
ENDBRANCH  24  25
ENDBRANCH   1  24
TORSDOF 15
ENDMDL
MODEL 2
REMARK VINA RESULT:      -9.4      5.382     10.628
REMARK SMILES Cc1cc([N+](=O)[O-])c(-c2ccc(C(=O)NCCCCCCNC(=O)c3ccc(-c4c5nc(c(-c6c(F)cccc6F)c6ccc([nH]6)c(-c6c(F)cccc6F)c6nc(c(-c7c(F)cccc7F)c7ccc4[nH]7)C=C6)C=C5)cc3)o2)cc1Cl
REMARK SMILES IDX 18 1 17 2 16 3 15 4 13 5 14 6 12 8 9 9 10 10 79 11 11 12
REMARK SMILES IDX 8 13 1 14 2 15 3 16 81 17 4 18 80 19 82 20 5 21 6 22 7 23
REMARK SMILES IDX 19 24 20 25 21 26 22 27 23 28 24 30 25 31 26 32 78 33 27 34
REMARK SMILES IDX 77 35 28 36 29 37 30 38 71 39 31 40 76 41 70 42 72 43 32 44
REMARK SMILES IDX 75 45 69 46 68 47 33 49 59 50 42 51 58 52 43 53 46 54 57 55
REMARK SMILES IDX 73 56 44 57 45 58 56 60 74 61 47 62 34 63 35 64 40 65 36 66
REMARK SMILES IDX 37 67 39 68 41 69 38 70 60 71 61 72 66 73 62 74 63 75 65 76
REMARK SMILES IDX 67 77 64 78 48 79 49 80 54 81 50 82 51 83 53 84 55 85 52 86
REMARK H PARENT 15 7 22 29 72 48 46 59
REMARK Flexibility Score: inf
ROOT
ATOM      1  C   UNL A   1      32.764  29.971  27.238  1.00  0.00     0.002 C 
ENDROOT
BRANCH   1   2
ATOM      2  C   UNL A   1      32.796  28.436  27.201  1.00  0.00     0.021 C 
BRANCH   2   3
ATOM      3  C   UNL A   1      33.847  27.873  26.244  1.00  0.00     0.116 C 
BRANCH   3   4
ATOM      4  N   UNL A   1      33.700  28.446  24.923  1.00  0.00    -0.349 N 
ATOM      5  C   UNL A   1      32.760  28.233  23.939  1.00  0.00     0.287 C 
ATOM      6  O   UNL A   1      32.871  28.938  22.933  1.00  0.00    -0.266 OA
ATOM      7  H   UNL A   1      34.393  29.103  24.685  1.00  0.00     0.163 HD
BRANCH   5   8
ATOM      8  C   UNL A   1      31.703  27.251  24.100  1.00  0.00     0.192 A 
ATOM      9  C   UNL A   1      30.971  25.171  24.259  1.00  0.00     0.142 A 
ATOM     10  C   UNL A   1      29.853  25.970  24.304  1.00  0.00     0.052 A 
ATOM     11  O   UNL A   1      32.091  25.930  24.158  1.00  0.00    -0.451 OA
ATOM     12  C   UNL A   1      30.326  27.304  24.250  1.00  0.00     0.057 A 
BRANCH   9  13
ATOM     13  C   UNL A   1      31.174  23.740  24.358  1.00  0.00     0.096 A 
ATOM     14  C   UNL A   1      32.477  19.603  24.488  1.00  0.00     0.046 C 
ATOM     15  C   UNL A   1      31.968  21.016  24.420  1.00  0.00    -0.026 A 
ATOM     16  C   UNL A   1      31.641  21.692  25.606  1.00  0.00     0.091 A 
ATOM     17  C   UNL A   1      31.836  21.697  23.200  1.00  0.00     0.045 A 
ATOM     18  C   UNL A   1      31.242  23.040  25.570  1.00  0.00     0.280 A 
ATOM     19  C   UNL A   1      31.441  23.038  23.171  1.00  0.00     0.040 A 
ATOM     20  Cl  UNL A   1      32.200  20.931  21.696  1.00  0.00    -0.084 Cl
BRANCH  18  21
ATOM     21  N   UNL A   1      30.924  23.687  26.842  1.00  0.00     0.063 N 
ATOM     22  O   UNL A   1      29.855  23.401  27.395  1.00  0.00    -0.258 OA
ATOM     23  O   UNL A   1      31.773  24.463  27.304  1.00  0.00    -0.258 OA
ENDBRANCH  18  21
ENDBRANCH   9  13
ENDBRANCH   5   8
ENDBRANCH   3   4
ENDBRANCH   2   3
ENDBRANCH   1   2
BRANCH   1  24
ATOM     24  C   UNL A   1      31.609  30.617  26.460  1.00  0.00     0.002 C 
BRANCH  24  25
ATOM     25  C   UNL A   1      31.468  32.131  26.642  1.00  0.00     0.021 C 
BRANCH  25  26
ATOM     26  C   UNL A   1      32.627  32.788  27.387  1.00  0.00     0.116 C 
BRANCH  26  27
ATOM     27  N   UNL A   1      32.370  34.196  27.654  1.00  0.00    -0.352 N 
ATOM     28  C   UNL A   1      32.949  35.025  28.584  1.00  0.00     0.251 C 
ATOM     29  H   UNL A   1      31.681  34.615  27.088  1.00  0.00     0.163 HD
ATOM     30  O   UNL A   1      32.466  36.127  28.821  1.00  0.00    -0.269 OA
BRANCH  28  31
ATOM     31  C   UNL A   1      34.152  34.575  29.314  1.00  0.00     0.039 A 
ATOM     32  C   UNL A   1      34.012  34.080  30.613  1.00  0.00     0.014 A 
ATOM     33  C   UNL A   1      35.412  34.638  28.714  1.00  0.00     0.014 A 
ATOM     34  C   UNL A   1      35.127  33.571  31.282  1.00  0.00     0.010 A 
ATOM     35  C   UNL A   1      36.511  34.074  29.356  1.00  0.00     0.010 A 
ATOM     36  C   UNL A   1      36.377  33.525  30.641  1.00  0.00    -0.014 A 
BRANCH  36  37
ATOM     37  C   UNL A   1      37.553  32.881  31.279  1.00  0.00     0.031 A 
ATOM     38  C   UNL A   1      38.178  31.665  30.656  1.00  0.00     0.074 A 
ATOM     39  C   UNL A   1      38.004  33.346  32.461  1.00  0.00     0.049 A 
ATOM     40  N   UNL A   1      39.123  30.890  31.125  1.00  0.00    -0.248 NA
ATOM     41  C   UNL A   1      37.662  31.255  29.340  1.00  0.00     0.031 C 
ATOM     42  C   UNL A   1      37.464  34.503  33.179  1.00  0.00     0.029 A 
ATOM     43  N   UNL A   1      39.010  32.891  33.277  1.00  0.00    -0.354 N 
ATOM     44  C   UNL A   1      39.313  29.905  30.166  1.00  0.00     0.074 A 
ATOM     45  C   UNL A   1      38.350  30.145  29.112  1.00  0.00     0.031 C 
ATOM     46  C   UNL A   1      38.152  34.674  34.320  1.00  0.00     0.029 A 
ATOM     47  C   UNL A   1      39.146  33.613  34.438  1.00  0.00     0.049 A 
ATOM     48  H   UNL A   1      39.579  32.119  33.051  1.00  0.00     0.167 HD
ATOM     49  C   UNL A   1      40.225  28.904  30.153  1.00  0.00     0.037 A 
ATOM     50  C   UNL A   1      39.965  33.424  35.492  1.00  0.00     0.037 A 
ATOM     51  C   UNL A   1      41.189  28.671  31.196  1.00  0.00     0.049 A 
ATOM     52  C   UNL A   1      40.921  32.263  35.479  1.00  0.00     0.074 A 
ATOM     53  C   UNL A   1      42.173  27.700  31.260  1.00  0.00     0.029 A 
ATOM     54  N   UNL A   1      41.290  29.420  32.359  1.00  0.00    -0.354 N 
ATOM     55  N   UNL A   1      41.121  31.367  34.544  1.00  0.00    -0.248 NA
ATOM     56  C   UNL A   1      41.760  32.083  36.673  1.00  0.00     0.031 C 
ATOM     57  C   UNL A   1      42.844  27.837  32.478  1.00  0.00     0.029 A 
ATOM     58  C   UNL A   1      42.306  28.919  33.156  1.00  0.00     0.049 A 
ATOM     59  H   UNL A   1      40.724  30.194  32.584  1.00  0.00     0.167 HD
ATOM     60  C   UNL A   1      42.126  30.536  35.023  1.00  0.00     0.074 A 
ATOM     61  C   UNL A   1      42.505  31.044  36.325  1.00  0.00     0.031 C 
ATOM     62  C   UNL A   1      42.681  29.447  34.440  1.00  0.00     0.037 A 
BRANCH  49  63
ATOM     63  C   UNL A   1      40.239  27.990  28.964  1.00  0.00     0.057 A 
ATOM     64  C   UNL A   1      40.992  28.289  27.821  1.00  0.00     0.134 A 
ATOM     65  C   UNL A   1      39.548  26.772  28.983  1.00  0.00     0.134 A 
ATOM     66  F   UNL A   1      41.669  29.445  27.737  1.00  0.00    -0.206 F 
ATOM     67  C   UNL A   1      41.046  27.417  26.733  1.00  0.00     0.040 A 
ATOM     68  C   UNL A   1      39.614  25.880  27.910  1.00  0.00     0.040 A 
ATOM     69  F   UNL A   1      38.813  26.421  30.048  1.00  0.00    -0.206 F 
ATOM     70  C   UNL A   1      40.363  26.203  26.780  1.00  0.00     0.006 A 
ENDBRANCH  49  63
BRANCH  50  71
ATOM     71  C   UNL A   1      39.918  34.345  36.657  1.00  0.00     0.057 A 
ATOM     72  C   UNL A   1      39.140  34.044  37.782  1.00  0.00     0.134 A 
ATOM     73  C   UNL A   1      40.605  35.564  36.658  1.00  0.00     0.134 A 
ATOM     74  F   UNL A   1      38.441  32.901  37.832  1.00  0.00    -0.206 F 
ATOM     75  C   UNL A   1      39.024  34.934  38.852  1.00  0.00     0.040 A 
ATOM     76  C   UNL A   1      40.521  36.451  37.731  1.00  0.00     0.040 A 
ATOM     77  F   UNL A   1      41.371  35.911  35.612  1.00  0.00    -0.206 F 
ATOM     78  C   UNL A   1      39.719  36.141  38.828  1.00  0.00     0.006 A 
ENDBRANCH  50  71
BRANCH  62  79
ATOM     79  C   UNL A   1      43.779  28.751  35.188  1.00  0.00     0.057 A 
ATOM     80  C   UNL A   1      43.511  27.725  36.102  1.00  0.00     0.134 A 
ATOM     81  C   UNL A   1      45.121  29.073  34.950  1.00  0.00     0.134 A 
ATOM     82  F   UNL A   1      42.246  27.379  36.385  1.00  0.00    -0.206 F 
ATOM     83  C   UNL A   1      44.539  27.053  36.765  1.00  0.00     0.040 A 
ATOM     84  C   UNL A   1      46.159  28.392  35.587  1.00  0.00     0.040 A 
ATOM     85  F   UNL A   1      45.445  30.043  34.079  1.00  0.00    -0.206 F 
ATOM     86  C   UNL A   1      45.868  27.381  36.500  1.00  0.00     0.006 A 
ENDBRANCH  62  79
ENDBRANCH  36  37
ENDBRANCH  28  31
ENDBRANCH  26  27
ENDBRANCH  25  26
ENDBRANCH  24  25
ENDBRANCH   1  24
TORSDOF 15
ENDMDL
MODEL 3
REMARK VINA RESULT:      -9.4      5.230     10.284
REMARK SMILES Cc1cc([N+](=O)[O-])c(-c2ccc(C(=O)NCCCCCCNC(=O)c3ccc(-c4c5nc(c(-c6c(F)cccc6F)c6ccc([nH]6)c(-c6c(F)cccc6F)c6nc(c(-c7c(F)cccc7F)c7ccc4[nH]7)C=C6)C=C5)cc3)o2)cc1Cl
REMARK SMILES IDX 18 1 17 2 16 3 15 4 13 5 14 6 12 8 9 9 10 10 79 11 11 12
REMARK SMILES IDX 8 13 1 14 2 15 3 16 81 17 4 18 80 19 82 20 5 21 6 22 7 23
REMARK SMILES IDX 19 24 20 25 21 26 22 27 23 28 24 30 25 31 26 32 78 33 27 34
REMARK SMILES IDX 77 35 28 36 29 37 30 38 71 39 31 40 76 41 70 42 72 43 32 44
REMARK SMILES IDX 75 45 69 46 68 47 33 49 59 50 42 51 58 52 43 53 46 54 57 55
REMARK SMILES IDX 73 56 44 57 45 58 56 60 74 61 47 62 34 63 35 64 40 65 36 66
REMARK SMILES IDX 37 67 39 68 41 69 38 70 60 71 61 72 66 73 62 74 63 75 65 76
REMARK SMILES IDX 67 77 64 78 48 79 49 80 54 81 50 82 51 83 53 84 55 85 52 86
REMARK H PARENT 15 7 22 29 72 48 46 59
REMARK Flexibility Score: inf
ROOT
ATOM      1  C   UNL A   1      32.595  29.409  27.253  1.00  0.00     0.002 C 
ENDROOT
BRANCH   1   2
ATOM      2  C   UNL A   1      32.658  27.916  26.901  1.00  0.00     0.021 C 
BRANCH   2   3
ATOM      3  C   UNL A   1      31.635  27.498  25.843  1.00  0.00     0.116 C 
BRANCH   3   4
ATOM      4  N   UNL A   1      30.626  26.632  26.416  1.00  0.00    -0.349 N 
ATOM      5  C   UNL A   1      30.257  25.341  26.114  1.00  0.00     0.287 C 
ATOM      6  O   UNL A   1      29.393  24.849  26.843  1.00  0.00    -0.266 OA
ATOM      7  H   UNL A   1      30.113  27.039  27.151  1.00  0.00     0.163 HD
BRANCH   5   8
ATOM      8  C   UNL A   1      30.869  24.615  25.016  1.00  0.00     0.192 A 
ATOM      9  C   UNL A   1      32.474  23.368  24.148  1.00  0.00     0.142 A 
ATOM     10  C   UNL A   1      31.602  23.631  23.119  1.00  0.00     0.052 A 
ATOM     11  O   UNL A   1      32.034  23.935  25.299  1.00  0.00    -0.451 OA
ATOM     12  C   UNL A   1      30.550  24.391  23.685  1.00  0.00     0.057 A 
BRANCH   9  13
ATOM     13  C   UNL A   1      33.687  22.580  24.246  1.00  0.00     0.096 A 
ATOM     14  C   UNL A   1      37.342  20.458  25.230  1.00  0.00     0.046 C 
ATOM     15  C   UNL A   1      36.098  21.202  24.828  1.00  0.00    -0.026 A 
ATOM     16  C   UNL A   1      34.899  20.496  24.641  1.00  0.00     0.091 A 
ATOM     17  C   UNL A   1      36.091  22.595  24.662  1.00  0.00     0.045 A 
ATOM     18  C   UNL A   1      33.707  21.182  24.347  1.00  0.00     0.280 A 
ATOM     19  C   UNL A   1      34.903  23.272  24.371  1.00  0.00     0.040 A 
ATOM     20  Cl  UNL A   1      37.527  23.534  24.855  1.00  0.00    -0.084 Cl
BRANCH  18  21
ATOM     21  N   UNL A   1      32.493  20.388  24.173  1.00  0.00     0.063 N 
ATOM     22  O   UNL A   1      32.199  20.007  23.033  1.00  0.00    -0.258 OA
ATOM     23  O   UNL A   1      31.849  20.117  25.197  1.00  0.00    -0.258 OA
ENDBRANCH  18  21
ENDBRANCH   9  13
ENDBRANCH   5   8
ENDBRANCH   3   4
ENDBRANCH   2   3
ENDBRANCH   1   2
BRANCH   1  24
ATOM     24  C   UNL A   1      31.831  30.283  26.248  1.00  0.00     0.002 C 
BRANCH  24  25
ATOM     25  C   UNL A   1      31.546  31.713  26.714  1.00  0.00     0.021 C 
BRANCH  25  26
ATOM     26  C   UNL A   1      32.763  32.454  27.260  1.00  0.00     0.116 C 
BRANCH  26  27
ATOM     27  N   UNL A   1      32.465  33.850  27.546  1.00  0.00    -0.352 N 
ATOM     28  C   UNL A   1      33.029  34.688  28.477  1.00  0.00     0.251 C 
ATOM     29  H   UNL A   1      31.756  34.252  26.993  1.00  0.00     0.163 HD
ATOM     30  O   UNL A   1      32.513  35.771  28.731  1.00  0.00    -0.269 OA
BRANCH  28  31
ATOM     31  C   UNL A   1      34.254  34.269  29.188  1.00  0.00     0.039 A 
ATOM     32  C   UNL A   1      34.137  33.623  30.421  1.00  0.00     0.014 A 
ATOM     33  C   UNL A   1      35.514  34.510  28.633  1.00  0.00     0.014 A 
ATOM     34  C   UNL A   1      35.282  33.146  31.062  1.00  0.00     0.010 A 
ATOM     35  C   UNL A   1      36.648  33.979  29.241  1.00  0.00     0.010 A 
ATOM     36  C   UNL A   1      36.542  33.282  30.455  1.00  0.00    -0.014 A 
BRANCH  36  37
ATOM     37  C   UNL A   1      37.760  32.679  31.053  1.00  0.00     0.031 A 
ATOM     38  C   UNL A   1      38.371  31.450  30.442  1.00  0.00     0.074 A 
ATOM     39  C   UNL A   1      38.266  33.194  32.191  1.00  0.00     0.049 A 
ATOM     40  N   UNL A   1      39.352  30.707  30.888  1.00  0.00    -0.248 NA
ATOM     41  C   UNL A   1      37.793  30.984  29.171  1.00  0.00     0.031 C 
ATOM     42  C   UNL A   1      37.746  34.370  32.893  1.00  0.00     0.029 A 
ATOM     43  N   UNL A   1      39.320  32.784  32.967  1.00  0.00    -0.354 N 
ATOM     44  C   UNL A   1      39.507  29.689  29.957  1.00  0.00     0.074 A 
ATOM     45  C   UNL A   1      38.486  29.876  28.948  1.00  0.00     0.031 C 
ATOM     46  C   UNL A   1      38.490  34.593  33.989  1.00  0.00     0.029 A 
ATOM     47  C   UNL A   1      39.506  33.551  34.093  1.00  0.00     0.049 A 
ATOM     48  H   UNL A   1      39.889  32.013  32.740  1.00  0.00     0.167 HD
ATOM     49  C   UNL A   1      40.432  28.701  29.931  1.00  0.00     0.037 A 
ATOM     50  C   UNL A   1      40.382  33.414  35.107  1.00  0.00     0.037 A 
ATOM     51  C   UNL A   1      41.454  28.521  30.929  1.00  0.00     0.049 A 
ATOM     52  C   UNL A   1      41.355  32.267  35.086  1.00  0.00     0.074 A 
ATOM     53  C   UNL A   1      42.456  27.567  30.976  1.00  0.00     0.029 A 
ATOM     54  N   UNL A   1      41.604  29.315  32.056  1.00  0.00    -0.354 N 
ATOM     55  N   UNL A   1      41.520  31.339  34.175  1.00  0.00    -0.248 NA
ATOM     56  C   UNL A   1      42.260  32.143  36.239  1.00  0.00     0.031 C 
ATOM     57  C   UNL A   1      43.188  27.759  32.150  1.00  0.00     0.029 A 
ATOM     58  C   UNL A   1      42.669  28.857  32.816  1.00  0.00     0.049 A 
ATOM     59  H   UNL A   1      41.039  30.088  32.283  1.00  0.00     0.167 HD
ATOM     60  C   UNL A   1      42.563  30.542  34.630  1.00  0.00     0.074 A 
ATOM     61  C   UNL A   1      43.002  31.103  35.890  1.00  0.00     0.031 C 
ATOM     62  C   UNL A   1      43.103  29.439  34.058  1.00  0.00     0.037 A 
BRANCH  49  63
ATOM     63  C   UNL A   1      40.399  27.743  28.777  1.00  0.00     0.057 A 
ATOM     64  C   UNL A   1      39.622  26.578  28.817  1.00  0.00     0.134 A 
ATOM     65  C   UNL A   1      41.095  28.017  27.594  1.00  0.00     0.134 A 
ATOM     66  F   UNL A   1      38.939  26.255  29.926  1.00  0.00    -0.206 F 
ATOM     67  C   UNL A   1      39.550  25.711  27.726  1.00  0.00     0.040 A 
ATOM     68  C   UNL A   1      41.012  27.169  26.487  1.00  0.00     0.040 A 
ATOM     69  F   UNL A   1      41.853  29.118  27.487  1.00  0.00    -0.206 F 
ATOM     70  C   UNL A   1      40.240  26.011  26.553  1.00  0.00     0.006 A 
ENDBRANCH  49  63
BRANCH  50  71
ATOM     71  C   UNL A   1      40.383  34.377  36.239  1.00  0.00     0.057 A 
ATOM     72  C   UNL A   1      39.564  34.174  37.357  1.00  0.00     0.134 A 
ATOM     73  C   UNL A   1      41.158  35.542  36.211  1.00  0.00     0.134 A 
ATOM     74  F   UNL A   1      38.782  33.088  37.432  1.00  0.00    -0.206 F 
ATOM     75  C   UNL A   1      39.495  35.108  38.393  1.00  0.00     0.040 A 
ATOM     76  C   UNL A   1      41.120  36.471  37.252  1.00  0.00     0.040 A 
ATOM     77  F   UNL A   1      41.966  35.794  35.171  1.00  0.00    -0.206 F 
ATOM     78  C   UNL A   1      40.277  36.260  38.342  1.00  0.00     0.006 A 
ENDBRANCH  50  71
BRANCH  62  79
ATOM     79  C   UNL A   1      44.250  28.787  34.771  1.00  0.00     0.057 A 
ATOM     80  C   UNL A   1      44.053  27.742  35.681  1.00  0.00     0.134 A 
ATOM     81  C   UNL A   1      45.570  29.172  34.502  1.00  0.00     0.134 A 
ATOM     82  F   UNL A   1      42.812  27.337  35.992  1.00  0.00    -0.206 F 
ATOM     83  C   UNL A   1      45.127  27.112  36.312  1.00  0.00     0.040 A 
ATOM     84  C   UNL A   1      46.653  28.534  35.106  1.00  0.00     0.040 A 
ATOM     85  F   UNL A   1      45.827  30.163  33.633  1.00  0.00    -0.206 F 
ATOM     86  C   UNL A   1      46.432  27.502  36.017  1.00  0.00     0.006 A 
ENDBRANCH  62  79
ENDBRANCH  36  37
ENDBRANCH  28  31
ENDBRANCH  26  27
ENDBRANCH  25  26
ENDBRANCH  24  25
ENDBRANCH   1  24
TORSDOF 15
ENDMDL
