MODEL 1
REMARK VINA RESULT:     -11.1      0.000      0.000
REMARK SMILES O=C(NCCCCCCNC(=O)C1([C@H]2CS(=O)(=O)C[C@H]2O)CCCC1)c1ccc(-c2c3nc(c(-c4c(F)cccc4F)c4ccc([nH]4)c(-c4c(F)cccc4F)c4nc(c(-c5c(F)cccc5F)c5ccc2[nH]5)C=C4)C=C3)cc1
REMARK SMILES IDX 6 1 5 2 4 3 3 4 1 5 2 6 26 8 27 9 79 10 28 11 78 12 29 13
REMARK SMILES IDX 30 14 31 15 72 16 32 17 77 18 71 19 73 20 33 21 76 22 70 23
REMARK SMILES IDX 69 24 34 26 60 27 43 28 59 29 44 30 47 31 58 32 74 33 45 34
REMARK SMILES IDX 46 35 57 37 75 38 48 39 35 40 36 41 41 42 37 43 38 44 40 45
REMARK SMILES IDX 42 46 39 47 61 48 62 49 67 50 63 51 64 52 66 53 68 54 65 55
REMARK SMILES IDX 49 56 50 57 55 58 51 59 52 60 54 61 56 62 53 63 7 64 8 65
REMARK SMILES IDX 9 66 10 67 11 68 12 70 13 71 22 72 25 73 23 74 24 75 14 76
REMARK SMILES IDX 15 77 20 78 16 79 19 80 17 81 18 82 21 83
REMARK H PARENT 3 7 73 25 47 36 10 69 21 84
REMARK Flexibility Score: inf
ROOT
ATOM      1  C   UNL A   1      36.070  20.509  24.936  1.00  0.00     0.002 C 
ENDROOT
BRANCH   1   2
ATOM      2  C   UNL A   1      37.300  19.601  24.966  1.00  0.00     0.021 C 
BRANCH   2   3
ATOM      3  C   UNL A   1      38.601  20.273  25.382  1.00  0.00     0.116 C 
BRANCH   3   4
ATOM      4  N   UNL A   1      39.694  19.334  25.570  1.00  0.00    -0.352 N 
ATOM      5  O   UNL A   1      41.811  18.672  25.992  1.00  0.00    -0.269 OA
ATOM      6  C   UNL A   1      40.968  19.562  26.030  1.00  0.00     0.251 C 
ATOM      7  H   UNL A   1      39.492  18.399  25.334  1.00  0.00     0.163 HD
BRANCH   6   8
ATOM      8  C   UNL A   1      41.330  20.897  26.553  1.00  0.00     0.039 A 
ATOM      9  C   UNL A   1      41.887  21.863  25.711  1.00  0.00     0.014 A 
ATOM     10  C   UNL A   1      41.108  21.188  27.902  1.00  0.00     0.014 A 
ATOM     11  C   UNL A   1      42.352  23.059  26.244  1.00  0.00     0.010 A 
ATOM     12  C   UNL A   1      41.487  22.430  28.417  1.00  0.00     0.010 A 
ATOM     13  C   UNL A   1      42.134  23.367  27.597  1.00  0.00    -0.014 A 
BRANCH  13  14
ATOM     14  C   UNL A   1      42.518  24.709  28.104  1.00  0.00     0.031 A 
ATOM     15  C   UNL A   1      41.493  25.782  28.338  1.00  0.00     0.074 A 
ATOM     16  C   UNL A   1      43.818  24.942  28.372  1.00  0.00     0.049 A 
ATOM     17  N   UNL A   1      41.668  27.002  28.780  1.00  0.00    -0.248 NA
ATOM     18  C   UNL A   1      40.094  25.451  28.029  1.00  0.00     0.031 C 
ATOM     19  C   UNL A   1      44.904  23.979  28.174  1.00  0.00     0.029 A 
ATOM     20  N   UNL A   1      44.447  26.050  28.878  1.00  0.00    -0.354 N 
ATOM     21  C   UNL A   1      40.408  27.589  28.791  1.00  0.00     0.074 A 
ATOM     22  C   UNL A   1      39.482  26.599  28.282  1.00  0.00     0.031 C 
ATOM     23  C   UNL A   1      46.056  24.520  28.594  1.00  0.00     0.029 A 
ATOM     24  C   UNL A   1      45.804  25.890  29.020  1.00  0.00     0.049 A 
ATOM     25  H   UNL A   1      43.973  26.879  29.116  1.00  0.00     0.167 HD
ATOM     26  C   UNL A   1      40.059  28.835  29.197  1.00  0.00     0.037 A 
ATOM     27  C   UNL A   1      46.750  26.758  29.422  1.00  0.00     0.037 A 
ATOM     28  C   UNL A   1      40.991  29.812  29.702  1.00  0.00     0.049 A 
ATOM     29  C   UNL A   1      46.340  28.146  29.818  1.00  0.00     0.074 A 
ATOM     30  C   UNL A   1      40.732  31.090  30.165  1.00  0.00     0.029 A 
ATOM     31  N   UNL A   1      42.363  29.625  29.797  1.00  0.00    -0.354 N 
ATOM     32  N   UNL A   1      45.140  28.671  29.862  1.00  0.00    -0.248 NA
ATOM     33  C   UNL A   1      47.415  29.062  30.216  1.00  0.00     0.031 C 
ATOM     34  C   UNL A   1      41.952  31.697  30.486  1.00  0.00     0.029 A 
ATOM     35  C   UNL A   1      42.966  30.775  30.285  1.00  0.00     0.049 A 
ATOM     36  H   UNL A   1      42.839  28.798  29.554  1.00  0.00     0.167 HD
ATOM     37  C   UNL A   1      45.312  29.972  30.317  1.00  0.00     0.074 A 
ATOM     38  C   UNL A   1      46.731  30.146  30.553  1.00  0.00     0.031 C 
ATOM     39  C   UNL A   1      44.379  30.934  30.518  1.00  0.00     0.037 A 
BRANCH  26  40
ATOM     40  C   UNL A   1      38.611  29.224  29.093  1.00  0.00     0.057 A 
ATOM     41  C   UNL A   1      37.755  29.211  30.201  1.00  0.00     0.134 A 
ATOM     42  C   UNL A   1      38.077  29.665  27.874  1.00  0.00     0.134 A 
ATOM     43  F   UNL A   1      38.197  28.792  31.398  1.00  0.00    -0.206 F 
ATOM     44  C   UNL A   1      36.417  29.599  30.098  1.00  0.00     0.040 A 
ATOM     45  C   UNL A   1      36.748  30.081  27.764  1.00  0.00     0.040 A 
ATOM     46  F   UNL A   1      38.840  29.711  26.772  1.00  0.00    -0.206 F 
ATOM     47  C   UNL A   1      35.912  30.043  28.877  1.00  0.00     0.006 A 
ENDBRANCH  26  40
BRANCH  27  48
ATOM     48  C   UNL A   1      48.173  26.340  29.454  1.00  0.00     0.057 A 
ATOM     49  C   UNL A   1      49.013  26.535  28.352  1.00  0.00     0.134 A 
ATOM     50  C   UNL A   1      48.729  25.735  30.590  1.00  0.00     0.134 A 
ATOM     51  F   UNL A   1      48.537  27.095  27.231  1.00  0.00    -0.206 F 
ATOM     52  C   UNL A   1      50.348  26.126  28.370  1.00  0.00     0.040 A 
ATOM     53  C   UNL A   1      50.069  25.352  30.633  1.00  0.00     0.040 A 
ATOM     54  F   UNL A   1      47.980  25.531  31.684  1.00  0.00    -0.206 F 
ATOM     55  C   UNL A   1      50.880  25.538  29.517  1.00  0.00     0.006 A 
ENDBRANCH  27  48
BRANCH  39  56
ATOM     56  C   UNL A   1      44.863  32.249  31.058  1.00  0.00     0.057 A 
ATOM     57  C   UNL A   1      44.976  32.494  32.432  1.00  0.00     0.134 A 
ATOM     58  C   UNL A   1      45.244  33.279  30.186  1.00  0.00     0.134 A 
ATOM     59  F   UNL A   1      44.614  31.556  33.321  1.00  0.00    -0.206 F 
ATOM     60  C   UNL A   1      45.423  33.722  32.921  1.00  0.00     0.040 A 
ATOM     61  C   UNL A   1      45.722  34.500  30.661  1.00  0.00     0.040 A 
ATOM     62  F   UNL A   1      45.167  33.109  28.858  1.00  0.00    -0.206 F 
ATOM     63  C   UNL A   1      45.804  34.727  32.034  1.00  0.00     0.006 A 
ENDBRANCH  39  56
ENDBRANCH  13  14
ENDBRANCH   6   8
ENDBRANCH   3   4
ENDBRANCH   2   3
ENDBRANCH   1   2
BRANCH   1  64
ATOM     64  C   UNL A   1      34.711  19.809  24.995  1.00  0.00     0.002 C 
BRANCH  64  65
ATOM     65  C   UNL A   1      33.653  20.426  25.911  1.00  0.00     0.021 C 
BRANCH  65  66
ATOM     66  C   UNL A   1      34.095  21.579  26.806  1.00  0.00     0.116 C 
BRANCH  66  67
ATOM     67  N   UNL A   1      33.036  22.494  27.172  1.00  0.00    -0.356 N 
ATOM     68  C   UNL A   1      32.453  23.540  26.524  1.00  0.00     0.226 C 
ATOM     69  H   UNL A   1      32.662  22.326  28.068  1.00  0.00     0.163 HD
ATOM     70  O   UNL A   1      31.450  23.997  27.082  1.00  0.00    -0.274 OA
BRANCH  68  71
ATOM     71  C   UNL A   1      33.017  24.179  25.206  1.00  0.00     0.055 C 
ATOM     72  C   UNL A   1      34.569  24.142  25.259  1.00  0.00     0.017 C 
ATOM     73  C   UNL A   1      32.714  23.172  24.066  1.00  0.00     0.017 C 
ATOM     74  C   UNL A   1      35.054  23.873  23.845  1.00  0.00     0.001 C 
ATOM     75  C   UNL A   1      33.978  23.004  23.219  1.00  0.00     0.001 C 
BRANCH  71  76
ATOM     76  C   UNL A   1      32.442  25.623  24.958  1.00  0.00     0.049 C 
ATOM     77  C   UNL A   1      33.454  26.573  24.289  1.00  0.00     0.144 C 
ATOM     78  C   UNL A   1      31.095  25.896  24.247  1.00  0.00     0.134 C 
ATOM     79  S   UNL A   1      32.859  26.935  22.647  1.00  0.00     0.153 S 
ATOM     80  C   UNL A   1      31.332  26.043  22.756  1.00  0.00     0.169 C 
ATOM     81  O   UNL A   1      32.561  28.349  22.588  1.00  0.00    -0.229 OA
ATOM     82  O   UNL A   1      33.719  26.285  21.679  1.00  0.00    -0.229 OA
BRANCH  78  83
ATOM     83  O   UNL A   1      30.086  24.951  24.526  1.00  0.00    -0.392 OA
ATOM     84  H   UNL A   1      30.411  24.060  24.321  1.00  0.00     0.211 HD
ENDBRANCH  78  83
ENDBRANCH  71  76
ENDBRANCH  68  71
ENDBRANCH  66  67
ENDBRANCH  65  66
ENDBRANCH  64  65
ENDBRANCH   1  64
TORSDOF 15
ENDMDL
MODEL 2
REMARK VINA RESULT:     -11.1      1.650      6.583
REMARK SMILES O=C(NCCCCCCNC(=O)C1([C@H]2CS(=O)(=O)C[C@H]2O)CCCC1)c1ccc(-c2c3nc(c(-c4c(F)cccc4F)c4ccc([nH]4)c(-c4c(F)cccc4F)c4nc(c(-c5c(F)cccc5F)c5ccc2[nH]5)C=C4)C=C3)cc1
REMARK SMILES IDX 6 1 5 2 4 3 3 4 1 5 2 6 26 8 27 9 79 10 28 11 78 12 29 13
REMARK SMILES IDX 30 14 31 15 72 16 32 17 77 18 71 19 73 20 33 21 76 22 70 23
REMARK SMILES IDX 69 24 34 26 60 27 43 28 59 29 44 30 47 31 58 32 74 33 45 34
REMARK SMILES IDX 46 35 57 37 75 38 48 39 35 40 36 41 41 42 37 43 38 44 40 45
REMARK SMILES IDX 42 46 39 47 61 48 62 49 67 50 63 51 64 52 66 53 68 54 65 55
REMARK SMILES IDX 49 56 50 57 55 58 51 59 52 60 54 61 56 62 53 63 7 64 8 65
REMARK SMILES IDX 9 66 10 67 11 68 12 70 13 71 22 72 25 73 23 74 24 75 14 76
REMARK SMILES IDX 15 77 20 78 16 79 19 80 17 81 18 82 21 83
REMARK H PARENT 3 7 73 25 47 36 10 69 21 84
REMARK Flexibility Score: inf
ROOT
ATOM      1  C   UNL A   1      37.385  21.040  24.755  1.00  0.00     0.002 C 
ENDROOT
BRANCH   1   2
ATOM      2  C   UNL A   1      38.284  19.809  24.855  1.00  0.00     0.021 C 
BRANCH   2   3
ATOM      3  C   UNL A   1      39.129  19.714  26.119  1.00  0.00     0.116 C 
BRANCH   3   4
ATOM      4  N   UNL A   1      40.302  18.872  25.959  1.00  0.00    -0.352 N 
ATOM      5  O   UNL A   1      42.493  18.394  25.693  1.00  0.00    -0.269 OA
ATOM      6  C   UNL A   1      41.632  19.217  25.988  1.00  0.00     0.251 C 
ATOM      7  H   UNL A   1      40.117  17.916  25.810  1.00  0.00     0.163 HD
BRANCH   6   8
ATOM      8  C   UNL A   1      42.023  20.595  26.354  1.00  0.00     0.039 A 
ATOM      9  C   UNL A   1      42.183  21.573  25.369  1.00  0.00     0.014 A 
ATOM     10  C   UNL A   1      42.230  20.913  27.699  1.00  0.00     0.014 A 
ATOM     11  C   UNL A   1      42.688  22.821  25.712  1.00  0.00     0.010 A 
ATOM     12  C   UNL A   1      42.643  22.201  28.052  1.00  0.00     0.010 A 
ATOM     13  C   UNL A   1      42.899  23.159  27.058  1.00  0.00    -0.014 A 
BRANCH  13  14
ATOM     14  C   UNL A   1      43.304  24.545  27.403  1.00  0.00     0.031 A 
ATOM     15  C   UNL A   1      44.738  24.986  27.322  1.00  0.00     0.074 A 
ATOM     16  C   UNL A   1      42.347  25.416  27.777  1.00  0.00     0.049 A 
ATOM     17  N   UNL A   1      45.252  26.161  27.585  1.00  0.00    -0.248 NA
ATOM     18  C   UNL A   1      45.725  23.982  26.899  1.00  0.00     0.031 C 
ATOM     19  C   UNL A   1      40.922  25.097  27.903  1.00  0.00     0.029 A 
ATOM     20  N   UNL A   1      42.418  26.744  28.109  1.00  0.00    -0.354 N 
ATOM     21  C   UNL A   1      46.620  26.037  27.374  1.00  0.00     0.074 A 
ATOM     22  C   UNL A   1      46.860  24.662  26.990  1.00  0.00     0.031 C 
ATOM     23  C   UNL A   1      40.249  26.206  28.240  1.00  0.00     0.029 A 
ATOM     24  C   UNL A   1      41.200  27.294  28.427  1.00  0.00     0.049 A 
ATOM     25  H   UNL A   1      43.260  27.253  28.117  1.00  0.00     0.167 HD
ATOM     26  C   UNL A   1      47.582  26.986  27.484  1.00  0.00     0.037 A 
ATOM     27  C   UNL A   1      40.883  28.531  28.850  1.00  0.00     0.037 A 
ATOM     28  C   UNL A   1      47.331  28.352  27.869  1.00  0.00     0.049 A 
ATOM     29  C   UNL A   1      41.976  29.546  29.010  1.00  0.00     0.074 A 
ATOM     30  C   UNL A   1      48.233  29.395  27.981  1.00  0.00     0.029 A 
ATOM     31  N   UNL A   1      46.088  28.863  28.219  1.00  0.00    -0.354 N 
ATOM     32  N   UNL A   1      43.258  29.424  28.766  1.00  0.00    -0.248 NA
ATOM     33  C   UNL A   1      41.579  30.869  29.507  1.00  0.00     0.031 C 
ATOM     34  C   UNL A   1      47.548  30.521  28.453  1.00  0.00     0.029 A 
ATOM     35  C   UNL A   1      46.207  30.199  28.574  1.00  0.00     0.049 A 
ATOM     36  H   UNL A   1      45.246  28.352  28.215  1.00  0.00     0.167 HD
ATOM     37  C   UNL A   1      43.818  30.661  29.056  1.00  0.00     0.074 A 
ATOM     38  C   UNL A   1      42.731  31.523  29.474  1.00  0.00     0.031 C 
ATOM     39  C   UNL A   1      45.116  31.046  28.985  1.00  0.00     0.037 A 
BRANCH  26  40
ATOM     40  C   UNL A   1      49.001  26.577  27.206  1.00  0.00     0.057 A 
ATOM     41  C   UNL A   1      49.855  26.116  28.217  1.00  0.00     0.134 A 
ATOM     42  C   UNL A   1      49.507  26.598  25.899  1.00  0.00     0.134 A 
ATOM     43  F   UNL A   1      49.439  26.078  29.493  1.00  0.00    -0.206 F 
ATOM     44  C   UNL A   1      51.164  25.714  27.944  1.00  0.00     0.040 A 
ATOM     45  C   UNL A   1      50.805  26.173  25.608  1.00  0.00     0.040 A 
ATOM     46  F   UNL A   1      48.744  27.018  24.880  1.00  0.00    -0.206 F 
ATOM     47  C   UNL A   1      51.640  25.735  26.634  1.00  0.00     0.006 A 
ENDBRANCH  26  40
BRANCH  27  48
ATOM     48  C   UNL A   1      39.472  28.866  29.164  1.00  0.00     0.057 A 
ATOM     49  C   UNL A   1      38.605  29.356  28.180  1.00  0.00     0.134 A 
ATOM     50  C   UNL A   1      38.954  28.704  30.456  1.00  0.00     0.134 A 
ATOM     51  F   UNL A   1      39.045  29.546  26.928  1.00  0.00    -0.206 F 
ATOM     52  C   UNL A   1      37.282  29.691  28.473  1.00  0.00     0.040 A 
ATOM     53  C   UNL A   1      37.626  29.004  30.755  1.00  0.00     0.040 A 
ATOM     54  F   UNL A   1      39.729  28.228  31.441  1.00  0.00    -0.206 F 
ATOM     55  C   UNL A   1      36.788  29.509  29.764  1.00  0.00     0.006 A 
ENDBRANCH  27  48
BRANCH  39  56
ATOM     56  C   UNL A   1      45.422  32.475  29.328  1.00  0.00     0.057 A 
ATOM     57  C   UNL A   1      45.359  33.500  28.375  1.00  0.00     0.134 A 
ATOM     58  C   UNL A   1      45.761  32.834  30.640  1.00  0.00     0.134 A 
ATOM     59  F   UNL A   1      45.055  33.222  27.098  1.00  0.00    -0.206 F 
ATOM     60  C   UNL A   1      45.650  34.824  28.707  1.00  0.00     0.040 A 
ATOM     61  C   UNL A   1      46.024  34.158  30.991  1.00  0.00     0.040 A 
ATOM     62  F   UNL A   1      45.833  31.903  31.604  1.00  0.00    -0.206 F 
ATOM     63  C   UNL A   1      45.977  35.157  30.021  1.00  0.00     0.006 A 
ENDBRANCH  39  56
ENDBRANCH  13  14
ENDBRANCH   6   8
ENDBRANCH   3   4
ENDBRANCH   2   3
ENDBRANCH   1   2
BRANCH   1  64
ATOM     64  C   UNL A   1      37.791  22.246  25.605  1.00  0.00     0.002 C 
BRANCH  64  65
ATOM     65  C   UNL A   1      37.205  23.603  25.208  1.00  0.00     0.021 C 
BRANCH  65  66
ATOM     66  C   UNL A   1      35.685  23.727  25.198  1.00  0.00     0.116 C 
BRANCH  66  67
ATOM     67  N   UNL A   1      35.094  23.738  23.878  1.00  0.00    -0.356 N 
ATOM     68  C   UNL A   1      33.931  23.231  23.382  1.00  0.00     0.226 C 
ATOM     69  H   UNL A   1      35.641  24.205  23.205  1.00  0.00     0.163 HD
ATOM     70  O   UNL A   1      33.670  23.579  22.226  1.00  0.00    -0.274 OA
BRANCH  68  71
ATOM     71  C   UNL A   1      33.004  22.236  24.165  1.00  0.00     0.055 C 
ATOM     72  C   UNL A   1      32.533  21.122  23.190  1.00  0.00     0.017 C 
ATOM     73  C   UNL A   1      33.926  21.445  25.129  1.00  0.00     0.017 C 
ATOM     74  C   UNL A   1      32.474  19.832  23.988  1.00  0.00     0.001 C 
ATOM     75  C   UNL A   1      33.575  19.958  25.024  1.00  0.00     0.001 C 
BRANCH  71  76
ATOM     76  C   UNL A   1      31.813  22.977  24.878  1.00  0.00     0.049 C 
ATOM     77  C   UNL A   1      32.225  23.660  26.196  1.00  0.00     0.144 C 
ATOM     78  C   UNL A   1      30.890  23.993  24.164  1.00  0.00     0.134 C 
ATOM     79  S   UNL A   1      32.111  25.424  25.957  1.00  0.00     0.153 S 
ATOM     80  C   UNL A   1      31.468  25.388  24.306  1.00  0.00     0.169 C 
ATOM     81  O   UNL A   1      31.080  25.923  26.840  1.00  0.00    -0.229 OA
ATOM     82  O   UNL A   1      33.446  25.984  25.932  1.00  0.00    -0.229 OA
BRANCH  78  83
ATOM     83  O   UNL A   1      30.605  23.679  22.819  1.00  0.00    -0.392 OA
ATOM     84  H   UNL A   1      30.942  22.792  22.616  1.00  0.00     0.211 HD
ENDBRANCH  78  83
ENDBRANCH  71  76
ENDBRANCH  68  71
ENDBRANCH  66  67
ENDBRANCH  65  66
ENDBRANCH  64  65
ENDBRANCH   1  64
TORSDOF 15
ENDMDL
MODEL 3
REMARK VINA RESULT:     -11.1      0.805      1.935
REMARK SMILES O=C(NCCCCCCNC(=O)C1([C@H]2CS(=O)(=O)C[C@H]2O)CCCC1)c1ccc(-c2c3nc(c(-c4c(F)cccc4F)c4ccc([nH]4)c(-c4c(F)cccc4F)c4nc(c(-c5c(F)cccc5F)c5ccc2[nH]5)C=C4)C=C3)cc1
REMARK SMILES IDX 6 1 5 2 4 3 3 4 1 5 2 6 26 8 27 9 79 10 28 11 78 12 29 13
REMARK SMILES IDX 30 14 31 15 72 16 32 17 77 18 71 19 73 20 33 21 76 22 70 23
REMARK SMILES IDX 69 24 34 26 60 27 43 28 59 29 44 30 47 31 58 32 74 33 45 34
REMARK SMILES IDX 46 35 57 37 75 38 48 39 35 40 36 41 41 42 37 43 38 44 40 45
REMARK SMILES IDX 42 46 39 47 61 48 62 49 67 50 63 51 64 52 66 53 68 54 65 55
REMARK SMILES IDX 49 56 50 57 55 58 51 59 52 60 54 61 56 62 53 63 7 64 8 65
REMARK SMILES IDX 9 66 10 67 11 68 12 70 13 71 22 72 25 73 23 74 24 75 14 76
REMARK SMILES IDX 15 77 20 78 16 79 19 80 17 81 18 82 21 83
REMARK H PARENT 3 7 73 25 47 36 10 69 21 84
REMARK Flexibility Score: inf
ROOT
ATOM      1  C   UNL A   1      36.012  20.445  24.985  1.00  0.00     0.002 C 
ENDROOT
BRANCH   1   2
ATOM      2  C   UNL A   1      37.272  19.580  24.956  1.00  0.00     0.021 C 
BRANCH   2   3
ATOM      3  C   UNL A   1      38.537  20.246  25.479  1.00  0.00     0.116 C 
BRANCH   3   4
ATOM      4  N   UNL A   1      39.654  19.326  25.610  1.00  0.00    -0.352 N 
ATOM      5  O   UNL A   1      41.797  18.698  25.946  1.00  0.00    -0.269 OA
ATOM      6  C   UNL A   1      40.939  19.571  26.031  1.00  0.00     0.251 C 
ATOM      7  H   UNL A   1      39.462  18.392  25.362  1.00  0.00     0.163 HD
BRANCH   6   8
ATOM      8  C   UNL A   1      41.293  20.902  26.569  1.00  0.00     0.039 A 
ATOM      9  C   UNL A   1      41.742  21.915  25.717  1.00  0.00     0.014 A 
ATOM     10  C   UNL A   1      41.170  21.141  27.940  1.00  0.00     0.014 A 
ATOM     11  C   UNL A   1      42.205  23.111  26.252  1.00  0.00     0.010 A 
ATOM     12  C   UNL A   1      41.544  22.382  28.464  1.00  0.00     0.010 A 
ATOM     13  C   UNL A   1      42.087  23.369  27.627  1.00  0.00    -0.014 A 
BRANCH  13  14
ATOM     14  C   UNL A   1      42.460  24.708  28.147  1.00  0.00     0.031 A 
ATOM     15  C   UNL A   1      41.434  25.784  28.354  1.00  0.00     0.074 A 
ATOM     16  C   UNL A   1      43.753  24.937  28.451  1.00  0.00     0.049 A 
ATOM     17  N   UNL A   1      41.599  27.003  28.803  1.00  0.00    -0.248 NA
ATOM     18  C   UNL A   1      40.042  25.458  28.007  1.00  0.00     0.031 C 
ATOM     19  C   UNL A   1      44.842  23.970  28.281  1.00  0.00     0.029 A 
ATOM     20  N   UNL A   1      44.373  26.042  28.976  1.00  0.00    -0.354 N 
ATOM     21  C   UNL A   1      40.342  27.594  28.781  1.00  0.00     0.074 A 
ATOM     22  C   UNL A   1      39.427  26.608  28.244  1.00  0.00     0.031 C 
ATOM     23  C   UNL A   1      45.983  24.507  28.733  1.00  0.00     0.029 A 
ATOM     24  C   UNL A   1      45.724  25.878  29.154  1.00  0.00     0.049 A 
ATOM     25  H   UNL A   1      43.894  26.872  29.202  1.00  0.00     0.167 HD
ATOM     26  C   UNL A   1      39.986  28.840  29.179  1.00  0.00     0.037 A 
ATOM     27  C   UNL A   1      46.661  26.742  29.584  1.00  0.00     0.037 A 
ATOM     28  C   UNL A   1      40.907  29.813  29.711  1.00  0.00     0.049 A 
ATOM     29  C   UNL A   1      46.245  28.131  29.971  1.00  0.00     0.074 A 
ATOM     30  C   UNL A   1      40.639  31.092  30.170  1.00  0.00     0.029 A 
ATOM     31  N   UNL A   1      42.275  29.622  29.844  1.00  0.00    -0.354 N 
ATOM     32  N   UNL A   1      45.046  28.659  29.983  1.00  0.00    -0.248 NA
ATOM     33  C   UNL A   1      47.312  29.042  30.400  1.00  0.00     0.031 C 
ATOM     34  C   UNL A   1      41.852  31.694  30.525  1.00  0.00     0.029 A 
ATOM     35  C   UNL A   1      42.868  30.770  30.350  1.00  0.00     0.049 A 
ATOM     36  H   UNL A   1      42.754  28.794  29.612  1.00  0.00     0.167 HD
ATOM     37  C   UNL A   1      45.210  29.958  30.445  1.00  0.00     0.074 A 
ATOM     38  C   UNL A   1      46.623  30.127  30.720  1.00  0.00     0.031 C 
ATOM     39  C   UNL A   1      44.275  30.923  30.622  1.00  0.00     0.037 A 
BRANCH  26  40
ATOM     40  C   UNL A   1      38.543  29.234  29.036  1.00  0.00     0.057 A 
ATOM     41  C   UNL A   1      37.656  29.220  30.120  1.00  0.00     0.134 A 
ATOM     42  C   UNL A   1      38.044  29.680  27.804  1.00  0.00     0.134 A 
ATOM     43  F   UNL A   1      38.064  28.797  31.327  1.00  0.00    -0.206 F 
ATOM     44  C   UNL A   1      36.322  29.613  29.981  1.00  0.00     0.040 A 
ATOM     45  C   UNL A   1      36.720  30.101  27.658  1.00  0.00     0.040 A 
ATOM     46  F   UNL A   1      38.837  29.728  26.724  1.00  0.00    -0.206 F 
ATOM     47  C   UNL A   1      35.853  30.062  28.748  1.00  0.00     0.006 A 
ENDBRANCH  26  40
BRANCH  27  48
ATOM     48  C   UNL A   1      48.082  26.318  29.655  1.00  0.00     0.057 A 
ATOM     49  C   UNL A   1      48.617  25.762  30.822  1.00  0.00     0.134 A 
ATOM     50  C   UNL A   1      48.940  26.459  28.555  1.00  0.00     0.134 A 
ATOM     51  F   UNL A   1      47.851  25.614  31.912  1.00  0.00    -0.206 F 
ATOM     52  C   UNL A   1      49.958  25.379  30.900  1.00  0.00     0.040 A 
ATOM     53  C   UNL A   1      50.272  26.051  28.610  1.00  0.00     0.040 A 
ATOM     54  F   UNL A   1      48.485  26.974  27.403  1.00  0.00    -0.206 F 
ATOM     55  C   UNL A   1      50.787  25.518  29.788  1.00  0.00     0.006 A 
ENDBRANCH  27  48
BRANCH  39  56
ATOM     56  C   UNL A   1      44.748  32.236  31.177  1.00  0.00     0.057 A 
ATOM     57  C   UNL A   1      45.140  33.297  30.351  1.00  0.00     0.134 A 
ATOM     58  C   UNL A   1      44.788  32.448  32.562  1.00  0.00     0.134 A 
ATOM     59  F   UNL A   1      45.139  33.154  29.016  1.00  0.00    -0.206 F 
ATOM     60  C   UNL A   1      45.581  34.510  30.880  1.00  0.00     0.040 A 
ATOM     61  C   UNL A   1      45.198  33.667  33.103  1.00  0.00     0.040 A 
ATOM     62  F   UNL A   1      44.420  31.478  33.411  1.00  0.00    -0.206 F 
ATOM     63  C   UNL A   1      45.605  34.700  32.261  1.00  0.00     0.006 A 
ENDBRANCH  39  56
ENDBRANCH  13  14
ENDBRANCH   6   8
ENDBRANCH   3   4
ENDBRANCH   2   3
ENDBRANCH   1   2
BRANCH   1  64
ATOM     64  C   UNL A   1      36.212  21.941  24.727  1.00  0.00     0.002 C 
BRANCH  64  65
ATOM     65  C   UNL A   1      35.574  22.907  25.727  1.00  0.00     0.021 C 
BRANCH  65  66
ATOM     66  C   UNL A   1      34.341  23.674  25.262  1.00  0.00     0.116 C 
BRANCH  66  67
ATOM     67  N   UNL A   1      33.263  23.716  26.226  1.00  0.00    -0.356 N 
ATOM     68  C   UNL A   1      32.277  24.623  26.471  1.00  0.00     0.226 C 
ATOM     69  H   UNL A   1      33.237  22.933  26.823  1.00  0.00     0.163 HD
ATOM     70  O   UNL A   1      31.419  24.245  27.275  1.00  0.00    -0.274 OA
BRANCH  68  71
ATOM     71  C   UNL A   1      32.236  26.063  25.848  1.00  0.00     0.055 C 
ATOM     72  C   UNL A   1      31.695  27.053  26.915  1.00  0.00     0.017 C 
ATOM     73  C   UNL A   1      33.710  26.522  25.707  1.00  0.00     0.017 C 
ATOM     74  C   UNL A   1      32.447  28.359  26.730  1.00  0.00     0.001 C 
ATOM     75  C   UNL A   1      33.825  27.953  26.240  1.00  0.00     0.001 C 
BRANCH  71  76
ATOM     76  C   UNL A   1      31.419  26.098  24.502  1.00  0.00     0.049 C 
ATOM     77  C   UNL A   1      32.163  26.820  23.361  1.00  0.00     0.144 C 
ATOM     78  C   UNL A   1      30.792  24.844  23.850  1.00  0.00     0.134 C 
ATOM     79  S   UNL A   1      32.583  25.603  22.128  1.00  0.00     0.153 S 
ATOM     80  C   UNL A   1      31.790  24.216  22.896  1.00  0.00     0.169 C 
ATOM     81  O   UNL A   1      31.860  25.932  20.919  1.00  0.00    -0.229 OA
ATOM     82  O   UNL A   1      34.016  25.394  22.140  1.00  0.00    -0.229 OA
BRANCH  78  83
ATOM     83  O   UNL A   1      30.282  23.903  24.768  1.00  0.00    -0.392 OA
ATOM     84  H   UNL A   1      29.342  24.086  24.931  1.00  0.00     0.211 HD
ENDBRANCH  78  83
ENDBRANCH  71  76
ENDBRANCH  68  71
ENDBRANCH  66  67
ENDBRANCH  65  66
ENDBRANCH  64  65
ENDBRANCH   1  64
TORSDOF 15
ENDMDL
