MODEL 1
REMARK VINA RESULT:     -12.6      0.000      0.000
REMARK SMILES Cc1ccccc1CNc1ccc(C(=O)NCCCCCCNC(=O)c2ccc(-c3c4nc(c(-c5c(F)cccc5F)c5ccc([nH]5)c(-c5c(F)cccc5F)c5nc(c(-c6c(F)cccc6F)c6ccc3[nH]6)C=C5)C=C4)cc2)c(F)c1F
REMARK SMILES IDX 19 1 18 2 17 3 16 4 14 5 15 6 13 8 10 9 11 10 82 11 12 12
REMARK SMILES IDX 80 13 83 14 81 15 9 16 8 18 7 19 1 20 2 21 3 22 4 23 6 24
REMARK SMILES IDX 5 25 20 26 21 27 22 28 23 29 24 30 25 32 26 33 27 34 79 35
REMARK SMILES IDX 28 36 78 37 29 38 30 39 31 40 72 41 32 42 77 43 71 44 73 45
REMARK SMILES IDX 33 46 76 47 70 48 69 49 34 51 60 52 43 53 59 54 44 55 47 56
REMARK SMILES IDX 58 57 74 58 45 59 46 60 57 62 75 63 48 64 35 65 36 66 41 67
REMARK SMILES IDX 37 68 38 69 40 70 42 71 39 72 61 73 62 74 67 75 63 76 64 77
REMARK SMILES IDX 66 78 68 79 65 80 49 81 50 82 55 83 51 84 52 85 54 86 56 87
REMARK SMILES IDX 53 88
REMARK H PARENT 16 7 9 17 23 31 73 50 47 61
REMARK Flexibility Score: inf
ROOT
ATOM      1  C   UNL A   1      36.062  21.006  25.295  1.00  0.00     0.002 C 
ENDROOT
BRANCH   1   2
ATOM      2  C   UNL A   1      35.298  21.994  26.180  1.00  0.00     0.021 C 
BRANCH   2   3
ATOM      3  C   UNL A   1      34.184  21.441  27.063  1.00  0.00     0.116 C 
BRANCH   3   4
ATOM      4  N   UNL A   1      33.429  20.348  26.488  1.00  0.00    -0.352 N 
ATOM      5  C   UNL A   1      32.617  20.320  25.373  1.00  0.00     0.254 C 
ATOM      6  O   UNL A   1      32.128  19.246  25.033  1.00  0.00    -0.269 OA
ATOM      7  H   UNL A   1      33.506  19.492  26.967  1.00  0.00     0.163 HD
BRANCH   5   8
ATOM      8  C   UNL A   1      32.334  21.542  24.581  1.00  0.00     0.078 A 
ATOM      9  C   UNL A   1      31.739  23.889  23.093  1.00  0.00     0.074 A 
ATOM     10  C   UNL A   1      32.632  22.933  22.608  1.00  0.00     0.030 A 
ATOM     11  C   UNL A   1      31.151  23.638  24.345  1.00  0.00     0.182 A 
ATOM     12  C   UNL A   1      32.892  21.755  23.318  1.00  0.00     0.019 A 
ATOM     13  C   UNL A   1      31.441  22.489  25.081  1.00  0.00     0.173 A 
ATOM     14  F   UNL A   1      30.271  24.527  24.839  1.00  0.00    -0.201 F 
ATOM     15  F   UNL A   1      30.852  22.328  26.276  1.00  0.00    -0.203 F 
BRANCH   9  16
ATOM     16  N   UNL A   1      31.400  25.028  22.388  1.00  0.00    -0.379 N 
ATOM     17  H   UNL A   1      30.536  25.025  21.916  1.00  0.00     0.161 HD
BRANCH  16  18
ATOM     18  C   UNL A   1      32.210  26.230  22.284  1.00  0.00     0.149 C 
BRANCH  18  19
ATOM     19  C   UNL A   1      32.300  26.928  23.626  1.00  0.00    -0.026 A 
ATOM     20  C   UNL A   1      29.919  27.904  23.512  1.00  0.00     0.044 C 
ATOM     21  C   UNL A   1      31.241  27.667  24.190  1.00  0.00    -0.046 A 
ATOM     22  C   UNL A   1      31.419  28.256  25.457  1.00  0.00     0.004 A 
ATOM     23  C   UNL A   1      32.603  28.090  26.176  1.00  0.00     0.000 A 
ATOM     24  C   UNL A   1      33.481  26.753  24.383  1.00  0.00     0.006 A 
ATOM     25  C   UNL A   1      33.634  27.331  25.641  1.00  0.00     0.000 A 
ENDBRANCH  18  19
ENDBRANCH  16  18
ENDBRANCH   9  16
ENDBRANCH   5   8
ENDBRANCH   3   4
ENDBRANCH   2   3
ENDBRANCH   1   2
BRANCH   1  26
ATOM     26  C   UNL A   1      37.413  21.446  24.711  1.00  0.00     0.002 C 
BRANCH  26  27
ATOM     27  C   UNL A   1      38.621  21.447  25.645  1.00  0.00     0.021 C 
BRANCH  27  28
ATOM     28  C   UNL A   1      38.932  22.774  26.318  1.00  0.00     0.116 C 
BRANCH  28  29
ATOM     29  N   UNL A   1      40.339  22.993  26.612  1.00  0.00    -0.352 N 
ATOM     30  C   UNL A   1      41.012  24.168  26.912  1.00  0.00     0.251 C 
ATOM     31  H   UNL A   1      40.900  22.184  26.597  1.00  0.00     0.163 HD
ATOM     32  O   UNL A   1      42.224  24.146  27.058  1.00  0.00    -0.269 OA
BRANCH  30  33
ATOM     33  C   UNL A   1      40.253  25.414  27.211  1.00  0.00     0.039 A 
ATOM     34  C   UNL A   1      40.550  26.548  26.442  1.00  0.00     0.014 A 
ATOM     35  C   UNL A   1      39.445  25.540  28.336  1.00  0.00     0.014 A 
ATOM     36  C   UNL A   1      40.282  27.815  26.954  1.00  0.00     0.010 A 
ATOM     37  C   UNL A   1      39.268  26.786  28.897  1.00  0.00     0.010 A 
ATOM     38  C   UNL A   1      39.756  27.917  28.239  1.00  0.00    -0.014 A 
BRANCH  38  39
ATOM     39  C   UNL A   1      39.792  29.139  29.027  1.00  0.00     0.031 A 
ATOM     40  C   UNL A   1      38.720  30.141  28.904  1.00  0.00     0.074 A 
ATOM     41  C   UNL A   1      40.775  29.299  29.941  1.00  0.00     0.049 A 
ATOM     42  N   UNL A   1      38.873  31.389  29.188  1.00  0.00    -0.248 NA
ATOM     43  C   UNL A   1      37.383  29.818  28.416  1.00  0.00     0.031 C 
ATOM     44  C   UNL A   1      40.844  30.296  31.004  1.00  0.00     0.029 A 
ATOM     45  N   UNL A   1      42.035  28.687  29.953  1.00  0.00    -0.354 N 
ATOM     46  C   UNL A   1      37.630  31.975  29.177  1.00  0.00     0.074 A 
ATOM     47  C   UNL A   1      36.742  30.971  28.636  1.00  0.00     0.031 C 
ATOM     48  C   UNL A   1      42.125  30.441  31.378  1.00  0.00     0.029 A 
ATOM     49  C   UNL A   1      42.931  29.647  30.467  1.00  0.00     0.049 A 
ATOM     50  H   UNL A   1      42.251  27.771  29.662  1.00  0.00     0.167 HD
ATOM     51  C   UNL A   1      37.463  33.201  29.746  1.00  0.00     0.037 A 
ATOM     52  C   UNL A   1      43.963  30.129  29.716  1.00  0.00     0.037 A 
ATOM     53  C   UNL A   1      38.720  33.713  30.278  1.00  0.00     0.049 A 
ATOM     54  C   UNL A   1      43.915  31.623  29.500  1.00  0.00     0.074 A 
ATOM     55  C   UNL A   1      39.280  33.673  31.545  1.00  0.00     0.029 A 
ATOM     56  N   UNL A   1      39.740  34.072  29.408  1.00  0.00    -0.354 N 
ATOM     57  N   UNL A   1      42.837  32.343  29.647  1.00  0.00    -0.248 NA
ATOM     58  C   UNL A   1      45.065  32.423  29.093  1.00  0.00     0.031 C 
ATOM     59  C   UNL A   1      40.659  33.972  31.427  1.00  0.00     0.029 A 
ATOM     60  C   UNL A   1      40.930  34.216  30.093  1.00  0.00     0.049 A 
ATOM     61  H   UNL A   1      39.631  34.207  28.438  1.00  0.00     0.167 HD
ATOM     62  C   UNL A   1      43.114  33.656  29.355  1.00  0.00     0.074 A 
ATOM     63  C   UNL A   1      44.528  33.654  29.032  1.00  0.00     0.031 C 
ATOM     64  C   UNL A   1      42.145  34.618  29.401  1.00  0.00     0.037 A 
BRANCH  51  65
ATOM     65  C   UNL A   1      36.112  33.785  30.067  1.00  0.00     0.057 A 
ATOM     66  C   UNL A   1      35.245  34.220  29.047  1.00  0.00     0.134 A 
ATOM     67  C   UNL A   1      35.628  33.975  31.372  1.00  0.00     0.134 A 
ATOM     68  F   UNL A   1      35.525  34.031  27.752  1.00  0.00    -0.206 F 
ATOM     69  C   UNL A   1      34.043  34.890  29.307  1.00  0.00     0.040 A 
ATOM     70  C   UNL A   1      34.451  34.688  31.647  1.00  0.00     0.040 A 
ATOM     71  F   UNL A   1      36.257  33.447  32.431  1.00  0.00    -0.206 F 
ATOM     72  C   UNL A   1      33.659  35.161  30.610  1.00  0.00     0.006 A 
ENDBRANCH  51  65
BRANCH  52  73
ATOM     73  C   UNL A   1      44.494  29.133  28.750  1.00  0.00     0.057 A 
ATOM     74  C   UNL A   1      45.365  28.137  29.229  1.00  0.00     0.134 A 
ATOM     75  C   UNL A   1      43.870  28.895  27.523  1.00  0.00     0.134 A 
ATOM     76  F   UNL A   1      45.995  28.303  30.404  1.00  0.00    -0.206 F 
ATOM     77  C   UNL A   1      45.510  26.908  28.582  1.00  0.00     0.040 A 
ATOM     78  C   UNL A   1      44.021  27.672  26.857  1.00  0.00     0.040 A 
ATOM     79  F   UNL A   1      43.011  29.787  27.008  1.00  0.00    -0.206 F 
ATOM     80  C   UNL A   1      44.807  26.659  27.408  1.00  0.00     0.006 A 
ENDBRANCH  52  73
BRANCH  64  81
ATOM     81  C   UNL A   1      42.238  36.041  28.892  1.00  0.00     0.057 A 
ATOM     82  C   UNL A   1      42.938  37.073  29.532  1.00  0.00     0.134 A 
ATOM     83  C   UNL A   1      41.732  36.376  27.611  1.00  0.00     0.134 A 
ATOM     84  F   UNL A   1      43.563  36.883  30.700  1.00  0.00    -0.206 F 
ATOM     85  C   UNL A   1      43.084  38.349  28.966  1.00  0.00     0.040 A 
ATOM     86  C   UNL A   1      41.922  37.624  27.013  1.00  0.00     0.040 A 
ATOM     87  F   UNL A   1      41.048  35.494  26.865  1.00  0.00    -0.206 F 
ATOM     88  C   UNL A   1      42.591  38.623  27.696  1.00  0.00     0.006 A 
ENDBRANCH  64  81
ENDBRANCH  38  39
ENDBRANCH  30  33
ENDBRANCH  28  29
ENDBRANCH  27  28
ENDBRANCH  26  27
ENDBRANCH   1  26
TORSDOF 16
ENDMDL
MODEL 2
REMARK VINA RESULT:     -12.5      4.081      9.192
REMARK SMILES Cc1ccccc1CNc1ccc(C(=O)NCCCCCCNC(=O)c2ccc(-c3c4nc(c(-c5c(F)cccc5F)c5ccc([nH]5)c(-c5c(F)cccc5F)c5nc(c(-c6c(F)cccc6F)c6ccc3[nH]6)C=C5)C=C4)cc2)c(F)c1F
REMARK SMILES IDX 19 1 18 2 17 3 16 4 14 5 15 6 13 8 10 9 11 10 82 11 12 12
REMARK SMILES IDX 80 13 83 14 81 15 9 16 8 18 7 19 1 20 2 21 3 22 4 23 6 24
REMARK SMILES IDX 5 25 20 26 21 27 22 28 23 29 24 30 25 32 26 33 27 34 79 35
REMARK SMILES IDX 28 36 78 37 29 38 30 39 31 40 72 41 32 42 77 43 71 44 73 45
REMARK SMILES IDX 33 46 76 47 70 48 69 49 34 51 60 52 43 53 59 54 44 55 47 56
REMARK SMILES IDX 58 57 74 58 45 59 46 60 57 62 75 63 48 64 35 65 36 66 41 67
REMARK SMILES IDX 37 68 38 69 40 70 42 71 39 72 61 73 62 74 67 75 63 76 64 77
REMARK SMILES IDX 66 78 68 79 65 80 49 81 50 82 55 83 51 84 52 85 54 86 56 87
REMARK SMILES IDX 53 88
REMARK H PARENT 16 7 9 17 23 31 73 50 47 61
REMARK Flexibility Score: inf
ROOT
ATOM      1  C   UNL A   1      33.618  28.199  25.239  1.00  0.00     0.002 C 
ENDROOT
BRANCH   1   2
ATOM      2  C   UNL A   1      33.328  29.328  24.247  1.00  0.00     0.021 C 
BRANCH   2   3
ATOM      3  C   UNL A   1      33.120  28.952  22.783  1.00  0.00     0.116 C 
BRANCH   3   4
ATOM      4  N   UNL A   1      31.779  29.159  22.279  1.00  0.00    -0.352 N 
ATOM      5  C   UNL A   1      30.632  28.421  22.480  1.00  0.00     0.254 C 
ATOM      6  O   UNL A   1      29.580  28.834  22.001  1.00  0.00    -0.269 OA
ATOM      7  H   UNL A   1      31.669  29.949  21.703  1.00  0.00     0.163 HD
BRANCH   5   8
ATOM      8  C   UNL A   1      30.640  27.160  23.263  1.00  0.00     0.078 A 
ATOM      9  C   UNL A   1      30.651  24.714  24.709  1.00  0.00     0.074 A 
ATOM     10  C   UNL A   1      30.268  25.911  25.316  1.00  0.00     0.030 A 
ATOM     11  C   UNL A   1      31.029  24.775  23.356  1.00  0.00     0.182 A 
ATOM     12  C   UNL A   1      30.218  27.108  24.594  1.00  0.00     0.019 A 
ATOM     13  C   UNL A   1      31.028  25.973  22.642  1.00  0.00     0.173 A 
ATOM     14  F   UNL A   1      31.387  23.640  22.730  1.00  0.00    -0.201 F 
ATOM     15  F   UNL A   1      31.417  25.954  21.358  1.00  0.00    -0.203 F 
BRANCH   9  16
ATOM     16  N   UNL A   1      30.642  23.499  25.368  1.00  0.00    -0.379 N 
ATOM     17  H   UNL A   1      29.871  22.908  25.210  1.00  0.00     0.161 HD
BRANCH  16  18
ATOM     18  C   UNL A   1      31.672  23.021  26.274  1.00  0.00     0.149 C 
BRANCH  18  19
ATOM     19  C   UNL A   1      33.043  23.170  25.646  1.00  0.00    -0.026 A 
ATOM     20  C   UNL A   1      32.892  20.978  24.300  1.00  0.00     0.044 C 
ATOM     21  C   UNL A   1      33.580  22.246  24.726  1.00  0.00    -0.046 A 
ATOM     22  C   UNL A   1      34.854  22.492  24.180  1.00  0.00     0.004 A 
ATOM     23  C   UNL A   1      35.574  23.643  24.501  1.00  0.00     0.000 A 
ATOM     24  C   UNL A   1      33.779  24.341  25.937  1.00  0.00     0.006 A 
ATOM     25  C   UNL A   1      35.033  24.573  25.376  1.00  0.00     0.000 A 
ENDBRANCH  18  19
ENDBRANCH  16  18
ENDBRANCH   9  16
ENDBRANCH   5   8
ENDBRANCH   3   4
ENDBRANCH   2   3
ENDBRANCH   1   2
BRANCH   1  26
ATOM     26  C   UNL A   1      33.206  28.394  26.705  1.00  0.00     0.002 C 
BRANCH  26  27
ATOM     27  C   UNL A   1      34.187  29.117  27.626  1.00  0.00     0.021 C 
BRANCH  27  28
ATOM     28  C   UNL A   1      34.331  30.612  27.391  1.00  0.00     0.116 C 
BRANCH  28  29
ATOM     29  N   UNL A   1      34.858  31.358  28.522  1.00  0.00    -0.352 N 
ATOM     30  C   UNL A   1      35.924  31.068  29.360  1.00  0.00     0.251 C 
ATOM     31  H   UNL A   1      34.386  32.198  28.724  1.00  0.00     0.163 HD
ATOM     32  O   UNL A   1      36.160  31.799  30.308  1.00  0.00    -0.269 OA
BRANCH  30  33
ATOM     33  C   UNL A   1      36.869  29.967  29.021  1.00  0.00     0.039 A 
ATOM     34  C   UNL A   1      37.042  28.953  29.973  1.00  0.00     0.014 A 
ATOM     35  C   UNL A   1      37.720  30.031  27.923  1.00  0.00     0.014 A 
ATOM     36  C   UNL A   1      38.215  28.201  29.970  1.00  0.00     0.010 A 
ATOM     37  C   UNL A   1      38.926  29.367  27.971  1.00  0.00     0.010 A 
ATOM     38  C   UNL A   1      39.202  28.509  29.038  1.00  0.00    -0.014 A 
BRANCH  38  39
ATOM     39  C   UNL A   1      40.587  28.087  29.166  1.00  0.00     0.031 A 
ATOM     40  C   UNL A   1      41.051  26.839  28.536  1.00  0.00     0.074 A 
ATOM     41  C   UNL A   1      41.464  28.903  29.793  1.00  0.00     0.049 A 
ATOM     42  N   UNL A   1      42.076  26.172  28.943  1.00  0.00    -0.248 NA
ATOM     43  C   UNL A   1      40.371  26.221  27.403  1.00  0.00     0.031 C 
ATOM     44  C   UNL A   1      42.920  28.807  29.795  1.00  0.00     0.029 A 
ATOM     45  N   UNL A   1      41.178  29.893  30.743  1.00  0.00    -0.354 N 
ATOM     46  C   UNL A   1      42.348  25.209  28.002  1.00  0.00     0.074 A 
ATOM     47  C   UNL A   1      41.226  25.242  27.090  1.00  0.00     0.031 C 
ATOM     48  C   UNL A   1      43.395  29.465  30.864  1.00  0.00     0.029 A 
ATOM     49  C   UNL A   1      42.251  29.880  31.657  1.00  0.00     0.049 A 
ATOM     50  H   UNL A   1      40.387  30.479  30.766  1.00  0.00     0.167 HD
ATOM     51  C   UNL A   1      43.553  24.575  28.021  1.00  0.00     0.037 A 
ATOM     52  C   UNL A   1      42.060  29.570  32.972  1.00  0.00     0.037 A 
ATOM     53  C   UNL A   1      44.382  25.049  29.123  1.00  0.00     0.049 A 
ATOM     54  C   UNL A   1      42.843  28.365  33.435  1.00  0.00     0.074 A 
ATOM     55  C   UNL A   1      45.370  26.018  29.196  1.00  0.00     0.029 A 
ATOM     56  N   UNL A   1      44.020  24.755  30.431  1.00  0.00    -0.354 N 
ATOM     57  N   UNL A   1      43.334  27.464  32.628  1.00  0.00    -0.248 NA
ATOM     58  C   UNL A   1      43.127  28.069  34.835  1.00  0.00     0.031 C 
ATOM     59  C   UNL A   1      45.574  26.337  30.560  1.00  0.00     0.029 A 
ATOM     60  C   UNL A   1      44.727  25.546  31.315  1.00  0.00     0.049 A 
ATOM     61  H   UNL A   1      43.355  24.078  30.692  1.00  0.00     0.167 HD
ATOM     62  C   UNL A   1      43.967  26.487  33.357  1.00  0.00     0.074 A 
ATOM     63  C   UNL A   1      43.826  26.924  34.732  1.00  0.00     0.031 C 
ATOM     64  C   UNL A   1      44.543  25.406  32.751  1.00  0.00     0.037 A 
BRANCH  51  65
ATOM     65  C   UNL A   1      44.070  23.750  26.872  1.00  0.00     0.057 A 
ATOM     66  C   UNL A   1      44.948  24.298  25.918  1.00  0.00     0.134 A 
ATOM     67  C   UNL A   1      43.706  22.414  26.636  1.00  0.00     0.134 A 
ATOM     68  F   UNL A   1      45.455  25.530  26.049  1.00  0.00    -0.206 F 
ATOM     69  C   UNL A   1      45.344  23.609  24.765  1.00  0.00     0.040 A 
ATOM     70  C   UNL A   1      44.053  21.729  25.462  1.00  0.00     0.040 A 
ATOM     71  F   UNL A   1      43.027  21.706  27.550  1.00  0.00    -0.206 F 
ATOM     72  C   UNL A   1      44.866  22.333  24.513  1.00  0.00     0.006 A 
ENDBRANCH  51  65
BRANCH  52  73
ATOM     73  C   UNL A   1      40.724  29.979  33.477  1.00  0.00     0.057 A 
ATOM     74  C   UNL A   1      40.523  31.331  33.813  1.00  0.00     0.134 A 
ATOM     75  C   UNL A   1      39.584  29.203  33.252  1.00  0.00     0.134 A 
ATOM     76  F   UNL A   1      41.577  32.131  34.041  1.00  0.00    -0.206 F 
ATOM     77  C   UNL A   1      39.254  31.914  33.800  1.00  0.00     0.040 A 
ATOM     78  C   UNL A   1      38.306  29.776  33.250  1.00  0.00     0.040 A 
ATOM     79  F   UNL A   1      39.694  27.912  32.908  1.00  0.00    -0.206 F 
ATOM     80  C   UNL A   1      38.142  31.142  33.481  1.00  0.00     0.006 A 
ENDBRANCH  52  73
BRANCH  64  81
ATOM     81  C   UNL A   1      45.067  24.151  33.418  1.00  0.00     0.057 A 
ATOM     82  C   UNL A   1      46.336  24.028  34.001  1.00  0.00     0.134 A 
ATOM     83  C   UNL A   1      44.208  23.044  33.630  1.00  0.00     0.134 A 
ATOM     84  F   UNL A   1      47.224  25.029  33.977  1.00  0.00    -0.206 F 
ATOM     85  C   UNL A   1      46.735  22.879  34.701  1.00  0.00     0.040 A 
ATOM     86  C   UNL A   1      44.575  21.919  34.375  1.00  0.00     0.040 A 
ATOM     87  F   UNL A   1      42.957  23.012  33.145  1.00  0.00    -0.206 F 
ATOM     88  C   UNL A   1      45.850  21.827  34.905  1.00  0.00     0.006 A 
ENDBRANCH  64  81
ENDBRANCH  38  39
ENDBRANCH  30  33
ENDBRANCH  28  29
ENDBRANCH  27  28
ENDBRANCH  26  27
ENDBRANCH   1  26
TORSDOF 16
ENDMDL
MODEL 3
REMARK VINA RESULT:     -12.3      3.666      8.537
REMARK SMILES Cc1ccccc1CNc1ccc(C(=O)NCCCCCCNC(=O)c2ccc(-c3c4nc(c(-c5c(F)cccc5F)c5ccc([nH]5)c(-c5c(F)cccc5F)c5nc(c(-c6c(F)cccc6F)c6ccc3[nH]6)C=C5)C=C4)cc2)c(F)c1F
REMARK SMILES IDX 19 1 18 2 17 3 16 4 14 5 15 6 13 8 10 9 11 10 82 11 12 12
REMARK SMILES IDX 80 13 83 14 81 15 9 16 8 18 7 19 1 20 2 21 3 22 4 23 6 24
REMARK SMILES IDX 5 25 20 26 21 27 22 28 23 29 24 30 25 32 26 33 27 34 79 35
REMARK SMILES IDX 28 36 78 37 29 38 30 39 31 40 72 41 32 42 77 43 71 44 73 45
REMARK SMILES IDX 33 46 76 47 70 48 69 49 34 51 60 52 43 53 59 54 44 55 47 56
REMARK SMILES IDX 58 57 74 58 45 59 46 60 57 62 75 63 48 64 35 65 36 66 41 67
REMARK SMILES IDX 37 68 38 69 40 70 42 71 39 72 61 73 62 74 67 75 63 76 64 77
REMARK SMILES IDX 66 78 68 79 65 80 49 81 50 82 55 83 51 84 52 85 54 86 56 87
REMARK SMILES IDX 53 88
REMARK H PARENT 16 7 9 17 23 31 73 50 47 61
REMARK Flexibility Score: inf
ROOT
ATOM      1  C   UNL A   1      33.914  28.384  25.762  1.00  0.00     0.002 C 
ENDROOT
BRANCH   1   2
ATOM      2  C   UNL A   1      33.120  29.342  24.870  1.00  0.00     0.021 C 
BRANCH   2   3
ATOM      3  C   UNL A   1      31.598  29.303  24.964  1.00  0.00     0.116 C 
BRANCH   3   4
ATOM      4  N   UNL A   1      30.899  29.611  23.735  1.00  0.00    -0.352 N 
ATOM      5  C   UNL A   1      30.652  28.822  22.631  1.00  0.00     0.254 C 
ATOM      6  O   UNL A   1      29.968  29.284  21.723  1.00  0.00    -0.269 OA
ATOM      7  H   UNL A   1      30.544  30.528  23.677  1.00  0.00     0.163 HD
BRANCH   5   8
ATOM      8  C   UNL A   1      31.181  27.439  22.525  1.00  0.00     0.078 A 
ATOM      9  C   UNL A   1      32.157  24.775  22.368  1.00  0.00     0.074 A 
ATOM     10  C   UNL A   1      32.899  25.847  21.871  1.00  0.00     0.030 A 
ATOM     11  C   UNL A   1      30.911  25.073  22.946  1.00  0.00     0.182 A 
ATOM     12  C   UNL A   1      32.441  27.164  21.989  1.00  0.00     0.019 A 
ATOM     13  C   UNL A   1      30.425  26.379  23.024  1.00  0.00     0.173 A 
ATOM     14  F   UNL A   1      30.174  24.070  23.453  1.00  0.00    -0.201 F 
ATOM     15  F   UNL A   1      29.220  26.583  23.576  1.00  0.00    -0.203 F 
BRANCH   9  16
ATOM     16  N   UNL A   1      32.609  23.469  22.339  1.00  0.00    -0.379 N 
ATOM     17  H   UNL A   1      32.694  23.043  21.456  1.00  0.00     0.161 HD
BRANCH  16  18
ATOM     18  C   UNL A   1      32.969  22.673  23.499  1.00  0.00     0.149 C 
BRANCH  18  19
ATOM     19  C   UNL A   1      34.310  23.113  24.050  1.00  0.00    -0.026 A 
ATOM     20  C   UNL A   1      33.297  24.537  25.943  1.00  0.00     0.044 C 
ATOM     21  C   UNL A   1      34.450  23.942  25.181  1.00  0.00    -0.046 A 
ATOM     22  C   UNL A   1      35.744  24.273  25.629  1.00  0.00     0.004 A 
ATOM     23  C   UNL A   1      36.882  23.766  25.000  1.00  0.00     0.000 A 
ATOM     24  C   UNL A   1      35.477  22.593  23.445  1.00  0.00     0.006 A 
ATOM     25  C   UNL A   1      36.748  22.920  23.910  1.00  0.00     0.000 A 
ENDBRANCH  18  19
ENDBRANCH  16  18
ENDBRANCH   9  16
ENDBRANCH   5   8
ENDBRANCH   3   4
ENDBRANCH   2   3
ENDBRANCH   1   2
BRANCH   1  26
ATOM     26  C   UNL A   1      34.703  28.971  26.941  1.00  0.00     0.002 C 
BRANCH  26  27
ATOM     27  C   UNL A   1      34.046  30.093  27.743  1.00  0.00     0.021 C 
BRANCH  27  28
ATOM     28  C   UNL A   1      34.718  31.453  27.645  1.00  0.00     0.116 C 
BRANCH  28  29
ATOM     29  N   UNL A   1      33.954  32.552  28.213  1.00  0.00    -0.352 N 
ATOM     30  C   UNL A   1      34.224  33.343  29.319  1.00  0.00     0.251 C 
ATOM     31  H   UNL A   1      33.119  32.768  27.740  1.00  0.00     0.163 HD
ATOM     32  O   UNL A   1      33.407  34.178  29.675  1.00  0.00    -0.269 OA
BRANCH  30  33
ATOM     33  C   UNL A   1      35.561  33.290  29.974  1.00  0.00     0.039 A 
ATOM     34  C   UNL A   1      36.603  34.006  29.368  1.00  0.00     0.014 A 
ATOM     35  C   UNL A   1      35.847  32.405  31.008  1.00  0.00     0.014 A 
ATOM     36  C   UNL A   1      37.923  33.625  29.599  1.00  0.00     0.010 A 
ATOM     37  C   UNL A   1      37.139  31.954  31.165  1.00  0.00     0.010 A 
ATOM     38  C   UNL A   1      38.165  32.515  30.402  1.00  0.00    -0.014 A 
BRANCH  38  39
ATOM     39  C   UNL A   1      39.426  31.791  30.411  1.00  0.00     0.031 A 
ATOM     40  C   UNL A   1      39.583  30.548  29.638  1.00  0.00     0.074 A 
ATOM     41  C   UNL A   1      40.481  32.325  31.067  1.00  0.00     0.049 A 
ATOM     42  N   UNL A   1      40.447  29.635  29.920  1.00  0.00    -0.248 NA
ATOM     43  C   UNL A   1      38.747  30.218  28.488  1.00  0.00     0.031 C 
ATOM     44  C   UNL A   1      41.880  31.916  30.979  1.00  0.00     0.029 A 
ATOM     45  N   UNL A   1      40.452  33.245  32.123  1.00  0.00    -0.354 N 
ATOM     46  C   UNL A   1      40.469  28.743  28.875  1.00  0.00     0.074 A 
ATOM     47  C   UNL A   1      39.354  29.117  28.034  1.00  0.00     0.031 C 
ATOM     48  C   UNL A   1      42.523  32.336  32.080  1.00  0.00     0.029 A 
ATOM     49  C   UNL A   1      41.525  32.901  32.972  1.00  0.00     0.049 A 
ATOM     50  H   UNL A   1      39.812  33.983  32.247  1.00  0.00     0.167 HD
ATOM     51  C   UNL A   1      41.505  27.865  28.765  1.00  0.00     0.037 A 
ATOM     52  C   UNL A   1      41.312  32.499  34.258  1.00  0.00     0.037 A 
ATOM     53  C   UNL A   1      42.453  28.026  29.862  1.00  0.00     0.049 A 
ATOM     54  C   UNL A   1      41.824  31.110  34.557  1.00  0.00     0.074 A 
ATOM     55  C   UNL A   1      43.632  28.744  29.975  1.00  0.00     0.029 A 
ATOM     56  N   UNL A   1      42.077  27.678  31.152  1.00  0.00    -0.354 N 
ATOM     57  N   UNL A   1      42.077  30.218  33.640  1.00  0.00    -0.248 NA
ATOM     58  C   UNL A   1      42.080  30.610  35.903  1.00  0.00     0.031 C 
ATOM     59  C   UNL A   1      43.946  28.862  31.351  1.00  0.00     0.029 A 
ATOM     60  C   UNL A   1      42.969  28.197  32.069  1.00  0.00     0.049 A 
ATOM     61  H   UNL A   1      41.287  27.137  31.381  1.00  0.00     0.167 HD
ATOM     62  C   UNL A   1      42.502  29.054  34.233  1.00  0.00     0.074 A 
ATOM     63  C   UNL A   1      42.504  29.360  35.650  1.00  0.00     0.031 C 
ATOM     64  C   UNL A   1      42.805  27.945  33.493  1.00  0.00     0.037 A 
BRANCH  51  65
ATOM     65  C   UNL A   1      41.789  27.076  27.514  1.00  0.00     0.057 A 
ATOM     66  C   UNL A   1      41.514  25.697  27.443  1.00  0.00     0.134 A 
ATOM     67  C   UNL A   1      42.371  27.620  26.357  1.00  0.00     0.134 A 
ATOM     68  F   UNL A   1      40.883  25.051  28.430  1.00  0.00    -0.206 F 
ATOM     69  C   UNL A   1      41.887  24.903  26.351  1.00  0.00     0.040 A 
ATOM     70  C   UNL A   1      42.795  26.829  25.279  1.00  0.00     0.040 A 
ATOM     71  F   UNL A   1      42.520  28.944  26.210  1.00  0.00    -0.206 F 
ATOM     72  C   UNL A   1      42.565  25.461  25.279  1.00  0.00     0.006 A 
ENDBRANCH  51  65
BRANCH  52  73
ATOM     73  C   UNL A   1      40.116  33.131  34.874  1.00  0.00     0.057 A 
ATOM     74  C   UNL A   1      38.915  32.398  34.902  1.00  0.00     0.134 A 
ATOM     75  C   UNL A   1      40.227  34.205  35.761  1.00  0.00     0.134 A 
ATOM     76  F   UNL A   1      38.746  31.353  34.075  1.00  0.00    -0.206 F 
ATOM     77  C   UNL A   1      37.922  32.643  35.853  1.00  0.00     0.040 A 
ATOM     78  C   UNL A   1      39.230  34.467  36.709  1.00  0.00     0.040 A 
ATOM     79  F   UNL A   1      41.348  34.939  35.808  1.00  0.00    -0.206 F 
ATOM     80  C   UNL A   1      38.096  33.659  36.786  1.00  0.00     0.006 A 
ENDBRANCH  52  73
BRANCH  64  81
ATOM     81  C   UNL A   1      43.060  26.542  34.003  1.00  0.00     0.057 A 
ATOM     82  C   UNL A   1      44.287  25.871  33.913  1.00  0.00     0.134 A 
ATOM     83  C   UNL A   1      42.072  25.870  34.766  1.00  0.00     0.134 A 
ATOM     84  F   UNL A   1      45.350  26.422  33.315  1.00  0.00    -0.206 F 
ATOM     85  C   UNL A   1      44.502  24.613  34.497  1.00  0.00     0.040 A 
ATOM     86  C   UNL A   1      42.295  24.645  35.400  1.00  0.00     0.040 A 
ATOM     87  F   UNL A   1      40.848  26.386  34.955  1.00  0.00    -0.206 F 
ATOM     88  C   UNL A   1      43.512  24.003  35.257  1.00  0.00     0.006 A 
ENDBRANCH  64  81
ENDBRANCH  38  39
ENDBRANCH  30  33
ENDBRANCH  28  29
ENDBRANCH  27  28
ENDBRANCH  26  27
ENDBRANCH   1  26
TORSDOF 16
ENDMDL
