MODEL 1
REMARK VINA RESULT:     -12.1      0.000      0.000
REMARK SMILES Cc1ccc(Nc2c(F)cccc2Cl)c(CC(=O)NCCCCCCNC(=O)c2ccc(-c3c4nc(c(-c5c(F)cccc5F)c5ccc([nH]5)c(-c5c(F)cccc5F)c5nc(c(-c6c(F)cccc6F)c6ccc3[nH]6)C=C5)C=C4)cc2)c1
REMARK SMILES IDX 22 1 21 2 20 3 19 4 17 5 18 6 16 8 15 9 1 10 2 11 3 12 83 13
REMARK SMILES IDX 4 14 5 15 6 16 7 18 8 19 13 20 9 21 10 22 12 23 14 24 11 25
REMARK SMILES IDX 23 26 24 27 25 28 26 29 27 30 28 32 29 33 30 34 82 35 31 36
REMARK SMILES IDX 81 37 32 38 33 39 34 40 75 41 35 42 80 43 74 44 76 45 36 46
REMARK SMILES IDX 79 47 73 48 72 49 37 51 63 52 46 53 62 54 47 55 50 56 61 57
REMARK SMILES IDX 77 58 48 59 49 60 60 62 78 63 51 64 38 65 39 66 44 67 40 68
REMARK SMILES IDX 41 69 43 70 45 71 42 72 64 73 65 74 70 75 66 76 67 77 69 78
REMARK SMILES IDX 71 79 68 80 52 81 53 82 58 83 54 84 55 85 57 86 59 87 56 88
REMARK H PARENT 19 7 6 17 26 31 76 50 50 61
REMARK Flexibility Score: inf
ROOT
ATOM      1  C   UNL A   1      33.359  29.001  26.362  1.00  0.00     0.002 C 
ENDROOT
BRANCH   1   2
ATOM      2  C   UNL A   1      32.225  28.281  27.106  1.00  0.00     0.021 C 
BRANCH   2   3
ATOM      3  C   UNL A   1      31.331  27.396  26.231  1.00  0.00     0.116 C 
BRANCH   3   4
ATOM      4  N   UNL A   1      31.124  26.089  26.818  1.00  0.00    -0.356 N 
ATOM      5  C   UNL A   1      31.904  24.977  26.722  1.00  0.00     0.224 C 
ATOM      6  O   UNL A   1      31.474  23.915  27.180  1.00  0.00    -0.275 OA
ATOM      7  H   UNL A   1      30.308  25.990  27.360  1.00  0.00     0.163 HD
BRANCH   5   8
ATOM      8  C   UNL A   1      33.266  25.035  26.055  1.00  0.00     0.137 C 
BRANCH   8   9
ATOM      9  C   UNL A   1      33.272  24.554  24.619  1.00  0.00    -0.015 A 
ATOM     10  C   UNL A   1      31.998  25.929  21.280  1.00  0.00     0.044 C 
ATOM     11  C   UNL A   1      32.633  25.035  22.301  1.00  0.00    -0.051 A 
ATOM     12  C   UNL A   1      33.129  23.789  21.927  1.00  0.00     0.005 A 
ATOM     13  C   UNL A   1      32.736  25.420  23.639  1.00  0.00     0.009 A 
ATOM     14  C   UNL A   1      33.703  22.943  22.880  1.00  0.00     0.026 A 
ATOM     15  C   UNL A   1      33.774  23.291  24.239  1.00  0.00     0.042 A 
BRANCH  15  16
ATOM     16  N   UNL A   1      34.363  22.421  25.181  1.00  0.00    -0.352 N 
ATOM     17  H   UNL A   1      33.890  22.349  26.041  1.00  0.00     0.167 HD
BRANCH  16  18
ATOM     18  C   UNL A   1      35.535  21.638  25.069  1.00  0.00     0.094 A 
ATOM     19  C   UNL A   1      35.488  20.252  24.853  1.00  0.00     0.148 A 
ATOM     20  C   UNL A   1      36.802  22.217  25.266  1.00  0.00     0.067 A 
ATOM     21  F   UNL A   1      34.313  19.639  24.638  1.00  0.00    -0.205 F 
ATOM     22  C   UNL A   1      36.642  19.469  24.837  1.00  0.00     0.041 A 
ATOM     23  C   UNL A   1      37.965  21.437  25.259  1.00  0.00     0.023 A 
ATOM     24  Cl  UNL A   1      36.968  23.913  25.574  1.00  0.00    -0.082 Cl
ATOM     25  C   UNL A   1      37.884  20.061  25.048  1.00  0.00     0.005 A 
ENDBRANCH  16  18
ENDBRANCH  15  16
ENDBRANCH   8   9
ENDBRANCH   5   8
ENDBRANCH   3   4
ENDBRANCH   2   3
ENDBRANCH   1   2
BRANCH   1  26
ATOM     26  C   UNL A   1      34.391  29.738  27.232  1.00  0.00     0.002 C 
BRANCH  26  27
ATOM     27  C   UNL A   1      34.007  31.152  27.671  1.00  0.00     0.021 C 
BRANCH  27  28
ATOM     28  C   UNL A   1      35.188  32.094  27.863  1.00  0.00     0.116 C 
BRANCH  28  29
ATOM     29  N   UNL A   1      35.555  32.299  29.257  1.00  0.00    -0.352 N 
ATOM     30  C   UNL A   1      36.290  31.503  30.119  1.00  0.00     0.251 C 
ATOM     31  H   UNL A   1      35.228  33.141  29.651  1.00  0.00     0.163 HD
ATOM     32  O   UNL A   1      36.420  31.839  31.285  1.00  0.00    -0.269 OA
BRANCH  30  33
ATOM     33  C   UNL A   1      37.053  30.336  29.597  1.00  0.00     0.039 A 
ATOM     34  C   UNL A   1      37.099  29.193  30.408  1.00  0.00     0.014 A 
ATOM     35  C   UNL A   1      37.884  30.428  28.487  1.00  0.00     0.014 A 
ATOM     36  C   UNL A   1      38.165  28.309  30.285  1.00  0.00     0.010 A 
ATOM     37  C   UNL A   1      38.994  29.611  28.420  1.00  0.00     0.010 A 
ATOM     38  C   UNL A   1      39.179  28.614  29.383  1.00  0.00    -0.014 A 
BRANCH  38  39
ATOM     39  C   UNL A   1      40.536  28.096  29.498  1.00  0.00     0.031 A 
ATOM     40  C   UNL A   1      40.895  26.776  28.948  1.00  0.00     0.074 A 
ATOM     41  C   UNL A   1      41.495  28.923  29.973  1.00  0.00     0.049 A 
ATOM     42  N   UNL A   1      42.033  26.204  29.148  1.00  0.00    -0.248 NA
ATOM     43  C   UNL A   1      39.968  25.951  28.177  1.00  0.00     0.031 C 
ATOM     44  C   UNL A   1      42.943  28.790  29.839  1.00  0.00     0.029 A 
ATOM     45  N   UNL A   1      41.330  29.964  30.900  1.00  0.00    -0.354 N 
ATOM     46  C   UNL A   1      42.105  25.118  28.315  1.00  0.00     0.074 A 
ATOM     47  C   UNL A   1      40.757  24.923  27.845  1.00  0.00     0.031 C 
ATOM     48  C   UNL A   1      43.532  29.471  30.835  1.00  0.00     0.029 A 
ATOM     49  C   UNL A   1      42.479  29.919  31.726  1.00  0.00     0.049 A 
ATOM     50  H   UNL A   1      40.574  30.592  30.963  1.00  0.00     0.167 HD
ATOM     51  C   UNL A   1      43.331  24.600  28.030  1.00  0.00     0.037 A 
ATOM     52  C   UNL A   1      42.369  29.573  33.043  1.00  0.00     0.037 A 
ATOM     53  C   UNL A   1      44.331  25.062  28.996  1.00  0.00     0.049 A 
ATOM     54  C   UNL A   1      43.098  28.300  33.430  1.00  0.00     0.074 A 
ATOM     55  C   UNL A   1      45.392  25.950  28.979  1.00  0.00     0.029 A 
ATOM     56  N   UNL A   1      44.133  24.732  30.327  1.00  0.00    -0.354 N 
ATOM     57  N   UNL A   1      43.746  27.534  32.595  1.00  0.00    -0.248 NA
ATOM     58  C   UNL A   1      43.070  27.742  34.785  1.00  0.00     0.031 C 
ATOM     59  C   UNL A   1      45.757  26.221  30.336  1.00  0.00     0.029 A 
ATOM     60  C   UNL A   1      44.944  25.468  31.165  1.00  0.00     0.049 A 
ATOM     61  H   UNL A   1      43.491  24.054  30.638  1.00  0.00     0.167 HD
ATOM     62  C   UNL A   1      44.140  26.394  33.238  1.00  0.00     0.074 A 
ATOM     63  C   UNL A   1      43.710  26.574  34.613  1.00  0.00     0.031 C 
ATOM     64  C   UNL A   1      44.745  25.352  32.601  1.00  0.00     0.037 A 
BRANCH  51  65
ATOM     65  C   UNL A   1      43.667  23.770  26.809  1.00  0.00     0.057 A 
ATOM     66  C   UNL A   1      43.393  22.389  26.797  1.00  0.00     0.134 A 
ATOM     67  C   UNL A   1      44.372  24.227  25.676  1.00  0.00     0.134 A 
ATOM     68  F   UNL A   1      42.748  21.794  27.811  1.00  0.00    -0.206 F 
ATOM     69  C   UNL A   1      43.791  21.539  25.754  1.00  0.00     0.040 A 
ATOM     70  C   UNL A   1      44.729  23.398  24.603  1.00  0.00     0.040 A 
ATOM     71  F   UNL A   1      44.818  25.481  25.558  1.00  0.00    -0.206 F 
ATOM     72  C   UNL A   1      44.452  22.043  24.645  1.00  0.00     0.006 A 
ENDBRANCH  51  65
BRANCH  52  73
ATOM     73  C   UNL A   1      41.103  30.050  33.659  1.00  0.00     0.057 A 
ATOM     74  C   UNL A   1      41.021  31.389  34.080  1.00  0.00     0.134 A 
ATOM     75  C   UNL A   1      39.900  29.356  33.506  1.00  0.00     0.134 A 
ATOM     76  F   UNL A   1      42.139  32.114  34.249  1.00  0.00    -0.206 F 
ATOM     77  C   UNL A   1      39.796  32.044  34.225  1.00  0.00     0.040 A 
ATOM     78  C   UNL A   1      38.667  29.996  33.666  1.00  0.00     0.040 A 
ATOM     79  F   UNL A   1      39.894  28.083  33.084  1.00  0.00    -0.206 F 
ATOM     80  C   UNL A   1      38.613  31.352  33.985  1.00  0.00     0.006 A 
ENDBRANCH  52  73
BRANCH  64  81
ATOM     81  C   UNL A   1      45.172  24.114  33.326  1.00  0.00     0.057 A 
ATOM     82  C   UNL A   1      44.309  23.025  33.499  1.00  0.00     0.134 A 
ATOM     83  C   UNL A   1      46.417  24.029  33.974  1.00  0.00     0.134 A 
ATOM     84  F   UNL A   1      43.089  23.020  32.939  1.00  0.00    -0.206 F 
ATOM     85  C   UNL A   1      44.667  21.909  34.263  1.00  0.00     0.040 A 
ATOM     86  C   UNL A   1      46.769  22.940  34.774  1.00  0.00     0.040 A 
ATOM     87  F   UNL A   1      47.343  24.990  33.836  1.00  0.00    -0.206 F 
ATOM     88  C   UNL A   1      45.893  21.871  34.918  1.00  0.00     0.006 A 
ENDBRANCH  64  81
ENDBRANCH  38  39
ENDBRANCH  30  33
ENDBRANCH  28  29
ENDBRANCH  27  28
ENDBRANCH  26  27
ENDBRANCH   1  26
TORSDOF 16
ENDMDL
MODEL 2
REMARK VINA RESULT:     -12.1      1.615      3.235
REMARK SMILES Cc1ccc(Nc2c(F)cccc2Cl)c(CC(=O)NCCCCCCNC(=O)c2ccc(-c3c4nc(c(-c5c(F)cccc5F)c5ccc([nH]5)c(-c5c(F)cccc5F)c5nc(c(-c6c(F)cccc6F)c6ccc3[nH]6)C=C5)C=C4)cc2)c1
REMARK SMILES IDX 22 1 21 2 20 3 19 4 17 5 18 6 16 8 15 9 1 10 2 11 3 12 83 13
REMARK SMILES IDX 4 14 5 15 6 16 7 18 8 19 13 20 9 21 10 22 12 23 14 24 11 25
REMARK SMILES IDX 23 26 24 27 25 28 26 29 27 30 28 32 29 33 30 34 82 35 31 36
REMARK SMILES IDX 81 37 32 38 33 39 34 40 75 41 35 42 80 43 74 44 76 45 36 46
REMARK SMILES IDX 79 47 73 48 72 49 37 51 63 52 46 53 62 54 47 55 50 56 61 57
REMARK SMILES IDX 77 58 48 59 49 60 60 62 78 63 51 64 38 65 39 66 44 67 40 68
REMARK SMILES IDX 41 69 43 70 45 71 42 72 64 73 65 74 70 75 66 76 67 77 69 78
REMARK SMILES IDX 71 79 68 80 52 81 53 82 58 83 54 84 55 85 57 86 59 87 56 88
REMARK H PARENT 19 7 6 17 26 31 76 50 50 61
REMARK Flexibility Score: inf
ROOT
ATOM      1  C   UNL A   1      32.909  28.313  27.234  1.00  0.00     0.002 C 
ENDROOT
BRANCH   1   2
ATOM      2  C   UNL A   1      32.691  27.165  26.236  1.00  0.00     0.021 C 
BRANCH   2   3
ATOM      3  C   UNL A   1      31.274  26.583  26.213  1.00  0.00     0.116 C 
BRANCH   3   4
ATOM      4  N   UNL A   1      31.194  25.328  26.929  1.00  0.00    -0.356 N 
ATOM      5  C   UNL A   1      30.858  24.096  26.457  1.00  0.00     0.224 C 
ATOM      6  O   UNL A   1      30.707  23.176  27.265  1.00  0.00    -0.275 OA
ATOM      7  H   UNL A   1      31.413  25.370  27.887  1.00  0.00     0.163 HD
BRANCH   5   8
ATOM      8  C   UNL A   1      30.655  23.858  24.971  1.00  0.00     0.137 C 
BRANCH   8   9
ATOM      9  C   UNL A   1      31.935  23.590  24.207  1.00  0.00    -0.015 A 
ATOM     10  C   UNL A   1      35.033  21.409  24.762  1.00  0.00     0.044 C 
ATOM     11  C   UNL A   1      34.062  22.372  24.149  1.00  0.00    -0.051 A 
ATOM     12  C   UNL A   1      34.385  23.033  22.968  1.00  0.00     0.005 A 
ATOM     13  C   UNL A   1      32.827  22.633  24.744  1.00  0.00     0.009 A 
ATOM     14  C   UNL A   1      33.492  23.948  22.404  1.00  0.00     0.026 A 
ATOM     15  C   UNL A   1      32.263  24.260  23.010  1.00  0.00     0.042 A 
BRANCH  15  16
ATOM     16  N   UNL A   1      31.377  25.184  22.419  1.00  0.00    -0.352 N 
ATOM     17  H   UNL A   1      30.865  24.844  21.649  1.00  0.00     0.167 HD
BRANCH  16  18
ATOM     18  C   UNL A   1      31.116  26.529  22.771  1.00  0.00     0.094 A 
ATOM     19  C   UNL A   1      29.862  26.947  23.242  1.00  0.00     0.148 A 
ATOM     20  C   UNL A   1      32.092  27.522  22.566  1.00  0.00     0.067 A 
ATOM     21  F   UNL A   1      28.893  26.048  23.478  1.00  0.00    -0.205 F 
ATOM     22  C   UNL A   1      29.581  28.289  23.499  1.00  0.00     0.041 A 
ATOM     23  C   UNL A   1      31.815  28.873  22.814  1.00  0.00     0.023 A 
ATOM     24  Cl  UNL A   1      33.660  27.118  21.954  1.00  0.00    -0.082 Cl
ATOM     25  C   UNL A   1      30.556  29.256  23.277  1.00  0.00     0.005 A 
ENDBRANCH  16  18
ENDBRANCH  15  16
ENDBRANCH   8   9
ENDBRANCH   5   8
ENDBRANCH   3   4
ENDBRANCH   2   3
ENDBRANCH   1   2
BRANCH   1  26
ATOM     26  C   UNL A   1      32.195  29.638  26.921  1.00  0.00     0.002 C 
BRANCH  26  27
ATOM     27  C   UNL A   1      32.930  30.911  27.344  1.00  0.00     0.021 C 
BRANCH  27  28
ATOM     28  C   UNL A   1      34.448  30.817  27.265  1.00  0.00     0.116 C 
BRANCH  28  29
ATOM     29  N   UNL A   1      35.138  31.577  28.298  1.00  0.00    -0.352 N 
ATOM     30  C   UNL A   1      36.193  31.222  29.121  1.00  0.00     0.251 C 
ATOM     31  H   UNL A   1      34.800  32.492  28.431  1.00  0.00     0.163 HD
ATOM     32  O   UNL A   1      36.576  32.002  29.978  1.00  0.00    -0.269 OA
BRANCH  30  33
ATOM     33  C   UNL A   1      36.962  29.974  28.860  1.00  0.00     0.039 A 
ATOM     34  C   UNL A   1      37.043  29.047  29.909  1.00  0.00     0.014 A 
ATOM     35  C   UNL A   1      37.769  29.819  27.738  1.00  0.00     0.014 A 
ATOM     36  C   UNL A   1      38.119  28.169  29.964  1.00  0.00     0.010 A 
ATOM     37  C   UNL A   1      38.889  29.019  27.832  1.00  0.00     0.010 A 
ATOM     38  C   UNL A   1      39.110  28.270  28.993  1.00  0.00    -0.014 A 
BRANCH  38  39
ATOM     39  C   UNL A   1      40.476  27.805  29.190  1.00  0.00     0.031 A 
ATOM     40  C   UNL A   1      40.906  26.481  28.707  1.00  0.00     0.074 A 
ATOM     41  C   UNL A   1      41.382  28.683  29.679  1.00  0.00     0.049 A 
ATOM     42  N   UNL A   1      42.052  25.958  28.981  1.00  0.00    -0.248 NA
ATOM     43  C   UNL A   1      40.046  25.597  27.924  1.00  0.00     0.031 C 
ATOM     44  C   UNL A   1      42.839  28.597  29.618  1.00  0.00     0.029 A 
ATOM     45  N   UNL A   1      41.137  29.749  30.557  1.00  0.00    -0.354 N 
ATOM     46  C   UNL A   1      42.201  24.846  28.192  1.00  0.00     0.074 A 
ATOM     47  C   UNL A   1      40.884  24.587  27.667  1.00  0.00     0.031 C 
ATOM     48  C   UNL A   1      43.356  29.334  30.614  1.00  0.00     0.029 A 
ATOM     49  C   UNL A   1      42.246  29.775  31.438  1.00  0.00     0.049 A 
ATOM     50  H   UNL A   1      40.359  30.352  30.562  1.00  0.00     0.167 HD
ATOM     51  C   UNL A   1      43.456  24.363  27.984  1.00  0.00     0.037 A 
ATOM     52  C   UNL A   1      42.085  29.472  32.760  1.00  0.00     0.037 A 
ATOM     53  C   UNL A   1      44.393  24.894  28.978  1.00  0.00     0.049 A 
ATOM     54  C   UNL A   1      42.838  28.240  33.227  1.00  0.00     0.074 A 
ATOM     55  C   UNL A   1      45.422  25.819  28.978  1.00  0.00     0.029 A 
ATOM     56  N   UNL A   1      44.142  24.604  30.310  1.00  0.00    -0.354 N 
ATOM     57  N   UNL A   1      43.551  27.469  32.452  1.00  0.00    -0.248 NA
ATOM     58  C   UNL A   1      42.763  27.729  34.599  1.00  0.00     0.031 C 
ATOM     59  C   UNL A   1      45.712  26.150  30.340  1.00  0.00     0.029 A 
ATOM     60  C   UNL A   1      44.886  25.398  31.158  1.00  0.00     0.049 A 
ATOM     61  H   UNL A   1      43.509  23.915  30.615  1.00  0.00     0.167 HD
ATOM     62  C   UNL A   1      43.953  26.366  33.155  1.00  0.00     0.074 A 
ATOM     63  C   UNL A   1      43.451  26.579  34.500  1.00  0.00     0.031 C 
ATOM     64  C   UNL A   1      44.623  25.325  32.586  1.00  0.00     0.037 A 
BRANCH  51  65
ATOM     65  C   UNL A   1      43.878  23.503  26.812  1.00  0.00     0.057 A 
ATOM     66  C   UNL A   1      44.609  24.068  25.748  1.00  0.00     0.134 A 
ATOM     67  C   UNL A   1      43.494  22.162  26.598  1.00  0.00     0.134 A 
ATOM     68  F   UNL A   1      45.030  25.340  25.787  1.00  0.00    -0.206 F 
ATOM     69  C   UNL A   1      44.922  23.363  24.577  1.00  0.00     0.040 A 
ATOM     70  C   UNL A   1      43.847  21.432  25.454  1.00  0.00     0.040 A 
ATOM     71  F   UNL A   1      42.704  21.493  27.442  1.00  0.00    -0.206 F 
ATOM     72  C   UNL A   1      44.552  22.036  24.429  1.00  0.00     0.006 A 
ENDBRANCH  51  65
BRANCH  52  73
ATOM     73  C   UNL A   1      40.775  29.924  33.298  1.00  0.00     0.057 A 
ATOM     74  C   UNL A   1      40.607  31.286  33.605  1.00  0.00     0.134 A 
ATOM     75  C   UNL A   1      39.618  29.153  33.169  1.00  0.00     0.134 A 
ATOM     76  F   UNL A   1      41.678  32.084  33.745  1.00  0.00    -0.206 F 
ATOM     77  C   UNL A   1      39.344  31.880  33.659  1.00  0.00     0.040 A 
ATOM     78  C   UNL A   1      38.347  29.733  33.240  1.00  0.00     0.040 A 
ATOM     79  F   UNL A   1      39.695  27.852  32.854  1.00  0.00    -0.206 F 
ATOM     80  C   UNL A   1      38.209  31.105  33.444  1.00  0.00     0.006 A 
ENDBRANCH  52  73
BRANCH  64  81
ATOM     81  C   UNL A   1      45.056  24.130  33.375  1.00  0.00     0.057 A 
ATOM     82  C   UNL A   1      44.209  23.034  33.580  1.00  0.00     0.134 A 
ATOM     83  C   UNL A   1      46.289  24.098  34.051  1.00  0.00     0.134 A 
ATOM     84  F   UNL A   1      43.001  22.981  32.997  1.00  0.00    -0.206 F 
ATOM     85  C   UNL A   1      44.571  21.960  34.402  1.00  0.00     0.040 A 
ATOM     86  C   UNL A   1      46.644  23.052  34.907  1.00  0.00     0.040 A 
ATOM     87  F   UNL A   1      47.201  25.068  33.887  1.00  0.00    -0.206 F 
ATOM     88  C   UNL A   1      45.784  21.975  35.082  1.00  0.00     0.006 A 
ENDBRANCH  64  81
ENDBRANCH  38  39
ENDBRANCH  30  33
ENDBRANCH  28  29
ENDBRANCH  27  28
ENDBRANCH  26  27
ENDBRANCH   1  26
TORSDOF 16
ENDMDL
MODEL 3
REMARK VINA RESULT:     -12.0      1.418      2.161
REMARK SMILES Cc1ccc(Nc2c(F)cccc2Cl)c(CC(=O)NCCCCCCNC(=O)c2ccc(-c3c4nc(c(-c5c(F)cccc5F)c5ccc([nH]5)c(-c5c(F)cccc5F)c5nc(c(-c6c(F)cccc6F)c6ccc3[nH]6)C=C5)C=C4)cc2)c1
REMARK SMILES IDX 22 1 21 2 20 3 19 4 17 5 18 6 16 8 15 9 1 10 2 11 3 12 83 13
REMARK SMILES IDX 4 14 5 15 6 16 7 18 8 19 13 20 9 21 10 22 12 23 14 24 11 25
REMARK SMILES IDX 23 26 24 27 25 28 26 29 27 30 28 32 29 33 30 34 82 35 31 36
REMARK SMILES IDX 81 37 32 38 33 39 34 40 75 41 35 42 80 43 74 44 76 45 36 46
REMARK SMILES IDX 79 47 73 48 72 49 37 51 63 52 46 53 62 54 47 55 50 56 61 57
REMARK SMILES IDX 77 58 48 59 49 60 60 62 78 63 51 64 38 65 39 66 44 67 40 68
REMARK SMILES IDX 41 69 43 70 45 71 42 72 64 73 65 74 70 75 66 76 67 77 69 78
REMARK SMILES IDX 71 79 68 80 52 81 53 82 58 83 54 84 55 85 57 86 59 87 56 88
REMARK H PARENT 19 7 6 17 26 31 76 50 50 61
REMARK Flexibility Score: inf
ROOT
ATOM      1  C   UNL A   1      31.737  28.946  26.040  1.00  0.00     0.002 C 
ENDROOT
BRANCH   1   2
ATOM      2  C   UNL A   1      31.814  27.602  26.781  1.00  0.00     0.021 C 
BRANCH   2   3
ATOM      3  C   UNL A   1      30.963  26.479  26.181  1.00  0.00     0.116 C 
BRANCH   3   4
ATOM      4  N   UNL A   1      31.128  25.233  26.900  1.00  0.00    -0.356 N 
ATOM      5  C   UNL A   1      31.871  24.144  26.561  1.00  0.00     0.224 C 
ATOM      6  O   UNL A   1      31.761  23.121  27.242  1.00  0.00    -0.275 OA
ATOM      7  H   UNL A   1      30.636  25.164  27.750  1.00  0.00     0.163 HD
BRANCH   5   8
ATOM      8  C   UNL A   1      32.803  24.177  25.363  1.00  0.00     0.137 C 
BRANCH   8   9
ATOM      9  C   UNL A   1      34.045  23.326  25.521  1.00  0.00    -0.015 A 
ATOM     10  C   UNL A   1      37.776  24.019  26.026  1.00  0.00     0.044 C 
ATOM     11  C   UNL A   1      36.475  23.299  25.846  1.00  0.00    -0.051 A 
ATOM     12  C   UNL A   1      36.451  21.910  25.755  1.00  0.00     0.005 A 
ATOM     13  C   UNL A   1      35.268  23.994  25.759  1.00  0.00     0.009 A 
ATOM     14  C   UNL A   1      35.242  21.236  25.565  1.00  0.00     0.026 A 
ATOM     15  C   UNL A   1      34.022  21.918  25.428  1.00  0.00     0.042 A 
BRANCH  15  16
ATOM     16  N   UNL A   1      32.814  21.214  25.242  1.00  0.00    -0.352 N 
ATOM     17  H   UNL A   1      32.050  21.539  25.772  1.00  0.00     0.167 HD
BRANCH  16  18
ATOM     18  C   UNL A   1      32.540  20.108  24.404  1.00  0.00     0.094 A 
ATOM     19  C   UNL A   1      32.581  18.787  24.876  1.00  0.00     0.148 A 
ATOM     20  C   UNL A   1      32.308  20.295  23.028  1.00  0.00     0.067 A 
ATOM     21  F   UNL A   1      32.779  18.539  26.180  1.00  0.00    -0.205 F 
ATOM     22  C   UNL A   1      32.404  17.695  24.026  1.00  0.00     0.041 A 
ATOM     23  C   UNL A   1      32.137  19.203  22.167  1.00  0.00     0.023 A 
ATOM     24  Cl  UNL A   1      32.273  21.882  22.339  1.00  0.00    -0.082 Cl
ATOM     25  C   UNL A   1      32.189  17.902  22.667  1.00  0.00     0.005 A 
ENDBRANCH  16  18
ENDBRANCH  15  16
ENDBRANCH   8   9
ENDBRANCH   5   8
ENDBRANCH   3   4
ENDBRANCH   2   3
ENDBRANCH   1   2
BRANCH   1  26
ATOM     26  C   UNL A   1      32.242  30.181  26.804  1.00  0.00     0.002 C 
BRANCH  26  27
ATOM     27  C   UNL A   1      33.548  29.999  27.580  1.00  0.00     0.021 C 
BRANCH  27  28
ATOM     28  C   UNL A   1      34.614  31.041  27.269  1.00  0.00     0.116 C 
BRANCH  28  29
ATOM     29  N   UNL A   1      35.186  31.668  28.453  1.00  0.00    -0.352 N 
ATOM     30  C   UNL A   1      36.140  31.205  29.342  1.00  0.00     0.251 C 
ATOM     31  H   UNL A   1      34.838  32.567  28.652  1.00  0.00     0.163 HD
ATOM     32  O   UNL A   1      36.426  31.876  30.321  1.00  0.00    -0.269 OA
BRANCH  30  33
ATOM     33  C   UNL A   1      36.930  29.983  29.028  1.00  0.00     0.039 A 
ATOM     34  C   UNL A   1      37.032  29.015  30.038  1.00  0.00     0.014 A 
ATOM     35  C   UNL A   1      37.735  29.888  27.898  1.00  0.00     0.014 A 
ATOM     36  C   UNL A   1      38.124  28.155  30.054  1.00  0.00     0.010 A 
ATOM     37  C   UNL A   1      38.869  29.105  27.956  1.00  0.00     0.010 A 
ATOM     38  C   UNL A   1      39.108  28.314  29.083  1.00  0.00    -0.014 A 
BRANCH  38  39
ATOM     39  C   UNL A   1      40.483  27.866  29.257  1.00  0.00     0.031 A 
ATOM     40  C   UNL A   1      40.929  26.560  28.738  1.00  0.00     0.074 A 
ATOM     41  C   UNL A   1      41.380  28.746  29.757  1.00  0.00     0.049 A 
ATOM     42  N   UNL A   1      42.086  26.048  28.989  1.00  0.00    -0.248 NA
ATOM     43  C   UNL A   1      40.075  25.681  27.943  1.00  0.00     0.031 C 
ATOM     44  C   UNL A   1      42.838  28.684  29.681  1.00  0.00     0.029 A 
ATOM     45  N   UNL A   1      41.128  29.787  30.664  1.00  0.00    -0.354 N 
ATOM     46  C   UNL A   1      42.244  24.958  28.173  1.00  0.00     0.074 A 
ATOM     47  C   UNL A   1      40.926  24.691  27.654  1.00  0.00     0.031 C 
ATOM     48  C   UNL A   1      43.353  29.405  30.689  1.00  0.00     0.029 A 
ATOM     49  C   UNL A   1      42.245  29.809  31.534  1.00  0.00     0.049 A 
ATOM     50  H   UNL A   1      40.340  30.377  30.690  1.00  0.00     0.167 HD
ATOM     51  C   UNL A   1      43.504  24.500  27.941  1.00  0.00     0.037 A 
ATOM     52  C   UNL A   1      42.102  29.473  32.850  1.00  0.00     0.037 A 
ATOM     53  C   UNL A   1      44.442  25.022  28.939  1.00  0.00     0.049 A 
ATOM     54  C   UNL A   1      42.877  28.242  33.280  1.00  0.00     0.074 A 
ATOM     55  C   UNL A   1      45.457  25.962  28.951  1.00  0.00     0.029 A 
ATOM     56  N   UNL A   1      44.209  24.697  30.266  1.00  0.00    -0.354 N 
ATOM     57  N   UNL A   1      43.595  27.501  32.481  1.00  0.00    -0.248 NA
ATOM     58  C   UNL A   1      42.825  27.698  34.640  1.00  0.00     0.031 C 
ATOM     59  C   UNL A   1      45.755  26.266  30.317  1.00  0.00     0.029 A 
ATOM     60  C   UNL A   1      44.949  25.482  31.125  1.00  0.00     0.049 A 
ATOM     61  H   UNL A   1      43.590  23.991  30.560  1.00  0.00     0.167 HD
ATOM     62  C   UNL A   1      44.021  26.389  33.154  1.00  0.00     0.074 A 
ATOM     63  C   UNL A   1      43.529  26.562  34.508  1.00  0.00     0.031 C 
ATOM     64  C   UNL A   1      44.701  25.372  32.554  1.00  0.00     0.037 A 
BRANCH  51  65
ATOM     65  C   UNL A   1      43.928  23.675  26.745  1.00  0.00     0.057 A 
ATOM     66  C   UNL A   1      43.583  22.311  26.670  1.00  0.00     0.134 A 
ATOM     67  C   UNL A   1      44.779  24.111  25.708  1.00  0.00     0.134 A 
ATOM     68  F   UNL A   1      42.798  21.736  27.592  1.00  0.00    -0.206 F 
ATOM     69  C   UNL A   1      44.048  21.460  25.656  1.00  0.00     0.040 A 
ATOM     70  C   UNL A   1      45.207  23.282  24.661  1.00  0.00     0.040 A 
ATOM     71  F   UNL A   1      45.302  25.340  25.670  1.00  0.00    -0.206 F 
ATOM     72  C   UNL A   1      44.854  21.946  24.639  1.00  0.00     0.006 A 
ENDBRANCH  51  65
BRANCH  52  73
ATOM     73  C   UNL A   1      40.790  29.892  33.411  1.00  0.00     0.057 A 
ATOM     74  C   UNL A   1      40.610  31.240  33.769  1.00  0.00     0.134 A 
ATOM     75  C   UNL A   1      39.640  29.114  33.259  1.00  0.00     0.134 A 
ATOM     76  F   UNL A   1      41.675  32.043  33.933  1.00  0.00    -0.206 F 
ATOM     77  C   UNL A   1      39.342  31.819  33.852  1.00  0.00     0.040 A 
ATOM     78  C   UNL A   1      38.363  29.678  33.358  1.00  0.00     0.040 A 
ATOM     79  F   UNL A   1      39.728  27.827  32.895  1.00  0.00    -0.206 F 
ATOM     80  C   UNL A   1      38.213  31.041  33.614  1.00  0.00     0.006 A 
ENDBRANCH  52  73
BRANCH  64  81
ATOM     81  C   UNL A   1      45.161  24.165  33.310  1.00  0.00     0.057 A 
ATOM     82  C   UNL A   1      44.331  23.053  33.501  1.00  0.00     0.134 A 
ATOM     83  C   UNL A   1      46.402  24.135  33.970  1.00  0.00     0.134 A 
ATOM     84  F   UNL A   1      43.116  22.997  32.933  1.00  0.00    -0.206 F 
ATOM     85  C   UNL A   1      44.718  21.967  34.294  1.00  0.00     0.040 A 
ATOM     86  C   UNL A   1      46.782  23.075  34.797  1.00  0.00     0.040 A 
ATOM     87  F   UNL A   1      47.299  25.121  33.816  1.00  0.00    -0.206 F 
ATOM     88  C   UNL A   1      45.939  21.983  34.959  1.00  0.00     0.006 A 
ENDBRANCH  64  81
ENDBRANCH  38  39
ENDBRANCH  30  33
ENDBRANCH  28  29
ENDBRANCH  27  28
ENDBRANCH  26  27
ENDBRANCH   1  26
TORSDOF 16
ENDMDL
