MODEL 1
REMARK VINA RESULT:      -9.6      0.000      0.000
REMARK SMILES O=C(/C=C/C(=O)NCc1ccc(-c2cccs2)s1)NCCCCCCNC(=O)c1ccc(-c2c3nc(c(-c4c(F)cccc4F)c4ccc([nH]4)c(-c4c(F)cccc4F)c4nc(c(-c5c(F)cccc5F)c5ccc2[nH]5)C=C4)C=C3)cc1
REMARK SMILES IDX 21 1 20 2 19 3 1 4 2 5 3 7 4 8 5 9 6 10 7 11 8 13 9 14 10 15
REMARK SMILES IDX 18 16 11 17 12 18 13 19 14 20 17 21 15 22 16 23 22 24 23 25
REMARK SMILES IDX 24 26 25 27 26 28 27 29 28 31 29 32 30 33 82 34 31 35 81 36
REMARK SMILES IDX 32 37 33 38 34 39 75 40 35 41 80 42 74 43 76 44 36 45 79 46
REMARK SMILES IDX 73 47 72 48 37 50 63 51 46 52 62 53 47 54 50 55 61 56 77 57
REMARK SMILES IDX 48 58 49 59 60 61 78 62 51 63 38 64 39 65 44 66 40 67 41 68
REMARK SMILES IDX 43 69 45 70 42 71 64 72 65 73 70 74 66 75 67 76 69 77 71 78
REMARK SMILES IDX 68 79 52 80 53 81 58 82 54 83 55 84 57 85 59 86 56 87
REMARK H PARENT 19 6 7 12 26 30 76 49 50 60
REMARK Flexibility Score: inf
ROOT
ATOM      1  C   UNL A   1      34.459  34.942  33.035  1.00  0.00     0.021 C 
ENDROOT
BRANCH   1   2
ATOM      2  C   UNL A   1      35.983  34.978  33.118  1.00  0.00     0.116 C 
BRANCH   2   3
ATOM      3  N   UNL A   1      36.490  34.014  34.071  1.00  0.00    -0.353 N 
ATOM      4  O   UNL A   1      38.337  35.236  34.695  1.00  0.00    -0.270 OA
ATOM      5  C   UNL A   1      37.648  34.227  34.766  1.00  0.00     0.244 C 
ATOM      6  H   UNL A   1      35.986  33.182  34.224  1.00  0.00     0.163 HD
BRANCH   5   7
ATOM      7  C   UNL A   1      38.015  33.158  35.716  1.00  0.00     0.077 C 
ATOM      8  C   UNL A   1      38.029  31.864  35.381  1.00  0.00     0.077 C 
BRANCH   8   9
ATOM      9  C   UNL A   1      38.408  30.737  36.261  1.00  0.00     0.244 C 
ATOM     10  O   UNL A   1      37.617  30.408  37.145  1.00  0.00    -0.270 OA
ATOM     11  N   UNL A   1      39.538  30.014  36.092  1.00  0.00    -0.348 N 
ATOM     12  H   UNL A   1      39.672  29.326  36.782  1.00  0.00     0.164 HD
BRANCH  11  13
ATOM     13  C   UNL A   1      40.590  30.049  35.097  1.00  0.00     0.163 C 
BRANCH  13  14
ATOM     14  C   UNL A   1      41.453  28.836  35.279  1.00  0.00     0.024 A 
ATOM     15  C   UNL A   1      42.217  28.497  36.378  1.00  0.00     0.018 A 
ATOM     16  S   UNL A   1      41.597  27.654  34.044  1.00  0.00    -0.138 S 
ATOM     17  C   UNL A   1      42.906  27.263  36.203  1.00  0.00     0.022 A 
ATOM     18  C   UNL A   1      42.667  26.694  34.968  1.00  0.00     0.045 A 
BRANCH  18  19
ATOM     19  C   UNL A   1      43.198  25.445  34.492  1.00  0.00     0.044 A 
ATOM     20  C   UNL A   1      44.107  25.280  33.464  1.00  0.00     0.021 A 
ATOM     21  S   UNL A   1      42.696  23.933  35.126  1.00  0.00    -0.143 S 
ATOM     22  C   UNL A   1      44.371  23.910  33.180  1.00  0.00     0.012 A 
ATOM     23  C   UNL A   1      43.657  23.069  34.004  1.00  0.00     0.065 A 
ENDBRANCH  18  19
ENDBRANCH  13  14
ENDBRANCH  11  13
ENDBRANCH   8   9
ENDBRANCH   5   7
ENDBRANCH   2   3
ENDBRANCH   1   2
BRANCH   1  24
ATOM     24  C   UNL A   1      33.785  36.315  33.149  1.00  0.00     0.002 C 
BRANCH  24  25
ATOM     25  C   UNL A   1      33.605  37.067  31.828  1.00  0.00     0.002 C 
BRANCH  25  26
ATOM     26  C   UNL A   1      32.651  36.409  30.829  1.00  0.00     0.021 C 
BRANCH  26  27
ATOM     27  C   UNL A   1      33.205  36.271  29.417  1.00  0.00     0.116 C 
BRANCH  27  28
ATOM     28  N   UNL A   1      32.579  35.185  28.680  1.00  0.00    -0.352 N 
ATOM     29  C   UNL A   1      33.122  34.001  28.246  1.00  0.00     0.251 C 
ATOM     30  H   UNL A   1      31.627  35.318  28.462  1.00  0.00     0.163 HD
ATOM     31  O   UNL A   1      32.497  33.278  27.478  1.00  0.00    -0.269 OA
BRANCH  29  32
ATOM     32  C   UNL A   1      34.478  33.611  28.689  1.00  0.00     0.039 A 
ATOM     33  C   UNL A   1      34.619  32.896  29.881  1.00  0.00     0.014 A 
ATOM     34  C   UNL A   1      35.604  33.946  27.933  1.00  0.00     0.014 A 
ATOM     35  C   UNL A   1      35.884  32.462  30.280  1.00  0.00     0.010 A 
ATOM     36  C   UNL A   1      36.852  33.445  28.289  1.00  0.00     0.010 A 
ATOM     37  C   UNL A   1      37.006  32.699  29.468  1.00  0.00    -0.014 A 
BRANCH  37  38
ATOM     38  C   UNL A   1      38.345  32.169  29.834  1.00  0.00     0.031 A 
ATOM     39  C   UNL A   1      38.779  30.810  29.359  1.00  0.00     0.074 A 
ATOM     40  C   UNL A   1      39.145  32.888  30.644  1.00  0.00     0.049 A 
ATOM     41  N   UNL A   1      39.884  30.158  29.618  1.00  0.00    -0.248 NA
ATOM     42  C   UNL A   1      37.837  30.076  28.499  1.00  0.00     0.031 C 
ATOM     43  C   UNL A   1      38.821  34.199  31.209  1.00  0.00     0.029 A 
ATOM     44  N   UNL A   1      40.396  32.615  31.140  1.00  0.00    -0.354 N 
ATOM     45  C   UNL A   1      39.766  28.938  28.965  1.00  0.00     0.074 A 
ATOM     46  C   UNL A   1      38.459  28.916  28.345  1.00  0.00     0.031 C 
ATOM     47  C   UNL A   1      39.854  34.627  31.952  1.00  0.00     0.029 A 
ATOM     48  C   UNL A   1      40.896  33.605  31.951  1.00  0.00     0.049 A 
ATOM     49  H   UNL A   1      40.889  31.788  30.932  1.00  0.00     0.167 HD
ATOM     50  C   UNL A   1      40.672  27.936  28.868  1.00  0.00     0.037 A 
ATOM     51  C   UNL A   1      42.058  33.676  32.627  1.00  0.00     0.037 A 
ATOM     52  C   UNL A   1      41.979  27.968  29.475  1.00  0.00     0.049 A 
ATOM     53  C   UNL A   1      43.039  32.540  32.523  1.00  0.00     0.074 A 
ATOM     54  C   UNL A   1      42.990  27.028  29.390  1.00  0.00     0.029 A 
ATOM     55  N   UNL A   1      42.450  28.990  30.285  1.00  0.00    -0.354 N 
ATOM     56  N   UNL A   1      42.943  31.425  31.842  1.00  0.00    -0.248 NA
ATOM     57  C   UNL A   1      44.293  32.678  33.278  1.00  0.00     0.031 C 
ATOM     58  C   UNL A   1      44.051  27.454  30.195  1.00  0.00     0.029 A 
ATOM     59  C   UNL A   1      43.727  28.690  30.731  1.00  0.00     0.049 A 
ATOM     60  H   UNL A   1      41.951  29.809  30.511  1.00  0.00     0.167 HD
ATOM     61  C   UNL A   1      44.134  30.742  32.059  1.00  0.00     0.074 A 
ATOM     62  C   UNL A   1      44.941  31.578  32.924  1.00  0.00     0.031 C 
ATOM     63  C   UNL A   1      44.523  29.534  31.586  1.00  0.00     0.037 A 
BRANCH  50  64
ATOM     64  C   UNL A   1      40.283  26.720  28.079  1.00  0.00     0.057 A 
ATOM     65  C   UNL A   1      39.425  25.741  28.600  1.00  0.00     0.134 A 
ATOM     66  C   UNL A   1      40.742  26.540  26.767  1.00  0.00     0.134 A 
ATOM     67  F   UNL A   1      38.956  25.845  29.852  1.00  0.00    -0.206 F 
ATOM     68  C   UNL A   1      39.061  24.616  27.857  1.00  0.00     0.040 A 
ATOM     69  C   UNL A   1      40.360  25.436  26.004  1.00  0.00     0.040 A 
ATOM     70  F   UNL A   1      41.559  27.441  26.202  1.00  0.00    -0.206 F 
ATOM     71  C   UNL A   1      39.523  24.465  26.551  1.00  0.00     0.006 A 
ENDBRANCH  50  64
BRANCH  51  72
ATOM     72  C   UNL A   1      42.368  34.872  33.452  1.00  0.00     0.057 A 
ATOM     73  C   UNL A   1      41.957  34.957  34.788  1.00  0.00     0.134 A 
ATOM     74  C   UNL A   1      43.069  35.964  32.924  1.00  0.00     0.134 A 
ATOM     75  F   UNL A   1      41.265  33.952  35.345  1.00  0.00    -0.206 F 
ATOM     76  C   UNL A   1      42.209  36.091  35.561  1.00  0.00     0.040 A 
ATOM     77  C   UNL A   1      43.355  37.092  33.695  1.00  0.00     0.040 A 
ATOM     78  F   UNL A   1      43.499  35.943  31.654  1.00  0.00    -0.206 F 
ATOM     79  C   UNL A   1      42.916  37.161  35.016  1.00  0.00     0.006 A 
ENDBRANCH  51  72
BRANCH  63  80
ATOM     80  C   UNL A   1      45.899  29.059  31.957  1.00  0.00     0.057 A 
ATOM     81  C   UNL A   1      46.992  29.194  31.091  1.00  0.00     0.134 A 
ATOM     82  C   UNL A   1      46.139  28.492  33.217  1.00  0.00     0.134 A 
ATOM     83  F   UNL A   1      46.829  29.716  29.867  1.00  0.00    -0.206 F 
ATOM     84  C   UNL A   1      48.268  28.760  31.455  1.00  0.00     0.040 A 
ATOM     85  C   UNL A   1      47.416  28.083  33.603  1.00  0.00     0.040 A 
ATOM     86  F   UNL A   1      45.139  28.342  34.099  1.00  0.00    -0.206 F 
ATOM     87  C   UNL A   1      48.483  28.209  32.717  1.00  0.00     0.006 A 
ENDBRANCH  63  80
ENDBRANCH  37  38
ENDBRANCH  29  32
ENDBRANCH  27  28
ENDBRANCH  26  27
ENDBRANCH  25  26
ENDBRANCH  24  25
ENDBRANCH   1  24
TORSDOF 17
ENDMDL
MODEL 2
REMARK VINA RESULT:      -9.6      5.433     11.454
REMARK SMILES O=C(/C=C/C(=O)NCc1ccc(-c2cccs2)s1)NCCCCCCNC(=O)c1ccc(-c2c3nc(c(-c4c(F)cccc4F)c4ccc([nH]4)c(-c4c(F)cccc4F)c4nc(c(-c5c(F)cccc5F)c5ccc2[nH]5)C=C4)C=C3)cc1
REMARK SMILES IDX 21 1 20 2 19 3 1 4 2 5 3 7 4 8 5 9 6 10 7 11 8 13 9 14 10 15
REMARK SMILES IDX 18 16 11 17 12 18 13 19 14 20 17 21 15 22 16 23 22 24 23 25
REMARK SMILES IDX 24 26 25 27 26 28 27 29 28 31 29 32 30 33 82 34 31 35 81 36
REMARK SMILES IDX 32 37 33 38 34 39 75 40 35 41 80 42 74 43 76 44 36 45 79 46
REMARK SMILES IDX 73 47 72 48 37 50 63 51 46 52 62 53 47 54 50 55 61 56 77 57
REMARK SMILES IDX 48 58 49 59 60 61 78 62 51 63 38 64 39 65 44 66 40 67 41 68
REMARK SMILES IDX 43 69 45 70 42 71 64 72 65 73 70 74 66 75 67 76 69 77 71 78
REMARK SMILES IDX 68 79 52 80 53 81 58 82 54 83 55 84 57 85 59 86 56 87
REMARK H PARENT 19 6 7 12 26 30 76 49 50 60
REMARK Flexibility Score: inf
ROOT
ATOM      1  C   UNL A   1      45.629  22.560  24.302  1.00  0.00     0.021 C 
ENDROOT
BRANCH   1   2
ATOM      2  C   UNL A   1      46.413  23.833  24.615  1.00  0.00     0.116 C 
BRANCH   2   3
ATOM      3  N   UNL A   1      45.537  24.918  25.003  1.00  0.00    -0.353 N 
ATOM      4  O   UNL A   1      47.110  26.586  24.797  1.00  0.00    -0.270 OA
ATOM      5  C   UNL A   1      45.980  26.210  25.078  1.00  0.00     0.244 C 
ATOM      6  H   UNL A   1      44.597  24.721  25.216  1.00  0.00     0.163 HD
BRANCH   5   7
ATOM      7  C   UNL A   1      44.957  27.201  25.467  1.00  0.00     0.077 C 
ATOM      8  C   UNL A   1      45.229  28.261  26.234  1.00  0.00     0.077 C 
BRANCH   8   9
ATOM      9  C   UNL A   1      44.272  29.310  26.647  1.00  0.00     0.244 C 
ATOM     10  O   UNL A   1      43.097  28.983  26.814  1.00  0.00    -0.270 OA
ATOM     11  N   UNL A   1      44.641  30.583  26.916  1.00  0.00    -0.348 N 
ATOM     12  H   UNL A   1      43.885  31.174  27.135  1.00  0.00     0.164 HD
BRANCH  11  13
ATOM     13  C   UNL A   1      45.926  31.251  26.947  1.00  0.00     0.163 C 
BRANCH  13  14
ATOM     14  C   UNL A   1      45.725  32.682  26.548  1.00  0.00     0.024 A 
ATOM     15  C   UNL A   1      44.710  33.211  25.775  1.00  0.00     0.018 A 
ATOM     16  S   UNL A   1      46.821  33.906  27.041  1.00  0.00    -0.138 S 
ATOM     17  C   UNL A   1      44.834  34.620  25.604  1.00  0.00     0.022 A 
ATOM     18  C   UNL A   1      45.949  35.134  26.235  1.00  0.00     0.045 A 
BRANCH  18  19
ATOM     19  C   UNL A   1      46.344  36.517  26.266  1.00  0.00     0.044 A 
ATOM     20  C   UNL A   1      47.511  37.046  25.747  1.00  0.00     0.021 A 
ATOM     21  S   UNL A   1      45.407  37.722  27.045  1.00  0.00    -0.143 S 
ATOM     22  C   UNL A   1      47.645  38.439  26.012  1.00  0.00     0.012 A 
ATOM     23  C   UNL A   1      46.575  38.931  26.723  1.00  0.00     0.065 A 
ENDBRANCH  18  19
ENDBRANCH  13  14
ENDBRANCH  11  13
ENDBRANCH   8   9
ENDBRANCH   5   7
ENDBRANCH   2   3
ENDBRANCH   1   2
BRANCH   1  24
ATOM     24  C   UNL A   1      45.867  21.411  25.290  1.00  0.00     0.002 C 
BRANCH  24  25
ATOM     25  C   UNL A   1      46.245  20.070  24.654  1.00  0.00     0.002 C 
BRANCH  25  26
ATOM     26  C   UNL A   1      45.147  19.005  24.680  1.00  0.00     0.021 C 
BRANCH  26  27
ATOM     27  C   UNL A   1      44.265  19.032  25.923  1.00  0.00     0.116 C 
BRANCH  27  28
ATOM     28  N   UNL A   1      42.872  18.747  25.618  1.00  0.00    -0.352 N 
ATOM     29  C   UNL A   1      41.750  19.489  25.897  1.00  0.00     0.251 C 
ATOM     30  H   UNL A   1      42.709  17.899  25.145  1.00  0.00     0.163 HD
ATOM     31  O   UNL A   1      40.634  19.011  25.731  1.00  0.00    -0.269 OA
BRANCH  29  32
ATOM     32  C   UNL A   1      41.894  20.864  26.423  1.00  0.00     0.039 A 
ATOM     33  C   UNL A   1      41.794  21.073  27.801  1.00  0.00     0.014 A 
ATOM     34  C   UNL A   1      42.128  21.940  25.564  1.00  0.00     0.014 A 
ATOM     35  C   UNL A   1      41.994  22.352  28.321  1.00  0.00     0.010 A 
ATOM     36  C   UNL A   1      42.406  23.199  26.090  1.00  0.00     0.010 A 
ATOM     37  C   UNL A   1      42.339  23.418  27.475  1.00  0.00    -0.014 A 
BRANCH  37  38
ATOM     38  C   UNL A   1      42.641  24.767  28.021  1.00  0.00     0.031 A 
ATOM     39  C   UNL A   1      44.044  25.125  28.427  1.00  0.00     0.074 A 
ATOM     40  C   UNL A   1      41.639  25.648  28.206  1.00  0.00     0.049 A 
ATOM     41  N   UNL A   1      44.491  26.229  28.971  1.00  0.00    -0.248 NA
ATOM     42  C   UNL A   1      45.078  24.099  28.217  1.00  0.00     0.031 C 
ATOM     43  C   UNL A   1      40.229  25.404  27.896  1.00  0.00     0.029 A 
ATOM     44  N   UNL A   1      41.652  26.925  28.708  1.00  0.00    -0.354 N 
ATOM     45  C   UNL A   1      45.849  26.027  29.177  1.00  0.00     0.074 A 
ATOM     46  C   UNL A   1      46.144  24.675  28.753  1.00  0.00     0.031 C 
ATOM     47  C   UNL A   1      39.517  26.504  28.189  1.00  0.00     0.029 A 
ATOM     48  C   UNL A   1      40.410  27.515  28.748  1.00  0.00     0.049 A 
ATOM     49  H   UNL A   1      42.473  27.377  29.010  1.00  0.00     0.167 HD
ATOM     50  C   UNL A   1      46.773  26.895  29.652  1.00  0.00     0.037 A 
ATOM     51  C   UNL A   1      40.033  28.727  29.194  1.00  0.00     0.037 A 
ATOM     52  C   UNL A   1      46.479  28.245  30.059  1.00  0.00     0.049 A 
ATOM     53  C   UNL A   1      41.074  29.665  29.739  1.00  0.00     0.074 A 
ATOM     54  C   UNL A   1      47.353  29.221  30.503  1.00  0.00     0.029 A 
ATOM     55  N   UNL A   1      45.210  28.806  30.080  1.00  0.00    -0.354 N 
ATOM     56  N   UNL A   1      42.367  29.486  29.860  1.00  0.00    -0.248 NA
ATOM     57  C   UNL A   1      40.604  30.978  30.205  1.00  0.00     0.031 C 
ATOM     58  C   UNL A   1      46.608  30.353  30.846  1.00  0.00     0.029 A 
ATOM     59  C   UNL A   1      45.276  30.106  30.557  1.00  0.00     0.049 A 
ATOM     60  H   UNL A   1      44.385  28.349  29.798  1.00  0.00     0.167 HD
ATOM     61  C   UNL A   1      42.869  30.671  30.384  1.00  0.00     0.074 A 
ATOM     62  C   UNL A   1      41.742  31.566  30.544  1.00  0.00     0.031 C 
ATOM     63  C   UNL A   1      44.147  30.989  30.704  1.00  0.00     0.037 A 
BRANCH  50  64
ATOM     64  C   UNL A   1      48.191  26.412  29.759  1.00  0.00     0.057 A 
ATOM     65  C   UNL A   1      49.107  26.561  28.708  1.00  0.00     0.134 A 
ATOM     66  C   UNL A   1      48.659  25.821  30.941  1.00  0.00     0.134 A 
ATOM     67  F   UNL A   1      48.724  27.109  27.546  1.00  0.00    -0.206 F 
ATOM     68  C   UNL A   1      50.425  26.115  28.818  1.00  0.00     0.040 A 
ATOM     69  C   UNL A   1      49.983  25.400  31.073  1.00  0.00     0.040 A 
ATOM     70  F   UNL A   1      47.839  25.653  31.990  1.00  0.00    -0.206 F 
ATOM     71  C   UNL A   1      50.869  25.540  30.007  1.00  0.00     0.006 A 
ENDBRANCH  50  64
BRANCH  51  72
ATOM     72  C   UNL A   1      38.606  29.133  29.130  1.00  0.00     0.057 A 
ATOM     73  C   UNL A   1      38.048  29.637  27.948  1.00  0.00     0.134 A 
ATOM     74  C   UNL A   1      37.767  29.041  30.248  1.00  0.00     0.134 A 
ATOM     75  F   UNL A   1      38.805  29.768  26.848  1.00  0.00    -0.206 F 
ATOM     76  C   UNL A   1      36.719  30.057  27.886  1.00  0.00     0.040 A 
ATOM     77  C   UNL A   1      36.427  29.428  30.192  1.00  0.00     0.040 A 
ATOM     78  F   UNL A   1      38.235  28.558  31.408  1.00  0.00    -0.206 F 
ATOM     79  C   UNL A   1      35.902  29.947  29.010  1.00  0.00     0.006 A 
ENDBRANCH  51  72
BRANCH  63  80
ATOM     80  C   UNL A   1      44.404  32.376  31.220  1.00  0.00     0.057 A 
ATOM     81  C   UNL A   1      44.381  33.498  30.382  1.00  0.00     0.134 A 
ATOM     82  C   UNL A   1      44.638  32.595  32.585  1.00  0.00     0.134 A 
ATOM     83  F   UNL A   1      44.174  33.358  29.064  1.00  0.00    -0.206 F 
ATOM     84  C   UNL A   1      44.608  34.784  30.877  1.00  0.00     0.040 A 
ATOM     85  C   UNL A   1      44.836  33.878  33.096  1.00  0.00     0.040 A 
ATOM     86  F   UNL A   1      44.663  31.565  33.445  1.00  0.00    -0.206 F 
ATOM     87  C   UNL A   1      44.829  34.976  32.240  1.00  0.00     0.006 A 
ENDBRANCH  63  80
ENDBRANCH  37  38
ENDBRANCH  29  32
ENDBRANCH  27  28
ENDBRANCH  26  27
ENDBRANCH  25  26
ENDBRANCH  24  25
ENDBRANCH   1  24
TORSDOF 17
ENDMDL
MODEL 3
REMARK VINA RESULT:      -9.5      5.414     11.374
REMARK SMILES O=C(/C=C/C(=O)NCc1ccc(-c2cccs2)s1)NCCCCCCNC(=O)c1ccc(-c2c3nc(c(-c4c(F)cccc4F)c4ccc([nH]4)c(-c4c(F)cccc4F)c4nc(c(-c5c(F)cccc5F)c5ccc2[nH]5)C=C4)C=C3)cc1
REMARK SMILES IDX 21 1 20 2 19 3 1 4 2 5 3 7 4 8 5 9 6 10 7 11 8 13 9 14 10 15
REMARK SMILES IDX 18 16 11 17 12 18 13 19 14 20 17 21 15 22 16 23 22 24 23 25
REMARK SMILES IDX 24 26 25 27 26 28 27 29 28 31 29 32 30 33 82 34 31 35 81 36
REMARK SMILES IDX 32 37 33 38 34 39 75 40 35 41 80 42 74 43 76 44 36 45 79 46
REMARK SMILES IDX 73 47 72 48 37 50 63 51 46 52 62 53 47 54 50 55 61 56 77 57
REMARK SMILES IDX 48 58 49 59 60 61 78 62 51 63 38 64 39 65 44 66 40 67 41 68
REMARK SMILES IDX 43 69 45 70 42 71 64 72 65 73 70 74 66 75 67 76 69 77 71 78
REMARK SMILES IDX 68 79 52 80 53 81 58 82 54 83 55 84 57 85 59 86 56 87
REMARK H PARENT 19 6 7 12 26 30 76 49 50 60
REMARK Flexibility Score: inf
ROOT
ATOM      1  C   UNL A   1      45.562  22.551  24.256  1.00  0.00     0.021 C 
ENDROOT
BRANCH   1   2
ATOM      2  C   UNL A   1      46.386  23.783  24.622  1.00  0.00     0.116 C 
BRANCH   2   3
ATOM      3  N   UNL A   1      45.543  24.897  25.002  1.00  0.00    -0.353 N 
ATOM      4  O   UNL A   1      47.224  26.468  25.055  1.00  0.00    -0.270 OA
ATOM      5  C   UNL A   1      46.052  26.149  25.206  1.00  0.00     0.244 C 
ATOM      6  H   UNL A   1      44.577  24.748  25.115  1.00  0.00     0.163 HD
BRANCH   5   7
ATOM      7  C   UNL A   1      45.056  27.179  25.566  1.00  0.00     0.077 C 
ATOM      8  C   UNL A   1      45.369  28.281  26.256  1.00  0.00     0.077 C 
BRANCH   8   9
ATOM      9  C   UNL A   1      44.442  29.368  26.635  1.00  0.00     0.244 C 
ATOM     10  O   UNL A   1      43.346  29.053  27.099  1.00  0.00    -0.270 OA
ATOM     11  N   UNL A   1      44.770  30.678  26.563  1.00  0.00    -0.348 N 
ATOM     12  H   UNL A   1      44.033  31.282  26.808  1.00  0.00     0.164 HD
BRANCH  11  13
ATOM     13  C   UNL A   1      45.989  31.370  26.200  1.00  0.00     0.163 C 
BRANCH  13  14
ATOM     14  C   UNL A   1      45.697  32.839  26.134  1.00  0.00     0.024 A 
ATOM     15  C   UNL A   1      44.524  33.453  25.743  1.00  0.00     0.018 A 
ATOM     16  S   UNL A   1      46.883  34.002  26.566  1.00  0.00    -0.138 S 
ATOM     17  C   UNL A   1      44.603  34.873  25.812  1.00  0.00     0.022 A 
ATOM     18  C   UNL A   1      45.839  35.314  26.238  1.00  0.00     0.045 A 
BRANCH  18  19
ATOM     19  C   UNL A   1      46.232  36.685  26.429  1.00  0.00     0.044 A 
ATOM     20  C   UNL A   1      47.243  37.348  25.759  1.00  0.00     0.021 A 
ATOM     21  S   UNL A   1      45.506  37.692  27.611  1.00  0.00    -0.143 S 
ATOM     22  C   UNL A   1      47.437  38.676  26.236  1.00  0.00     0.012 A 
ATOM     23  C   UNL A   1      46.565  38.988  27.255  1.00  0.00     0.065 A 
ENDBRANCH  18  19
ENDBRANCH  13  14
ENDBRANCH  11  13
ENDBRANCH   8   9
ENDBRANCH   5   7
ENDBRANCH   2   3
ENDBRANCH   1   2
BRANCH   1  24
ATOM     24  C   UNL A   1      45.566  21.447  25.321  1.00  0.00     0.002 C 
BRANCH  24  25
ATOM     25  C   UNL A   1      46.053  20.077  24.842  1.00  0.00     0.002 C 
BRANCH  25  26
ATOM     26  C   UNL A   1      44.987  18.979  24.820  1.00  0.00     0.021 C 
BRANCH  26  27
ATOM     27  C   UNL A   1      44.085  18.944  26.047  1.00  0.00     0.116 C 
BRANCH  27  28
ATOM     28  N   UNL A   1      42.688  18.736  25.701  1.00  0.00    -0.352 N 
ATOM     29  C   UNL A   1      41.599  19.530  25.962  1.00  0.00     0.251 C 
ATOM     30  H   UNL A   1      42.496  17.904  25.208  1.00  0.00     0.163 HD
ATOM     31  O   UNL A   1      40.465  19.112  25.758  1.00  0.00    -0.269 OA
BRANCH  29  32
ATOM     32  C   UNL A   1      41.797  20.886  26.517  1.00  0.00     0.039 A 
ATOM     33  C   UNL A   1      41.753  21.063  27.902  1.00  0.00     0.014 A 
ATOM     34  C   UNL A   1      42.027  21.978  25.676  1.00  0.00     0.014 A 
ATOM     35  C   UNL A   1      42.005  22.323  28.445  1.00  0.00     0.010 A 
ATOM     36  C   UNL A   1      42.357  23.215  26.222  1.00  0.00     0.010 A 
ATOM     37  C   UNL A   1      42.347  23.401  27.613  1.00  0.00    -0.014 A 
BRANCH  37  38
ATOM     38  C   UNL A   1      42.704  24.727  28.180  1.00  0.00     0.031 A 
ATOM     39  C   UNL A   1      41.646  25.778  28.379  1.00  0.00     0.074 A 
ATOM     40  C   UNL A   1      43.991  25.005  28.461  1.00  0.00     0.049 A 
ATOM     41  N   UNL A   1      41.773  27.008  28.809  1.00  0.00    -0.248 NA
ATOM     42  C   UNL A   1      40.267  25.406  28.024  1.00  0.00     0.031 C 
ATOM     43  C   UNL A   1      45.117  24.088  28.270  1.00  0.00     0.029 A 
ATOM     44  N   UNL A   1      44.574  26.143  28.962  1.00  0.00    -0.354 N 
ATOM     45  C   UNL A   1      40.498  27.557  28.767  1.00  0.00     0.074 A 
ATOM     46  C   UNL A   1      39.621  26.547  28.215  1.00  0.00     0.031 C 
ATOM     47  C   UNL A   1      46.248  24.689  28.672  1.00  0.00     0.029 A 
ATOM     48  C   UNL A   1      45.937  26.046  29.109  1.00  0.00     0.049 A 
ATOM     49  H   UNL A   1      44.063  26.952  29.195  1.00  0.00     0.167 HD
ATOM     50  C   UNL A   1      40.089  28.782  29.173  1.00  0.00     0.037 A 
ATOM     51  C   UNL A   1      46.836  26.953  29.536  1.00  0.00     0.037 A 
ATOM     52  C   UNL A   1      40.962  29.780  29.736  1.00  0.00     0.049 A 
ATOM     53  C   UNL A   1      46.360  28.315  29.960  1.00  0.00     0.074 A 
ATOM     54  C   UNL A   1      40.636  31.031  30.229  1.00  0.00     0.029 A 
ATOM     55  N   UNL A   1      42.336  29.643  29.872  1.00  0.00    -0.354 N 
ATOM     56  N   UNL A   1      45.140  28.795  29.982  1.00  0.00    -0.248 NA
ATOM     57  C   UNL A   1      47.386  29.260  30.424  1.00  0.00     0.031 C 
ATOM     58  C   UNL A   1      41.818  31.673  30.611  1.00  0.00     0.029 A 
ATOM     59  C   UNL A   1      42.874  30.798  30.415  1.00  0.00     0.049 A 
ATOM     60  H   UNL A   1      42.852  28.843  29.622  1.00  0.00     0.167 HD
ATOM     61  C   UNL A   1      45.247  30.084  30.492  1.00  0.00     0.074 A 
ATOM     62  C   UNL A   1      46.649  30.303  30.778  1.00  0.00     0.031 C 
ATOM     63  C   UNL A   1      44.272  31.001  30.703  1.00  0.00     0.037 A 
BRANCH  50  64
ATOM     64  C   UNL A   1      38.632  29.114  29.023  1.00  0.00     0.057 A 
ATOM     65  C   UNL A   1      37.734  29.012  30.095  1.00  0.00     0.134 A 
ATOM     66  C   UNL A   1      38.125  29.575  27.801  1.00  0.00     0.134 A 
ATOM     67  F   UNL A   1      38.150  28.567  31.290  1.00  0.00    -0.206 F 
ATOM     68  C   UNL A   1      36.382  29.328  29.949  1.00  0.00     0.040 A 
ATOM     69  C   UNL A   1      36.781  29.924  27.652  1.00  0.00     0.040 A 
ATOM     70  F   UNL A   1      38.928  29.704  26.735  1.00  0.00    -0.206 F 
ATOM     71  C   UNL A   1      35.904  29.794  28.727  1.00  0.00     0.006 A 
ENDBRANCH  50  64
BRANCH  51  72
ATOM     72  C   UNL A   1      48.277  26.599  29.601  1.00  0.00     0.057 A 
ATOM     73  C   UNL A   1      49.147  26.912  28.550  1.00  0.00     0.134 A 
ATOM     74  C   UNL A   1      48.818  25.930  30.707  1.00  0.00     0.134 A 
ATOM     75  F   UNL A   1      48.686  27.536  27.456  1.00  0.00    -0.206 F 
ATOM     76  C   UNL A   1      50.495  26.552  28.583  1.00  0.00     0.040 A 
ATOM     77  C   UNL A   1      50.171  25.590  30.766  1.00  0.00     0.040 A 
ATOM     78  F   UNL A   1      48.041  25.609  31.751  1.00  0.00    -0.206 F 
ATOM     79  C   UNL A   1      51.011  25.893  29.697  1.00  0.00     0.006 A 
ENDBRANCH  51  72
BRANCH  63  80
ATOM     80  C   UNL A   1      44.681  32.313  31.310  1.00  0.00     0.057 A 
ATOM     81  C   UNL A   1      44.899  33.458  30.532  1.00  0.00     0.134 A 
ATOM     82  C   UNL A   1      44.819  32.441  32.699  1.00  0.00     0.134 A 
ATOM     83  F   UNL A   1      44.796  33.401  29.196  1.00  0.00    -0.206 F 
ATOM     84  C   UNL A   1      45.265  34.674  31.111  1.00  0.00     0.040 A 
ATOM     85  C   UNL A   1      45.155  33.659  33.291  1.00  0.00     0.040 A 
ATOM     86  F   UNL A   1      44.614  31.387  33.504  1.00  0.00    -0.206 F 
ATOM     87  C   UNL A   1      45.387  34.778  32.495  1.00  0.00     0.006 A 
ENDBRANCH  63  80
ENDBRANCH  37  38
ENDBRANCH  29  32
ENDBRANCH  27  28
ENDBRANCH  26  27
ENDBRANCH  25  26
ENDBRANCH  24  25
ENDBRANCH   1  24
TORSDOF 17
ENDMDL
