MODEL 1
REMARK VINA RESULT:     -11.2      0.000      0.000
REMARK SMILES CCN(Cc1ccccn1)c1nc(C)cc(C)c1C(=O)NCCCCCCNC(=O)c1ccc(-c2c3nc(c(-c4c(F)cccc4F)c4ccc([nH]4)c(-c4c(F)cccc4F)c4nc(c(-c5c(F)cccc5F)c5ccc2[nH]5)C=C4)C=C3)cc1
REMARK SMILES IDX 24 1 23 2 22 3 21 4 19 5 20 6 18 8 11 9 12 10 13 11 16 12
REMARK SMILES IDX 14 13 15 14 17 15 3 16 2 17 1 18 4 19 5 20 6 21 10 22 7 23
REMARK SMILES IDX 9 24 8 25 25 26 26 27 27 28 28 29 29 30 30 32 31 33 32 34
REMARK SMILES IDX 84 35 33 36 83 37 34 38 35 39 36 40 77 41 37 42 82 43 76 44
REMARK SMILES IDX 78 45 38 46 81 47 75 48 74 49 39 51 65 52 48 53 64 54 49 55
REMARK SMILES IDX 52 56 63 57 79 58 50 59 51 60 62 62 80 63 53 64 40 65 41 66
REMARK SMILES IDX 46 67 42 68 43 69 45 70 47 71 44 72 66 73 67 74 72 75 68 76
REMARK SMILES IDX 69 77 71 78 73 79 70 80 54 81 55 82 60 83 56 84 57 85 59 86
REMARK SMILES IDX 61 87 58 88
REMARK H PARENT 21 7 28 31 78 50 52 61
REMARK Flexibility Score: inf
ROOT
ATOM      1  C   UNL A   1      36.889  22.071  24.591  1.00  0.00     0.002 C 
ENDROOT
BRANCH   1   2
ATOM      2  C   UNL A   1      36.311  22.646  23.295  1.00  0.00     0.021 C 
BRANCH   2   3
ATOM      3  C   UNL A   1      34.942  23.314  23.342  1.00  0.00     0.116 C 
BRANCH   3   4
ATOM      4  N   UNL A   1      34.881  24.636  23.920  1.00  0.00    -0.352 N 
ATOM      5  C   UNL A   1      34.126  25.087  24.990  1.00  0.00     0.255 C 
ATOM      6  O   UNL A   1      34.441  26.163  25.497  1.00  0.00    -0.269 OA
ATOM      7  H   UNL A   1      35.456  25.311  23.492  1.00  0.00     0.163 HD
BRANCH   5   8
ATOM      8  C   UNL A   1      32.962  24.322  25.526  1.00  0.00     0.085 A 
ATOM      9  C   UNL A   1      31.661  24.648  25.083  1.00  0.00     0.142 A 
ATOM     10  N   UNL A   1      30.576  24.023  25.601  1.00  0.00    -0.235 NA
ATOM     11  C   UNL A   1      30.700  23.148  26.613  1.00  0.00     0.040 A 
ATOM     12  C   UNL A   1      33.089  23.395  26.591  1.00  0.00    -0.033 A 
ATOM     13  C   UNL A   1      29.429  22.700  27.266  1.00  0.00     0.067 C 
ATOM     14  C   UNL A   1      31.934  22.793  27.114  1.00  0.00     0.028 A 
ATOM     15  C   UNL A   1      34.379  23.017  27.261  1.00  0.00     0.045 C 
BRANCH   9  16
ATOM     16  N   UNL A   1      31.361  25.644  24.162  1.00  0.00    -0.350 N 
BRANCH  16  17
ATOM     17  C   UNL A   1      31.176  25.285  22.763  1.00  0.00     0.115 C 
ATOM     18  C   UNL A   1      31.873  26.252  21.823  1.00  0.00     0.027 C 
ENDBRANCH  16  17
BRANCH  16  19
ATOM     19  C   UNL A   1      30.611  26.807  24.694  1.00  0.00     0.174 C 
BRANCH  19  20
ATOM     20  C   UNL A   1      31.385  27.839  25.520  1.00  0.00     0.060 A 
ATOM     21  C   UNL A   1      31.555  27.708  26.901  1.00  0.00     0.026 A 
ATOM     22  N   UNL A   1      31.898  28.906  24.845  1.00  0.00    -0.259 NA
ATOM     23  C   UNL A   1      32.332  28.639  27.589  1.00  0.00     0.004 A 
ATOM     24  C   UNL A   1      32.645  29.794  25.539  1.00  0.00     0.111 A 
ATOM     25  C   UNL A   1      32.898  29.697  26.896  1.00  0.00     0.020 A 
ENDBRANCH  19  20
ENDBRANCH  16  19
ENDBRANCH   9  16
ENDBRANCH   5   8
ENDBRANCH   3   4
ENDBRANCH   2   3
ENDBRANCH   1   2
BRANCH   1  26
ATOM     26  C   UNL A   1      36.635  20.598  24.925  1.00  0.00     0.002 C 
BRANCH  26  27
ATOM     27  C   UNL A   1      37.835  19.653  24.980  1.00  0.00     0.021 C 
BRANCH  27  28
ATOM     28  C   UNL A   1      39.055  20.129  25.760  1.00  0.00     0.116 C 
BRANCH  28  29
ATOM     29  N   UNL A   1      40.125  19.150  25.807  1.00  0.00    -0.352 N 
ATOM     30  C   UNL A   1      41.462  19.309  26.087  1.00  0.00     0.251 C 
ATOM     31  H   UNL A   1      39.851  18.225  25.608  1.00  0.00     0.163 HD
ATOM     32  O   UNL A   1      42.228  18.360  25.958  1.00  0.00    -0.269 OA
BRANCH  30  33
ATOM     33  C   UNL A   1      41.996  20.622  26.518  1.00  0.00     0.039 A 
ATOM     34  C   UNL A   1      42.434  21.520  25.538  1.00  0.00     0.014 A 
ATOM     35  C   UNL A   1      42.100  20.966  27.869  1.00  0.00     0.014 A 
ATOM     36  C   UNL A   1      42.913  22.780  25.908  1.00  0.00     0.010 A 
ATOM     37  C   UNL A   1      42.512  22.248  28.233  1.00  0.00     0.010 A 
ATOM     38  C   UNL A   1      42.924  23.168  27.257  1.00  0.00    -0.014 A 
BRANCH  38  39
ATOM     39  C   UNL A   1      43.358  24.531  27.662  1.00  0.00     0.031 A 
ATOM     40  C   UNL A   1      42.340  25.581  28.014  1.00  0.00     0.074 A 
ATOM     41  C   UNL A   1      44.669  24.843  27.656  1.00  0.00     0.049 A 
ATOM     42  N   UNL A   1      42.522  26.840  28.323  1.00  0.00    -0.248 NA
ATOM     43  C   UNL A   1      40.929  25.167  27.992  1.00  0.00     0.031 C 
ATOM     44  C   UNL A   1      45.754  23.928  27.296  1.00  0.00     0.029 A 
ATOM     45  N   UNL A   1      45.312  26.019  27.951  1.00  0.00    -0.354 N 
ATOM     46  C   UNL A   1      41.253  27.369  28.521  1.00  0.00     0.074 A 
ATOM     47  C   UNL A   1      40.307  26.309  28.247  1.00  0.00     0.031 C 
ATOM     48  C   UNL A   1      46.928  24.570  27.412  1.00  0.00     0.029 A 
ATOM     49  C   UNL A   1      46.678  25.950  27.817  1.00  0.00     0.049 A 
ATOM     50  H   UNL A   1      44.839  26.835  28.233  1.00  0.00     0.167 HD
ATOM     51  C   UNL A   1      40.907  28.618  28.919  1.00  0.00     0.037 A 
ATOM     52  C   UNL A   1      47.622  26.893  27.991  1.00  0.00     0.037 A 
ATOM     53  C   UNL A   1      41.850  29.666  29.212  1.00  0.00     0.049 A 
ATOM     54  C   UNL A   1      47.212  28.276  28.416  1.00  0.00     0.074 A 
ATOM     55  C   UNL A   1      41.600  30.948  29.669  1.00  0.00     0.029 A 
ATOM     56  N   UNL A   1      43.226  29.552  29.073  1.00  0.00    -0.354 N 
ATOM     57  N   UNL A   1      46.011  28.745  28.657  1.00  0.00    -0.248 NA
ATOM     58  C   UNL A   1      48.289  29.259  28.600  1.00  0.00     0.031 C 
ATOM     59  C   UNL A   1      42.820  31.625  29.765  1.00  0.00     0.029 A 
ATOM     60  C   UNL A   1      43.835  30.749  29.415  1.00  0.00     0.049 A 
ATOM     61  H   UNL A   1      43.699  28.742  28.776  1.00  0.00     0.167 HD
ATOM     62  C   UNL A   1      46.189  30.066  29.047  1.00  0.00     0.074 A 
ATOM     63  C   UNL A   1      47.615  30.320  29.024  1.00  0.00     0.031 C 
ATOM     64  C   UNL A   1      45.257  30.986  29.394  1.00  0.00     0.037 A 
BRANCH  51  65
ATOM     65  C   UNL A   1      39.443  28.917  29.065  1.00  0.00     0.057 A 
ATOM     66  C   UNL A   1      38.667  29.355  27.983  1.00  0.00     0.134 A 
ATOM     67  C   UNL A   1      38.791  28.734  30.290  1.00  0.00     0.134 A 
ATOM     68  F   UNL A   1      39.231  29.562  26.782  1.00  0.00    -0.206 F 
ATOM     69  C   UNL A   1      37.305  29.626  28.121  1.00  0.00     0.040 A 
ATOM     70  C   UNL A   1      37.424  28.974  30.434  1.00  0.00     0.040 A 
ATOM     71  F   UNL A   1      39.471  28.309  31.366  1.00  0.00    -0.206 F 
ATOM     72  C   UNL A   1      36.678  29.429  29.349  1.00  0.00     0.006 A 
ENDBRANCH  51  65
BRANCH  52  73
ATOM     73  C   UNL A   1      49.054  26.559  27.785  1.00  0.00     0.057 A 
ATOM     74  C   UNL A   1      49.854  26.127  28.849  1.00  0.00     0.134 A 
ATOM     75  C   UNL A   1      49.658  26.668  26.527  1.00  0.00     0.134 A 
ATOM     76  F   UNL A   1      49.337  26.022  30.082  1.00  0.00    -0.206 F 
ATOM     77  C   UNL A   1      51.208  25.833  28.675  1.00  0.00     0.040 A 
ATOM     78  C   UNL A   1      51.004  26.353  26.333  1.00  0.00     0.040 A 
ATOM     79  F   UNL A   1      48.945  27.070  25.465  1.00  0.00    -0.206 F 
ATOM     80  C   UNL A   1      51.784  25.941  27.411  1.00  0.00     0.006 A 
ENDBRANCH  52  73
BRANCH  64  81
ATOM     81  C   UNL A   1      45.749  32.341  29.811  1.00  0.00     0.057 A 
ATOM     82  C   UNL A   1      46.091  32.630  31.137  1.00  0.00     0.134 A 
ATOM     83  C   UNL A   1      45.917  33.359  28.863  1.00  0.00     0.134 A 
ATOM     84  F   UNL A   1      45.941  31.702  32.095  1.00  0.00    -0.206 F 
ATOM     85  C   UNL A   1      46.563  33.889  31.511  1.00  0.00     0.040 A 
ATOM     86  C   UNL A   1      46.413  34.613  29.220  1.00  0.00     0.040 A 
ATOM     87  F   UNL A   1      45.616  33.147  27.573  1.00  0.00    -0.206 F 
ATOM     88  C   UNL A   1      46.732  34.883  30.549  1.00  0.00     0.006 A 
ENDBRANCH  64  81
ENDBRANCH  38  39
ENDBRANCH  30  33
ENDBRANCH  28  29
ENDBRANCH  27  28
ENDBRANCH  26  27
ENDBRANCH   1  26
TORSDOF 17
ENDMDL
MODEL 2
REMARK VINA RESULT:     -11.1      1.549      6.253
REMARK SMILES CCN(Cc1ccccn1)c1nc(C)cc(C)c1C(=O)NCCCCCCNC(=O)c1ccc(-c2c3nc(c(-c4c(F)cccc4F)c4ccc([nH]4)c(-c4c(F)cccc4F)c4nc(c(-c5c(F)cccc5F)c5ccc2[nH]5)C=C4)C=C3)cc1
REMARK SMILES IDX 24 1 23 2 22 3 21 4 19 5 20 6 18 8 11 9 12 10 13 11 16 12
REMARK SMILES IDX 14 13 15 14 17 15 3 16 2 17 1 18 4 19 5 20 6 21 10 22 7 23
REMARK SMILES IDX 9 24 8 25 25 26 26 27 27 28 28 29 29 30 30 32 31 33 32 34
REMARK SMILES IDX 84 35 33 36 83 37 34 38 35 39 36 40 77 41 37 42 82 43 76 44
REMARK SMILES IDX 78 45 38 46 81 47 75 48 74 49 39 51 65 52 48 53 64 54 49 55
REMARK SMILES IDX 52 56 63 57 79 58 50 59 51 60 62 62 80 63 53 64 40 65 41 66
REMARK SMILES IDX 46 67 42 68 43 69 45 70 47 71 44 72 66 73 67 74 72 75 68 76
REMARK SMILES IDX 69 77 71 78 73 79 70 80 54 81 55 82 60 83 56 84 57 85 59 86
REMARK SMILES IDX 61 87 58 88
REMARK H PARENT 21 7 28 31 78 50 52 61
REMARK Flexibility Score: inf
ROOT
ATOM      1  C   UNL A   1      38.360  22.320  25.634  1.00  0.00     0.002 C 
ENDROOT
BRANCH   1   2
ATOM      2  C   UNL A   1      37.600  23.648  25.685  1.00  0.00     0.021 C 
BRANCH   2   3
ATOM      3  C   UNL A   1      36.116  23.651  25.336  1.00  0.00     0.116 C 
BRANCH   3   4
ATOM      4  N   UNL A   1      35.771  23.431  23.951  1.00  0.00    -0.352 N 
ATOM      5  C   UNL A   1      34.519  23.360  23.364  1.00  0.00     0.255 C 
ATOM      6  O   UNL A   1      34.457  23.459  22.139  1.00  0.00    -0.269 OA
ATOM      7  H   UNL A   1      36.534  23.315  23.339  1.00  0.00     0.163 HD
BRANCH   5   8
ATOM      8  C   UNL A   1      33.273  23.162  24.162  1.00  0.00     0.085 A 
ATOM      9  C   UNL A   1      32.501  24.289  24.523  1.00  0.00     0.142 A 
ATOM     10  N   UNL A   1      31.404  24.154  25.307  1.00  0.00    -0.235 NA
ATOM     11  C   UNL A   1      31.076  22.965  25.839  1.00  0.00     0.040 A 
ATOM     12  C   UNL A   1      32.921  21.908  24.721  1.00  0.00    -0.033 A 
ATOM     13  C   UNL A   1      29.994  22.973  26.873  1.00  0.00     0.067 C 
ATOM     14  C   UNL A   1      31.792  21.822  25.549  1.00  0.00     0.028 A 
ATOM     15  C   UNL A   1      33.690  20.631  24.538  1.00  0.00     0.045 C 
BRANCH   9  16
ATOM     16  N   UNL A   1      32.805  25.603  24.188  1.00  0.00    -0.350 N 
BRANCH  16  17
ATOM     17  C   UNL A   1      31.854  26.371  23.397  1.00  0.00     0.115 C 
ATOM     18  C   UNL A   1      31.831  25.936  21.943  1.00  0.00     0.027 C 
ENDBRANCH  16  17
BRANCH  16  19
ATOM     19  C   UNL A   1      33.669  26.328  25.149  1.00  0.00     0.174 C 
BRANCH  19  20
ATOM     20  C   UNL A   1      33.074  27.544  25.867  1.00  0.00     0.060 A 
ATOM     21  C   UNL A   1      32.076  27.420  26.837  1.00  0.00     0.026 A 
ATOM     22  N   UNL A   1      33.560  28.766  25.509  1.00  0.00    -0.259 NA
ATOM     23  C   UNL A   1      31.627  28.554  27.511  1.00  0.00     0.004 A 
ATOM     24  C   UNL A   1      33.104  29.849  26.178  1.00  0.00     0.111 A 
ATOM     25  C   UNL A   1      32.156  29.793  27.185  1.00  0.00     0.020 A 
ENDBRANCH  19  20
ENDBRANCH  16  19
ENDBRANCH   9  16
ENDBRANCH   5   8
ENDBRANCH   3   4
ENDBRANCH   2   3
ENDBRANCH   1   2
BRANCH   1  26
ATOM     26  C   UNL A   1      37.679  21.101  25.008  1.00  0.00     0.002 C 
BRANCH  26  27
ATOM     27  C   UNL A   1      38.453  19.783  24.966  1.00  0.00     0.021 C 
BRANCH  27  28
ATOM     28  C   UNL A   1      39.313  19.448  26.179  1.00  0.00     0.116 C 
BRANCH  28  29
ATOM     29  N   UNL A   1      40.619  18.919  25.830  1.00  0.00    -0.352 N 
ATOM     30  C   UNL A   1      41.853  19.524  25.841  1.00  0.00     0.251 C 
ATOM     31  H   UNL A   1      40.621  17.978  25.541  1.00  0.00     0.163 HD
ATOM     32  O   UNL A   1      42.827  18.929  25.392  1.00  0.00    -0.269 OA
BRANCH  30  33
ATOM     33  C   UNL A   1      42.019  20.901  26.364  1.00  0.00     0.039 A 
ATOM     34  C   UNL A   1      41.803  21.128  27.728  1.00  0.00     0.014 A 
ATOM     35  C   UNL A   1      42.351  21.970  25.527  1.00  0.00     0.014 A 
ATOM     36  C   UNL A   1      41.983  22.407  28.260  1.00  0.00     0.010 A 
ATOM     37  C   UNL A   1      42.598  23.231  26.072  1.00  0.00     0.010 A 
ATOM     38  C   UNL A   1      42.416  23.463  27.443  1.00  0.00    -0.014 A 
BRANCH  38  39
ATOM     39  C   UNL A   1      42.686  24.812  28.007  1.00  0.00     0.031 A 
ATOM     40  C   UNL A   1      44.069  25.180  28.469  1.00  0.00     0.074 A 
ATOM     41  C   UNL A   1      41.672  25.686  28.158  1.00  0.00     0.049 A 
ATOM     42  N   UNL A   1      44.483  26.280  29.049  1.00  0.00    -0.248 NA
ATOM     43  C   UNL A   1      45.121  24.171  28.277  1.00  0.00     0.031 C 
ATOM     44  C   UNL A   1      40.278  25.438  27.786  1.00  0.00     0.029 A 
ATOM     45  N   UNL A   1      41.655  26.959  28.674  1.00  0.00    -0.354 N 
ATOM     46  C   UNL A   1      45.835  26.090  29.299  1.00  0.00     0.074 A 
ATOM     47  C   UNL A   1      46.162  24.751  28.857  1.00  0.00     0.031 C 
ATOM     48  C   UNL A   1      39.546  26.529  28.066  1.00  0.00     0.029 A 
ATOM     49  C   UNL A   1      40.409  27.538  28.670  1.00  0.00     0.049 A 
ATOM     50  H   UNL A   1      42.460  27.413  29.013  1.00  0.00     0.167 HD
ATOM     51  C   UNL A   1      46.731  26.959  29.828  1.00  0.00     0.037 A 
ATOM     52  C   UNL A   1      40.006  28.744  29.113  1.00  0.00     0.037 A 
ATOM     53  C   UNL A   1      46.409  28.298  30.249  1.00  0.00     0.049 A 
ATOM     54  C   UNL A   1      41.014  29.685  29.711  1.00  0.00     0.074 A 
ATOM     55  C   UNL A   1      47.255  29.271  30.750  1.00  0.00     0.029 A 
ATOM     56  N   UNL A   1      45.136  28.851  30.220  1.00  0.00    -0.354 N 
ATOM     57  N   UNL A   1      42.302  29.513  29.887  1.00  0.00    -0.248 NA
ATOM     58  C   UNL A   1      40.515  30.990  30.167  1.00  0.00     0.031 C 
ATOM     59  C   UNL A   1      46.489  30.398  31.067  1.00  0.00     0.029 A 
ATOM     60  C   UNL A   1      45.173  30.145  30.715  1.00  0.00     0.049 A 
ATOM     61  H   UNL A   1      44.329  28.393  29.896  1.00  0.00     0.167 HD
ATOM     62  C   UNL A   1      42.771  30.695  30.446  1.00  0.00     0.074 A 
ATOM     63  C   UNL A   1      41.632  31.581  30.567  1.00  0.00     0.031 C 
ATOM     64  C   UNL A   1      44.032  31.018  30.824  1.00  0.00     0.037 A 
BRANCH  51  65
ATOM     65  C   UNL A   1      48.148  26.488  29.977  1.00  0.00     0.057 A 
ATOM     66  C   UNL A   1      49.100  26.674  28.964  1.00  0.00     0.134 A 
ATOM     67  C   UNL A   1      48.579  25.871  31.157  1.00  0.00     0.134 A 
ATOM     68  F   UNL A   1      48.751  27.248  27.801  1.00  0.00    -0.206 F 
ATOM     69  C   UNL A   1      50.418  26.239  29.109  1.00  0.00     0.040 A 
ATOM     70  C   UNL A   1      49.902  25.458  31.326  1.00  0.00     0.040 A 
ATOM     71  F   UNL A   1      47.724  25.669  32.172  1.00  0.00    -0.206 F 
ATOM     72  C   UNL A   1      50.824  25.635  30.297  1.00  0.00     0.006 A 
ENDBRANCH  51  65
BRANCH  52  73
ATOM     73  C   UNL A   1      38.580  29.142  28.988  1.00  0.00     0.057 A 
ATOM     74  C   UNL A   1      38.066  29.611  27.774  1.00  0.00     0.134 A 
ATOM     75  C   UNL A   1      37.702  29.071  30.076  1.00  0.00     0.134 A 
ATOM     76  F   UNL A   1      38.864  29.721  26.701  1.00  0.00    -0.206 F 
ATOM     77  C   UNL A   1      36.735  30.013  27.649  1.00  0.00     0.040 A 
ATOM     78  C   UNL A   1      36.362  29.445  29.959  1.00  0.00     0.040 A 
ATOM     79  F   UNL A   1      38.130  28.625  31.265  1.00  0.00    -0.206 F 
ATOM     80  C   UNL A   1      35.878  29.924  28.744  1.00  0.00     0.006 A 
ENDBRANCH  52  73
BRANCH  64  81
ATOM     81  C   UNL A   1      44.254  32.398  31.371  1.00  0.00     0.057 A 
ATOM     82  C   UNL A   1      44.195  32.670  32.744  1.00  0.00     0.134 A 
ATOM     83  C   UNL A   1      44.566  33.461  30.514  1.00  0.00     0.134 A 
ATOM     84  F   UNL A   1      43.888  31.698  33.616  1.00  0.00    -0.206 F 
ATOM     85  C   UNL A   1      44.419  33.954  33.242  1.00  0.00     0.040 A 
ATOM     86  C   UNL A   1      44.818  34.743  31.004  1.00  0.00     0.040 A 
ATOM     87  F   UNL A   1      44.646  33.268  29.189  1.00  0.00    -0.206 F 
ATOM     88  C   UNL A   1      44.738  34.994  32.372  1.00  0.00     0.006 A 
ENDBRANCH  64  81
ENDBRANCH  38  39
ENDBRANCH  30  33
ENDBRANCH  28  29
ENDBRANCH  27  28
ENDBRANCH  26  27
ENDBRANCH   1  26
TORSDOF 17
ENDMDL
MODEL 3
REMARK VINA RESULT:     -11.1      2.142      7.199
REMARK SMILES CCN(Cc1ccccn1)c1nc(C)cc(C)c1C(=O)NCCCCCCNC(=O)c1ccc(-c2c3nc(c(-c4c(F)cccc4F)c4ccc([nH]4)c(-c4c(F)cccc4F)c4nc(c(-c5c(F)cccc5F)c5ccc2[nH]5)C=C4)C=C3)cc1
REMARK SMILES IDX 24 1 23 2 22 3 21 4 19 5 20 6 18 8 11 9 12 10 13 11 16 12
REMARK SMILES IDX 14 13 15 14 17 15 3 16 2 17 1 18 4 19 5 20 6 21 10 22 7 23
REMARK SMILES IDX 9 24 8 25 25 26 26 27 27 28 28 29 29 30 30 32 31 33 32 34
REMARK SMILES IDX 84 35 33 36 83 37 34 38 35 39 36 40 77 41 37 42 82 43 76 44
REMARK SMILES IDX 78 45 38 46 81 47 75 48 74 49 39 51 65 52 48 53 64 54 49 55
REMARK SMILES IDX 52 56 63 57 79 58 50 59 51 60 62 62 80 63 53 64 40 65 41 66
REMARK SMILES IDX 46 67 42 68 43 69 45 70 47 71 44 72 66 73 67 74 72 75 68 76
REMARK SMILES IDX 69 77 71 78 73 79 70 80 54 81 55 82 60 83 56 84 57 85 59 86
REMARK SMILES IDX 61 87 58 88
REMARK H PARENT 21 7 28 31 78 50 52 61
REMARK Flexibility Score: inf
ROOT
ATOM      1  C   UNL A   1      37.802  23.530  25.808  1.00  0.00     0.002 C 
ENDROOT
BRANCH   1   2
ATOM      2  C   UNL A   1      37.056  23.312  24.489  1.00  0.00     0.021 C 
BRANCH   2   3
ATOM      3  C   UNL A   1      35.707  23.994  24.295  1.00  0.00     0.116 C 
BRANCH   3   4
ATOM      4  N   UNL A   1      34.983  23.674  23.087  1.00  0.00    -0.352 N 
ATOM      5  C   UNL A   1      33.616  23.552  22.895  1.00  0.00     0.255 C 
ATOM      6  O   UNL A   1      33.200  23.564  21.737  1.00  0.00    -0.269 OA
ATOM      7  H   UNL A   1      35.538  23.521  22.289  1.00  0.00     0.163 HD
BRANCH   5   8
ATOM      8  C   UNL A   1      32.660  23.403  24.031  1.00  0.00     0.085 A 
ATOM      9  C   UNL A   1      32.476  22.129  24.612  1.00  0.00     0.142 A 
ATOM     10  N   UNL A   1      31.564  21.942  25.597  1.00  0.00    -0.235 NA
ATOM     11  C   UNL A   1      30.746  22.937  25.980  1.00  0.00     0.040 A 
ATOM     12  C   UNL A   1      31.798  24.451  24.441  1.00  0.00    -0.033 A 
ATOM     13  C   UNL A   1      29.624  22.562  26.898  1.00  0.00     0.067 C 
ATOM     14  C   UNL A   1      30.851  24.203  25.445  1.00  0.00     0.028 A 
ATOM     15  C   UNL A   1      31.775  25.833  23.853  1.00  0.00     0.045 C 
BRANCH   9  16
ATOM     16  N   UNL A   1      33.129  20.969  24.212  1.00  0.00    -0.350 N 
BRANCH  16  17
ATOM     17  C   UNL A   1      34.428  20.650  24.790  1.00  0.00     0.115 C 
ATOM     18  C   UNL A   1      34.539  21.098  26.237  1.00  0.00     0.027 C 
ENDBRANCH  16  17
BRANCH  16  19
ATOM     19  C   UNL A   1      32.254  19.850  23.792  1.00  0.00     0.174 C 
BRANCH  19  20
ATOM     20  C   UNL A   1      32.699  18.426  24.137  1.00  0.00     0.060 A 
ATOM     21  C   UNL A   1      33.467  17.654  23.261  1.00  0.00     0.026 A 
ATOM     22  N   UNL A   1      32.301  17.934  25.345  1.00  0.00    -0.259 NA
ATOM     23  C   UNL A   1      33.905  16.392  23.660  1.00  0.00     0.004 A 
ATOM     24  C   UNL A   1      32.740  16.707  25.704  1.00  0.00     0.111 A 
ATOM     25  C   UNL A   1      33.545  15.911  24.909  1.00  0.00     0.020 A 
ENDBRANCH  19  20
ENDBRANCH  16  19
ENDBRANCH   9  16
ENDBRANCH   5   8
ENDBRANCH   3   4
ENDBRANCH   2   3
ENDBRANCH   1   2
BRANCH   1  26
ATOM     26  C   UNL A   1      38.826  22.485  26.261  1.00  0.00     0.002 C 
BRANCH  26  27
ATOM     27  C   UNL A   1      38.958  21.201  25.443  1.00  0.00     0.021 C 
BRANCH  27  28
ATOM     28  C   UNL A   1      39.121  19.900  26.219  1.00  0.00     0.116 C 
BRANCH  28  29
ATOM     29  N   UNL A   1      40.338  19.181  25.889  1.00  0.00    -0.352 N 
ATOM     30  C   UNL A   1      41.650  19.583  25.950  1.00  0.00     0.251 C 
ATOM     31  H   UNL A   1      40.201  18.259  25.571  1.00  0.00     0.163 HD
ATOM     32  O   UNL A   1      42.533  18.854  25.510  1.00  0.00    -0.269 OA
BRANCH  30  33
ATOM     33  C   UNL A   1      42.014  20.902  26.520  1.00  0.00     0.039 A 
ATOM     34  C   UNL A   1      42.487  21.896  25.656  1.00  0.00     0.014 A 
ATOM     35  C   UNL A   1      41.926  21.161  27.891  1.00  0.00     0.014 A 
ATOM     36  C   UNL A   1      42.809  23.161  26.155  1.00  0.00     0.010 A 
ATOM     37  C   UNL A   1      42.180  22.444  28.376  1.00  0.00     0.010 A 
ATOM     38  C   UNL A   1      42.625  23.457  27.514  1.00  0.00    -0.014 A 
BRANCH  38  39
ATOM     39  C   UNL A   1      42.889  24.820  28.048  1.00  0.00     0.031 A 
ATOM     40  C   UNL A   1      44.276  25.213  28.476  1.00  0.00     0.074 A 
ATOM     41  C   UNL A   1      41.867  25.684  28.202  1.00  0.00     0.049 A 
ATOM     42  N   UNL A   1      44.687  26.329  29.026  1.00  0.00    -0.248 NA
ATOM     43  C   UNL A   1      45.337  24.214  28.282  1.00  0.00     0.031 C 
ATOM     44  C   UNL A   1      40.470  25.412  27.862  1.00  0.00     0.029 A 
ATOM     45  N   UNL A   1      41.845  26.966  28.694  1.00  0.00    -0.354 N 
ATOM     46  C   UNL A   1      46.047  26.160  29.254  1.00  0.00     0.074 A 
ATOM     47  C   UNL A   1      46.381  24.817  28.830  1.00  0.00     0.031 C 
ATOM     48  C   UNL A   1      39.730  26.499  28.136  1.00  0.00     0.029 A 
ATOM     49  C   UNL A   1      40.592  27.530  28.705  1.00  0.00     0.049 A 
ATOM     50  H   UNL A   1      42.650  27.436  29.009  1.00  0.00     0.167 HD
ATOM     51  C   UNL A   1      46.941  27.050  29.748  1.00  0.00     0.037 A 
ATOM     52  C   UNL A   1      40.182  28.739  29.132  1.00  0.00     0.037 A 
ATOM     53  C   UNL A   1      46.611  28.393  30.150  1.00  0.00     0.049 A 
ATOM     54  C   UNL A   1      41.190  29.703  29.693  1.00  0.00     0.074 A 
ATOM     55  C   UNL A   1      47.455  29.385  30.616  1.00  0.00     0.029 A 
ATOM     56  N   UNL A   1      45.331  28.929  30.136  1.00  0.00    -0.354 N 
ATOM     57  N   UNL A   1      42.483  29.551  29.847  1.00  0.00    -0.248 NA
ATOM     58  C   UNL A   1      40.683  31.011  30.134  1.00  0.00     0.031 C 
ATOM     59  C   UNL A   1      46.681  30.508  30.927  1.00  0.00     0.029 A 
ATOM     60  C   UNL A   1      45.361  30.233  30.606  1.00  0.00     0.049 A 
ATOM     61  H   UNL A   1      44.523  28.455  29.837  1.00  0.00     0.167 HD
ATOM     62  C   UNL A   1      42.948  30.748  30.374  1.00  0.00     0.074 A 
ATOM     63  C   UNL A   1      41.801  31.623  30.501  1.00  0.00     0.031 C 
ATOM     64  C   UNL A   1      44.212  31.094  30.721  1.00  0.00     0.037 A 
BRANCH  51  65
ATOM     65  C   UNL A   1      48.367  26.599  29.878  1.00  0.00     0.057 A 
ATOM     66  C   UNL A   1      48.827  25.918  31.013  1.00  0.00     0.134 A 
ATOM     67  C   UNL A   1      49.286  26.816  28.844  1.00  0.00     0.134 A 
ATOM     68  F   UNL A   1      48.002  25.686  32.047  1.00  0.00    -0.206 F 
ATOM     69  C   UNL A   1      50.152  25.495  31.127  1.00  0.00     0.040 A 
ATOM     70  C   UNL A   1      50.606  26.373  28.933  1.00  0.00     0.040 A 
ATOM     71  F   UNL A   1      48.913  27.454  27.724  1.00  0.00    -0.206 F 
ATOM     72  C   UNL A   1      51.044  25.716  30.081  1.00  0.00     0.006 A 
ENDBRANCH  51  65
BRANCH  52  73
ATOM     73  C   UNL A   1      38.750  29.117  29.028  1.00  0.00     0.057 A 
ATOM     74  C   UNL A   1      37.896  29.020  30.133  1.00  0.00     0.134 A 
ATOM     75  C   UNL A   1      38.198  29.577  27.826  1.00  0.00     0.134 A 
ATOM     76  F   UNL A   1      38.361  28.567  31.307  1.00  0.00    -0.206 F 
ATOM     77  C   UNL A   1      36.542  29.348  30.044  1.00  0.00     0.040 A 
ATOM     78  C   UNL A   1      36.852  29.933  27.728  1.00  0.00     0.040 A 
ATOM     79  F   UNL A   1      38.964  29.699  26.733  1.00  0.00    -0.206 F 
ATOM     80  C   UNL A   1      36.018  29.812  28.839  1.00  0.00     0.006 A 
ENDBRANCH  52  73
BRANCH  64  81
ATOM     81  C   UNL A   1      44.427  32.487  31.238  1.00  0.00     0.057 A 
ATOM     82  C   UNL A   1      44.685  33.563  30.381  1.00  0.00     0.134 A 
ATOM     83  C   UNL A   1      44.336  32.758  32.609  1.00  0.00     0.134 A 
ATOM     84  F   UNL A   1      44.797  33.368  29.059  1.00  0.00    -0.206 F 
ATOM     85  C   UNL A   1      44.868  34.857  30.872  1.00  0.00     0.040 A 
ATOM     86  C   UNL A   1      44.490  34.052  33.108  1.00  0.00     0.040 A 
ATOM     87  F   UNL A   1      44.083  31.774  33.484  1.00  0.00    -0.206 F 
ATOM     88  C   UNL A   1      44.763  35.106  32.239  1.00  0.00     0.006 A 
ENDBRANCH  64  81
ENDBRANCH  38  39
ENDBRANCH  30  33
ENDBRANCH  28  29
ENDBRANCH  27  28
ENDBRANCH  26  27
ENDBRANCH   1  26
TORSDOF 17
ENDMDL
