MODEL 1
REMARK VINA RESULT:     -10.2      0.000      0.000
REMARK SMILES C[C@H](Sc1ccnc(C(=O)NCCCCCCNC(=O)c2ccc(-c3c4nc(c(-c5c(F)cccc5F)c5ccc([nH]5)c(-c5c(F)cccc5F)c5nc(c(-c6c(F)cccc6F)c6ccc3[nH]6)C=C5)C=C4)cc2)c1)[C@@H](C)O
REMARK SMILES IDX 13 1 12 2 11 3 9 4 10 5 8 7 4 8 5 9 75 10 6 11 7 12 3 13
REMARK SMILES IDX 2 14 1 15 76 16 77 17 78 18 14 20 15 21 16 22 17 23 18 24
REMARK SMILES IDX 19 25 20 27 21 28 22 29 74 30 23 31 73 32 24 33 25 34 26 35
REMARK SMILES IDX 67 36 27 37 72 38 66 39 68 40 28 41 71 42 65 43 64 44 29 46
REMARK SMILES IDX 55 47 38 48 54 49 39 50 42 51 53 52 69 53 40 54 41 55 52 57
REMARK SMILES IDX 70 58 43 59 30 60 31 61 36 62 32 63 33 64 35 65 37 66 34 67
REMARK SMILES IDX 56 68 57 69 62 70 58 71 59 72 61 73 63 74 60 75 44 76 45 77
REMARK SMILES IDX 50 78 46 79 47 80 49 81 51 82 48 83
REMARK H PARENT 11 6 78 19 18 26 68 45 42 56
REMARK Flexibility Score: inf
ROOT
ATOM      1  C   UNL A   1      33.396  29.534  27.166  1.00  0.00     0.021 C 
ENDROOT
BRANCH   1   2
ATOM      2  C   UNL A   1      34.027  28.393  26.375  1.00  0.00     0.116 C 
BRANCH   2   3
ATOM      3  N   UNL A   1      34.139  28.667  24.956  1.00  0.00    -0.351 N 
ATOM      4  C   UNL A   1      33.382  28.306  23.860  1.00  0.00     0.269 C 
ATOM      5  O   UNL A   1      33.798  28.687  22.763  1.00  0.00    -0.268 OA
ATOM      6  H   UNL A   1      34.916  29.226  24.726  1.00  0.00     0.163 HD
BRANCH   4   7
ATOM      7  C   UNL A   1      32.126  27.474  23.934  1.00  0.00     0.129 A 
ATOM      8  C   UNL A   1      30.913  25.410  24.249  1.00  0.00     0.011 A 
ATOM      9  C   UNL A   1      29.747  26.090  23.932  1.00  0.00     0.035 A 
ATOM     10  C   UNL A   1      32.098  26.151  24.346  1.00  0.00     0.049 A 
ATOM     11  C   UNL A   1      29.833  27.436  23.620  1.00  0.00     0.113 A 
ATOM     12  N   UNL A   1      30.990  28.125  23.578  1.00  0.00    -0.251 NA
BRANCH   8  13
ATOM     13  S   UNL A   1      31.108  23.655  24.527  1.00  0.00    -0.120 SA
BRANCH  13  14
ATOM     14  C   UNL A   1      31.289  23.365  26.342  1.00  0.00     0.077 C 
ATOM     15  C   UNL A   1      29.963  22.854  26.908  1.00  0.00     0.022 C 
BRANCH  14  16
ATOM     16  C   UNL A   1      32.536  22.588  26.831  1.00  0.00     0.124 C 
ATOM     17  C   UNL A   1      33.861  23.286  26.537  1.00  0.00     0.039 C 
BRANCH  16  18
ATOM     18  O   UNL A   1      32.456  22.379  28.247  1.00  0.00    -0.392 OA
ATOM     19  H   UNL A   1      32.596  21.440  28.443  1.00  0.00     0.210 HD
ENDBRANCH  16  18
ENDBRANCH  14  16
ENDBRANCH  13  14
ENDBRANCH   8  13
ENDBRANCH   4   7
ENDBRANCH   2   3
ENDBRANCH   1   2
BRANCH   1  20
ATOM     20  C   UNL A   1      31.885  29.703  27.016  1.00  0.00     0.002 C 
BRANCH  20  21
ATOM     21  C   UNL A   1      31.421  30.823  26.080  1.00  0.00     0.002 C 
BRANCH  21  22
ATOM     22  C   UNL A   1      31.310  32.219  26.700  1.00  0.00     0.021 C 
BRANCH  22  23
ATOM     23  C   UNL A   1      32.629  32.849  27.136  1.00  0.00     0.116 C 
BRANCH  23  24
ATOM     24  N   UNL A   1      32.443  34.152  27.750  1.00  0.00    -0.352 N 
ATOM     25  C   UNL A   1      33.140  34.747  28.771  1.00  0.00     0.251 C 
ATOM     26  H   UNL A   1      31.707  34.690  27.377  1.00  0.00     0.163 HD
ATOM     27  O   UNL A   1      32.721  35.779  29.284  1.00  0.00    -0.269 OA
BRANCH  25  28
ATOM     28  C   UNL A   1      34.395  34.140  29.266  1.00  0.00     0.039 A 
ATOM     29  C   UNL A   1      34.343  33.311  30.390  1.00  0.00     0.014 A 
ATOM     30  C   UNL A   1      35.620  34.407  28.648  1.00  0.00     0.014 A 
ATOM     31  C   UNL A   1      35.511  32.707  30.861  1.00  0.00     0.010 A 
ATOM     32  C   UNL A   1      36.770  33.751  29.075  1.00  0.00     0.010 A 
ATOM     33  C   UNL A   1      36.730  32.900  30.190  1.00  0.00    -0.014 A 
BRANCH  33  34
ATOM     34  C   UNL A   1      37.971  32.223  30.643  1.00  0.00     0.031 A 
ATOM     35  C   UNL A   1      38.804  32.825  31.740  1.00  0.00     0.074 A 
ATOM     36  C   UNL A   1      38.381  31.100  30.024  1.00  0.00     0.049 A 
ATOM     37  N   UNL A   1      39.947  32.417  32.230  1.00  0.00    -0.248 NA
ATOM     38  C   UNL A   1      38.298  34.065  32.349  1.00  0.00     0.031 C 
ATOM     39  C   UNL A   1      37.684  30.442  28.917  1.00  0.00     0.029 A 
ATOM     40  N   UNL A   1      39.488  30.317  30.231  1.00  0.00    -0.354 N 
ATOM     41  C   UNL A   1      40.304  33.356  33.189  1.00  0.00     0.074 A 
ATOM     42  C   UNL A   1      39.284  34.382  33.175  1.00  0.00     0.031 C 
ATOM     43  C   UNL A   1      38.366  29.343  28.560  1.00  0.00     0.029 A 
ATOM     44  C   UNL A   1      39.566  29.238  29.384  1.00  0.00     0.049 A 
ATOM     45  H   UNL A   1      40.163  30.510  30.921  1.00  0.00     0.167 HD
ATOM     46  C   UNL A   1      41.374  33.353  34.020  1.00  0.00     0.037 A 
ATOM     47  C   UNL A   1      40.502  28.275  29.281  1.00  0.00     0.037 A 
ATOM     48  C   UNL A   1      42.373  32.318  34.047  1.00  0.00     0.049 A 
ATOM     49  C   UNL A   1      41.683  28.297  30.210  1.00  0.00     0.074 A 
ATOM     50  C   UNL A   1      43.459  32.188  34.896  1.00  0.00     0.029 A 
ATOM     51  N   UNL A   1      42.412  31.236  33.180  1.00  0.00    -0.354 N 
ATOM     52  N   UNL A   1      41.972  29.154  31.159  1.00  0.00    -0.248 NA
ATOM     53  C   UNL A   1      42.666  27.216  30.056  1.00  0.00     0.031 C 
ATOM     54  C   UNL A   1      44.180  31.053  34.512  1.00  0.00     0.029 A 
ATOM     55  C   UNL A   1      43.518  30.448  33.457  1.00  0.00     0.049 A 
ATOM     56  H   UNL A   1      41.752  31.055  32.473  1.00  0.00     0.167 HD
ATOM     57  C   UNL A   1      43.153  28.701  31.734  1.00  0.00     0.074 A 
ATOM     58  C   UNL A   1      43.519  27.486  31.034  1.00  0.00     0.031 C 
ATOM     59  C   UNL A   1      43.867  29.241  32.752  1.00  0.00     0.037 A 
BRANCH  46  60
ATOM     60  C   UNL A   1      41.516  34.510  34.967  1.00  0.00     0.057 A 
ATOM     61  C   UNL A   1      40.985  34.477  36.264  1.00  0.00     0.134 A 
ATOM     62  C   UNL A   1      42.211  35.665  34.585  1.00  0.00     0.134 A 
ATOM     63  F   UNL A   1      40.297  33.407  36.690  1.00  0.00    -0.206 F 
ATOM     64  C   UNL A   1      41.111  35.562  37.134  1.00  0.00     0.040 A 
ATOM     65  C   UNL A   1      42.369  36.744  35.457  1.00  0.00     0.040 A 
ATOM     66  F   UNL A   1      42.751  35.763  33.362  1.00  0.00    -0.206 F 
ATOM     67  C   UNL A   1      41.810  36.698  36.733  1.00  0.00     0.006 A 
ENDBRANCH  46  60
BRANCH  47  68
ATOM     68  C   UNL A   1      40.342  27.193  28.280  1.00  0.00     0.057 A 
ATOM     69  C   UNL A   1      39.588  26.049  28.570  1.00  0.00     0.134 A 
ATOM     70  C   UNL A   1      40.929  27.273  27.012  1.00  0.00     0.134 A 
ATOM     71  F   UNL A   1      39.016  25.907  29.775  1.00  0.00    -0.206 F 
ATOM     72  C   UNL A   1      39.438  25.017  27.642  1.00  0.00     0.040 A 
ATOM     73  C   UNL A   1      40.767  26.259  26.066  1.00  0.00     0.040 A 
ATOM     74  F   UNL A   1      41.657  28.345  26.669  1.00  0.00    -0.206 F 
ATOM     75  C   UNL A   1      40.024  25.124  26.383  1.00  0.00     0.006 A 
ENDBRANCH  47  68
BRANCH  59  76
ATOM     76  C   UNL A   1      45.100  28.505  33.190  1.00  0.00     0.057 A 
ATOM     77  C   UNL A   1      45.052  27.486  34.150  1.00  0.00     0.134 A 
ATOM     78  C   UNL A   1      46.344  28.797  32.618  1.00  0.00     0.134 A 
ATOM     79  F   UNL A   1      43.893  27.168  34.746  1.00  0.00    -0.206 F 
ATOM     80  C   UNL A   1      46.202  26.797  34.540  1.00  0.00     0.040 A 
ATOM     81  C   UNL A   1      47.497  28.097  32.980  1.00  0.00     0.040 A 
ATOM     82  F   UNL A   1      46.459  29.756  31.687  1.00  0.00    -0.206 F 
ATOM     83  C   UNL A   1      47.428  27.099  33.948  1.00  0.00     0.006 A 
ENDBRANCH  59  76
ENDBRANCH  33  34
ENDBRANCH  25  28
ENDBRANCH  23  24
ENDBRANCH  22  23
ENDBRANCH  21  22
ENDBRANCH  20  21
ENDBRANCH   1  20
TORSDOF 17
ENDMDL
MODEL 2
REMARK VINA RESULT:     -10.2      2.203      7.128
REMARK SMILES C[C@H](Sc1ccnc(C(=O)NCCCCCCNC(=O)c2ccc(-c3c4nc(c(-c5c(F)cccc5F)c5ccc([nH]5)c(-c5c(F)cccc5F)c5nc(c(-c6c(F)cccc6F)c6ccc3[nH]6)C=C5)C=C4)cc2)c1)[C@@H](C)O
REMARK SMILES IDX 13 1 12 2 11 3 9 4 10 5 8 7 4 8 5 9 75 10 6 11 7 12 3 13
REMARK SMILES IDX 2 14 1 15 76 16 77 17 78 18 14 20 15 21 16 22 17 23 18 24
REMARK SMILES IDX 19 25 20 27 21 28 22 29 74 30 23 31 73 32 24 33 25 34 26 35
REMARK SMILES IDX 67 36 27 37 72 38 66 39 68 40 28 41 71 42 65 43 64 44 29 46
REMARK SMILES IDX 55 47 38 48 54 49 39 50 42 51 53 52 69 53 40 54 41 55 52 57
REMARK SMILES IDX 70 58 43 59 30 60 31 61 36 62 32 63 33 64 35 65 37 66 34 67
REMARK SMILES IDX 56 68 57 69 62 70 58 71 59 72 61 73 63 74 60 75 44 76 45 77
REMARK SMILES IDX 50 78 46 79 47 80 49 81 51 82 48 83
REMARK H PARENT 11 6 78 19 18 26 68 45 42 56
REMARK Flexibility Score: inf
ROOT
ATOM      1  C   UNL A   1      33.494  29.241  26.751  1.00  0.00     0.021 C 
ENDROOT
BRANCH   1   2
ATOM      2  C   UNL A   1      33.566  28.097  25.744  1.00  0.00     0.116 C 
BRANCH   2   3
ATOM      3  N   UNL A   1      33.768  28.542  24.379  1.00  0.00    -0.351 N 
ATOM      4  C   UNL A   1      32.935  28.639  23.282  1.00  0.00     0.269 C 
ATOM      5  O   UNL A   1      33.459  29.029  22.235  1.00  0.00    -0.268 OA
ATOM      6  H   UNL A   1      34.689  28.835  24.196  1.00  0.00     0.163 HD
BRANCH   4   7
ATOM      7  C   UNL A   1      31.471  28.278  23.295  1.00  0.00     0.129 A 
ATOM      8  C   UNL A   1      29.157  28.599  22.683  1.00  0.00     0.011 A 
ATOM      9  C   UNL A   1      28.829  27.537  23.511  1.00  0.00     0.035 A 
ATOM     10  C   UNL A   1      30.515  28.896  22.505  1.00  0.00     0.049 A 
ATOM     11  C   UNL A   1      29.846  26.901  24.203  1.00  0.00     0.113 A 
ATOM     12  N   UNL A   1      31.140  27.270  24.141  1.00  0.00    -0.251 NA
BRANCH   8  13
ATOM     13  S   UNL A   1      28.038  29.688  21.813  1.00  0.00    -0.120 SA
BRANCH  13  14
ATOM     14  C   UNL A   1      28.084  31.347  22.623  1.00  0.00     0.077 C 
ATOM     15  C   UNL A   1      28.787  31.230  23.977  1.00  0.00     0.022 C 
BRANCH  14  16
ATOM     16  C   UNL A   1      28.536  32.557  21.769  1.00  0.00     0.124 C 
ATOM     17  C   UNL A   1      28.019  32.536  20.334  1.00  0.00     0.039 C 
BRANCH  16  18
ATOM     18  O   UNL A   1      28.088  33.776  22.377  1.00  0.00    -0.392 OA
ATOM     19  H   UNL A   1      27.204  33.997  22.046  1.00  0.00     0.210 HD
ENDBRANCH  16  18
ENDBRANCH  14  16
ENDBRANCH  13  14
ENDBRANCH   8  13
ENDBRANCH   4   7
ENDBRANCH   2   3
ENDBRANCH   1   2
BRANCH   1  20
ATOM     20  C   UNL A   1      32.097  29.771  27.070  1.00  0.00     0.002 C 
BRANCH  20  21
ATOM     21  C   UNL A   1      31.500  30.753  26.057  1.00  0.00     0.002 C 
BRANCH  21  22
ATOM     22  C   UNL A   1      31.393  32.211  26.512  1.00  0.00     0.021 C 
BRANCH  22  23
ATOM     23  C   UNL A   1      32.623  32.768  27.222  1.00  0.00     0.116 C 
BRANCH  23  24
ATOM     24  N   UNL A   1      32.449  34.152  27.626  1.00  0.00    -0.352 N 
ATOM     25  C   UNL A   1      33.078  34.861  28.619  1.00  0.00     0.251 C 
ATOM     26  H   UNL A   1      31.780  34.659  27.110  1.00  0.00     0.163 HD
ATOM     27  O   UNL A   1      32.667  35.971  28.938  1.00  0.00    -0.269 OA
BRANCH  25  28
ATOM     28  C   UNL A   1      34.246  34.283  29.318  1.00  0.00     0.039 A 
ATOM     29  C   UNL A   1      34.028  33.456  30.424  1.00  0.00     0.014 A 
ATOM     30  C   UNL A   1      35.550  34.576  28.907  1.00  0.00     0.014 A 
ATOM     31  C   UNL A   1      35.115  32.880  31.084  1.00  0.00     0.010 A 
ATOM     32  C   UNL A   1      36.628  33.946  29.523  1.00  0.00     0.010 A 
ATOM     33  C   UNL A   1      36.423  33.098  30.621  1.00  0.00    -0.014 A 
BRANCH  33  34
ATOM     34  C   UNL A   1      37.587  32.450  31.276  1.00  0.00     0.031 A 
ATOM     35  C   UNL A   1      38.276  31.287  30.618  1.00  0.00     0.074 A 
ATOM     36  C   UNL A   1      37.985  32.869  32.492  1.00  0.00     0.049 A 
ATOM     37  N   UNL A   1      39.266  30.553  31.060  1.00  0.00    -0.248 NA
ATOM     38  C   UNL A   1      37.766  30.876  29.301  1.00  0.00     0.031 C 
ATOM     39  C   UNL A   1      37.370  33.959  33.254  1.00  0.00     0.029 A 
ATOM     40  N   UNL A   1      38.995  32.423  33.306  1.00  0.00    -0.354 N 
ATOM     41  C   UNL A   1      39.486  29.588  30.085  1.00  0.00     0.074 A 
ATOM     42  C   UNL A   1      38.492  29.796  29.055  1.00  0.00     0.031 C 
ATOM     43  C   UNL A   1      38.032  34.112  34.411  1.00  0.00     0.029 A 
ATOM     44  C   UNL A   1      39.090  33.110  34.492  1.00  0.00     0.049 A 
ATOM     45  H   UNL A   1      39.594  31.681  33.065  1.00  0.00     0.167 HD
ATOM     46  C   UNL A   1      40.442  28.629  30.044  1.00  0.00     0.037 A 
ATOM     47  C   UNL A   1      39.933  32.948  35.530  1.00  0.00     0.037 A 
ATOM     48  C   UNL A   1      41.443  28.442  31.060  1.00  0.00     0.049 A 
ATOM     49  C   UNL A   1      40.981  31.873  35.463  1.00  0.00     0.074 A 
ATOM     50  C   UNL A   1      42.496  27.543  31.080  1.00  0.00     0.029 A 
ATOM     51  N   UNL A   1      41.513  29.165  32.242  1.00  0.00    -0.354 N 
ATOM     52  N   UNL A   1      41.221  31.011  34.504  1.00  0.00    -0.248 NA
ATOM     53  C   UNL A   1      41.877  31.750  36.621  1.00  0.00     0.031 C 
ATOM     54  C   UNL A   1      43.174  27.690  32.294  1.00  0.00     0.029 A 
ATOM     55  C   UNL A   1      42.575  28.714  33.010  1.00  0.00     0.049 A 
ATOM     56  H   UNL A   1      40.899  29.890  32.497  1.00  0.00     0.167 HD
ATOM     57  C   UNL A   1      42.312  30.264  34.929  1.00  0.00     0.074 A 
ATOM     58  C   UNL A   1      42.694  30.782  36.227  1.00  0.00     0.031 C 
ATOM     59  C   UNL A   1      42.943  29.242  34.300  1.00  0.00     0.037 A 
BRANCH  46  60
ATOM     60  C   UNL A   1      40.444  27.708  28.858  1.00  0.00     0.057 A 
ATOM     61  C   UNL A   1      41.227  27.961  27.723  1.00  0.00     0.134 A 
ATOM     62  C   UNL A   1      39.670  26.540  28.859  1.00  0.00     0.134 A 
ATOM     63  F   UNL A   1      41.982  29.067  27.652  1.00  0.00    -0.206 F 
ATOM     64  C   UNL A   1      41.214  27.105  26.620  1.00  0.00     0.040 A 
ATOM     65  C   UNL A   1      39.672  25.662  27.773  1.00  0.00     0.040 A 
ATOM     66  F   UNL A   1      38.902  26.232  29.914  1.00  0.00    -0.206 F 
ATOM     67  C   UNL A   1      40.439  25.948  26.646  1.00  0.00     0.006 A 
ENDBRANCH  46  60
BRANCH  47  68
ATOM     68  C   UNL A   1      39.840  33.847  36.706  1.00  0.00     0.057 A 
ATOM     69  C   UNL A   1      39.052  33.505  37.812  1.00  0.00     0.134 A 
ATOM     70  C   UNL A   1      40.534  35.061  36.760  1.00  0.00     0.134 A 
ATOM     71  F   UNL A   1      38.349  32.363  37.811  1.00  0.00    -0.206 F 
ATOM     72  C   UNL A   1      38.946  34.345  38.921  1.00  0.00     0.040 A 
ATOM     73  C   UNL A   1      40.455  35.900  37.873  1.00  0.00     0.040 A 
ATOM     74  F   UNL A   1      41.312  35.442  35.736  1.00  0.00    -0.206 F 
ATOM     75  C   UNL A   1      39.654  35.544  38.956  1.00  0.00     0.006 A 
ENDBRANCH  47  68
BRANCH  59  76
ATOM     76  C   UNL A   1      44.130  28.638  34.991  1.00  0.00     0.057 A 
ATOM     77  C   UNL A   1      45.424  29.147  34.821  1.00  0.00     0.134 A 
ATOM     78  C   UNL A   1      43.970  27.557  35.866  1.00  0.00     0.134 A 
ATOM     79  F   UNL A   1      45.646  30.173  33.986  1.00  0.00    -0.206 F 
ATOM     80  C   UNL A   1      46.520  28.587  35.481  1.00  0.00     0.040 A 
ATOM     81  C   UNL A   1      45.053  27.005  36.552  1.00  0.00     0.040 A 
ATOM     82  F   UNL A   1      42.756  27.026  36.080  1.00  0.00    -0.206 F 
ATOM     83  C   UNL A   1      46.333  27.517  36.355  1.00  0.00     0.006 A 
ENDBRANCH  59  76
ENDBRANCH  33  34
ENDBRANCH  25  28
ENDBRANCH  23  24
ENDBRANCH  22  23
ENDBRANCH  21  22
ENDBRANCH  20  21
ENDBRANCH   1  20
TORSDOF 17
ENDMDL
MODEL 3
REMARK VINA RESULT:     -10.2      2.463      3.913
REMARK SMILES C[C@H](Sc1ccnc(C(=O)NCCCCCCNC(=O)c2ccc(-c3c4nc(c(-c5c(F)cccc5F)c5ccc([nH]5)c(-c5c(F)cccc5F)c5nc(c(-c6c(F)cccc6F)c6ccc3[nH]6)C=C5)C=C4)cc2)c1)[C@@H](C)O
REMARK SMILES IDX 13 1 12 2 11 3 9 4 10 5 8 7 4 8 5 9 75 10 6 11 7 12 3 13
REMARK SMILES IDX 2 14 1 15 76 16 77 17 78 18 14 20 15 21 16 22 17 23 18 24
REMARK SMILES IDX 19 25 20 27 21 28 22 29 74 30 23 31 73 32 24 33 25 34 26 35
REMARK SMILES IDX 67 36 27 37 72 38 66 39 68 40 28 41 71 42 65 43 64 44 29 46
REMARK SMILES IDX 55 47 38 48 54 49 39 50 42 51 53 52 69 53 40 54 41 55 52 57
REMARK SMILES IDX 70 58 43 59 30 60 31 61 36 62 32 63 33 64 35 65 37 66 34 67
REMARK SMILES IDX 56 68 57 69 62 70 58 71 59 72 61 73 63 74 60 75 44 76 45 77
REMARK SMILES IDX 50 78 46 79 47 80 49 81 51 82 48 83
REMARK H PARENT 11 6 78 19 18 26 68 45 42 56
REMARK Flexibility Score: inf
ROOT
ATOM      1  C   UNL A   1      30.766  28.842  23.338  1.00  0.00     0.021 C 
ENDROOT
BRANCH   1   2
ATOM      2  C   UNL A   1      30.524  27.423  22.833  1.00  0.00     0.116 C 
BRANCH   2   3
ATOM      3  N   UNL A   1      31.527  26.965  21.892  1.00  0.00    -0.351 N 
ATOM      4  C   UNL A   1      32.605  26.109  22.001  1.00  0.00     0.269 C 
ATOM      5  O   UNL A   1      33.294  25.973  20.986  1.00  0.00    -0.268 OA
ATOM      6  H   UNL A   1      31.418  27.342  20.990  1.00  0.00     0.163 HD
BRANCH   4   7
ATOM      7  C   UNL A   1      32.984  25.378  23.264  1.00  0.00     0.129 A 
ATOM      8  C   UNL A   1      32.675  23.691  24.964  1.00  0.00     0.011 A 
ATOM      9  C   UNL A   1      33.762  24.224  25.638  1.00  0.00     0.035 A 
ATOM     10  C   UNL A   1      32.357  24.226  23.708  1.00  0.00     0.049 A 
ATOM     11  C   UNL A   1      34.405  25.322  25.092  1.00  0.00     0.113 A 
ATOM     12  N   UNL A   1      34.018  25.926  23.951  1.00  0.00    -0.251 NA
BRANCH   8  13
ATOM     13  S   UNL A   1      31.577  22.395  25.520  1.00  0.00    -0.120 SA
BRANCH  13  14
ATOM     14  C   UNL A   1      32.198  20.781  24.872  1.00  0.00     0.077 C 
ATOM     15  C   UNL A   1      32.331  20.864  23.350  1.00  0.00     0.022 C 
BRANCH  14  16
ATOM     16  C   UNL A   1      33.408  20.131  25.586  1.00  0.00     0.124 C 
ATOM     17  C   UNL A   1      34.760  20.481  24.970  1.00  0.00     0.039 C 
BRANCH  16  18
ATOM     18  O   UNL A   1      33.438  20.537  26.961  1.00  0.00    -0.392 OA
ATOM     19  H   UNL A   1      34.160  21.169  27.096  1.00  0.00     0.210 HD
ENDBRANCH  16  18
ENDBRANCH  14  16
ENDBRANCH  13  14
ENDBRANCH   8  13
ENDBRANCH   4   7
ENDBRANCH   2   3
ENDBRANCH   1   2
BRANCH   1  20
ATOM     20  C   UNL A   1      31.856  29.003  24.397  1.00  0.00     0.002 C 
BRANCH  20  21
ATOM     21  C   UNL A   1      31.733  28.107  25.633  1.00  0.00     0.002 C 
BRANCH  21  22
ATOM     22  C   UNL A   1      32.839  28.248  26.683  1.00  0.00     0.021 C 
BRANCH  22  23
ATOM     23  C   UNL A   1      33.982  29.186  26.307  1.00  0.00     0.116 C 
BRANCH  23  24
ATOM     24  N   UNL A   1      33.837  30.502  26.905  1.00  0.00    -0.352 N 
ATOM     25  C   UNL A   1      34.567  31.094  27.905  1.00  0.00     0.251 C 
ATOM     26  H   UNL A   1      33.107  31.051  26.538  1.00  0.00     0.163 HD
ATOM     27  O   UNL A   1      34.180  32.142  28.412  1.00  0.00    -0.269 OA
BRANCH  25  28
ATOM     28  C   UNL A   1      35.815  30.464  28.387  1.00  0.00     0.039 A 
ATOM     29  C   UNL A   1      36.991  30.656  27.657  1.00  0.00     0.014 A 
ATOM     30  C   UNL A   1      35.824  29.664  29.533  1.00  0.00     0.014 A 
ATOM     31  C   UNL A   1      38.186  30.091  28.106  1.00  0.00     0.010 A 
ATOM     32  C   UNL A   1      37.027  29.159  30.017  1.00  0.00     0.010 A 
ATOM     33  C   UNL A   1      38.219  29.361  29.306  1.00  0.00    -0.014 A 
BRANCH  33  34
ATOM     34  C   UNL A   1      39.490  28.799  29.828  1.00  0.00     0.031 A 
ATOM     35  C   UNL A   1      40.149  29.410  31.034  1.00  0.00     0.074 A 
ATOM     36  C   UNL A   1      40.084  27.780  29.179  1.00  0.00     0.049 A 
ATOM     37  N   UNL A   1      41.288  29.100  31.601  1.00  0.00    -0.248 NA
ATOM     38  C   UNL A   1      39.448  30.535  31.671  1.00  0.00     0.031 C 
ATOM     39  C   UNL A   1      39.567  27.131  27.972  1.00  0.00     0.029 A 
ATOM     40  N   UNL A   1      41.256  27.116  29.437  1.00  0.00    -0.354 N 
ATOM     41  C   UNL A   1      41.446  29.999  32.647  1.00  0.00     0.074 A 
ATOM     42  C   UNL A   1      40.314  30.899  32.605  1.00  0.00     0.031 C 
ATOM     43  C   UNL A   1      40.405  26.147  27.611  1.00  0.00     0.029 A 
ATOM     44  C   UNL A   1      41.535  26.119  28.534  1.00  0.00     0.049 A 
ATOM     45  H   UNL A   1      41.842  27.333  30.197  1.00  0.00     0.167 HD
ATOM     46  C   UNL A   1      42.435  30.057  33.572  1.00  0.00     0.037 A 
ATOM     47  C   UNL A   1      42.585  25.280  28.457  1.00  0.00     0.037 A 
ATOM     48  C   UNL A   1      43.546  29.144  33.624  1.00  0.00     0.049 A 
ATOM     49  C   UNL A   1      43.673  25.368  29.491  1.00  0.00     0.074 A 
ATOM     50  C   UNL A   1      44.564  29.076  34.560  1.00  0.00     0.029 A 
ATOM     51  N   UNL A   1      43.788  28.141  32.698  1.00  0.00    -0.354 N 
ATOM     52  N   UNL A   1      43.775  26.179  30.516  1.00  0.00    -0.248 NA
ATOM     53  C   UNL A   1      44.789  24.421  29.359  1.00  0.00     0.031 C 
ATOM     54  C   UNL A   1      45.447  28.063  34.174  1.00  0.00     0.029 A 
ATOM     55  C   UNL A   1      44.954  27.467  33.024  1.00  0.00     0.049 A 
ATOM     56  H   UNL A   1      43.217  27.939  31.922  1.00  0.00     0.167 HD
ATOM     57  C   UNL A   1      44.949  25.823  31.167  1.00  0.00     0.074 A 
ATOM     58  C   UNL A   1      45.517  24.714  30.427  1.00  0.00     0.031 C 
ATOM     59  C   UNL A   1      45.505  26.363  32.279  1.00  0.00     0.037 A 
BRANCH  46  60
ATOM     60  C   UNL A   1      42.355  31.149  34.600  1.00  0.00     0.057 A 
ATOM     61  C   UNL A   1      42.979  32.389  34.415  1.00  0.00     0.134 A 
ATOM     62  C   UNL A   1      41.626  30.965  35.783  1.00  0.00     0.134 A 
ATOM     63  F   UNL A   1      43.704  32.627  33.311  1.00  0.00    -0.206 F 
ATOM     64  C   UNL A   1      42.911  33.395  35.381  1.00  0.00     0.040 A 
ATOM     65  C   UNL A   1      41.525  31.974  36.742  1.00  0.00     0.040 A 
ATOM     66  F   UNL A   1      40.997  29.805  36.023  1.00  0.00    -0.206 F 
ATOM     67  C   UNL A   1      42.176  33.190  36.547  1.00  0.00     0.006 A 
ENDBRANCH  46  60
BRANCH  47  68
ATOM     68  C   UNL A   1      42.643  24.264  27.377  1.00  0.00     0.057 A 
ATOM     69  C   UNL A   1      42.132  22.975  27.574  1.00  0.00     0.134 A 
ATOM     70  C   UNL A   1      43.200  24.552  26.127  1.00  0.00     0.134 A 
ATOM     71  F   UNL A   1      41.601  22.634  28.758  1.00  0.00    -0.206 F 
ATOM     72  C   UNL A   1      42.188  22.006  26.572  1.00  0.00     0.040 A 
ATOM     73  C   UNL A   1      43.242  23.599  25.108  1.00  0.00     0.040 A 
ATOM     74  F   UNL A   1      43.700  25.770  25.872  1.00  0.00    -0.206 F 
ATOM     75  C   UNL A   1      42.740  22.319  25.332  1.00  0.00     0.006 A 
ENDBRANCH  47  68
BRANCH  59  76
ATOM     76  C   UNL A   1      46.776  25.743  32.782  1.00  0.00     0.057 A 
ATOM     77  C   UNL A   1      48.032  26.147  32.313  1.00  0.00     0.134 A 
ATOM     78  C   UNL A   1      46.742  24.755  33.774  1.00  0.00     0.134 A 
ATOM     79  F   UNL A   1      48.132  27.079  31.353  1.00  0.00    -0.206 F 
ATOM     80  C   UNL A   1      49.210  25.575  32.798  1.00  0.00     0.040 A 
ATOM     81  C   UNL A   1      47.913  24.194  34.286  1.00  0.00     0.040 A 
ATOM     82  F   UNL A   1      45.571  24.329  34.272  1.00  0.00    -0.206 F 
ATOM     83  C   UNL A   1      49.151  24.600  33.793  1.00  0.00     0.006 A 
ENDBRANCH  59  76
ENDBRANCH  33  34
ENDBRANCH  25  28
ENDBRANCH  23  24
ENDBRANCH  22  23
ENDBRANCH  21  22
ENDBRANCH  20  21
ENDBRANCH   1  20
TORSDOF 17
ENDMDL
