MODEL 1
REMARK VINA RESULT:     -10.5      0.000      0.000
REMARK SMILES CCC(CC)(NC(=O)CC1([NH3+])CCCC1)C(=O)NCCCCCCNC(=O)c1ccc(-c2c3nc(c(-c4c(F)cccc4F)c4ccc([nH]4)c(-c4c(F)cccc4F)c4nc(c(-c5c(F)cccc5F)c5ccc2[nH]5)C=C4)C=C3)cc1
REMARK SMILES IDX 20 1 19 2 18 3 16 4 17 5 3 7 2 8 1 9 4 10 5 11 6 12 7 13
REMARK SMILES IDX 8 15 9 16 10 17 12 18 15 19 13 20 14 21 11 22 21 26 22 27
REMARK SMILES IDX 23 28 24 29 25 30 26 31 27 33 28 34 29 35 81 36 30 37 80 38
REMARK SMILES IDX 31 39 32 40 33 41 74 42 34 43 79 44 73 45 75 46 35 47 78 48
REMARK SMILES IDX 72 49 71 50 36 52 62 53 45 54 61 55 46 56 49 57 60 58 76 59
REMARK SMILES IDX 47 60 48 61 59 63 77 64 50 65 37 66 38 67 43 68 39 69 40 70
REMARK SMILES IDX 42 71 44 72 41 73 63 74 64 75 69 76 65 77 66 78 68 79 70 80
REMARK SMILES IDX 67 81 51 82 52 83 57 84 53 85 54 86 56 87 58 88 55 89
REMARK H PARENT 18 6 6 14 11 23 11 24 11 25 25 32 75 51 49 62
REMARK Flexibility Score: inf
ROOT
ATOM      1  C   UNL A   1      33.687  23.129  22.498  1.00  0.00     0.021 C 
ENDROOT
BRANCH   1   2
ATOM      2  C   UNL A   1      33.200  24.578  22.512  1.00  0.00     0.116 C 
BRANCH   2   3
ATOM      3  N   UNL A   1      31.788  24.739  22.812  1.00  0.00    -0.354 N 
ATOM      4  C   UNL A   1      31.138  25.473  23.767  1.00  0.00     0.245 C 
ATOM      5  O   UNL A   1      29.916  25.579  23.635  1.00  0.00    -0.272 OA
ATOM      6  H   UNL A   1      31.189  24.226  22.221  1.00  0.00     0.163 HD
BRANCH   4   7
ATOM      7  C   UNL A   1      31.925  26.277  24.844  1.00  0.00     0.118 C 
BRANCH   7   8
ATOM      8  C   UNL A   1      32.977  25.442  25.623  1.00  0.00     0.035 C 
ATOM      9  C   UNL A   1      34.405  25.965  25.714  1.00  0.00     0.007 C 
ENDBRANCH   7   8
BRANCH   7  10
ATOM     10  C   UNL A   1      30.817  26.784  25.828  1.00  0.00     0.035 C 
ATOM     11  C   UNL A   1      31.288  27.529  27.070  1.00  0.00     0.007 C 
ENDBRANCH   7  10
BRANCH   7  12
ATOM     12  N   UNL A   1      32.662  27.417  24.226  1.00  0.00    -0.342 N 
ATOM     13  C   UNL A   1      32.205  28.533  23.579  1.00  0.00     0.227 C 
ATOM     14  H   UNL A   1      33.643  27.356  24.294  1.00  0.00     0.164 HD
ATOM     15  O   UNL A   1      32.913  28.963  22.662  1.00  0.00    -0.275 OA
BRANCH  13  16
ATOM     16  C   UNL A   1      30.991  29.340  24.038  1.00  0.00     0.168 C 
BRANCH  16  17
ATOM     17  C   UNL A   1      29.875  29.736  23.049  1.00  0.00     0.103 C 
ATOM     18  C   UNL A   1      28.742  28.714  22.868  1.00  0.00     0.069 C 
ATOM     19  C   UNL A   1      29.178  31.064  23.449  1.00  0.00     0.069 C 
ATOM     20  C   UNL A   1      27.476  29.541  22.681  1.00  0.00     0.007 C 
ATOM     21  C   UNL A   1      27.687  30.775  23.539  1.00  0.00     0.007 C 
BRANCH  17  22
ATOM     22  N   UNL A   1      30.502  30.010  21.735  1.00  0.00    -0.352 N 
ATOM     23  H   UNL A   1      29.808  29.896  20.996  1.00  0.00     0.344 HD
ATOM     24  H   UNL A   1      31.272  29.359  21.582  1.00  0.00     0.344 HD
ATOM     25  H   UNL A   1      30.858  30.966  21.722  1.00  0.00     0.344 HD
ENDBRANCH  17  22
ENDBRANCH  16  17
ENDBRANCH  13  16
ENDBRANCH   7  12
ENDBRANCH   4   7
ENDBRANCH   2   3
ENDBRANCH   1   2
BRANCH   1  26
ATOM     26  C   UNL A   1      33.810  22.462  23.869  1.00  0.00     0.002 C 
BRANCH  26  27
ATOM     27  C   UNL A   1      35.242  22.157  24.310  1.00  0.00     0.002 C 
BRANCH  27  28
ATOM     28  C   UNL A   1      36.271  23.222  23.936  1.00  0.00     0.021 C 
BRANCH  28  29
ATOM     29  C   UNL A   1      37.138  23.699  25.093  1.00  0.00     0.116 C 
BRANCH  29  30
ATOM     30  N   UNL A   1      38.187  22.750  25.418  1.00  0.00    -0.352 N 
ATOM     31  C   UNL A   1      39.358  22.971  26.104  1.00  0.00     0.251 C 
ATOM     32  H   UNL A   1      38.041  21.827  25.107  1.00  0.00     0.163 HD
ATOM     33  O   UNL A   1      40.237  22.124  26.138  1.00  0.00    -0.269 OA
BRANCH  31  34
ATOM     34  C   UNL A   1      39.550  24.272  26.781  1.00  0.00     0.039 A 
ATOM     35  C   UNL A   1      39.060  24.437  28.078  1.00  0.00     0.014 A 
ATOM     36  C   UNL A   1      40.248  25.305  26.148  1.00  0.00     0.014 A 
ATOM     37  C   UNL A   1      39.327  25.622  28.767  1.00  0.00     0.010 A 
ATOM     38  C   UNL A   1      40.577  26.452  26.863  1.00  0.00     0.010 A 
ATOM     39  C   UNL A   1      40.118  26.622  28.178  1.00  0.00    -0.014 A 
BRANCH  39  40
ATOM     40  C   UNL A   1      40.484  27.851  28.927  1.00  0.00     0.031 A 
ATOM     41  C   UNL A   1      41.824  27.956  29.597  1.00  0.00     0.074 A 
ATOM     42  C   UNL A   1      39.582  28.844  29.060  1.00  0.00     0.049 A 
ATOM     43  N   UNL A   1      42.299  28.916  30.349  1.00  0.00    -0.248 NA
ATOM     44  C   UNL A   1      42.741  26.820  29.422  1.00  0.00     0.031 C 
ATOM     45  C   UNL A   1      38.229  28.838  28.501  1.00  0.00     0.029 A 
ATOM     46  N   UNL A   1      39.663  30.043  29.721  1.00  0.00    -0.354 N 
ATOM     47  C   UNL A   1      43.562  28.496  30.744  1.00  0.00     0.074 A 
ATOM     48  C   UNL A   1      43.756  27.170  30.198  1.00  0.00     0.031 C 
ATOM     49  C   UNL A   1      37.613  29.985  28.829  1.00  0.00     0.029 A 
ATOM     50  C   UNL A   1      38.510  30.788  29.653  1.00  0.00     0.049 A 
ATOM     51  H   UNL A   1      40.471  30.342  30.199  1.00  0.00     0.167 HD
ATOM     52  C   UNL A   1      44.487  29.162  31.477  1.00  0.00     0.037 A 
ATOM     53  C   UNL A   1      38.206  31.978  30.204  1.00  0.00     0.037 A 
ATOM     54  C   UNL A   1      44.295  30.487  32.007  1.00  0.00     0.049 A 
ATOM     55  C   UNL A   1      39.243  32.695  31.024  1.00  0.00     0.074 A 
ATOM     56  C   UNL A   1      45.192  31.274  32.707  1.00  0.00     0.029 A 
ATOM     57  N   UNL A   1      43.119  31.217  31.903  1.00  0.00    -0.354 N 
ATOM     58  N   UNL A   1      40.463  32.320  31.324  1.00  0.00    -0.248 NA
ATOM     59  C   UNL A   1      38.863  34.003  31.578  1.00  0.00     0.031 C 
ATOM     60  C   UNL A   1      44.543  32.457  33.072  1.00  0.00     0.029 A 
ATOM     61  C   UNL A   1      43.259  32.433  32.552  1.00  0.00     0.049 A 
ATOM     62  H   UNL A   1      42.306  30.915  31.436  1.00  0.00     0.167 HD
ATOM     63  C   UNL A   1      41.004  33.351  32.081  1.00  0.00     0.074 A 
ATOM     64  C   UNL A   1      39.984  34.376  32.180  1.00  0.00     0.031 C 
ATOM     65  C   UNL A   1      42.233  33.442  32.643  1.00  0.00     0.037 A 
BRANCH  52  66
ATOM     66  C   UNL A   1      45.787  28.463  31.748  1.00  0.00     0.057 A 
ATOM     67  C   UNL A   1      45.975  27.662  32.883  1.00  0.00     0.134 A 
ATOM     68  C   UNL A   1      46.859  28.572  30.853  1.00  0.00     0.134 A 
ATOM     69  F   UNL A   1      44.993  27.522  33.787  1.00  0.00    -0.206 F 
ATOM     70  C   UNL A   1      47.191  27.024  33.136  1.00  0.00     0.040 A 
ATOM     71  C   UNL A   1      48.070  27.915  31.080  1.00  0.00     0.040 A 
ATOM     72  F   UNL A   1      46.747  29.316  29.743  1.00  0.00    -0.206 F 
ATOM     73  C   UNL A   1      48.241  27.145  32.228  1.00  0.00     0.006 A 
ENDBRANCH  52  66
BRANCH  53  74
ATOM     74  C   UNL A   1      36.862  32.570  29.989  1.00  0.00     0.057 A 
ATOM     75  C   UNL A   1      35.778  32.224  30.803  1.00  0.00     0.134 A 
ATOM     76  C   UNL A   1      36.629  33.499  28.967  1.00  0.00     0.134 A 
ATOM     77  F   UNL A   1      35.932  31.327  31.788  1.00  0.00    -0.206 F 
ATOM     78  C   UNL A   1      34.507  32.766  30.600  1.00  0.00     0.040 A 
ATOM     79  C   UNL A   1      35.371  34.070  28.768  1.00  0.00     0.040 A 
ATOM     80  F   UNL A   1      37.628  33.880  28.157  1.00  0.00    -0.206 F 
ATOM     81  C   UNL A   1      34.303  33.698  29.584  1.00  0.00     0.006 A 
ENDBRANCH  53  74
BRANCH  65  82
ATOM     82  C   UNL A   1      42.556  34.701  33.396  1.00  0.00     0.057 A 
ATOM     83  C   UNL A   1      42.338  34.813  34.775  1.00  0.00     0.134 A 
ATOM     84  C   UNL A   1      43.131  35.796  32.740  1.00  0.00     0.134 A 
ATOM     85  F   UNL A   1      41.778  33.805  35.460  1.00  0.00    -0.206 F 
ATOM     86  C   UNL A   1      42.665  35.979  35.471  1.00  0.00     0.040 A 
ATOM     87  C   UNL A   1      43.488  36.955  33.430  1.00  0.00     0.040 A 
ATOM     88  F   UNL A   1      43.375  35.750  31.421  1.00  0.00    -0.206 F 
ATOM     89  C   UNL A   1      43.249  37.051  34.799  1.00  0.00     0.006 A 
ENDBRANCH  65  82
ENDBRANCH  39  40
ENDBRANCH  31  34
ENDBRANCH  29  30
ENDBRANCH  28  29
ENDBRANCH  27  28
ENDBRANCH  26  27
ENDBRANCH   1  26
TORSDOF 19
ENDMDL
MODEL 2
REMARK VINA RESULT:     -10.5      2.846      7.048
REMARK SMILES CCC(CC)(NC(=O)CC1([NH3+])CCCC1)C(=O)NCCCCCCNC(=O)c1ccc(-c2c3nc(c(-c4c(F)cccc4F)c4ccc([nH]4)c(-c4c(F)cccc4F)c4nc(c(-c5c(F)cccc5F)c5ccc2[nH]5)C=C4)C=C3)cc1
REMARK SMILES IDX 20 1 19 2 18 3 16 4 17 5 3 7 2 8 1 9 4 10 5 11 6 12 7 13
REMARK SMILES IDX 8 15 9 16 10 17 12 18 15 19 13 20 14 21 11 22 21 26 22 27
REMARK SMILES IDX 23 28 24 29 25 30 26 31 27 33 28 34 29 35 81 36 30 37 80 38
REMARK SMILES IDX 31 39 32 40 33 41 74 42 34 43 79 44 73 45 75 46 35 47 78 48
REMARK SMILES IDX 72 49 71 50 36 52 62 53 45 54 61 55 46 56 49 57 60 58 76 59
REMARK SMILES IDX 47 60 48 61 59 63 77 64 50 65 37 66 38 67 43 68 39 69 40 70
REMARK SMILES IDX 42 71 44 72 41 73 63 74 64 75 69 76 65 77 66 78 68 79 70 80
REMARK SMILES IDX 67 81 51 82 52 83 57 84 53 85 54 86 56 87 58 88 55 89
REMARK H PARENT 18 6 6 14 11 23 11 24 11 25 25 32 75 51 49 62
REMARK Flexibility Score: inf
ROOT
ATOM      1  C   UNL A   1      33.269  28.615  27.200  1.00  0.00     0.021 C 
ENDROOT
BRANCH   1   2
ATOM      2  C   UNL A   1      33.547  27.943  25.855  1.00  0.00     0.116 C 
BRANCH   2   3
ATOM      3  N   UNL A   1      33.819  26.518  25.936  1.00  0.00    -0.354 N 
ATOM      4  C   UNL A   1      33.123  25.432  25.476  1.00  0.00     0.245 C 
ATOM      5  O   UNL A   1      33.718  24.352  25.507  1.00  0.00    -0.272 OA
ATOM      6  H   UNL A   1      34.654  26.293  26.406  1.00  0.00     0.163 HD
BRANCH   4   7
ATOM      7  C   UNL A   1      31.736  25.592  24.786  1.00  0.00     0.118 C 
BRANCH   7   8
ATOM      8  C   UNL A   1      30.688  26.367  25.629  1.00  0.00     0.035 C 
ATOM      9  C   UNL A   1      29.528  25.595  26.245  1.00  0.00     0.007 C 
ENDBRANCH   7   8
BRANCH   7  10
ATOM     10  C   UNL A   1      31.251  24.120  24.560  1.00  0.00     0.035 C 
ATOM     11  C   UNL A   1      31.225  23.617  23.123  1.00  0.00     0.007 C 
ENDBRANCH   7  10
BRANCH   7  12
ATOM     12  N   UNL A   1      31.865  26.324  23.493  1.00  0.00    -0.342 N 
ATOM     13  C   UNL A   1      31.004  27.179  22.859  1.00  0.00     0.227 C 
ATOM     14  H   UNL A   1      32.712  26.166  23.014  1.00  0.00     0.164 HD
ATOM     15  O   UNL A   1      31.016  27.150  21.623  1.00  0.00    -0.275 OA
BRANCH  13  16
ATOM     16  C   UNL A   1      30.186  28.247  23.582  1.00  0.00     0.168 C 
BRANCH  16  17
ATOM     17  C   UNL A   1      29.696  29.512  22.847  1.00  0.00     0.103 C 
ATOM     18  C   UNL A   1      28.336  29.397  22.142  1.00  0.00     0.069 C 
ATOM     19  C   UNL A   1      29.571  30.734  23.796  1.00  0.00     0.069 C 
ATOM     20  C   UNL A   1      27.677  30.761  22.308  1.00  0.00     0.007 C 
ATOM     21  C   UNL A   1      28.151  31.260  23.661  1.00  0.00     0.007 C 
BRANCH  17  22
ATOM     22  N   UNL A   1      30.730  29.897  21.857  1.00  0.00    -0.352 N 
ATOM     23  H   UNL A   1      31.578  30.185  22.346  1.00  0.00     0.344 HD
ATOM     24  H   UNL A   1      30.386  30.670  21.288  1.00  0.00     0.344 HD
ATOM     25  H   UNL A   1      30.939  29.099  21.257  1.00  0.00     0.344 HD
ENDBRANCH  17  22
ENDBRANCH  16  17
ENDBRANCH  13  16
ENDBRANCH   7  12
ENDBRANCH   4   7
ENDBRANCH   2   3
ENDBRANCH   1   2
BRANCH   1  26
ATOM     26  C   UNL A   1      33.075  30.132  27.152  1.00  0.00     0.002 C 
BRANCH  26  27
ATOM     27  C   UNL A   1      31.690  30.590  26.692  1.00  0.00     0.002 C 
BRANCH  27  28
ATOM     28  C   UNL A   1      31.417  32.083  26.862  1.00  0.00     0.021 C 
BRANCH  28  29
ATOM     29  C   UNL A   1      32.662  32.960  26.844  1.00  0.00     0.116 C 
BRANCH  29  30
ATOM     30  N   UNL A   1      32.471  34.195  27.584  1.00  0.00    -0.352 N 
ATOM     31  C   UNL A   1      33.128  34.624  28.713  1.00  0.00     0.251 C 
ATOM     32  H   UNL A   1      31.783  34.803  27.231  1.00  0.00     0.163 HD
ATOM     33  O   UNL A   1      32.733  35.595  29.340  1.00  0.00    -0.269 OA
BRANCH  31  34
ATOM     34  C   UNL A   1      34.312  33.869  29.178  1.00  0.00     0.039 A 
ATOM     35  C   UNL A   1      35.584  34.339  28.848  1.00  0.00     0.014 A 
ATOM     36  C   UNL A   1      34.158  32.727  29.970  1.00  0.00     0.014 A 
ATOM     37  C   UNL A   1      36.709  33.696  29.368  1.00  0.00     0.010 A 
ATOM     38  C   UNL A   1      35.278  32.136  30.548  1.00  0.00     0.010 A 
ATOM     39  C   UNL A   1      36.563  32.613  30.251  1.00  0.00    -0.014 A 
BRANCH  39  40
ATOM     40  C   UNL A   1      37.745  31.972  30.881  1.00  0.00     0.031 A 
ATOM     41  C   UNL A   1      38.485  30.881  30.160  1.00  0.00     0.074 A 
ATOM     42  C   UNL A   1      38.109  32.325  32.129  1.00  0.00     0.049 A 
ATOM     43  N   UNL A   1      39.496  30.157  30.571  1.00  0.00    -0.248 NA
ATOM     44  C   UNL A   1      38.010  30.540  28.811  1.00  0.00     0.031 C 
ATOM     45  C   UNL A   1      37.438  33.333  32.953  1.00  0.00     0.029 A 
ATOM     46  N   UNL A   1      39.124  31.864  32.929  1.00  0.00    -0.354 N 
ATOM     47  C   UNL A   1      39.768  29.271  29.537  1.00  0.00     0.074 A 
ATOM     48  C   UNL A   1      38.782  29.507  28.506  1.00  0.00     0.031 C 
ATOM     49  C   UNL A   1      38.069  33.424  34.135  1.00  0.00     0.029 A 
ATOM     50  C   UNL A   1      39.160  32.457  34.168  1.00  0.00     0.049 A 
ATOM     51  H   UNL A   1      39.765  31.173  32.642  1.00  0.00     0.167 HD
ATOM     52  C   UNL A   1      40.765  28.357  29.445  1.00  0.00     0.037 A 
ATOM     53  C   UNL A   1      39.975  32.236  35.218  1.00  0.00     0.037 A 
ATOM     54  C   UNL A   1      41.753  28.135  30.468  1.00  0.00     0.049 A 
ATOM     55  C   UNL A   1      41.066  31.209  35.099  1.00  0.00     0.074 A 
ATOM     56  C   UNL A   1      42.840  27.279  30.446  1.00  0.00     0.029 A 
ATOM     57  N   UNL A   1      41.768  28.768  31.704  1.00  0.00    -0.354 N 
ATOM     58  N   UNL A   1      41.362  30.432  34.085  1.00  0.00    -0.248 NA
ATOM     59  C   UNL A   1      41.940  31.031  36.267  1.00  0.00     0.031 C 
ATOM     60  C   UNL A   1      43.481  27.354  31.685  1.00  0.00     0.029 A 
ATOM     61  C   UNL A   1      42.828  28.298  32.462  1.00  0.00     0.049 A 
ATOM     62  H   UNL A   1      41.121  29.449  31.996  1.00  0.00     0.167 HD
ATOM     63  C   UNL A   1      42.467  29.691  34.482  1.00  0.00     0.074 A 
ATOM     64  C   UNL A   1      42.799  30.122  35.825  1.00  0.00     0.031 C 
ATOM     65  C   UNL A   1      43.145  28.737  33.798  1.00  0.00     0.037 A 
BRANCH  52  66
ATOM     66  C   UNL A   1      40.829  27.530  28.194  1.00  0.00     0.057 A 
ATOM     67  C   UNL A   1      40.167  26.299  28.085  1.00  0.00     0.134 A 
ATOM     68  C   UNL A   1      41.543  27.977  27.076  1.00  0.00     0.134 A 
ATOM     69  F   UNL A   1      39.473  25.806  29.122  1.00  0.00    -0.206 F 
ATOM     70  C   UNL A   1      40.241  25.529  26.923  1.00  0.00     0.040 A 
ATOM     71  C   UNL A   1      41.600  27.230  25.897  1.00  0.00     0.040 A 
ATOM     72  F   UNL A   1      42.194  29.149  27.107  1.00  0.00    -0.206 F 
ATOM     73  C   UNL A   1      40.954  25.998  25.822  1.00  0.00     0.006 A 
ENDBRANCH  52  66
BRANCH  53  74
ATOM     74  C   UNL A   1      39.792  33.012  36.470  1.00  0.00     0.057 A 
ATOM     75  C   UNL A   1      40.528  34.176  36.717  1.00  0.00     0.134 A 
ATOM     76  C   UNL A   1      38.874  32.612  37.450  1.00  0.00     0.134 A 
ATOM     77  F   UNL A   1      41.436  34.603  35.825  1.00  0.00    -0.206 F 
ATOM     78  C   UNL A   1      40.372  34.906  37.897  1.00  0.00     0.040 A 
ATOM     79  C   UNL A   1      38.688  33.345  38.622  1.00  0.00     0.040 A 
ATOM     80  F   UNL A   1      38.131  31.510  37.271  1.00  0.00    -0.206 F 
ATOM     81  C   UNL A   1      39.444  34.494  38.851  1.00  0.00     0.006 A 
ENDBRANCH  53  74
BRANCH  65  82
ATOM     82  C   UNL A   1      44.329  28.113  34.477  1.00  0.00     0.057 A 
ATOM     83  C   UNL A   1      44.210  26.949  35.248  1.00  0.00     0.134 A 
ATOM     84  C   UNL A   1      45.609  28.657  34.321  1.00  0.00     0.134 A 
ATOM     85  F   UNL A   1      43.010  26.384  35.447  1.00  0.00    -0.206 F 
ATOM     86  C   UNL A   1      45.321  26.360  35.855  1.00  0.00     0.040 A 
ATOM     87  C   UNL A   1      46.732  28.062  34.900  1.00  0.00     0.040 A 
ATOM     88  F   UNL A   1      45.795  29.766  33.589  1.00  0.00    -0.206 F 
ATOM     89  C   UNL A   1      46.588  26.913  35.675  1.00  0.00     0.006 A 
ENDBRANCH  65  82
ENDBRANCH  39  40
ENDBRANCH  31  34
ENDBRANCH  29  30
ENDBRANCH  28  29
ENDBRANCH  27  28
ENDBRANCH  26  27
ENDBRANCH   1  26
TORSDOF 19
ENDMDL
MODEL 3
REMARK VINA RESULT:     -10.4      3.146      4.779
REMARK SMILES CCC(CC)(NC(=O)CC1([NH3+])CCCC1)C(=O)NCCCCCCNC(=O)c1ccc(-c2c3nc(c(-c4c(F)cccc4F)c4ccc([nH]4)c(-c4c(F)cccc4F)c4nc(c(-c5c(F)cccc5F)c5ccc2[nH]5)C=C4)C=C3)cc1
REMARK SMILES IDX 20 1 19 2 18 3 16 4 17 5 3 7 2 8 1 9 4 10 5 11 6 12 7 13
REMARK SMILES IDX 8 15 9 16 10 17 12 18 15 19 13 20 14 21 11 22 21 26 22 27
REMARK SMILES IDX 23 28 24 29 25 30 26 31 27 33 28 34 29 35 81 36 30 37 80 38
REMARK SMILES IDX 31 39 32 40 33 41 74 42 34 43 79 44 73 45 75 46 35 47 78 48
REMARK SMILES IDX 72 49 71 50 36 52 62 53 45 54 61 55 46 56 49 57 60 58 76 59
REMARK SMILES IDX 47 60 48 61 59 63 77 64 50 65 37 66 38 67 43 68 39 69 40 70
REMARK SMILES IDX 42 71 44 72 41 73 63 74 64 75 69 76 65 77 66 78 68 79 70 80
REMARK SMILES IDX 67 81 51 82 52 83 57 84 53 85 54 86 56 87 58 88 55 89
REMARK H PARENT 18 6 6 14 11 23 11 24 11 25 25 32 75 51 49 62
REMARK Flexibility Score: inf
ROOT
ATOM      1  C   UNL A   1      36.846  23.144  25.366  1.00  0.00     0.021 C 
ENDROOT
BRANCH   1   2
ATOM      2  C   UNL A   1      35.567  23.938  25.102  1.00  0.00     0.116 C 
BRANCH   2   3
ATOM      3  N   UNL A   1      34.399  23.123  24.814  1.00  0.00    -0.354 N 
ATOM      4  C   UNL A   1      33.104  23.460  24.524  1.00  0.00     0.245 C 
ATOM      5  O   UNL A   1      32.384  22.548  24.111  1.00  0.00    -0.272 OA
ATOM      6  H   UNL A   1      34.569  22.153  24.832  1.00  0.00     0.163 HD
BRANCH   4   7
ATOM      7  C   UNL A   1      32.631  24.943  24.539  1.00  0.00     0.118 C 
BRANCH   7   8
ATOM      8  C   UNL A   1      32.777  25.647  25.914  1.00  0.00     0.035 C 
ATOM      9  C   UNL A   1      33.825  26.742  26.069  1.00  0.00     0.007 C 
ENDBRANCH   7   8
BRANCH   7  10
ATOM     10  C   UNL A   1      31.118  24.866  24.141  1.00  0.00     0.035 C 
ATOM     11  C   UNL A   1      30.116  25.455  25.126  1.00  0.00     0.007 C 
ENDBRANCH   7  10
BRANCH   7  12
ATOM     12  N   UNL A   1      33.406  25.761  23.560  1.00  0.00    -0.342 N 
ATOM     13  C   UNL A   1      33.001  26.448  22.449  1.00  0.00     0.227 C 
ATOM     14  H   UNL A   1      34.373  25.814  23.745  1.00  0.00     0.164 HD
ATOM     15  O   UNL A   1      33.804  26.495  21.511  1.00  0.00    -0.275 OA
BRANCH  13  16
ATOM     16  C   UNL A   1      31.717  27.275  22.386  1.00  0.00     0.168 C 
BRANCH  16  17
ATOM     17  C   UNL A   1      31.659  28.706  22.956  1.00  0.00     0.103 C 
ATOM     18  C   UNL A   1      30.633  28.945  24.074  1.00  0.00     0.069 C 
ATOM     19  C   UNL A   1      33.024  29.163  23.539  1.00  0.00     0.069 C 
ATOM     20  C   UNL A   1      31.292  29.937  25.025  1.00  0.00     0.007 C 
ATOM     21  C   UNL A   1      32.771  29.601  24.973  1.00  0.00     0.007 C 
BRANCH  17  22
ATOM     22  N   UNL A   1      31.388  29.637  21.835  1.00  0.00    -0.352 N 
ATOM     23  H   UNL A   1      30.602  29.289  21.287  1.00  0.00     0.344 HD
ATOM     24  H   UNL A   1      32.215  29.704  21.241  1.00  0.00     0.344 HD
ATOM     25  H   UNL A   1      31.161  30.560  22.207  1.00  0.00     0.344 HD
ENDBRANCH  17  22
ENDBRANCH  16  17
ENDBRANCH  13  16
ENDBRANCH   7  12
ENDBRANCH   4   7
ENDBRANCH   2   3
ENDBRANCH   1   2
BRANCH   1  26
ATOM     26  C   UNL A   1      37.112  21.983  24.405  1.00  0.00     0.002 C 
BRANCH  26  27
ATOM     27  C   UNL A   1      36.797  20.596  24.970  1.00  0.00     0.002 C 
BRANCH  27  28
ATOM     28  C   UNL A   1      37.970  19.617  24.961  1.00  0.00     0.021 C 
BRANCH  28  29
ATOM     29  C   UNL A   1      39.201  20.098  25.719  1.00  0.00     0.116 C 
BRANCH  29  30
ATOM     30  N   UNL A   1      40.200  19.053  25.856  1.00  0.00    -0.352 N 
ATOM     31  C   UNL A   1      41.546  19.186  26.106  1.00  0.00     0.251 C 
ATOM     32  H   UNL A   1      39.871  18.131  25.758  1.00  0.00     0.163 HD
ATOM     33  O   UNL A   1      42.301  18.232  26.005  1.00  0.00    -0.269 OA
BRANCH  31  34
ATOM     34  C   UNL A   1      42.073  20.518  26.472  1.00  0.00     0.039 A 
ATOM     35  C   UNL A   1      42.537  21.361  25.461  1.00  0.00     0.014 A 
ATOM     36  C   UNL A   1      42.068  20.941  27.805  1.00  0.00     0.014 A 
ATOM     37  C   UNL A   1      42.940  22.659  25.781  1.00  0.00     0.010 A 
ATOM     38  C   UNL A   1      42.397  22.258  28.109  1.00  0.00     0.010 A 
ATOM     39  C   UNL A   1      42.838  23.129  27.101  1.00  0.00    -0.014 A 
BRANCH  39  40
ATOM     40  C   UNL A   1      43.180  24.532  27.444  1.00  0.00     0.031 A 
ATOM     41  C   UNL A   1      44.615  24.974  27.471  1.00  0.00     0.074 A 
ATOM     42  C   UNL A   1      42.203  25.389  27.798  1.00  0.00     0.049 A 
ATOM     43  N   UNL A   1      45.117  26.135  27.811  1.00  0.00    -0.248 NA
ATOM     44  C   UNL A   1      45.623  23.971  27.093  1.00  0.00     0.031 C 
ATOM     45  C   UNL A   1      40.776  25.066  27.862  1.00  0.00     0.029 A 
ATOM     46  N   UNL A   1      42.262  26.704  28.186  1.00  0.00    -0.354 N 
ATOM     47  C   UNL A   1      46.494  25.998  27.698  1.00  0.00     0.074 A 
ATOM     48  C   UNL A   1      46.753  24.626  27.316  1.00  0.00     0.031 C 
ATOM     49  C   UNL A   1      40.095  26.156  28.250  1.00  0.00     0.029 A 
ATOM     50  C   UNL A   1      41.038  27.241  28.500  1.00  0.00     0.049 A 
ATOM     51  H   UNL A   1      43.104  27.214  28.235  1.00  0.00     0.167 HD
ATOM     52  C   UNL A   1      47.456  26.935  27.874  1.00  0.00     0.037 A 
ATOM     53  C   UNL A   1      40.712  28.468  28.952  1.00  0.00     0.037 A 
ATOM     54  C   UNL A   1      47.194  28.302  28.240  1.00  0.00     0.049 A 
ATOM     55  C   UNL A   1      41.797  29.489  29.152  1.00  0.00     0.074 A 
ATOM     56  C   UNL A   1      48.092  29.346  28.381  1.00  0.00     0.029 A 
ATOM     57  N   UNL A   1      45.937  28.815  28.533  1.00  0.00    -0.354 N 
ATOM     58  N   UNL A   1      43.089  29.370  28.966  1.00  0.00    -0.248 NA
ATOM     59  C   UNL A   1      41.379  30.818  29.621  1.00  0.00     0.031 C 
ATOM     60  C   UNL A   1      47.388  30.474  28.810  1.00  0.00     0.029 A 
ATOM     61  C   UNL A   1      46.043  30.151  28.884  1.00  0.00     0.049 A 
ATOM     62  H   UNL A   1      45.097  28.303  28.497  1.00  0.00     0.167 HD
ATOM     63  C   UNL A   1      43.636  30.609  29.271  1.00  0.00     0.074 A 
ATOM     64  C   UNL A   1      42.532  31.473  29.639  1.00  0.00     0.031 C 
ATOM     65  C   UNL A   1      44.934  30.998  29.250  1.00  0.00     0.037 A 
BRANCH  52  66
ATOM     66  C   UNL A   1      48.881  26.507  27.674  1.00  0.00     0.057 A 
ATOM     67  C   UNL A   1      49.491  26.529  26.412  1.00  0.00     0.134 A 
ATOM     68  C   UNL A   1      49.662  26.089  28.760  1.00  0.00     0.134 A 
ATOM     69  F   UNL A   1      48.799  26.908  25.328  1.00  0.00    -0.206 F 
ATOM     70  C   UNL A   1      50.813  26.117  26.232  1.00  0.00     0.040 A 
ATOM     71  C   UNL A   1      50.994  25.704  28.596  1.00  0.00     0.040 A 
ATOM     72  F   UNL A   1      49.145  26.051  29.996  1.00  0.00    -0.206 F 
ATOM     73  C   UNL A   1      51.571  25.709  27.328  1.00  0.00     0.006 A 
ENDBRANCH  52  66
BRANCH  53  74
ATOM     74  C   UNL A   1      39.293  28.798  29.235  1.00  0.00     0.057 A 
ATOM     75  C   UNL A   1      38.458  29.324  28.243  1.00  0.00     0.134 A 
ATOM     76  C   UNL A   1      38.735  28.593  30.504  1.00  0.00     0.134 A 
ATOM     77  F   UNL A   1      38.937  29.559  27.013  1.00  0.00    -0.206 F 
ATOM     78  C   UNL A   1      37.125  29.648  28.504  1.00  0.00     0.040 A 
ATOM     79  C   UNL A   1      37.398  28.888  30.773  1.00  0.00     0.040 A 
ATOM     80  F   UNL A   1      39.480  28.084  31.496  1.00  0.00    -0.206 F 
ATOM     81  C   UNL A   1      36.590  29.424  29.771  1.00  0.00     0.006 A 
ENDBRANCH  53  74
BRANCH  65  82
ATOM     82  C   UNL A   1      45.232  32.424  29.610  1.00  0.00     0.057 A 
ATOM     83  C   UNL A   1      45.197  33.450  28.657  1.00  0.00     0.134 A 
ATOM     84  C   UNL A   1      45.516  32.780  30.934  1.00  0.00     0.134 A 
ATOM     85  F   UNL A   1      44.945  33.174  27.369  1.00  0.00    -0.206 F 
ATOM     86  C   UNL A   1      45.451  34.778  29.007  1.00  0.00     0.040 A 
ATOM     87  C   UNL A   1      45.744  34.107  31.301  1.00  0.00     0.040 A 
ATOM     88  F   UNL A   1      45.557  31.847  31.898  1.00  0.00    -0.206 F 
ATOM     89  C   UNL A   1      45.717  35.110  30.333  1.00  0.00     0.006 A 
ENDBRANCH  65  82
ENDBRANCH  39  40
ENDBRANCH  31  34
ENDBRANCH  29  30
ENDBRANCH  28  29
ENDBRANCH  27  28
ENDBRANCH  26  27
ENDBRANCH   1  26
TORSDOF 19
ENDMDL
