MODEL 1
REMARK VINA RESULT:     -10.1      0.000      0.000
REMARK SMILES C=CC[N@@H+](CC(=O)NCCCCCCNC(=O)c1ccc(-c2c3nc(c(-c4c(F)cccc4F)c4ccc([nH]4)c(-c4c(F)cccc4F)c4nc(c(-c5c(F)cccc5F)c5ccc2[nH]5)C=C4)C=C3)cc1)C[C@H]1CCC[C@H](C)C1
REMARK SMILES IDX 11 1 10 2 9 3 8 4 6 5 7 6 5 8 4 9 3 11 2 12 1 13 72 14 73 15
REMARK SMILES IDX 74 16 79 17 75 18 77 19 76 20 78 21 12 22 13 23 14 24 15 25
REMARK SMILES IDX 16 26 17 28 18 29 19 30 71 31 20 32 70 33 21 34 22 35 23 36
REMARK SMILES IDX 64 37 24 38 69 39 63 40 65 41 25 42 68 43 62 44 61 45 26 47
REMARK SMILES IDX 52 48 35 49 51 50 36 51 39 52 50 53 66 54 37 55 38 56 49 58
REMARK SMILES IDX 67 59 40 60 27 61 28 62 33 63 29 64 30 65 32 66 34 67 31 68
REMARK SMILES IDX 53 69 54 70 59 71 55 72 56 73 58 74 60 75 57 76 41 77 42 78
REMARK SMILES IDX 47 79 43 80 44 81 46 82 48 83 45 84
REMARK H PARENT 8 7 4 10 15 27 65 46 39 57
REMARK Flexibility Score: inf
ROOT
ATOM      1  C   UNL A   1      36.309  21.456  25.853  1.00  0.00     0.002 C 
ENDROOT
BRANCH   1   2
ATOM      2  C   UNL A   1      35.011  21.519  26.656  1.00  0.00     0.021 C 
BRANCH   2   3
ATOM      3  C   UNL A   1      34.413  22.923  26.831  1.00  0.00     0.116 C 
BRANCH   3   4
ATOM      4  N   UNL A   1      32.963  22.859  26.889  1.00  0.00    -0.351 N 
ATOM      5  C   UNL A   1      31.996  23.057  25.951  1.00  0.00     0.275 C 
ATOM      6  O   UNL A   1      30.828  22.999  26.359  1.00  0.00    -0.269 OA
ATOM      7  H   UNL A   1      32.612  22.628  27.778  1.00  0.00     0.163 HD
BRANCH   5   8
ATOM      8  C   UNL A   1      32.280  23.282  24.449  1.00  0.00     0.363 C 
BRANCH   8   9
ATOM      9  N   UNL A   1      33.169  22.284  23.770  1.00  0.00    -0.324 N 
ATOM     10  H   UNL A   1      33.848  21.873  24.411  1.00  0.00     0.348 HD
BRANCH   9  11
ATOM     11  C   UNL A   1      34.029  22.953  22.812  1.00  0.00     0.290 C 
BRANCH  11  12
ATOM     12  C   UNL A   1      35.245  23.670  23.302  1.00  0.00     0.025 C 
ATOM     13  C   UNL A   1      36.491  23.243  23.039  1.00  0.00     0.010 C 
ENDBRANCH  11  12
ENDBRANCH   9  11
BRANCH   9  14
ATOM     14  C   UNL A   1      32.421  21.067  23.372  1.00  0.00     0.266 C 
BRANCH  14  15
ATOM     15  C   UNL A   1      32.840  19.682  23.916  1.00  0.00     0.044 C 
ATOM     16  C   UNL A   1      32.336  19.400  25.338  1.00  0.00     0.009 C 
ATOM     17  C   UNL A   1      32.317  18.538  23.017  1.00  0.00     0.012 C 
ATOM     18  C   UNL A   1      32.976  18.113  25.853  1.00  0.00     0.001 C 
ATOM     19  C   UNL A   1      32.828  17.156  23.473  1.00  0.00    -0.014 C 
ATOM     20  C   UNL A   1      32.598  16.922  24.975  1.00  0.00     0.003 C 
ATOM     21  C   UNL A   1      34.299  16.956  23.088  1.00  0.00     0.007 C 
ENDBRANCH  14  15
ENDBRANCH   9  14
ENDBRANCH   8   9
ENDBRANCH   5   8
ENDBRANCH   3   4
ENDBRANCH   2   3
ENDBRANCH   1   2
BRANCH   1  22
ATOM     22  C   UNL A   1      36.403  20.282  24.875  1.00  0.00     0.002 C 
BRANCH  22  23
ATOM     23  C   UNL A   1      37.746  19.539  24.841  1.00  0.00     0.021 C 
BRANCH  23  24
ATOM     24  C   UNL A   1      38.842  20.118  25.736  1.00  0.00     0.116 C 
BRANCH  24  25
ATOM     25  N   UNL A   1      39.926  19.173  25.957  1.00  0.00    -0.352 N 
ATOM     26  C   UNL A   1      41.257  19.400  26.185  1.00  0.00     0.251 C 
ATOM     27  H   UNL A   1      39.660  18.225  25.940  1.00  0.00     0.163 HD
ATOM     28  O   UNL A   1      42.058  18.463  26.122  1.00  0.00    -0.269 OA
BRANCH  26  29
ATOM     29  C   UNL A   1      41.751  20.756  26.497  1.00  0.00     0.039 A 
ATOM     30  C   UNL A   1      41.918  21.673  25.455  1.00  0.00     0.014 A 
ATOM     31  C   UNL A   1      42.100  21.114  27.803  1.00  0.00     0.014 A 
ATOM     32  C   UNL A   1      42.379  22.964  25.729  1.00  0.00     0.010 A 
ATOM     33  C   UNL A   1      42.501  22.419  28.084  1.00  0.00     0.010 A 
ATOM     34  C   UNL A   1      42.648  23.356  27.049  1.00  0.00    -0.014 A 
BRANCH  34  35
ATOM     35  C   UNL A   1      43.085  24.740  27.367  1.00  0.00     0.031 A 
ATOM     36  C   UNL A   1      42.117  25.725  27.960  1.00  0.00     0.074 A 
ATOM     37  C   UNL A   1      44.338  25.129  27.060  1.00  0.00     0.049 A 
ATOM     38  N   UNL A   1      42.291  26.993  28.235  1.00  0.00    -0.248 NA
ATOM     39  C   UNL A   1      40.766  25.225  28.263  1.00  0.00     0.031 C 
ATOM     40  C   UNL A   1      45.360  24.283  26.443  1.00  0.00     0.029 A 
ATOM     41  N   UNL A   1      44.960  26.344  27.215  1.00  0.00    -0.354 N 
ATOM     42  C   UNL A   1      41.072  27.446  28.726  1.00  0.00     0.074 A 
ATOM     43  C   UNL A   1      40.154  26.328  28.669  1.00  0.00     0.031 C 
ATOM     44  C   UNL A   1      46.486  24.999  26.287  1.00  0.00     0.029 A 
ATOM     45  C   UNL A   1      46.256  26.360  26.758  1.00  0.00     0.049 A 
ATOM     46  H   UNL A   1      44.520  27.128  27.614  1.00  0.00     0.167 HD
ATOM     47  C   UNL A   1      40.752  28.674  29.199  1.00  0.00     0.037 A 
ATOM     48  C   UNL A   1      47.155  27.362  26.717  1.00  0.00     0.037 A 
ATOM     49  C   UNL A   1      41.672  29.777  29.281  1.00  0.00     0.049 A 
ATOM     50  C   UNL A   1      46.775  28.716  27.248  1.00  0.00     0.074 A 
ATOM     51  C   UNL A   1      41.459  31.042  29.800  1.00  0.00     0.029 A 
ATOM     52  N   UNL A   1      42.983  29.747  28.828  1.00  0.00    -0.354 N 
ATOM     53  N   UNL A   1      45.638  29.111  27.766  1.00  0.00    -0.248 NA
ATOM     54  C   UNL A   1      47.806  29.762  27.193  1.00  0.00     0.031 C 
ATOM     55  C   UNL A   1      42.628  31.791  29.628  1.00  0.00     0.029 A 
ATOM     56  C   UNL A   1      43.584  30.977  29.039  1.00  0.00     0.049 A 
ATOM     57  H   UNL A   1      43.421  28.967  28.417  1.00  0.00     0.167 HD
ATOM     58  C   UNL A   1      45.824  30.439  28.125  1.00  0.00     0.074 A 
ATOM     59  C   UNL A   1      47.187  30.780  27.776  1.00  0.00     0.031 C 
ATOM     60  C   UNL A   1      44.945  31.300  28.695  1.00  0.00     0.037 A 
BRANCH  47  61
ATOM     61  C   UNL A   1      39.343  28.888  29.671  1.00  0.00     0.057 A 
ATOM     62  C   UNL A   1      38.953  28.604  30.986  1.00  0.00     0.134 A 
ATOM     63  C   UNL A   1      38.373  29.418  28.811  1.00  0.00     0.134 A 
ATOM     64  F   UNL A   1      39.832  28.085  31.858  1.00  0.00    -0.206 F 
ATOM     65  C   UNL A   1      37.644  28.815  31.422  1.00  0.00     0.040 A 
ATOM     66  C   UNL A   1      37.067  29.658  29.242  1.00  0.00     0.040 A 
ATOM     67  F   UNL A   1      38.680  29.720  27.540  1.00  0.00    -0.206 F 
ATOM     68  C   UNL A   1      36.698  29.349  30.550  1.00  0.00     0.006 A 
ENDBRANCH  47  61
BRANCH  48  69
ATOM     69  C   UNL A   1      48.513  27.116  26.172  1.00  0.00     0.057 A 
ATOM     70  C   UNL A   1      49.549  26.663  26.998  1.00  0.00     0.134 A 
ATOM     71  C   UNL A   1      48.811  27.332  24.821  1.00  0.00     0.134 A 
ATOM     72  F   UNL A   1      49.329  26.457  28.304  1.00  0.00    -0.206 F 
ATOM     73  C   UNL A   1      50.837  26.449  26.504  1.00  0.00     0.040 A 
ATOM     74  C   UNL A   1      50.088  27.100  24.310  1.00  0.00     0.040 A 
ATOM     75  F   UNL A   1      47.860  27.759  23.979  1.00  0.00    -0.206 F 
ATOM     76  C   UNL A   1      51.107  26.663  25.154  1.00  0.00     0.006 A 
ENDBRANCH  48  69
BRANCH  60  77
ATOM     77  C   UNL A   1      45.440  32.681  29.007  1.00  0.00     0.057 A 
ATOM     78  C   UNL A   1      45.292  33.741  28.105  1.00  0.00     0.134 A 
ATOM     79  C   UNL A   1      46.037  32.958  30.243  1.00  0.00     0.134 A 
ATOM     80  F   UNL A   1      44.742  33.536  26.898  1.00  0.00    -0.206 F 
ATOM     81  C   UNL A   1      45.742  35.026  28.413  1.00  0.00     0.040 A 
ATOM     82  C   UNL A   1      46.467  34.245  30.572  1.00  0.00     0.040 A 
ATOM     83  F   UNL A   1      46.201  31.989  31.156  1.00  0.00    -0.206 F 
ATOM     84  C   UNL A   1      46.323  35.282  29.654  1.00  0.00     0.006 A 
ENDBRANCH  60  77
ENDBRANCH  34  35
ENDBRANCH  26  29
ENDBRANCH  24  25
ENDBRANCH  23  24
ENDBRANCH  22  23
ENDBRANCH   1  22
TORSDOF 18
ENDMDL
MODEL 2
REMARK VINA RESULT:     -10.0      2.302      4.005
REMARK SMILES C=CC[N@@H+](CC(=O)NCCCCCCNC(=O)c1ccc(-c2c3nc(c(-c4c(F)cccc4F)c4ccc([nH]4)c(-c4c(F)cccc4F)c4nc(c(-c5c(F)cccc5F)c5ccc2[nH]5)C=C4)C=C3)cc1)C[C@H]1CCC[C@H](C)C1
REMARK SMILES IDX 11 1 10 2 9 3 8 4 6 5 7 6 5 8 4 9 3 11 2 12 1 13 72 14 73 15
REMARK SMILES IDX 74 16 79 17 75 18 77 19 76 20 78 21 12 22 13 23 14 24 15 25
REMARK SMILES IDX 16 26 17 28 18 29 19 30 71 31 20 32 70 33 21 34 22 35 23 36
REMARK SMILES IDX 64 37 24 38 69 39 63 40 65 41 25 42 68 43 62 44 61 45 26 47
REMARK SMILES IDX 52 48 35 49 51 50 36 51 39 52 50 53 66 54 37 55 38 56 49 58
REMARK SMILES IDX 67 59 40 60 27 61 28 62 33 63 29 64 30 65 32 66 34 67 31 68
REMARK SMILES IDX 53 69 54 70 59 71 55 72 56 73 58 74 60 75 57 76 41 77 42 78
REMARK SMILES IDX 47 79 43 80 44 81 46 82 48 83 45 84
REMARK H PARENT 8 7 4 10 15 27 65 46 39 57
REMARK Flexibility Score: inf
ROOT
ATOM      1  C   UNL A   1      34.770  19.790  24.883  1.00  0.00     0.002 C 
ENDROOT
BRANCH   1   2
ATOM      2  C   UNL A   1      33.534  20.515  25.411  1.00  0.00     0.021 C 
BRANCH   2   3
ATOM      3  C   UNL A   1      33.613  20.967  26.878  1.00  0.00     0.116 C 
BRANCH   3   4
ATOM      4  N   UNL A   1      32.569  21.930  27.174  1.00  0.00    -0.351 N 
ATOM      5  C   UNL A   1      32.480  23.277  26.990  1.00  0.00     0.275 C 
ATOM      6  O   UNL A   1      31.458  23.817  27.435  1.00  0.00    -0.269 OA
ATOM      7  H   UNL A   1      31.769  21.534  27.589  1.00  0.00     0.163 HD
BRANCH   5   8
ATOM      8  C   UNL A   1      33.529  24.117  26.228  1.00  0.00     0.363 C 
BRANCH   8   9
ATOM      9  N   UNL A   1      33.065  24.816  24.986  1.00  0.00    -0.324 N 
ATOM     10  H   UNL A   1      32.130  25.209  25.090  1.00  0.00     0.348 HD
BRANCH   9  11
ATOM     11  C   UNL A   1      32.868  23.854  23.916  1.00  0.00     0.290 C 
BRANCH  11  12
ATOM     12  C   UNL A   1      31.482  23.402  23.591  1.00  0.00     0.025 C 
ATOM     13  C   UNL A   1      30.494  24.260  23.289  1.00  0.00     0.010 C 
ENDBRANCH  11  12
ENDBRANCH   9  11
BRANCH   9  14
ATOM     14  C   UNL A   1      33.839  26.056  24.734  1.00  0.00     0.266 C 
BRANCH  14  15
ATOM     15  C   UNL A   1      33.108  27.383  24.429  1.00  0.00     0.044 C 
ATOM     16  C   UNL A   1      32.505  27.446  23.020  1.00  0.00     0.009 C 
ATOM     17  C   UNL A   1      31.953  27.637  25.426  1.00  0.00     0.012 C 
ATOM     18  C   UNL A   1      31.999  28.860  22.750  1.00  0.00     0.001 C 
ATOM     19  C   UNL A   1      31.293  29.014  25.216  1.00  0.00    -0.014 C 
ATOM     20  C   UNL A   1      30.910  29.253  23.746  1.00  0.00     0.003 C 
ATOM     21  C   UNL A   1      32.178  30.141  25.761  1.00  0.00     0.007 C 
ENDBRANCH  14  15
ENDBRANCH   9  14
ENDBRANCH   8   9
ENDBRANCH   5   8
ENDBRANCH   3   4
ENDBRANCH   2   3
ENDBRANCH   1   2
BRANCH   1  22
ATOM     22  C   UNL A   1      36.078  20.577  25.003  1.00  0.00     0.002 C 
BRANCH  22  23
ATOM     23  C   UNL A   1      37.371  19.759  24.888  1.00  0.00     0.021 C 
BRANCH  23  24
ATOM     24  C   UNL A   1      38.598  20.364  25.570  1.00  0.00     0.116 C 
BRANCH  24  25
ATOM     25  N   UNL A   1      39.687  19.408  25.691  1.00  0.00    -0.352 N 
ATOM     26  C   UNL A   1      40.999  19.608  26.027  1.00  0.00     0.251 C 
ATOM     27  H   UNL A   1      39.442  18.473  25.502  1.00  0.00     0.163 HD
ATOM     28  O   UNL A   1      41.821  18.704  25.854  1.00  0.00    -0.269 OA
BRANCH  26  29
ATOM     29  C   UNL A   1      41.449  20.898  26.588  1.00  0.00     0.039 A 
ATOM     30  C   UNL A   1      41.944  21.878  25.722  1.00  0.00     0.014 A 
ATOM     31  C   UNL A   1      41.432  21.130  27.967  1.00  0.00     0.014 A 
ATOM     32  C   UNL A   1      42.369  23.108  26.231  1.00  0.00     0.010 A 
ATOM     33  C   UNL A   1      41.799  22.378  28.468  1.00  0.00     0.010 A 
ATOM     34  C   UNL A   1      42.275  23.378  27.605  1.00  0.00    -0.014 A 
BRANCH  34  35
ATOM     35  C   UNL A   1      42.669  24.700  28.158  1.00  0.00     0.031 A 
ATOM     36  C   UNL A   1      41.636  25.771  28.377  1.00  0.00     0.074 A 
ATOM     37  C   UNL A   1      43.968  24.958  28.403  1.00  0.00     0.049 A 
ATOM     38  N   UNL A   1      41.798  27.006  28.778  1.00  0.00    -0.248 NA
ATOM     39  C   UNL A   1      40.240  25.413  28.083  1.00  0.00     0.031 C 
ATOM     40  C   UNL A   1      45.072  24.021  28.194  1.00  0.00     0.029 A 
ATOM     41  N   UNL A   1      44.582  26.095  28.870  1.00  0.00    -0.354 N 
ATOM     42  C   UNL A   1      40.531  27.577  28.769  1.00  0.00     0.074 A 
ATOM     43  C   UNL A   1      39.618  26.567  28.279  1.00  0.00     0.031 C 
ATOM     44  C   UNL A   1      46.225  24.613  28.546  1.00  0.00     0.029 A 
ATOM     45  C   UNL A   1      45.947  25.981  28.971  1.00  0.00     0.049 A 
ATOM     46  H   UNL A   1      44.090  26.913  29.110  1.00  0.00     0.167 HD
ATOM     47  C   UNL A   1      40.159  28.823  29.152  1.00  0.00     0.037 A 
ATOM     48  C   UNL A   1      46.873  26.880  29.356  1.00  0.00     0.037 A 
ATOM     49  C   UNL A   1      41.064  29.817  29.664  1.00  0.00     0.049 A 
ATOM     50  C   UNL A   1      46.435  28.256  29.776  1.00  0.00     0.074 A 
ATOM     51  C   UNL A   1      40.774  31.087  30.134  1.00  0.00     0.029 A 
ATOM     52  N   UNL A   1      42.437  29.656  29.771  1.00  0.00    -0.354 N 
ATOM     53  N   UNL A   1      45.225  28.760  29.821  1.00  0.00    -0.248 NA
ATOM     54  C   UNL A   1      47.489  29.185  30.204  1.00  0.00     0.031 C 
ATOM     55  C   UNL A   1      41.975  31.708  30.491  1.00  0.00     0.029 A 
ATOM     56  C   UNL A   1      43.010  30.809  30.283  1.00  0.00     0.049 A 
ATOM     57  H   UNL A   1      42.932  28.842  29.521  1.00  0.00     0.167 HD
ATOM     58  C   UNL A   1      45.370  30.052  30.308  1.00  0.00     0.074 A 
ATOM     59  C   UNL A   1      46.782  30.251  30.555  1.00  0.00     0.031 C 
ATOM     60  C   UNL A   1      44.417  30.990  30.532  1.00  0.00     0.037 A 
BRANCH  47  61
ATOM     61  C   UNL A   1      38.705  29.177  29.034  1.00  0.00     0.057 A 
ATOM     62  C   UNL A   1      37.843  29.136  30.137  1.00  0.00     0.134 A 
ATOM     63  C   UNL A   1      38.169  29.599  27.811  1.00  0.00     0.134 A 
ATOM     64  F   UNL A   1      38.292  28.730  31.335  1.00  0.00    -0.206 F 
ATOM     65  C   UNL A   1      36.494  29.477  30.023  1.00  0.00     0.040 A 
ATOM     66  C   UNL A   1      36.827  29.968  27.690  1.00  0.00     0.040 A 
ATOM     67  F   UNL A   1      38.941  29.669  26.715  1.00  0.00    -0.206 F 
ATOM     68  C   UNL A   1      35.984  29.900  28.798  1.00  0.00     0.006 A 
ENDBRANCH  47  61
BRANCH  48  69
ATOM     69  C   UNL A   1      48.307  26.501  29.385  1.00  0.00     0.057 A 
ATOM     70  C   UNL A   1      48.861  25.860  30.500  1.00  0.00     0.134 A 
ATOM     71  C   UNL A   1      49.159  26.772  28.307  1.00  0.00     0.134 A 
ATOM     72  F   UNL A   1      48.099  25.592  31.571  1.00  0.00    -0.206 F 
ATOM     73  C   UNL A   1      50.213  25.518  30.551  1.00  0.00     0.040 A 
ATOM     74  C   UNL A   1      50.507  26.415  28.335  1.00  0.00     0.040 A 
ATOM     75  F   UNL A   1      48.686  27.377  27.208  1.00  0.00    -0.206 F 
ATOM     76  C   UNL A   1      51.039  25.791  29.462  1.00  0.00     0.006 A 
ENDBRANCH  48  69
BRANCH  60  77
ATOM     77  C   UNL A   1      44.866  32.302  31.103  1.00  0.00     0.057 A 
ATOM     78  C   UNL A   1      44.959  32.515  32.484  1.00  0.00     0.134 A 
ATOM     79  C   UNL A   1      45.245  33.353  30.258  1.00  0.00     0.134 A 
ATOM     80  F   UNL A   1      44.596  31.553  33.346  1.00  0.00    -0.206 F 
ATOM     81  C   UNL A   1      45.394  33.734  33.005  1.00  0.00     0.040 A 
ATOM     82  C   UNL A   1      45.706  34.568  30.767  1.00  0.00     0.040 A 
ATOM     83  F   UNL A   1      45.187  33.211  28.925  1.00  0.00    -0.206 F 
ATOM     84  C   UNL A   1      45.777  34.762  32.144  1.00  0.00     0.006 A 
ENDBRANCH  60  77
ENDBRANCH  34  35
ENDBRANCH  26  29
ENDBRANCH  24  25
ENDBRANCH  23  24
ENDBRANCH  22  23
ENDBRANCH   1  22
TORSDOF 18
ENDMDL
MODEL 3
REMARK VINA RESULT:     -10.0      4.890      9.651
REMARK SMILES C=CC[N@@H+](CC(=O)NCCCCCCNC(=O)c1ccc(-c2c3nc(c(-c4c(F)cccc4F)c4ccc([nH]4)c(-c4c(F)cccc4F)c4nc(c(-c5c(F)cccc5F)c5ccc2[nH]5)C=C4)C=C3)cc1)C[C@H]1CCC[C@H](C)C1
REMARK SMILES IDX 11 1 10 2 9 3 8 4 6 5 7 6 5 8 4 9 3 11 2 12 1 13 72 14 73 15
REMARK SMILES IDX 74 16 79 17 75 18 77 19 76 20 78 21 12 22 13 23 14 24 15 25
REMARK SMILES IDX 16 26 17 28 18 29 19 30 71 31 20 32 70 33 21 34 22 35 23 36
REMARK SMILES IDX 64 37 24 38 69 39 63 40 65 41 25 42 68 43 62 44 61 45 26 47
REMARK SMILES IDX 52 48 35 49 51 50 36 51 39 52 50 53 66 54 37 55 38 56 49 58
REMARK SMILES IDX 67 59 40 60 27 61 28 62 33 63 29 64 30 65 32 66 34 67 31 68
REMARK SMILES IDX 53 69 54 70 59 71 55 72 56 73 58 74 60 75 57 76 41 77 42 78
REMARK SMILES IDX 47 79 43 80 44 81 46 82 48 83 45 84
REMARK H PARENT 8 7 4 10 15 27 65 46 39 57
REMARK Flexibility Score: inf
ROOT
ATOM      1  C   UNL A   1      31.862  29.453  26.713  1.00  0.00     0.002 C 
ENDROOT
BRANCH   1   2
ATOM      2  C   UNL A   1      32.103  28.104  26.038  1.00  0.00     0.021 C 
BRANCH   2   3
ATOM      3  C   UNL A   1      30.906  27.141  26.048  1.00  0.00     0.116 C 
BRANCH   3   4
ATOM      4  N   UNL A   1      31.210  25.954  26.826  1.00  0.00    -0.351 N 
ATOM      5  C   UNL A   1      31.318  24.637  26.494  1.00  0.00     0.275 C 
ATOM      6  O   UNL A   1      31.517  23.857  27.434  1.00  0.00    -0.269 OA
ATOM      7  H   UNL A   1      31.369  26.135  27.781  1.00  0.00     0.163 HD
BRANCH   5   8
ATOM      8  C   UNL A   1      31.264  24.104  25.044  1.00  0.00     0.363 C 
BRANCH   8   9
ATOM      9  N   UNL A   1      32.533  24.172  24.249  1.00  0.00    -0.324 N 
ATOM     10  H   UNL A   1      33.304  24.569  24.786  1.00  0.00     0.348 HD
BRANCH   9  11
ATOM     11  C   UNL A   1      32.394  25.132  23.169  1.00  0.00     0.290 C 
BRANCH  11  12
ATOM     12  C   UNL A   1      33.435  26.190  22.998  1.00  0.00     0.025 C 
ATOM     13  C   UNL A   1      33.165  27.388  22.454  1.00  0.00     0.010 C 
ENDBRANCH  11  12
ENDBRANCH   9  11
BRANCH   9  14
ATOM     14  C   UNL A   1      33.080  22.821  23.975  1.00  0.00     0.266 C 
BRANCH  14  15
ATOM     15  C   UNL A   1      34.493  22.437  24.469  1.00  0.00     0.044 C 
ATOM     16  C   UNL A   1      34.702  20.925  24.624  1.00  0.00     0.009 C 
ATOM     17  C   UNL A   1      35.589  22.948  23.505  1.00  0.00     0.012 C 
ATOM     18  C   UNL A   1      36.041  20.669  25.311  1.00  0.00     0.001 C 
ATOM     19  C   UNL A   1      37.009  22.683  24.043  1.00  0.00    -0.014 C 
ATOM     20  C   UNL A   1      37.198  21.221  24.482  1.00  0.00     0.003 C 
ATOM     21  C   UNL A   1      37.366  23.662  25.168  1.00  0.00     0.007 C 
ENDBRANCH  14  15
ENDBRANCH   9  14
ENDBRANCH   8   9
ENDBRANCH   5   8
ENDBRANCH   3   4
ENDBRANCH   2   3
ENDBRANCH   1   2
BRANCH   1  22
ATOM     22  C   UNL A   1      31.514  30.597  25.757  1.00  0.00     0.002 C 
BRANCH  22  23
ATOM     23  C   UNL A   1      31.351  31.983  26.394  1.00  0.00     0.021 C 
BRANCH  23  24
ATOM     24  C   UNL A   1      32.517  32.448  27.267  1.00  0.00     0.116 C 
BRANCH  24  25
ATOM     25  N   UNL A   1      32.406  33.854  27.627  1.00  0.00    -0.352 N 
ATOM     26  C   UNL A   1      33.140  34.593  28.516  1.00  0.00     0.251 C 
ATOM     27  H   UNL A   1      31.694  34.347  27.160  1.00  0.00     0.163 HD
ATOM     28  O   UNL A   1      32.748  35.714  28.852  1.00  0.00    -0.269 OA
BRANCH  26  29
ATOM     29  C   UNL A   1      34.395  34.064  29.088  1.00  0.00     0.039 A 
ATOM     30  C   UNL A   1      34.336  33.289  30.250  1.00  0.00     0.014 A 
ATOM     31  C   UNL A   1      35.633  34.367  28.514  1.00  0.00     0.014 A 
ATOM     32  C   UNL A   1      35.510  32.773  30.805  1.00  0.00     0.010 A 
ATOM     33  C   UNL A   1      36.798  33.803  29.031  1.00  0.00     0.010 A 
ATOM     34  C   UNL A   1      36.748  33.003  30.185  1.00  0.00    -0.014 A 
BRANCH  34  35
ATOM     35  C   UNL A   1      38.001  32.417  30.727  1.00  0.00     0.031 A 
ATOM     36  C   UNL A   1      38.598  31.187  30.100  1.00  0.00     0.074 A 
ATOM     37  C   UNL A   1      38.566  32.953  31.826  1.00  0.00     0.049 A 
ATOM     38  N   UNL A   1      39.640  30.490  30.476  1.00  0.00    -0.248 NA
ATOM     39  C   UNL A   1      37.921  30.658  28.906  1.00  0.00     0.031 C 
ATOM     40  C   UNL A   1      38.063  34.119  32.553  1.00  0.00     0.029 A 
ATOM     41  N   UNL A   1      39.684  32.579  32.531  1.00  0.00    -0.354 N 
ATOM     42  C   UNL A   1      39.734  29.433  29.578  1.00  0.00     0.074 A 
ATOM     43  C   UNL A   1      38.617  29.556  28.666  1.00  0.00     0.031 C 
ATOM     44  C   UNL A   1      38.876  34.374  33.591  1.00  0.00     0.029 A 
ATOM     45  C   UNL A   1      39.936  33.372  33.624  1.00  0.00     0.049 A 
ATOM     46  H   UNL A   1      40.250  31.815  32.278  1.00  0.00     0.167 HD
ATOM     47  C   UNL A   1      40.675  28.461  29.508  1.00  0.00     0.037 A 
ATOM     48  C   UNL A   1      40.908  33.296  34.552  1.00  0.00     0.037 A 
ATOM     49  C   UNL A   1      41.800  28.355  30.398  1.00  0.00     0.049 A 
ATOM     50  C   UNL A   1      41.940  32.208  34.453  1.00  0.00     0.074 A 
ATOM     51  C   UNL A   1      42.840  27.442  30.371  1.00  0.00     0.029 A 
ATOM     52  N   UNL A   1      42.032  29.191  31.480  1.00  0.00    -0.354 N 
ATOM     53  N   UNL A   1      42.050  31.253  33.561  1.00  0.00    -0.248 NA
ATOM     54  C   UNL A   1      42.986  32.190  35.485  1.00  0.00     0.031 C 
ATOM     55  C   UNL A   1      43.681  27.701  31.458  1.00  0.00     0.029 A 
ATOM     56  C   UNL A   1      43.188  28.803  32.138  1.00  0.00     0.049 A 
ATOM     57  H   UNL A   1      41.461  29.949  31.742  1.00  0.00     0.167 HD
ATOM     58  C   UNL A   1      43.191  30.540  33.907  1.00  0.00     0.074 A 
ATOM     59  C   UNL A   1      43.744  31.178  35.082  1.00  0.00     0.031 C 
ATOM     60  C   UNL A   1      43.732  29.454  33.302  1.00  0.00     0.037 A 
BRANCH  47  61
ATOM     61  C   UNL A   1      40.528  27.434  28.423  1.00  0.00     0.057 A 
ATOM     62  C   UNL A   1      41.183  27.561  27.192  1.00  0.00     0.134 A 
ATOM     63  C   UNL A   1      39.751  26.286  28.626  1.00  0.00     0.134 A 
ATOM     64  F   UNL A   1      41.934  28.641  26.930  1.00  0.00    -0.206 F 
ATOM     65  C   UNL A   1      41.050  26.596  26.191  1.00  0.00     0.040 A 
ATOM     66  C   UNL A   1      39.632  25.302  27.642  1.00  0.00     0.040 A 
ATOM     67  F   UNL A   1      39.103  26.097  29.785  1.00  0.00    -0.206 F 
ATOM     68  C   UNL A   1      40.277  25.460  26.418  1.00  0.00     0.006 A 
ENDBRANCH  47  61
BRANCH  48  69
ATOM     69  C   UNL A   1      40.966  34.295  35.648  1.00  0.00     0.057 A 
ATOM     70  C   UNL A   1      40.236  34.112  36.829  1.00  0.00     0.134 A 
ATOM     71  C   UNL A   1      41.742  35.455  35.543  1.00  0.00     0.134 A 
ATOM     72  F   UNL A   1      39.459  33.030  36.980  1.00  0.00    -0.206 F 
ATOM     73  C   UNL A   1      40.262  35.054  37.859  1.00  0.00     0.040 A 
ATOM     74  C   UNL A   1      41.796  36.394  36.573  1.00  0.00     0.040 A 
ATOM     75  F   UNL A   1      42.469  35.684  34.439  1.00  0.00    -0.206 F 
ATOM     76  C   UNL A   1      41.050  36.197  37.734  1.00  0.00     0.006 A 
ENDBRANCH  48  69
BRANCH  60  77
ATOM     77  C   UNL A   1      45.004  28.909  33.881  1.00  0.00     0.057 A 
ATOM     78  C   UNL A   1      45.002  27.898  34.850  1.00  0.00     0.134 A 
ATOM     79  C   UNL A   1      46.246  29.377  33.434  1.00  0.00     0.134 A 
ATOM     80  F   UNL A   1      43.844  27.418  35.330  1.00  0.00    -0.206 F 
ATOM     81  C   UNL A   1      46.192  27.386  35.369  1.00  0.00     0.040 A 
ATOM     82  C   UNL A   1      47.442  28.854  33.928  1.00  0.00     0.040 A 
ATOM     83  F   UNL A   1      46.317  30.339  32.501  1.00  0.00    -0.206 F 
ATOM     84  C   UNL A   1      47.417  27.859  34.901  1.00  0.00     0.006 A 
ENDBRANCH  60  77
ENDBRANCH  34  35
ENDBRANCH  26  29
ENDBRANCH  24  25
ENDBRANCH  23  24
ENDBRANCH  22  23
ENDBRANCH   1  22
TORSDOF 18
ENDMDL
