MODEL 1
REMARK VINA RESULT:     -11.7      0.000      0.000
REMARK SMILES O=C(NCCCCCCNC(=O)C1(Cc2nc(-c3ncc[nH]3)no2)CCCCC1)c1ccc(-c2c3nc(c(-c4c(F)cccc4F)c4ccc([nH]4)c(-c4c(F)cccc4F)c4nc(c(-c5c(F)cccc5F)c5ccc2[nH]5)C=C4)C=C3)cc1
REMARK SMILES IDX 7 1 6 2 5 3 4 4 3 5 1 6 2 7 30 9 31 10 83 11 32 12 82 13
REMARK SMILES IDX 33 14 34 15 35 16 76 17 36 18 81 19 75 20 77 21 37 22 80 23
REMARK SMILES IDX 74 24 73 25 38 27 64 28 47 29 63 30 48 31 51 32 62 33 78 34
REMARK SMILES IDX 49 35 50 36 61 38 79 39 52 40 39 41 40 42 45 43 41 44 42 45
REMARK SMILES IDX 44 46 46 47 43 48 65 49 66 50 71 51 67 52 68 53 70 54 72 55
REMARK SMILES IDX 69 56 53 57 54 58 59 59 55 60 56 61 58 62 60 63 57 64 8 65
REMARK SMILES IDX 9 66 10 67 11 68 12 70 13 71 25 72 29 73 26 74 28 75 27 76
REMARK SMILES IDX 14 77 15 78 16 79 24 80 17 81 23 82 18 83 19 84 22 85 20 86
REMARK SMILES IDX 21 87
REMARK H PARENT 3 8 77 26 51 37 10 69 22 88
REMARK Flexibility Score: inf
ROOT
ATOM      1  C   UNL A   1      37.546  21.763  25.020  1.00  0.00     0.002 C 
ENDROOT
BRANCH   1   2
ATOM      2  C   UNL A   1      37.178  20.311  24.696  1.00  0.00     0.002 C 
BRANCH   2   3
ATOM      3  C   UNL A   1      38.231  19.278  25.104  1.00  0.00     0.021 C 
BRANCH   3   4
ATOM      4  C   UNL A   1      39.416  19.862  25.866  1.00  0.00     0.116 C 
BRANCH   4   5
ATOM      5  N   UNL A   1      40.524  18.924  25.927  1.00  0.00    -0.352 N 
ATOM      6  O   UNL A   1      42.690  18.294  25.828  1.00  0.00    -0.269 OA
ATOM      7  C   UNL A   1      41.861  19.181  26.046  1.00  0.00     0.251 C 
ATOM      8  H   UNL A   1      40.277  17.972  25.876  1.00  0.00     0.163 HD
BRANCH   7   9
ATOM      9  C   UNL A   1      42.315  20.530  26.433  1.00  0.00     0.039 A 
ATOM     10  C   UNL A   1      42.701  21.455  25.457  1.00  0.00     0.014 A 
ATOM     11  C   UNL A   1      42.326  20.880  27.784  1.00  0.00     0.014 A 
ATOM     12  C   UNL A   1      43.193  22.699  25.838  1.00  0.00     0.010 A 
ATOM     13  C   UNL A   1      42.754  22.152  28.160  1.00  0.00     0.010 A 
ATOM     14  C   UNL A   1      43.206  23.064  27.192  1.00  0.00    -0.014 A 
BRANCH  14  15
ATOM     15  C   UNL A   1      43.637  24.423  27.597  1.00  0.00     0.031 A 
ATOM     16  C   UNL A   1      42.627  25.452  28.012  1.00  0.00     0.074 A 
ATOM     17  C   UNL A   1      44.943  24.738  27.534  1.00  0.00     0.049 A 
ATOM     18  N   UNL A   1      42.804  26.719  28.284  1.00  0.00    -0.248 NA
ATOM     19  C   UNL A   1      41.233  24.998  28.125  1.00  0.00     0.031 C 
ATOM     20  C   UNL A   1      46.013  23.819  27.143  1.00  0.00     0.029 A 
ATOM     21  N   UNL A   1      45.591  25.922  27.778  1.00  0.00    -0.354 N 
ATOM     22  C   UNL A   1      41.543  27.222  28.574  1.00  0.00     0.074 A 
ATOM     23  C   UNL A   1      40.608  26.127  28.424  1.00  0.00     0.031 C 
ATOM     24  C   UNL A   1      47.184  24.471  27.172  1.00  0.00     0.029 A 
ATOM     25  C   UNL A   1      46.939  25.866  27.523  1.00  0.00     0.049 A 
ATOM     26  H   UNL A   1      45.134  26.731  28.105  1.00  0.00     0.167 HD
ATOM     27  C   UNL A   1      41.202  28.484  28.933  1.00  0.00     0.037 A 
ATOM     28  C   UNL A   1      47.869  26.837  27.529  1.00  0.00     0.037 A 
ATOM     29  C   UNL A   1      42.144  29.563  29.078  1.00  0.00     0.049 A 
ATOM     30  C   UNL A   1      47.465  28.237  27.886  1.00  0.00     0.074 A 
ATOM     31  C   UNL A   1      41.908  30.868  29.477  1.00  0.00     0.029 A 
ATOM     32  N   UNL A   1      43.504  29.467  28.815  1.00  0.00    -0.354 N 
ATOM     33  N   UNL A   1      46.276  28.695  28.196  1.00  0.00    -0.248 NA
ATOM     34  C   UNL A   1      48.524  29.253  27.897  1.00  0.00     0.031 C 
ATOM     35  C   UNL A   1      43.114  31.573  29.401  1.00  0.00     0.029 A 
ATOM     36  C   UNL A   1      44.114  30.695  29.015  1.00  0.00     0.049 A 
ATOM     37  H   UNL A   1      43.967  28.646  28.529  1.00  0.00     0.167 HD
ATOM     38  C   UNL A   1      46.448  30.046  28.466  1.00  0.00     0.074 A 
ATOM     39  C   UNL A   1      47.857  30.333  28.284  1.00  0.00     0.031 C 
ATOM     40  C   UNL A   1      45.521  30.961  28.840  1.00  0.00     0.037 A 
BRANCH  27  41
ATOM     41  C   UNL A   1      39.744  28.767  29.154  1.00  0.00     0.057 A 
ATOM     42  C   UNL A   1      38.907  29.221  28.126  1.00  0.00     0.134 A 
ATOM     43  C   UNL A   1      39.164  28.573  30.415  1.00  0.00     0.134 A 
ATOM     44  F   UNL A   1      39.397  29.437  26.895  1.00  0.00    -0.206 F 
ATOM     45  C   UNL A   1      37.559  29.506  28.352  1.00  0.00     0.040 A 
ATOM     46  C   UNL A   1      37.811  28.827  30.647  1.00  0.00     0.040 A 
ATOM     47  F   UNL A   1      39.903  28.131  31.444  1.00  0.00    -0.206 F 
ATOM     48  C   UNL A   1      37.006  29.306  29.616  1.00  0.00     0.006 A 
ENDBRANCH  27  41
BRANCH  28  49
ATOM     49  C   UNL A   1      49.268  26.501  27.169  1.00  0.00     0.057 A 
ATOM     50  C   UNL A   1      50.202  26.153  28.150  1.00  0.00     0.134 A 
ATOM     51  C   UNL A   1      49.685  26.461  25.833  1.00  0.00     0.134 A 
ATOM     52  F   UNL A   1      49.864  26.184  29.447  1.00  0.00    -0.206 F 
ATOM     53  C   UNL A   1      51.505  25.778  27.814  1.00  0.00     0.040 A 
ATOM     54  C   UNL A   1      50.975  26.064  25.482  1.00  0.00     0.040 A 
ATOM     55  F   UNL A   1      48.831  26.772  24.847  1.00  0.00    -0.206 F 
ATOM     56  C   UNL A   1      51.891  25.723  26.476  1.00  0.00     0.006 A 
ENDBRANCH  28  49
BRANCH  40  57
ATOM     57  C   UNL A   1      46.001  32.353  29.129  1.00  0.00     0.057 A 
ATOM     58  C   UNL A   1      45.999  33.357  28.154  1.00  0.00     0.134 A 
ATOM     59  C   UNL A   1      46.404  32.707  30.424  1.00  0.00     0.134 A 
ATOM     60  F   UNL A   1      45.638  33.080  26.891  1.00  0.00    -0.206 F 
ATOM     61  C   UNL A   1      46.386  34.665  28.455  1.00  0.00     0.040 A 
ATOM     62  C   UNL A   1      46.769  34.015  30.742  1.00  0.00     0.040 A 
ATOM     63  F   UNL A   1      46.422  31.791  31.404  1.00  0.00    -0.206 F 
ATOM     64  C   UNL A   1      46.762  34.998  29.756  1.00  0.00     0.006 A 
ENDBRANCH  40  57
ENDBRANCH  14  15
ENDBRANCH   7   9
ENDBRANCH   4   5
ENDBRANCH   3   4
ENDBRANCH   2   3
ENDBRANCH   1   2
BRANCH   1  65
ATOM     65  C   UNL A   1      36.836  22.808  24.156  1.00  0.00     0.021 C 
BRANCH  65  66
ATOM     66  C   UNL A   1      36.142  23.904  24.960  1.00  0.00     0.116 C 
BRANCH  66  67
ATOM     67  N   UNL A   1      35.495  23.365  26.139  1.00  0.00    -0.356 N 
ATOM     68  C   UNL A   1      34.223  23.436  26.612  1.00  0.00     0.226 C 
ATOM     69  H   UNL A   1      36.097  22.842  26.714  1.00  0.00     0.163 HD
ATOM     70  O   UNL A   1      34.029  22.931  27.722  1.00  0.00    -0.274 OA
BRANCH  68  71
ATOM     71  C   UNL A   1      33.059  24.059  25.801  1.00  0.00     0.058 C 
ATOM     72  C   UNL A   1      31.809  24.129  26.721  1.00  0.00     0.017 C 
ATOM     73  C   UNL A   1      33.446  25.538  25.468  1.00  0.00     0.017 C 
ATOM     74  C   UNL A   1      30.653  24.938  26.136  1.00  0.00     0.001 C 
ATOM     75  C   UNL A   1      32.308  26.347  24.850  1.00  0.00     0.001 C 
ATOM     76  C   UNL A   1      31.078  26.347  25.749  1.00  0.00     0.000 C 
BRANCH  71  77
ATOM     77  C   UNL A   1      32.794  23.270  24.488  1.00  0.00     0.117 C 
BRANCH  77  78
ATOM     78  C   UNL A   1      32.808  21.797  24.689  1.00  0.00     0.228 A 
ATOM     79  N   UNL A   1      33.724  20.922  24.356  1.00  0.00    -0.188 NA
ATOM     80  O   UNL A   1      31.693  21.233  25.237  1.00  0.00    -0.339 OA
ATOM     81  C   UNL A   1      33.098  19.730  24.619  1.00  0.00     0.238 A 
ATOM     82  N   UNL A   1      31.881  19.851  25.176  1.00  0.00    -0.054 NA
BRANCH  81  83
ATOM     83  C   UNL A   1      33.676  18.399  24.266  1.00  0.00     0.179 A 
ATOM     84  N   UNL A   1      33.366  17.655  23.221  1.00  0.00    -0.234 NA
ATOM     85  N   UNL A   1      34.602  17.762  25.053  1.00  0.00    -0.342 N 
ATOM     86  C   UNL A   1      34.103  16.506  23.353  1.00  0.00     0.131 A 
ATOM     87  C   UNL A   1      34.868  16.543  24.494  1.00  0.00     0.104 A 
ATOM     88  H   UNL A   1      35.007  18.120  25.876  1.00  0.00     0.168 HD
ENDBRANCH  81  83
ENDBRANCH  77  78
ENDBRANCH  71  77
ENDBRANCH  68  71
ENDBRANCH  66  67
ENDBRANCH  65  66
ENDBRANCH   1  65
TORSDOF 16
ENDMDL
MODEL 2
REMARK VINA RESULT:     -11.7      5.931     10.849
REMARK SMILES O=C(NCCCCCCNC(=O)C1(Cc2nc(-c3ncc[nH]3)no2)CCCCC1)c1ccc(-c2c3nc(c(-c4c(F)cccc4F)c4ccc([nH]4)c(-c4c(F)cccc4F)c4nc(c(-c5c(F)cccc5F)c5ccc2[nH]5)C=C4)C=C3)cc1
REMARK SMILES IDX 7 1 6 2 5 3 4 4 3 5 1 6 2 7 30 9 31 10 83 11 32 12 82 13
REMARK SMILES IDX 33 14 34 15 35 16 76 17 36 18 81 19 75 20 77 21 37 22 80 23
REMARK SMILES IDX 74 24 73 25 38 27 64 28 47 29 63 30 48 31 51 32 62 33 78 34
REMARK SMILES IDX 49 35 50 36 61 38 79 39 52 40 39 41 40 42 45 43 41 44 42 45
REMARK SMILES IDX 44 46 46 47 43 48 65 49 66 50 71 51 67 52 68 53 70 54 72 55
REMARK SMILES IDX 69 56 53 57 54 58 59 59 55 60 56 61 58 62 60 63 57 64 8 65
REMARK SMILES IDX 9 66 10 67 11 68 12 70 13 71 25 72 29 73 26 74 28 75 27 76
REMARK SMILES IDX 14 77 15 78 16 79 24 80 17 81 23 82 18 83 19 84 22 85 20 86
REMARK SMILES IDX 21 87
REMARK H PARENT 3 8 77 26 51 37 10 69 22 88
REMARK Flexibility Score: inf
ROOT
ATOM      1  C   UNL A   1      32.673  30.191  27.085  1.00  0.00     0.002 C 
ENDROOT
BRANCH   1   2
ATOM      2  C   UNL A   1      31.441  30.861  26.466  1.00  0.00     0.002 C 
BRANCH   2   3
ATOM      3  C   UNL A   1      31.391  32.383  26.627  1.00  0.00     0.021 C 
BRANCH   3   4
ATOM      4  C   UNL A   1      32.682  32.996  27.159  1.00  0.00     0.116 C 
BRANCH   4   5
ATOM      5  N   UNL A   1      32.460  34.338  27.671  1.00  0.00    -0.352 N 
ATOM      6  O   UNL A   1      32.577  36.000  29.195  1.00  0.00    -0.269 OA
ATOM      7  C   UNL A   1      33.052  34.959  28.735  1.00  0.00     0.251 C 
ATOM      8  H   UNL A   1      31.794  34.874  27.184  1.00  0.00     0.163 HD
BRANCH   7   9
ATOM      9  C   UNL A   1      34.263  34.377  29.341  1.00  0.00     0.039 A 
ATOM     10  C   UNL A   1      34.174  33.604  30.505  1.00  0.00     0.014 A 
ATOM     11  C   UNL A   1      35.498  34.582  28.722  1.00  0.00     0.014 A 
ATOM     12  C   UNL A   1      35.331  33.119  31.105  1.00  0.00     0.010 A 
ATOM     13  C   UNL A   1      36.649  34.037  29.287  1.00  0.00     0.010 A 
ATOM     14  C   UNL A   1      36.577  33.317  30.491  1.00  0.00    -0.014 A 
BRANCH  14  15
ATOM     15  C   UNL A   1      37.801  32.718  31.073  1.00  0.00     0.031 A 
ATOM     16  C   UNL A   1      38.439  31.517  30.441  1.00  0.00     0.074 A 
ATOM     17  C   UNL A   1      38.303  33.237  32.208  1.00  0.00     0.049 A 
ATOM     18  N   UNL A   1      39.438  30.791  30.871  1.00  0.00    -0.248 NA
ATOM     19  C   UNL A   1      37.870  31.065  29.162  1.00  0.00     0.031 C 
ATOM     20  C   UNL A   1      37.765  34.403  32.911  1.00  0.00     0.029 A 
ATOM     21  N   UNL A   1      39.364  32.840  32.981  1.00  0.00    -0.354 N 
ATOM     22  C   UNL A   1      39.602  29.780  29.933  1.00  0.00     0.074 A 
ATOM     23  C   UNL A   1      38.585  29.976  28.921  1.00  0.00     0.031 C 
ATOM     24  C   UNL A   1      38.496  34.627  34.012  1.00  0.00     0.029 A 
ATOM     25  C   UNL A   1      39.512  33.587  34.124  1.00  0.00     0.049 A 
ATOM     26  H   UNL A   1      39.959  32.093  32.740  1.00  0.00     0.167 HD
ATOM     27  C   UNL A   1      40.520  28.783  29.921  1.00  0.00     0.037 A 
ATOM     28  C   UNL A   1      40.347  33.429  35.167  1.00  0.00     0.037 A 
ATOM     29  C   UNL A   1      41.526  28.601  30.935  1.00  0.00     0.049 A 
ATOM     30  C   UNL A   1      41.326  32.293  35.156  1.00  0.00     0.074 A 
ATOM     31  C   UNL A   1      42.528  27.648  30.995  1.00  0.00     0.029 A 
ATOM     32  N   UNL A   1      41.649  29.382  32.076  1.00  0.00    -0.354 N 
ATOM     33  N   UNL A   1      41.499  31.365  34.246  1.00  0.00    -0.248 NA
ATOM     34  C   UNL A   1      42.225  32.179  36.311  1.00  0.00     0.031 C 
ATOM     35  C   UNL A   1      43.221  27.818  32.199  1.00  0.00     0.029 A 
ATOM     36  C   UNL A   1      42.691  28.915  32.860  1.00  0.00     0.049 A 
ATOM     37  H   UNL A   1      41.079  30.155  32.296  1.00  0.00     0.167 HD
ATOM     38  C   UNL A   1      42.545  30.574  34.703  1.00  0.00     0.074 A 
ATOM     39  C   UNL A   1      42.967  31.132  35.972  1.00  0.00     0.031 C 
ATOM     40  C   UNL A   1      43.107  29.489  34.117  1.00  0.00     0.037 A 
BRANCH  27  41
ATOM     41  C   UNL A   1      40.448  27.793  28.793  1.00  0.00     0.057 A 
ATOM     42  C   UNL A   1      41.190  27.948  27.614  1.00  0.00     0.134 A 
ATOM     43  C   UNL A   1      39.630  26.660  28.893  1.00  0.00     0.134 A 
ATOM     44  F   UNL A   1      41.987  29.015  27.447  1.00  0.00    -0.206 F 
ATOM     45  C   UNL A   1      41.092  27.034  26.564  1.00  0.00     0.040 A 
ATOM     46  C   UNL A   1      39.546  25.724  27.861  1.00  0.00     0.040 A 
ATOM     47  F   UNL A   1      38.899  26.442  29.997  1.00  0.00    -0.206 F 
ATOM     48  C   UNL A   1      40.270  25.915  26.687  1.00  0.00     0.006 A 
ENDBRANCH  27  41
BRANCH  28  49
ATOM     49  C   UNL A   1      40.266  34.374  36.307  1.00  0.00     0.057 A 
ATOM     50  C   UNL A   1      40.997  35.566  36.310  1.00  0.00     0.134 A 
ATOM     51  C   UNL A   1      39.410  34.136  37.390  1.00  0.00     0.134 A 
ATOM     52  F   UNL A   1      41.842  35.843  35.306  1.00  0.00    -0.206 F 
ATOM     53  C   UNL A   1      40.882  36.488  37.351  1.00  0.00     0.040 A 
ATOM     54  C   UNL A   1      39.266  35.060  38.424  1.00  0.00     0.040 A 
ATOM     55  F   UNL A   1      38.673  33.016  37.437  1.00  0.00    -0.206 F 
ATOM     56  C   UNL A   1      40.006  36.241  38.407  1.00  0.00     0.006 A 
ENDBRANCH  28  49
BRANCH  40  57
ATOM     57  C   UNL A   1      44.276  28.856  34.812  1.00  0.00     0.057 A 
ATOM     58  C   UNL A   1      45.591  29.280  34.589  1.00  0.00     0.134 A 
ATOM     59  C   UNL A   1      44.071  27.856  35.772  1.00  0.00     0.134 A 
ATOM     60  F   UNL A   1      45.856  30.224  33.673  1.00  0.00    -0.206 F 
ATOM     61  C   UNL A   1      46.663  28.727  35.292  1.00  0.00     0.040 A 
ATOM     62  C   UNL A   1      45.131  27.314  36.498  1.00  0.00     0.040 A 
ATOM     63  F   UNL A   1      42.834  27.410  36.036  1.00  0.00    -0.206 F 
ATOM     64  C   UNL A   1      46.432  27.749  36.258  1.00  0.00     0.006 A 
ENDBRANCH  40  57
ENDBRANCH  14  15
ENDBRANCH   7   9
ENDBRANCH   4   5
ENDBRANCH   3   4
ENDBRANCH   2   3
ENDBRANCH   1   2
BRANCH   1  65
ATOM     65  C   UNL A   1      32.546  28.678  27.277  1.00  0.00     0.021 C 
BRANCH  65  66
ATOM     66  C   UNL A   1      33.654  27.875  26.600  1.00  0.00     0.116 C 
BRANCH  66  67
ATOM     67  N   UNL A   1      34.028  28.460  25.329  1.00  0.00    -0.356 N 
ATOM     68  C   UNL A   1      33.869  28.057  24.041  1.00  0.00     0.226 C 
ATOM     69  H   UNL A   1      34.490  29.325  25.414  1.00  0.00     0.163 HD
ATOM     70  O   UNL A   1      34.404  28.765  23.182  1.00  0.00    -0.274 OA
BRANCH  68  71
ATOM     71  C   UNL A   1      33.027  26.819  23.647  1.00  0.00     0.058 C 
ATOM     72  C   UNL A   1      33.018  26.710  22.097  1.00  0.00     0.017 C 
ATOM     73  C   UNL A   1      33.769  25.547  24.174  1.00  0.00     0.017 C 
ATOM     74  C   UNL A   1      32.427  25.404  21.569  1.00  0.00     0.001 C 
ATOM     75  C   UNL A   1      33.166  24.234  23.681  1.00  0.00     0.001 C 
ATOM     76  C   UNL A   1      33.118  24.183  22.160  1.00  0.00     0.000 C 
BRANCH  71  77
ATOM     77  C   UNL A   1      31.596  26.888  24.250  1.00  0.00     0.117 C 
BRANCH  77  78
ATOM     78  C   UNL A   1      30.715  27.849  23.534  1.00  0.00     0.228 A 
ATOM     79  N   UNL A   1      30.793  29.155  23.468  1.00  0.00    -0.188 NA
ATOM     80  O   UNL A   1      29.621  27.337  22.900  1.00  0.00    -0.339 OA
ATOM     81  C   UNL A   1      29.619  29.485  22.839  1.00  0.00     0.238 A 
ATOM     82  N   UNL A   1      28.882  28.432  22.448  1.00  0.00    -0.054 NA
BRANCH  81  83
ATOM     83  C   UNL A   1      29.150  30.890  22.651  1.00  0.00     0.179 A 
ATOM     84  N   UNL A   1      28.531  31.381  21.594  1.00  0.00    -0.234 NA
ATOM     85  N   UNL A   1      29.363  31.874  23.584  1.00  0.00    -0.342 N 
ATOM     86  C   UNL A   1      28.358  32.718  21.854  1.00  0.00     0.131 A 
ATOM     87  C   UNL A   1      28.883  33.049  23.080  1.00  0.00     0.104 A 
ATOM     88  H   UNL A   1      29.788  31.753  24.465  1.00  0.00     0.168 HD
ENDBRANCH  81  83
ENDBRANCH  77  78
ENDBRANCH  71  77
ENDBRANCH  68  71
ENDBRANCH  66  67
ENDBRANCH  65  66
ENDBRANCH   1  65
TORSDOF 16
ENDMDL
MODEL 3
REMARK VINA RESULT:     -11.5      4.553      9.309
REMARK SMILES O=C(NCCCCCCNC(=O)C1(Cc2nc(-c3ncc[nH]3)no2)CCCCC1)c1ccc(-c2c3nc(c(-c4c(F)cccc4F)c4ccc([nH]4)c(-c4c(F)cccc4F)c4nc(c(-c5c(F)cccc5F)c5ccc2[nH]5)C=C4)C=C3)cc1
REMARK SMILES IDX 7 1 6 2 5 3 4 4 3 5 1 6 2 7 30 9 31 10 83 11 32 12 82 13
REMARK SMILES IDX 33 14 34 15 35 16 76 17 36 18 81 19 75 20 77 21 37 22 80 23
REMARK SMILES IDX 74 24 73 25 38 27 64 28 47 29 63 30 48 31 51 32 62 33 78 34
REMARK SMILES IDX 49 35 50 36 61 38 79 39 52 40 39 41 40 42 45 43 41 44 42 45
REMARK SMILES IDX 44 46 46 47 43 48 65 49 66 50 71 51 67 52 68 53 70 54 72 55
REMARK SMILES IDX 69 56 53 57 54 58 59 59 55 60 56 61 58 62 60 63 57 64 8 65
REMARK SMILES IDX 9 66 10 67 11 68 12 70 13 71 25 72 29 73 26 74 28 75 27 76
REMARK SMILES IDX 14 77 15 78 16 79 24 80 17 81 23 82 18 83 19 84 22 85 20 86
REMARK SMILES IDX 21 87
REMARK H PARENT 3 8 77 26 51 37 10 69 22 88
REMARK Flexibility Score: inf
ROOT
ATOM      1  C   UNL A   1      30.466  29.610  24.242  1.00  0.00     0.002 C 
ENDROOT
BRANCH   1   2
ATOM      2  C   UNL A   1      31.515  30.042  25.273  1.00  0.00     0.002 C 
BRANCH   2   3
ATOM      3  C   UNL A   1      31.189  31.343  26.011  1.00  0.00     0.021 C 
BRANCH   3   4
ATOM      4  C   UNL A   1      32.291  31.818  26.952  1.00  0.00     0.116 C 
BRANCH   4   5
ATOM      5  N   UNL A   1      32.154  33.232  27.259  1.00  0.00    -0.352 N 
ATOM      6  O   UNL A   1      32.517  35.122  28.441  1.00  0.00    -0.269 OA
ATOM      7  C   UNL A   1      32.912  34.007  28.091  1.00  0.00     0.251 C 
ATOM      8  H   UNL A   1      31.413  33.696  26.804  1.00  0.00     0.163 HD
BRANCH   7   9
ATOM      9  C   UNL A   1      34.210  33.504  28.579  1.00  0.00     0.039 A 
ATOM     10  C   UNL A   1      35.401  33.886  27.952  1.00  0.00     0.014 A 
ATOM     11  C   UNL A   1      34.235  32.665  29.694  1.00  0.00     0.014 A 
ATOM     12  C   UNL A   1      36.611  33.349  28.378  1.00  0.00     0.010 A 
ATOM     13  C   UNL A   1      35.455  32.182  30.163  1.00  0.00     0.010 A 
ATOM     14  C   UNL A   1      36.650  32.507  29.499  1.00  0.00    -0.014 A 
BRANCH  14  15
ATOM     15  C   UNL A   1      37.946  32.011  30.018  1.00  0.00     0.031 A 
ATOM     16  C   UNL A   1      38.561  30.759  29.467  1.00  0.00     0.074 A 
ATOM     17  C   UNL A   1      38.539  32.672  31.030  1.00  0.00     0.049 A 
ATOM     18  N   UNL A   1      39.623  30.113  29.873  1.00  0.00    -0.248 NA
ATOM     19  C   UNL A   1      37.886  30.147  28.313  1.00  0.00     0.031 C 
ATOM     20  C   UNL A   1      38.031  33.899  31.645  1.00  0.00     0.029 A 
ATOM     21  N   UNL A   1      39.683  32.393  31.731  1.00  0.00    -0.354 N 
ATOM     22  C   UNL A   1      39.730  29.004  29.045  1.00  0.00     0.074 A 
ATOM     23  C   UNL A   1      38.612  29.055  28.127  1.00  0.00     0.031 C 
ATOM     24  C   UNL A   1      38.858  34.269  32.634  1.00  0.00     0.029 A 
ATOM     25  C   UNL A   1      39.917  33.273  32.760  1.00  0.00     0.049 A 
ATOM     26  H   UNL A   1      40.278  31.639  31.518  1.00  0.00     0.167 HD
ATOM     27  C   UNL A   1      40.678  28.035  29.054  1.00  0.00     0.037 A 
ATOM     28  C   UNL A   1      40.854  33.259  33.724  1.00  0.00     0.037 A 
ATOM     29  C   UNL A   1      41.784  27.997  29.975  1.00  0.00     0.049 A 
ATOM     30  C   UNL A   1      41.868  32.153  33.744  1.00  0.00     0.074 A 
ATOM     31  C   UNL A   1      42.821  27.082  30.042  1.00  0.00     0.029 A 
ATOM     32  N   UNL A   1      41.991  28.909  31.001  1.00  0.00    -0.354 N 
ATOM     33  N   UNL A   1      41.984  31.129  32.933  1.00  0.00    -0.248 NA
ATOM     34  C   UNL A   1      42.880  32.198  34.806  1.00  0.00     0.031 C 
ATOM     35  C   UNL A   1      43.621  27.409  31.142  1.00  0.00     0.029 A 
ATOM     36  C   UNL A   1      43.121  28.563  31.723  1.00  0.00     0.049 A 
ATOM     37  H   UNL A   1      41.418  29.689  31.187  1.00  0.00     0.167 HD
ATOM     38  C   UNL A   1      43.097  30.423  33.369  1.00  0.00     0.074 A 
ATOM     39  C   UNL A   1      43.621  31.136  34.516  1.00  0.00     0.031 C 
ATOM     40  C   UNL A   1      43.637  29.290  32.857  1.00  0.00     0.037 A 
BRANCH  27  41
ATOM     41  C   UNL A   1      40.530  26.917  28.061  1.00  0.00     0.057 A 
ATOM     42  C   UNL A   1      41.202  26.917  26.831  1.00  0.00     0.134 A 
ATOM     43  C   UNL A   1      39.709  25.817  28.344  1.00  0.00     0.134 A 
ATOM     44  F   UNL A   1      41.997  27.944  26.490  1.00  0.00    -0.206 F 
ATOM     45  C   UNL A   1      41.035  25.885  25.906  1.00  0.00     0.040 A 
ATOM     46  C   UNL A   1      39.557  24.765  27.440  1.00  0.00     0.040 A 
ATOM     47  F   UNL A   1      39.043  25.746  29.507  1.00  0.00    -0.206 F 
ATOM     48  C   UNL A   1      40.211  24.802  26.211  1.00  0.00     0.006 A 
ENDBRANCH  27  41
BRANCH  28  49
ATOM     49  C   UNL A   1      40.852  34.330  34.750  1.00  0.00     0.057 A 
ATOM     50  C   UNL A   1      41.486  35.554  34.517  1.00  0.00     0.134 A 
ATOM     51  C   UNL A   1      40.166  34.174  35.961  1.00  0.00     0.134 A 
ATOM     52  F   UNL A   1      42.168  35.757  33.381  1.00  0.00    -0.206 F 
ATOM     53  C   UNL A   1      41.438  36.588  35.454  1.00  0.00     0.040 A 
ATOM     54  C   UNL A   1      40.089  35.207  36.895  1.00  0.00     0.040 A 
ATOM     55  F   UNL A   1      39.528  33.027  36.236  1.00  0.00    -0.206 F 
ATOM     56  C   UNL A   1      40.730  36.419  36.643  1.00  0.00     0.006 A 
ENDBRANCH  28  49
BRANCH  40  57
ATOM     57  C   UNL A   1      44.891  28.772  33.497  1.00  0.00     0.057 A 
ATOM     58  C   UNL A   1      44.865  27.799  34.503  1.00  0.00     0.134 A 
ATOM     59  C   UNL A   1      46.145  29.205  33.046  1.00  0.00     0.134 A 
ATOM     60  F   UNL A   1      43.696  27.353  34.989  1.00  0.00    -0.206 F 
ATOM     61  C   UNL A   1      46.043  27.279  35.042  1.00  0.00     0.040 A 
ATOM     62  C   UNL A   1      47.328  28.675  33.560  1.00  0.00     0.040 A 
ATOM     63  F   UNL A   1      46.238  30.132  32.080  1.00  0.00    -0.206 F 
ATOM     64  C   UNL A   1      47.279  27.709  34.562  1.00  0.00     0.006 A 
ENDBRANCH  40  57
ENDBRANCH  14  15
ENDBRANCH   7   9
ENDBRANCH   4   5
ENDBRANCH   3   4
ENDBRANCH   2   3
ENDBRANCH   1   2
BRANCH   1  65
ATOM     65  C   UNL A   1      31.042  29.168  22.894  1.00  0.00     0.021 C 
BRANCH  65  66
ATOM     66  C   UNL A   1      30.665  27.741  22.502  1.00  0.00     0.116 C 
BRANCH  66  67
ATOM     67  N   UNL A   1      31.726  27.102  21.751  1.00  0.00    -0.356 N 
ATOM     68  C   UNL A   1      32.835  26.410  22.122  1.00  0.00     0.226 C 
ATOM     69  H   UNL A   1      31.624  27.184  20.776  1.00  0.00     0.163 HD
ATOM     70  O   UNL A   1      33.596  26.077  21.207  1.00  0.00    -0.274 OA
BRANCH  68  71
ATOM     71  C   UNL A   1      33.121  26.005  23.588  1.00  0.00     0.058 C 
ATOM     72  C   UNL A   1      33.644  27.256  24.346  1.00  0.00     0.017 C 
ATOM     73  C   UNL A   1      31.758  25.624  24.254  1.00  0.00     0.017 C 
ATOM     74  C   UNL A   1      33.742  27.071  25.859  1.00  0.00     0.001 C 
ATOM     75  C   UNL A   1      31.850  25.401  25.762  1.00  0.00     0.001 C 
ATOM     76  C   UNL A   1      32.421  26.624  26.468  1.00  0.00     0.000 C 
BRANCH  71  77
ATOM     77  C   UNL A   1      34.105  24.803  23.667  1.00  0.00     0.117 C 
BRANCH  77  78
ATOM     78  C   UNL A   1      33.417  23.489  23.561  1.00  0.00     0.228 A 
ATOM     79  N   UNL A   1      33.361  22.509  24.428  1.00  0.00    -0.188 NA
ATOM     80  O   UNL A   1      32.802  23.202  22.378  1.00  0.00    -0.339 OA
ATOM     81  C   UNL A   1      32.761  21.511  23.703  1.00  0.00     0.238 A 
ATOM     82  N   UNL A   1      32.376  21.876  22.468  1.00  0.00    -0.054 NA
BRANCH  81  83
ATOM     83  C   UNL A   1      32.596  20.114  24.201  1.00  0.00     0.179 A 
ATOM     84  N   UNL A   1      32.628  19.714  25.459  1.00  0.00    -0.234 NA
ATOM     85  N   UNL A   1      32.426  19.042  23.360  1.00  0.00    -0.342 N 
ATOM     86  C   UNL A   1      32.492  18.349  25.417  1.00  0.00     0.131 A 
ATOM     87  C   UNL A   1      32.381  17.908  24.121  1.00  0.00     0.104 A 
ATOM     88  H   UNL A   1      32.350  19.083  22.379  1.00  0.00     0.168 HD
ENDBRANCH  81  83
ENDBRANCH  77  78
ENDBRANCH  71  77
ENDBRANCH  68  71
ENDBRANCH  66  67
ENDBRANCH  65  66
ENDBRANCH   1  65
TORSDOF 16
ENDMDL
