MODEL 1
REMARK VINA RESULT:     -11.0      0.000      0.000
REMARK SMILES C[C@@H]1C[C@@H](C)CN(C(=O)CSc2csc(C(=O)NCCCCCCNC(=O)c3ccc(-c4c5nc(c(-c6c(F)cccc6F)c6ccc([nH]6)c(-c6c(F)cccc6F)c6nc(c(-c7c(F)cccc7F)c7ccc4[nH]7)C=C6)C=C5)cc3)c2)C1
REMARK SMILES IDX 21 1 20 2 19 3 18 4 16 5 17 6 15 8 12 9 13 10 82 11 14 12
REMARK SMILES IDX 11 13 10 14 8 15 1 16 2 17 3 18 83 19 4 20 7 21 6 22 5 23
REMARK SMILES IDX 9 24 22 25 23 26 24 27 25 28 26 29 27 31 28 32 29 33 81 34
REMARK SMILES IDX 30 35 80 36 31 37 32 38 33 39 74 40 34 41 79 42 73 43 75 44
REMARK SMILES IDX 35 45 78 46 72 47 71 48 36 50 62 51 45 52 61 53 46 54 49 55
REMARK SMILES IDX 60 56 76 57 47 58 48 59 59 61 77 62 50 63 37 64 38 65 43 66
REMARK SMILES IDX 39 67 40 68 42 69 44 70 41 71 63 72 64 73 69 74 65 75 66 76
REMARK SMILES IDX 68 77 70 78 67 79 51 80 52 81 57 82 53 83 54 84 56 85 58 86
REMARK SMILES IDX 55 87
REMARK H PARENT 18 7 25 30 75 49 49 60
REMARK Flexibility Score: inf
ROOT
ATOM      1  C   UNL A   1      37.697  21.994  25.039  1.00  0.00     0.002 C 
ENDROOT
BRANCH   1   2
ATOM      2  C   UNL A   1      36.731  23.119  24.640  1.00  0.00     0.021 C 
BRANCH   2   3
ATOM      3  C   UNL A   1      36.111  23.827  25.846  1.00  0.00     0.116 C 
BRANCH   3   4
ATOM      4  N   UNL A   1      35.499  22.869  26.742  1.00  0.00    -0.351 N 
ATOM      5  C   UNL A   1      34.277  22.239  26.737  1.00  0.00     0.261 C 
ATOM      6  O   UNL A   1      34.095  21.452  27.671  1.00  0.00    -0.268 OA
ATOM      7  H   UNL A   1      36.070  22.620  27.506  1.00  0.00     0.163 HD
BRANCH   5   8
ATOM      8  C   UNL A   1      33.303  22.462  25.675  1.00  0.00     0.093 A 
ATOM      9  C   UNL A   1      31.744  23.368  24.177  1.00  0.00     0.019 A 
ATOM     10  C   UNL A   1      32.026  22.167  23.570  1.00  0.00     0.080 A 
ATOM     11  C   UNL A   1      32.415  23.493  25.423  1.00  0.00     0.040 A 
ATOM     12  S   UNL A   1      33.141  21.240  24.468  1.00  0.00    -0.137 S 
BRANCH   9  13
ATOM     13  S   UNL A   1      30.702  24.563  23.426  1.00  0.00    -0.115 SA
BRANCH  13  14
ATOM     14  C   UNL A   1      31.701  25.389  22.160  1.00  0.00     0.175 C 
BRANCH  14  15
ATOM     15  C   UNL A   1      32.940  26.087  22.700  1.00  0.00     0.232 C 
ATOM     16  C   UNL A   1      33.463  27.530  25.991  1.00  0.00     0.009 C 
ATOM     17  C   UNL A   1      33.635  28.652  24.962  1.00  0.00     0.006 C 
ATOM     18  C   UNL A   1      32.362  29.519  24.849  1.00  0.00     0.010 C 
ATOM     19  C   UNL A   1      34.049  28.095  23.588  1.00  0.00     0.122 C 
ATOM     20  C   UNL A   1      31.239  28.832  24.048  1.00  0.00     0.006 C 
ATOM     21  N   UNL A   1      32.916  27.455  22.924  1.00  0.00    -0.341 N 
ATOM     22  C   UNL A   1      31.781  28.345  22.698  1.00  0.00     0.122 C 
ATOM     23  C   UNL A   1      30.041  29.754  23.851  1.00  0.00     0.009 C 
ATOM     24  O   UNL A   1      33.964  25.419  22.890  1.00  0.00    -0.274 OA
ENDBRANCH  14  15
ENDBRANCH  13  14
ENDBRANCH   9  13
ENDBRANCH   5   8
ENDBRANCH   3   4
ENDBRANCH   2   3
ENDBRANCH   1   2
BRANCH   1  25
ATOM     25  C   UNL A   1      37.268  20.589  24.592  1.00  0.00     0.002 C 
BRANCH  25  26
ATOM     26  C   UNL A   1      38.257  19.470  24.933  1.00  0.00     0.021 C 
BRANCH  26  27
ATOM     27  C   UNL A   1      39.258  19.829  26.026  1.00  0.00     0.116 C 
BRANCH  27  28
ATOM     28  N   UNL A   1      40.456  19.007  25.945  1.00  0.00    -0.352 N 
ATOM     29  C   UNL A   1      41.775  19.377  26.012  1.00  0.00     0.251 C 
ATOM     30  H   UNL A   1      40.296  18.044  25.826  1.00  0.00     0.163 HD
ATOM     31  O   UNL A   1      42.655  18.581  25.699  1.00  0.00    -0.269 OA
BRANCH  29  32
ATOM     32  C   UNL A   1      42.141  20.738  26.456  1.00  0.00     0.039 A 
ATOM     33  C   UNL A   1      42.192  21.011  27.825  1.00  0.00     0.014 A 
ATOM     34  C   UNL A   1      42.397  21.751  25.526  1.00  0.00     0.014 A 
ATOM     35  C   UNL A   1      42.545  22.289  28.264  1.00  0.00     0.010 A 
ATOM     36  C   UNL A   1      42.813  23.004  25.965  1.00  0.00     0.010 A 
ATOM     37  C   UNL A   1      42.881  23.288  27.337  1.00  0.00    -0.014 A 
BRANCH  37  38
ATOM     38  C   UNL A   1      43.293  24.642  27.784  1.00  0.00     0.031 A 
ATOM     39  C   UNL A   1      42.254  25.677  28.114  1.00  0.00     0.074 A 
ATOM     40  C   UNL A   1      44.601  24.957  27.832  1.00  0.00     0.049 A 
ATOM     41  N   UNL A   1      42.415  26.928  28.461  1.00  0.00    -0.248 NA
ATOM     42  C   UNL A   1      40.848  25.258  28.010  1.00  0.00     0.031 C 
ATOM     43  C   UNL A   1      45.702  24.055  27.488  1.00  0.00     0.029 A 
ATOM     44  N   UNL A   1      45.225  26.129  28.178  1.00  0.00    -0.354 N 
ATOM     45  C   UNL A   1      41.135  27.449  28.600  1.00  0.00     0.074 A 
ATOM     46  C   UNL A   1      40.209  26.393  28.251  1.00  0.00     0.031 C 
ATOM     47  C   UNL A   1      46.866  24.700  27.659  1.00  0.00     0.029 A 
ATOM     48  C   UNL A   1      46.594  26.068  28.092  1.00  0.00     0.049 A 
ATOM     49  H   UNL A   1      44.738  26.936  28.461  1.00  0.00     0.167 HD
ATOM     50  C   UNL A   1      40.763  28.687  29.003  1.00  0.00     0.037 A 
ATOM     51  C   UNL A   1      47.526  27.010  28.333  1.00  0.00     0.037 A 
ATOM     52  C   UNL A   1      41.687  29.727  29.377  1.00  0.00     0.049 A 
ATOM     53  C   UNL A   1      47.090  28.373  28.792  1.00  0.00     0.074 A 
ATOM     54  C   UNL A   1      41.411  30.992  29.863  1.00  0.00     0.029 A 
ATOM     55  N   UNL A   1      43.068  29.618  29.302  1.00  0.00    -0.354 N 
ATOM     56  N   UNL A   1      45.878  28.831  28.986  1.00  0.00    -0.248 NA
ATOM     57  C   UNL A   1      48.154  29.347  29.071  1.00  0.00     0.031 C 
ATOM     58  C   UNL A   1      42.625  31.665  30.045  1.00  0.00     0.029 A 
ATOM     59  C   UNL A   1      43.658  30.803  29.714  1.00  0.00     0.049 A 
ATOM     60  H   UNL A   1      43.557  28.819  29.000  1.00  0.00     0.167 HD
ATOM     61  C   UNL A   1      46.031  30.135  29.435  1.00  0.00     0.074 A 
ATOM     62  C   UNL A   1      47.456  30.392  29.495  1.00  0.00     0.031 C 
ATOM     63  C   UNL A   1      45.078  31.040  29.768  1.00  0.00     0.037 A 
BRANCH  50  64
ATOM     64  C   UNL A   1      39.292  28.983  29.058  1.00  0.00     0.057 A 
ATOM     65  C   UNL A   1      38.586  29.431  27.933  1.00  0.00     0.134 A 
ATOM     66  C   UNL A   1      38.570  28.800  30.243  1.00  0.00     0.134 A 
ATOM     67  F   UNL A   1      39.221  29.639  26.770  1.00  0.00    -0.206 F 
ATOM     68  C   UNL A   1      37.222  29.718  27.995  1.00  0.00     0.040 A 
ATOM     69  C   UNL A   1      37.199  29.057  30.309  1.00  0.00     0.040 A 
ATOM     70  F   UNL A   1      39.181  28.367  31.355  1.00  0.00    -0.206 F 
ATOM     71  C   UNL A   1      36.523  29.526  29.184  1.00  0.00     0.006 A 
ENDBRANCH  50  64
BRANCH  51  72
ATOM     72  C   UNL A   1      48.963  26.681  28.175  1.00  0.00     0.057 A 
ATOM     73  C   UNL A   1      49.609  26.849  26.945  1.00  0.00     0.134 A 
ATOM     74  C   UNL A   1      49.727  26.203  29.246  1.00  0.00     0.134 A 
ATOM     75  F   UNL A   1      48.925  27.288  25.878  1.00  0.00    -0.206 F 
ATOM     76  C   UNL A   1      50.961  26.543  26.781  1.00  0.00     0.040 A 
ATOM     77  C   UNL A   1      51.085  25.914  29.103  1.00  0.00     0.040 A 
ATOM     78  F   UNL A   1      49.168  26.028  30.453  1.00  0.00    -0.206 F 
ATOM     79  C   UNL A   1      51.704  26.078  27.865  1.00  0.00     0.006 A 
ENDBRANCH  51  72
BRANCH  63  80
ATOM     80  C   UNL A   1      45.546  32.381  30.254  1.00  0.00     0.057 A 
ATOM     81  C   UNL A   1      45.728  33.460  29.381  1.00  0.00     0.134 A 
ATOM     82  C   UNL A   1      45.782  32.601  31.617  1.00  0.00     0.134 A 
ATOM     83  F   UNL A   1      45.532  33.310  28.063  1.00  0.00    -0.206 F 
ATOM     84  C   UNL A   1      46.150  34.708  29.846  1.00  0.00     0.040 A 
ATOM     85  C   UNL A   1      46.179  33.850  32.096  1.00  0.00     0.040 A 
ATOM     86  F   UNL A   1      45.618  31.609  32.506  1.00  0.00    -0.206 F 
ATOM     87  C   UNL A   1      46.370  34.906  31.208  1.00  0.00     0.006 A 
ENDBRANCH  63  80
ENDBRANCH  37  38
ENDBRANCH  29  32
ENDBRANCH  27  28
ENDBRANCH  26  27
ENDBRANCH  25  26
ENDBRANCH   1  25
TORSDOF 16
ENDMDL
MODEL 2
REMARK VINA RESULT:     -10.9      1.244      6.221
REMARK SMILES C[C@@H]1C[C@@H](C)CN(C(=O)CSc2csc(C(=O)NCCCCCCNC(=O)c3ccc(-c4c5nc(c(-c6c(F)cccc6F)c6ccc([nH]6)c(-c6c(F)cccc6F)c6nc(c(-c7c(F)cccc7F)c7ccc4[nH]7)C=C6)C=C5)cc3)c2)C1
REMARK SMILES IDX 21 1 20 2 19 3 18 4 16 5 17 6 15 8 12 9 13 10 82 11 14 12
REMARK SMILES IDX 11 13 10 14 8 15 1 16 2 17 3 18 83 19 4 20 7 21 6 22 5 23
REMARK SMILES IDX 9 24 22 25 23 26 24 27 25 28 26 29 27 31 28 32 29 33 81 34
REMARK SMILES IDX 30 35 80 36 31 37 32 38 33 39 74 40 34 41 79 42 73 43 75 44
REMARK SMILES IDX 35 45 78 46 72 47 71 48 36 50 62 51 45 52 61 53 46 54 49 55
REMARK SMILES IDX 60 56 76 57 47 58 48 59 59 61 77 62 50 63 37 64 38 65 43 66
REMARK SMILES IDX 39 67 40 68 42 69 44 70 41 71 63 72 64 73 69 74 65 75 66 76
REMARK SMILES IDX 68 77 70 78 67 79 51 80 52 81 57 82 53 83 54 84 56 85 58 86
REMARK SMILES IDX 55 87
REMARK H PARENT 18 7 25 30 75 49 49 60
REMARK Flexibility Score: inf
ROOT
ATOM      1  C   UNL A   1      37.111  21.871  25.297  1.00  0.00     0.002 C 
ENDROOT
BRANCH   1   2
ATOM      2  C   UNL A   1      35.701  22.436  25.522  1.00  0.00     0.021 C 
BRANCH   2   3
ATOM      3  C   UNL A   1      34.953  21.737  26.657  1.00  0.00     0.116 C 
BRANCH   3   4
ATOM      4  N   UNL A   1      34.032  20.751  26.131  1.00  0.00    -0.351 N 
ATOM      5  C   UNL A   1      32.797  20.856  25.535  1.00  0.00     0.261 C 
ATOM      6  O   UNL A   1      32.295  19.784  25.186  1.00  0.00    -0.268 OA
ATOM      7  H   UNL A   1      34.352  19.824  26.217  1.00  0.00     0.163 HD
BRANCH   5   8
ATOM      8  C   UNL A   1      32.166  22.150  25.301  1.00  0.00     0.093 A 
ATOM      9  C   UNL A   1      31.212  24.075  24.363  1.00  0.00     0.019 A 
ATOM     10  C   UNL A   1      30.838  24.210  25.679  1.00  0.00     0.080 A 
ATOM     11  C   UNL A   1      32.042  22.939  24.171  1.00  0.00     0.040 A 
ATOM     12  S   UNL A   1      31.429  22.937  26.648  1.00  0.00    -0.137 S 
BRANCH   9  13
ATOM     13  S   UNL A   1      30.662  25.191  23.126  1.00  0.00    -0.115 SA
BRANCH  13  14
ATOM     14  C   UNL A   1      32.154  25.887  22.368  1.00  0.00     0.175 C 
BRANCH  14  15
ATOM     15  C   UNL A   1      33.111  26.538  23.355  1.00  0.00     0.232 C 
ATOM     16  C   UNL A   1      32.433  27.678  26.736  1.00  0.00     0.009 C 
ATOM     17  C   UNL A   1      32.906  28.890  25.926  1.00  0.00     0.006 C 
ATOM     18  C   UNL A   1      31.719  29.758  25.458  1.00  0.00     0.010 C 
ATOM     19  C   UNL A   1      33.782  28.460  24.734  1.00  0.00     0.122 C 
ATOM     20  C   UNL A   1      30.960  29.143  24.266  1.00  0.00     0.006 C 
ATOM     21  N   UNL A   1      32.965  27.880  23.672  1.00  0.00    -0.341 N 
ATOM     22  C   UNL A   1      31.944  28.783  23.146  1.00  0.00     0.122 C 
ATOM     23  C   UNL A   1      29.868  30.075  23.750  1.00  0.00     0.009 C 
ATOM     24  O   UNL A   1      34.031  25.859  23.827  1.00  0.00    -0.274 OA
ENDBRANCH  14  15
ENDBRANCH  13  14
ENDBRANCH   9  13
ENDBRANCH   5   8
ENDBRANCH   3   4
ENDBRANCH   2   3
ENDBRANCH   1   2
BRANCH   1  25
ATOM     25  C   UNL A   1      37.166  20.604  24.432  1.00  0.00     0.002 C 
BRANCH  25  26
ATOM     26  C   UNL A   1      38.062  19.487  24.975  1.00  0.00     0.021 C 
BRANCH  26  27
ATOM     27  C   UNL A   1      39.114  19.955  25.974  1.00  0.00     0.116 C 
BRANCH  27  28
ATOM     28  N   UNL A   1      40.340  19.180  25.863  1.00  0.00    -0.352 N 
ATOM     29  C   UNL A   1      41.645  19.585  25.982  1.00  0.00     0.251 C 
ATOM     30  H   UNL A   1      40.215  18.221  25.675  1.00  0.00     0.163 HD
ATOM     31  O   UNL A   1      42.557  18.841  25.634  1.00  0.00    -0.269 OA
BRANCH  29  32
ATOM     32  C   UNL A   1      41.957  20.925  26.523  1.00  0.00     0.039 A 
ATOM     33  C   UNL A   1      42.304  21.948  25.637  1.00  0.00     0.014 A 
ATOM     34  C   UNL A   1      41.943  21.162  27.901  1.00  0.00     0.014 A 
ATOM     35  C   UNL A   1      42.593  23.222  26.129  1.00  0.00     0.010 A 
ATOM     36  C   UNL A   1      42.166  22.448  28.385  1.00  0.00     0.010 A 
ATOM     37  C   UNL A   1      42.502  23.487  27.505  1.00  0.00    -0.014 A 
BRANCH  37  38
ATOM     38  C   UNL A   1      42.771  24.844  28.044  1.00  0.00     0.031 A 
ATOM     39  C   UNL A   1      44.159  25.222  28.480  1.00  0.00     0.074 A 
ATOM     40  C   UNL A   1      41.753  25.710  28.198  1.00  0.00     0.049 A 
ATOM     41  N   UNL A   1      44.579  26.332  29.030  1.00  0.00    -0.248 NA
ATOM     42  C   UNL A   1      45.208  24.206  28.301  1.00  0.00     0.031 C 
ATOM     43  C   UNL A   1      40.354  25.443  27.859  1.00  0.00     0.029 A 
ATOM     44  N   UNL A   1      41.737  26.990  28.693  1.00  0.00    -0.354 N 
ATOM     45  C   UNL A   1      45.931  26.143  29.278  1.00  0.00     0.074 A 
ATOM     46  C   UNL A   1      46.252  24.794  28.865  1.00  0.00     0.031 C 
ATOM     47  C   UNL A   1      39.620  26.531  28.137  1.00  0.00     0.029 A 
ATOM     48  C   UNL A   1      40.488  27.560  28.703  1.00  0.00     0.049 A 
ATOM     49  H   UNL A   1      42.545  27.456  29.010  1.00  0.00     0.167 HD
ATOM     50  C   UNL A   1      46.831  27.020  29.784  1.00  0.00     0.037 A 
ATOM     51  C   UNL A   1      40.087  28.774  29.124  1.00  0.00     0.037 A 
ATOM     52  C   UNL A   1      46.514  28.371  30.168  1.00  0.00     0.049 A 
ATOM     53  C   UNL A   1      41.105  29.736  29.670  1.00  0.00     0.074 A 
ATOM     54  C   UNL A   1      47.366  29.360  30.627  1.00  0.00     0.029 A 
ATOM     55  N   UNL A   1      45.241  28.920  30.139  1.00  0.00    -0.354 N 
ATOM     56  N   UNL A   1      42.395  29.568  29.834  1.00  0.00    -0.248 NA
ATOM     57  C   UNL A   1      40.612  31.058  30.082  1.00  0.00     0.031 C 
ATOM     58  C   UNL A   1      46.602  30.497  30.915  1.00  0.00     0.029 A 
ATOM     59  C   UNL A   1      45.282  30.230  30.592  1.00  0.00     0.049 A 
ATOM     60  H   UNL A   1      44.429  28.451  29.841  1.00  0.00     0.167 HD
ATOM     61  C   UNL A   1      42.872  30.768  30.343  1.00  0.00     0.074 A 
ATOM     62  C   UNL A   1      41.735  31.659  30.449  1.00  0.00     0.031 C 
ATOM     63  C   UNL A   1      44.140  31.103  30.690  1.00  0.00     0.037 A 
BRANCH  50  64
ATOM     64  C   UNL A   1      48.244  26.540  29.951  1.00  0.00     0.057 A 
ATOM     65  C   UNL A   1      49.216  26.743  28.961  1.00  0.00     0.134 A 
ATOM     66  C   UNL A   1      48.642  25.883  31.121  1.00  0.00     0.134 A 
ATOM     67  F   UNL A   1      48.896  27.354  27.810  1.00  0.00    -0.206 F 
ATOM     68  C   UNL A   1      50.523  26.281  29.116  1.00  0.00     0.040 A 
ATOM     69  C   UNL A   1      49.955  25.441  31.299  1.00  0.00     0.040 A 
ATOM     70  F   UNL A   1      47.766  25.661  32.112  1.00  0.00    -0.206 F 
ATOM     71  C   UNL A   1      50.897  25.632  30.290  1.00  0.00     0.006 A 
ENDBRANCH  50  64
BRANCH  51  72
ATOM     72  C   UNL A   1      38.659  29.157  29.014  1.00  0.00     0.057 A 
ATOM     73  C   UNL A   1      37.814  29.113  30.129  1.00  0.00     0.134 A 
ATOM     74  C   UNL A   1      38.107  29.585  27.801  1.00  0.00     0.134 A 
ATOM     75  F   UNL A   1      38.282  28.695  31.314  1.00  0.00    -0.206 F 
ATOM     76  C   UNL A   1      36.467  29.469  30.040  1.00  0.00     0.040 A 
ATOM     77  C   UNL A   1      36.767  29.966  27.703  1.00  0.00     0.040 A 
ATOM     78  F   UNL A   1      38.867  29.658  26.698  1.00  0.00    -0.206 F 
ATOM     79  C   UNL A   1      35.942  29.902  28.824  1.00  0.00     0.006 A 
ENDBRANCH  51  72
BRANCH  63  80
ATOM     80  C   UNL A   1      44.366  32.500  31.190  1.00  0.00     0.057 A 
ATOM     81  C   UNL A   1      44.643  33.560  30.319  1.00  0.00     0.134 A 
ATOM     82  C   UNL A   1      44.270  32.790  32.557  1.00  0.00     0.134 A 
ATOM     83  F   UNL A   1      44.761  33.345  29.001  1.00  0.00    -0.206 F 
ATOM     84  C   UNL A   1      44.838  34.859  30.794  1.00  0.00     0.040 A 
ATOM     85  C   UNL A   1      44.438  34.088  33.041  1.00  0.00     0.040 A 
ATOM     86  F   UNL A   1      44.000  31.819  33.443  1.00  0.00    -0.206 F 
ATOM     87  C   UNL A   1      44.729  35.127  32.157  1.00  0.00     0.006 A 
ENDBRANCH  63  80
ENDBRANCH  37  38
ENDBRANCH  29  32
ENDBRANCH  27  28
ENDBRANCH  26  27
ENDBRANCH  25  26
ENDBRANCH   1  25
TORSDOF 16
ENDMDL
MODEL 3
REMARK VINA RESULT:     -10.9      2.131      6.788
REMARK SMILES C[C@@H]1C[C@@H](C)CN(C(=O)CSc2csc(C(=O)NCCCCCCNC(=O)c3ccc(-c4c5nc(c(-c6c(F)cccc6F)c6ccc([nH]6)c(-c6c(F)cccc6F)c6nc(c(-c7c(F)cccc7F)c7ccc4[nH]7)C=C6)C=C5)cc3)c2)C1
REMARK SMILES IDX 21 1 20 2 19 3 18 4 16 5 17 6 15 8 12 9 13 10 82 11 14 12
REMARK SMILES IDX 11 13 10 14 8 15 1 16 2 17 3 18 83 19 4 20 7 21 6 22 5 23
REMARK SMILES IDX 9 24 22 25 23 26 24 27 25 28 26 29 27 31 28 32 29 33 81 34
REMARK SMILES IDX 30 35 80 36 31 37 32 38 33 39 74 40 34 41 79 42 73 43 75 44
REMARK SMILES IDX 35 45 78 46 72 47 71 48 36 50 62 51 45 52 61 53 46 54 49 55
REMARK SMILES IDX 60 56 76 57 47 58 48 59 59 61 77 62 50 63 37 64 38 65 43 66
REMARK SMILES IDX 39 67 40 68 42 69 44 70 41 71 63 72 64 73 69 74 65 75 66 76
REMARK SMILES IDX 68 77 70 78 67 79 51 80 52 81 57 82 53 83 54 84 56 85 58 86
REMARK SMILES IDX 55 87
REMARK H PARENT 18 7 25 30 75 49 49 60
REMARK Flexibility Score: inf
ROOT
ATOM      1  C   UNL A   1      39.893  21.484  26.493  1.00  0.00     0.002 C 
ENDROOT
BRANCH   1   2
ATOM      2  C   UNL A   1      39.651  23.000  26.492  1.00  0.00     0.021 C 
BRANCH   2   3
ATOM      3  C   UNL A   1      38.174  23.367  26.337  1.00  0.00     0.116 C 
BRANCH   3   4
ATOM      4  N   UNL A   1      37.802  23.404  24.938  1.00  0.00    -0.351 N 
ATOM      5  C   UNL A   1      36.640  23.083  24.275  1.00  0.00     0.261 C 
ATOM      6  O   UNL A   1      36.673  23.258  23.054  1.00  0.00    -0.268 OA
ATOM      7  H   UNL A   1      38.521  23.721  24.344  1.00  0.00     0.163 HD
BRANCH   5   8
ATOM      8  C   UNL A   1      35.456  22.616  24.987  1.00  0.00     0.093 A 
ATOM      9  C   UNL A   1      33.412  22.433  26.120  1.00  0.00     0.019 A 
ATOM     10  C   UNL A   1      33.668  21.115  25.824  1.00  0.00     0.080 A 
ATOM     11  C   UNL A   1      34.480  23.276  25.712  1.00  0.00     0.040 A 
ATOM     12  S   UNL A   1      35.149  20.918  25.001  1.00  0.00    -0.137 S 
BRANCH   9  13
ATOM     13  S   UNL A   1      31.912  22.937  26.879  1.00  0.00    -0.115 SA
BRANCH  13  14
ATOM     14  C   UNL A   1      30.902  23.676  25.570  1.00  0.00     0.175 C 
BRANCH  14  15
ATOM     15  C   UNL A   1      30.685  25.174  25.718  1.00  0.00     0.232 C 
ATOM     16  C   UNL A   1      28.913  27.428  23.490  1.00  0.00     0.009 C 
ATOM     17  C   UNL A   1      30.359  27.922  23.592  1.00  0.00     0.006 C 
ATOM     18  C   UNL A   1      31.199  27.475  22.376  1.00  0.00     0.010 C 
ATOM     19  C   UNL A   1      31.013  27.474  24.911  1.00  0.00     0.122 C 
ATOM     20  C   UNL A   1      31.605  25.990  22.443  1.00  0.00     0.006 C 
ATOM     21  N   UNL A   1      31.343  26.052  24.871  1.00  0.00    -0.341 N 
ATOM     22  C   UNL A   1      32.261  25.686  23.795  1.00  0.00     0.122 C 
ATOM     23  C   UNL A   1      32.530  25.606  21.293  1.00  0.00     0.009 C 
ATOM     24  O   UNL A   1      29.949  25.581  26.626  1.00  0.00    -0.274 OA
ENDBRANCH  14  15
ENDBRANCH  13  14
ENDBRANCH   9  13
ENDBRANCH   5   8
ENDBRANCH   3   4
ENDBRANCH   2   3
ENDBRANCH   1   2
BRANCH   1  25
ATOM     25  C   UNL A   1      41.366  21.067  26.374  1.00  0.00     0.002 C 
BRANCH  25  26
ATOM     26  C   UNL A   1      41.601  19.673  25.784  1.00  0.00     0.021 C 
BRANCH  26  27
ATOM     27  C   UNL A   1      42.879  18.996  26.264  1.00  0.00     0.116 C 
BRANCH  27  28
ATOM     28  N   UNL A   1      43.765  18.675  25.155  1.00  0.00    -0.352 N 
ATOM     29  C   UNL A   1      44.533  19.506  24.381  1.00  0.00     0.251 C 
ATOM     30  H   UNL A   1      43.822  17.719  24.927  1.00  0.00     0.163 HD
ATOM     31  O   UNL A   1      45.042  19.089  23.345  1.00  0.00    -0.269 OA
BRANCH  29  32
ATOM     32  C   UNL A   1      44.744  20.911  24.788  1.00  0.00     0.039 A 
ATOM     33  C   UNL A   1      44.439  21.930  23.882  1.00  0.00     0.014 A 
ATOM     34  C   UNL A   1      45.274  21.222  26.044  1.00  0.00     0.014 A 
ATOM     35  C   UNL A   1      44.623  23.264  24.252  1.00  0.00     0.010 A 
ATOM     36  C   UNL A   1      45.394  22.552  26.436  1.00  0.00     0.010 A 
ATOM     37  C   UNL A   1      45.079  23.585  25.541  1.00  0.00    -0.014 A 
BRANCH  37  38
ATOM     38  C   UNL A   1      45.247  24.997  25.965  1.00  0.00     0.031 A 
ATOM     39  C   UNL A   1      46.602  25.646  25.911  1.00  0.00     0.074 A 
ATOM     40  C   UNL A   1      44.192  25.673  26.458  1.00  0.00     0.049 A 
ATOM     41  N   UNL A   1      46.961  26.845  26.294  1.00  0.00    -0.248 NA
ATOM     42  C   UNL A   1      47.706  24.828  25.384  1.00  0.00     0.031 C 
ATOM     43  C   UNL A   1      42.838  25.137  26.608  1.00  0.00     0.029 A 
ATOM     44  N   UNL A   1      44.098  26.955  26.936  1.00  0.00    -0.354 N 
ATOM     45  C   UNL A   1      48.329  26.918  26.072  1.00  0.00     0.074 A 
ATOM     46  C   UNL A   1      48.745  25.627  25.567  1.00  0.00     0.031 C 
ATOM     47  C   UNL A   1      42.045  26.088  27.123  1.00  0.00     0.029 A 
ATOM     48  C   UNL A   1      42.839  27.289  27.369  1.00  0.00     0.049 A 
ATOM     49  H   UNL A   1      44.860  27.577  26.965  1.00  0.00     0.167 HD
ATOM     50  C   UNL A   1      49.161  27.972  26.250  1.00  0.00     0.037 A 
ATOM     51  C   UNL A   1      42.376  28.433  27.907  1.00  0.00     0.037 A 
ATOM     52  C   UNL A   1      48.738  29.264  26.726  1.00  0.00     0.049 A 
ATOM     53  C   UNL A   1      43.314  29.594  28.084  1.00  0.00     0.074 A 
ATOM     54  C   UNL A   1      49.489  30.416  26.876  1.00  0.00     0.029 A 
ATOM     55  N   UNL A   1      47.447  29.571  27.129  1.00  0.00    -0.354 N 
ATOM     56  N   UNL A   1      44.592  29.672  27.804  1.00  0.00    -0.248 NA
ATOM     57  C   UNL A   1      42.743  30.826  28.644  1.00  0.00     0.031 C 
ATOM     58  C   UNL A   1      48.661  31.411  27.410  1.00  0.00     0.029 A 
ATOM     59  C   UNL A   1      47.385  30.890  27.549  1.00  0.00     0.049 A 
ATOM     60  H   UNL A   1      46.687  28.945  27.119  1.00  0.00     0.167 HD
ATOM     61  C   UNL A   1      44.973  30.968  28.128  1.00  0.00     0.074 A 
ATOM     62  C   UNL A   1      43.788  31.642  28.615  1.00  0.00     0.031 C 
ATOM     63  C   UNL A   1      46.196  31.546  28.031  1.00  0.00     0.037 A 
BRANCH  50  64
ATOM     64  C   UNL A   1      50.613  27.767  25.929  1.00  0.00     0.057 A 
ATOM     65  C   UNL A   1      51.110  27.907  24.626  1.00  0.00     0.134 A 
ATOM     66  C   UNL A   1      51.529  27.444  26.937  1.00  0.00     0.134 A 
ATOM     67  F   UNL A   1      50.282  28.203  23.612  1.00  0.00    -0.206 F 
ATOM     68  C   UNL A   1      52.457  27.699  24.332  1.00  0.00     0.040 A 
ATOM     69  C   UNL A   1      52.885  27.261  26.659  1.00  0.00     0.040 A 
ATOM     70  F   UNL A   1      51.124  27.301  28.208  1.00  0.00    -0.206 F 
ATOM     71  C   UNL A   1      53.351  27.381  25.351  1.00  0.00     0.006 A 
ENDBRANCH  50  64
BRANCH  51  72
ATOM     72  C   UNL A   1      40.947  28.544  28.286  1.00  0.00     0.057 A 
ATOM     73  C   UNL A   1      40.516  28.214  29.576  1.00  0.00     0.134 A 
ATOM     74  C   UNL A   1      39.980  28.989  27.376  1.00  0.00     0.134 A 
ATOM     75  F   UNL A   1      41.394  27.766  30.486  1.00  0.00    -0.206 F 
ATOM     76  C   UNL A   1      39.174  28.312  29.946  1.00  0.00     0.040 A 
ATOM     77  C   UNL A   1      38.638  29.113  27.740  1.00  0.00     0.040 A 
ATOM     78  F   UNL A   1      40.330  29.328  26.127  1.00  0.00    -0.206 F 
ATOM     79  C   UNL A   1      38.231  28.768  29.027  1.00  0.00     0.006 A 
ENDBRANCH  51  72
BRANCH  63  80
ATOM     80  C   UNL A   1      46.305  32.988  28.433  1.00  0.00     0.057 A 
ATOM     81  C   UNL A   1      46.636  33.367  29.739  1.00  0.00     0.134 A 
ATOM     82  C   UNL A   1      46.111  34.006  27.491  1.00  0.00     0.134 A 
ATOM     83  F   UNL A   1      46.821  32.440  30.691  1.00  0.00    -0.206 F 
ATOM     84  C   UNL A   1      46.749  34.711  30.100  1.00  0.00     0.040 A 
ATOM     85  C   UNL A   1      46.246  35.352  27.833  1.00  0.00     0.040 A 
ATOM     86  F   UNL A   1      45.799  33.709  26.220  1.00  0.00    -0.206 F 
ATOM     87  C   UNL A   1      46.561  35.708  29.144  1.00  0.00     0.006 A 
ENDBRANCH  63  80
ENDBRANCH  37  38
ENDBRANCH  29  32
ENDBRANCH  27  28
ENDBRANCH  26  27
ENDBRANCH  25  26
ENDBRANCH   1  25
TORSDOF 16
ENDMDL
