MODEL 1
REMARK VINA RESULT:      -9.3      0.000      0.000
REMARK SMILES CS(=O)(=O)c1ccc(C(=O)NCCCCCCNC(=O)c2ccc(-c3c4nc(c(-c5c(F)cccc5F)c5ccc([nH]5)c(-c5c(F)cccc5F)c5nc(c(-c6c(F)cccc6F)c6ccc3[nH]6)C=C5)C=C4)cc2)o1
REMARK SMILES IDX 15 1 14 2 13 3 12 4 11 5 9 6 10 7 8 9 5 10 6 11 75 12 7 13
REMARK SMILES IDX 2 14 1 15 3 16 4 17 16 18 17 19 18 20 19 21 20 23 21 24
REMARK SMILES IDX 22 25 74 26 23 27 73 28 24 29 25 30 26 31 67 32 27 33 72 34
REMARK SMILES IDX 66 35 68 36 28 37 71 38 65 39 64 40 29 42 55 43 38 44 54 45
REMARK SMILES IDX 39 46 42 47 53 48 69 49 40 50 41 51 52 53 70 54 43 55 30 56
REMARK SMILES IDX 31 57 36 58 32 59 33 60 35 61 37 62 34 63 56 64 57 65 62 66
REMARK SMILES IDX 58 67 59 68 61 69 63 70 60 71 44 72 45 73 50 74 46 75 47 76
REMARK SMILES IDX 49 77 51 78 48 79
REMARK H PARENT 11 8 18 22 68 41 42 52
REMARK Flexibility Score: inf
ROOT
ATOM      1  C   UNL A   1      33.900  36.373  32.689  1.00  0.00     0.002 C 
ENDROOT
BRANCH   1   2
ATOM      2  C   UNL A   1      35.046  35.351  32.669  1.00  0.00     0.002 C 
BRANCH   2   3
ATOM      3  C   UNL A   1      35.199  34.530  33.957  1.00  0.00     0.021 C 
BRANCH   3   4
ATOM      4  C   UNL A   1      36.656  34.300  34.353  1.00  0.00     0.116 C 
BRANCH   4   5
ATOM      5  N   UNL A   1      36.741  33.762  35.692  1.00  0.00    -0.349 N 
ATOM      6  C   UNL A   1      37.339  32.636  36.203  1.00  0.00     0.287 C 
ATOM      7  O   UNL A   1      37.214  32.483  37.420  1.00  0.00    -0.266 OA
ATOM      8  H   UNL A   1      36.281  34.309  36.370  1.00  0.00     0.163 HD
BRANCH   6   9
ATOM      9  C   UNL A   1      38.078  31.702  35.369  1.00  0.00     0.193 A 
ATOM     10  C   UNL A   1      39.821  30.330  35.029  1.00  0.00     0.218 A 
ATOM     11  C   UNL A   1      39.064  30.340  33.870  1.00  0.00     0.064 A 
ATOM     12  O   UNL A   1      39.207  31.158  35.936  1.00  0.00    -0.440 OA
ATOM     13  C   UNL A   1      37.939  31.164  34.103  1.00  0.00     0.058 A 
BRANCH  10  14
ATOM     14  S   UNL A   1      41.293  29.404  35.442  1.00  0.00     0.208 S 
ATOM     15  C   UNL A   1      42.270  30.632  36.267  1.00  0.00     0.167 C 
ATOM     16  O   UNL A   1      41.918  29.039  34.190  1.00  0.00    -0.221 OA
ATOM     17  O   UNL A   1      40.854  28.419  36.413  1.00  0.00    -0.221 OA
ENDBRANCH  10  14
ENDBRANCH   6   9
ENDBRANCH   4   5
ENDBRANCH   3   4
ENDBRANCH   2   3
ENDBRANCH   1   2
BRANCH   1  18
ATOM     18  C   UNL A   1      32.806  36.132  31.644  1.00  0.00     0.021 C 
BRANCH  18  19
ATOM     19  C   UNL A   1      33.255  36.369  30.208  1.00  0.00     0.116 C 
BRANCH  19  20
ATOM     20  N   UNL A   1      32.623  35.438  29.287  1.00  0.00    -0.352 N 
ATOM     21  C   UNL A   1      33.153  34.347  28.649  1.00  0.00     0.251 C 
ATOM     22  H   UNL A   1      31.674  35.619  29.092  1.00  0.00     0.163 HD
ATOM     23  O   UNL A   1      32.545  33.818  27.723  1.00  0.00    -0.269 OA
BRANCH  21  24
ATOM     24  C   UNL A   1      34.464  33.815  29.070  1.00  0.00     0.039 A 
ATOM     25  C   UNL A   1      34.517  32.907  30.131  1.00  0.00     0.014 A 
ATOM     26  C   UNL A   1      35.640  34.222  28.433  1.00  0.00     0.014 A 
ATOM     27  C   UNL A   1      35.744  32.368  30.516  1.00  0.00     0.010 A 
ATOM     28  C   UNL A   1      36.850  33.622  28.764  1.00  0.00     0.010 A 
ATOM     29  C   UNL A   1      36.916  32.695  29.813  1.00  0.00    -0.014 A 
BRANCH  29  30
ATOM     30  C   UNL A   1      38.218  32.072  30.164  1.00  0.00     0.031 A 
ATOM     31  C   UNL A   1      39.186  32.789  31.063  1.00  0.00     0.074 A 
ATOM     32  C   UNL A   1      38.550  30.884  29.623  1.00  0.00     0.049 A 
ATOM     33  N   UNL A   1      40.384  32.425  31.445  1.00  0.00    -0.248 NA
ATOM     34  C   UNL A   1      38.765  34.100  31.579  1.00  0.00     0.031 C 
ATOM     35  C   UNL A   1      37.717  30.114  28.698  1.00  0.00     0.029 A 
ATOM     36  N   UNL A   1      39.680  30.120  29.768  1.00  0.00    -0.354 N 
ATOM     37  C   UNL A   1      40.861  33.464  32.235  1.00  0.00     0.074 A 
ATOM     38  C   UNL A   1      39.850  34.498  32.226  1.00  0.00     0.031 C 
ATOM     39  C   UNL A   1      38.352  28.975  28.381  1.00  0.00     0.029 A 
ATOM     40  C   UNL A   1      39.651  28.953  29.044  1.00  0.00     0.049 A 
ATOM     41  H   UNL A   1      40.439  30.382  30.338  1.00  0.00     0.167 HD
ATOM     42  C   UNL A   1      42.025  33.539  32.922  1.00  0.00     0.037 A 
ATOM     43  C   UNL A   1      40.572  27.979  28.922  1.00  0.00     0.037 A 
ATOM     44  C   UNL A   1      43.023  32.501  32.935  1.00  0.00     0.049 A 
ATOM     45  C   UNL A   1      41.865  28.093  29.680  1.00  0.00     0.074 A 
ATOM     46  C   UNL A   1      44.210  32.454  33.646  1.00  0.00     0.029 A 
ATOM     47  N   UNL A   1      42.957  31.332  32.191  1.00  0.00    -0.354 N 
ATOM     48  N   UNL A   1      42.272  29.045  30.484  1.00  0.00    -0.248 NA
ATOM     49  C   UNL A   1      42.825  26.991  29.519  1.00  0.00     0.031 C 
ATOM     50  C   UNL A   1      44.888  31.285  33.287  1.00  0.00     0.029 A 
ATOM     51  C   UNL A   1      44.096  30.571  32.401  1.00  0.00     0.049 A 
ATOM     52  H   UNL A   1      42.210  31.078  31.602  1.00  0.00     0.167 HD
ATOM     53  C   UNL A   1      43.519  28.647  30.946  1.00  0.00     0.074 A 
ATOM     54  C   UNL A   1      43.794  27.359  30.345  1.00  0.00     0.031 C 
ATOM     55  C   UNL A   1      44.360  29.291  31.794  1.00  0.00     0.037 A 
BRANCH  42  56
ATOM     56  C   UNL A   1      42.284  34.793  33.710  1.00  0.00     0.057 A 
ATOM     57  C   UNL A   1      42.944  35.898  33.154  1.00  0.00     0.134 A 
ATOM     58  C   UNL A   1      41.850  34.904  35.037  1.00  0.00     0.134 A 
ATOM     59  F   UNL A   1      43.397  35.856  31.891  1.00  0.00    -0.206 F 
ATOM     60  C   UNL A   1      43.195  37.051  33.899  1.00  0.00     0.040 A 
ATOM     61  C   UNL A   1      42.066  36.066  35.782  1.00  0.00     0.040 A 
ATOM     62  F   UNL A   1      41.205  33.891  35.632  1.00  0.00    -0.206 F 
ATOM     63  C   UNL A   1      42.750  37.140  35.216  1.00  0.00     0.006 A 
ENDBRANCH  42  56
BRANCH  43  64
ATOM     64  C   UNL A   1      40.292  26.802  28.060  1.00  0.00     0.057 A 
ATOM     65  C   UNL A   1      40.831  26.703  26.773  1.00  0.00     0.134 A 
ATOM     66  C   UNL A   1      39.486  25.745  28.504  1.00  0.00     0.134 A 
ATOM     67  F   UNL A   1      41.598  27.689  26.285  1.00  0.00    -0.206 F 
ATOM     68  C   UNL A   1      40.566  25.607  25.951  1.00  0.00     0.040 A 
ATOM     69  C   UNL A   1      39.235  24.630  27.703  1.00  0.00     0.040 A 
ATOM     70  F   UNL A   1      38.947  25.774  29.733  1.00  0.00    -0.206 F 
ATOM     71  C   UNL A   1      39.770  24.563  26.418  1.00  0.00     0.006 A 
ENDBRANCH  43  64
BRANCH  55  72
ATOM     72  C   UNL A   1      45.644  28.596  32.147  1.00  0.00     0.057 A 
ATOM     73  C   UNL A   1      45.736  27.703  33.222  1.00  0.00     0.134 A 
ATOM     74  C   UNL A   1      46.798  28.798  31.377  1.00  0.00     0.134 A 
ATOM     75  F   UNL A   1      44.672  27.473  34.008  1.00  0.00    -0.206 F 
ATOM     76  C   UNL A   1      46.933  27.058  33.536  1.00  0.00     0.040 A 
ATOM     77  C   UNL A   1      47.992  28.135  31.661  1.00  0.00     0.040 A 
ATOM     78  F   UNL A   1      46.779  29.632  30.327  1.00  0.00    -0.206 F 
ATOM     79  C   UNL A   1      48.065  27.268  32.749  1.00  0.00     0.006 A 
ENDBRANCH  55  72
ENDBRANCH  29  30
ENDBRANCH  21  24
ENDBRANCH  19  20
ENDBRANCH  18  19
ENDBRANCH   1  18
TORSDOF 14
ENDMDL
MODEL 2
REMARK VINA RESULT:      -9.2      0.616      6.472
REMARK SMILES CS(=O)(=O)c1ccc(C(=O)NCCCCCCNC(=O)c2ccc(-c3c4nc(c(-c5c(F)cccc5F)c5ccc([nH]5)c(-c5c(F)cccc5F)c5nc(c(-c6c(F)cccc6F)c6ccc3[nH]6)C=C5)C=C4)cc2)o1
REMARK SMILES IDX 15 1 14 2 13 3 12 4 11 5 9 6 10 7 8 9 5 10 6 11 75 12 7 13
REMARK SMILES IDX 2 14 1 15 3 16 4 17 16 18 17 19 18 20 19 21 20 23 21 24
REMARK SMILES IDX 22 25 74 26 23 27 73 28 24 29 25 30 26 31 67 32 27 33 72 34
REMARK SMILES IDX 66 35 68 36 28 37 71 38 65 39 64 40 29 42 55 43 38 44 54 45
REMARK SMILES IDX 39 46 42 47 53 48 69 49 40 50 41 51 52 53 70 54 43 55 30 56
REMARK SMILES IDX 31 57 36 58 32 59 33 60 35 61 37 62 34 63 56 64 57 65 62 66
REMARK SMILES IDX 58 67 59 68 61 69 63 70 60 71 44 72 45 73 50 74 46 75 47 76
REMARK SMILES IDX 49 77 51 78 48 79
REMARK H PARENT 11 8 18 22 68 41 42 52
REMARK Flexibility Score: inf
ROOT
ATOM      1  C   UNL A   1      33.846  35.957  33.442  1.00  0.00     0.002 C 
ENDROOT
BRANCH   1   2
ATOM      2  C   UNL A   1      35.098  35.092  33.238  1.00  0.00     0.002 C 
BRANCH   2   3
ATOM      3  C   UNL A   1      35.360  34.066  34.349  1.00  0.00     0.021 C 
BRANCH   3   4
ATOM      4  C   UNL A   1      36.815  34.042  34.813  1.00  0.00     0.116 C 
BRANCH   4   5
ATOM      5  N   UNL A   1      36.930  33.382  36.094  1.00  0.00    -0.349 N 
ATOM      6  C   UNL A   1      37.608  32.259  36.500  1.00  0.00     0.287 C 
ATOM      7  O   UNL A   1      37.486  31.978  37.695  1.00  0.00    -0.266 OA
ATOM      8  H   UNL A   1      36.425  33.824  36.815  1.00  0.00     0.163 HD
BRANCH   6   9
ATOM      9  C   UNL A   1      38.422  31.469  35.590  1.00  0.00     0.193 A 
ATOM     10  C   UNL A   1      40.161  30.109  35.191  1.00  0.00     0.218 A 
ATOM     11  C   UNL A   1      39.553  30.377  33.977  1.00  0.00     0.064 A 
ATOM     12  O   UNL A   1      39.460  30.775  36.166  1.00  0.00    -0.440 OA
ATOM     13  C   UNL A   1      38.427  31.192  34.236  1.00  0.00     0.058 A 
BRANCH  10  14
ATOM     14  S   UNL A   1      41.550  29.054  35.581  1.00  0.00     0.208 S 
ATOM     15  C   UNL A   1      41.702  28.096  34.096  1.00  0.00     0.167 C 
ATOM     16  O   UNL A   1      41.132  28.204  36.673  1.00  0.00    -0.221 OA
ATOM     17  O   UNL A   1      42.686  29.954  35.681  1.00  0.00    -0.221 OA
ENDBRANCH  10  14
ENDBRANCH   6   9
ENDBRANCH   4   5
ENDBRANCH   3   4
ENDBRANCH   2   3
ENDBRANCH   1   2
BRANCH   1  18
ATOM     18  C   UNL A   1      32.827  35.895  32.301  1.00  0.00     0.021 C 
BRANCH  18  19
ATOM     19  C   UNL A   1      33.411  36.206  30.928  1.00  0.00     0.116 C 
BRANCH  19  20
ATOM     20  N   UNL A   1      32.728  35.474  29.875  1.00  0.00    -0.352 N 
ATOM     21  C   UNL A   1      33.207  34.501  29.036  1.00  0.00     0.251 C 
ATOM     22  H   UNL A   1      31.781  35.712  29.744  1.00  0.00     0.163 HD
ATOM     23  O   UNL A   1      32.561  34.164  28.049  1.00  0.00    -0.269 OA
BRANCH  21  24
ATOM     24  C   UNL A   1      34.511  33.867  29.316  1.00  0.00     0.039 A 
ATOM     25  C   UNL A   1      35.617  34.223  28.540  1.00  0.00     0.014 A 
ATOM     26  C   UNL A   1      34.640  32.913  30.330  1.00  0.00     0.014 A 
ATOM     27  C   UNL A   1      36.863  33.660  28.818  1.00  0.00     0.010 A 
ATOM     28  C   UNL A   1      35.897  32.416  30.658  1.00  0.00     0.010 A 
ATOM     29  C   UNL A   1      37.019  32.778  29.901  1.00  0.00    -0.014 A 
BRANCH  29  30
ATOM     30  C   UNL A   1      38.353  32.230  30.254  1.00  0.00     0.031 A 
ATOM     31  C   UNL A   1      38.809  30.914  29.685  1.00  0.00     0.074 A 
ATOM     32  C   UNL A   1      39.129  32.890  31.135  1.00  0.00     0.049 A 
ATOM     33  N   UNL A   1      39.918  30.257  29.911  1.00  0.00    -0.248 NA
ATOM     34  C   UNL A   1      37.886  30.236  28.762  1.00  0.00     0.031 C 
ATOM     35  C   UNL A   1      38.776  34.149  31.793  1.00  0.00     0.029 A 
ATOM     36  N   UNL A   1      40.371  32.591  31.633  1.00  0.00    -0.354 N 
ATOM     37  C   UNL A   1      39.821  29.086  29.168  1.00  0.00     0.074 A 
ATOM     38  C   UNL A   1      38.520  29.095  28.536  1.00  0.00     0.031 C 
ATOM     39  C   UNL A   1      39.790  34.528  32.586  1.00  0.00     0.029 A 
ATOM     40  C   UNL A   1      40.844  33.522  32.526  1.00  0.00     0.049 A 
ATOM     41  H   UNL A   1      40.877  31.786  31.375  1.00  0.00     0.167 HD
ATOM     42  C   UNL A   1      40.740  28.105  29.011  1.00  0.00     0.037 A 
ATOM     43  C   UNL A   1      41.994  33.555  33.225  1.00  0.00     0.037 A 
ATOM     44  C   UNL A   1      42.038  28.107  29.635  1.00  0.00     0.049 A 
ATOM     45  C   UNL A   1      42.992  32.445  33.047  1.00  0.00     0.074 A 
ATOM     46  C   UNL A   1      43.066  27.191  29.493  1.00  0.00     0.029 A 
ATOM     47  N   UNL A   1      42.483  29.069  30.531  1.00  0.00    -0.354 N 
ATOM     48  N   UNL A   1      42.920  31.382  32.284  1.00  0.00    -0.248 NA
ATOM     49  C   UNL A   1      44.236  32.544  33.825  1.00  0.00     0.031 C 
ATOM     50  C   UNL A   1      44.107  27.566  30.348  1.00  0.00     0.029 A 
ATOM     51  C   UNL A   1      43.756  28.751  30.975  1.00  0.00     0.049 A 
ATOM     52  H   UNL A   1      41.969  29.862  30.810  1.00  0.00     0.167 HD
ATOM     53  C   UNL A   1      44.116  30.700  32.466  1.00  0.00     0.074 A 
ATOM     54  C   UNL A   1      44.901  31.480  33.400  1.00  0.00     0.031 C 
ATOM     55  C   UNL A   1      44.527  29.534  31.908  1.00  0.00     0.037 A 
BRANCH  42  56
ATOM     56  C   UNL A   1      40.368  26.943  28.134  1.00  0.00     0.057 A 
ATOM     57  C   UNL A   1      40.864  26.807  26.829  1.00  0.00     0.134 A 
ATOM     58  C   UNL A   1      39.518  25.934  28.606  1.00  0.00     0.134 A 
ATOM     59  F   UNL A   1      41.674  27.742  26.308  1.00  0.00    -0.206 F 
ATOM     60  C   UNL A   1      40.499  25.733  26.016  1.00  0.00     0.040 A 
ATOM     61  C   UNL A   1      39.174  24.837  27.813  1.00  0.00     0.040 A 
ATOM     62  F   UNL A   1      39.013  25.994  29.846  1.00  0.00    -0.206 F 
ATOM     63  C   UNL A   1      39.656  24.740  26.510  1.00  0.00     0.006 A 
ENDBRANCH  42  56
BRANCH  43  64
ATOM     64  C   UNL A   1      42.269  34.691  34.142  1.00  0.00     0.057 A 
ATOM     65  C   UNL A   1      41.940  34.621  35.500  1.00  0.00     0.134 A 
ATOM     66  C   UNL A   1      42.872  35.870  33.685  1.00  0.00     0.134 A 
ATOM     67  F   UNL A   1      41.345  33.525  35.995  1.00  0.00    -0.206 F 
ATOM     68  C   UNL A   1      42.184  35.687  36.367  1.00  0.00     0.040 A 
ATOM     69  C   UNL A   1      43.147  36.932  34.547  1.00  0.00     0.040 A 
ATOM     70  F   UNL A   1      43.222  35.996  32.395  1.00  0.00    -0.206 F 
ATOM     71  C   UNL A   1      42.795  36.845  35.892  1.00  0.00     0.006 A 
ENDBRANCH  43  64
BRANCH  55  72
ATOM     72  C   UNL A   1      45.902  29.047  32.268  1.00  0.00     0.057 A 
ATOM     73  C   UNL A   1      46.126  28.186  33.350  1.00  0.00     0.134 A 
ATOM     74  C   UNL A   1      47.013  29.418  31.499  1.00  0.00     0.134 A 
ATOM     75  F   UNL A   1      45.108  27.800  34.135  1.00  0.00    -0.206 F 
ATOM     76  C   UNL A   1      47.407  27.735  33.671  1.00  0.00     0.040 A 
ATOM     77  C   UNL A   1      48.294  28.949  31.791  1.00  0.00     0.040 A 
ATOM     78  F   UNL A   1      46.869  30.233  30.443  1.00  0.00    -0.206 F 
ATOM     79  C   UNL A   1      48.495  28.111  32.885  1.00  0.00     0.006 A 
ENDBRANCH  55  72
ENDBRANCH  29  30
ENDBRANCH  21  24
ENDBRANCH  19  20
ENDBRANCH  18  19
ENDBRANCH   1  18
TORSDOF 14
ENDMDL
MODEL 3
REMARK VINA RESULT:      -9.2      4.871     10.954
REMARK SMILES CS(=O)(=O)c1ccc(C(=O)NCCCCCCNC(=O)c2ccc(-c3c4nc(c(-c5c(F)cccc5F)c5ccc([nH]5)c(-c5c(F)cccc5F)c5nc(c(-c6c(F)cccc6F)c6ccc3[nH]6)C=C5)C=C4)cc2)o1
REMARK SMILES IDX 15 1 14 2 13 3 12 4 11 5 9 6 10 7 8 9 5 10 6 11 75 12 7 13
REMARK SMILES IDX 2 14 1 15 3 16 4 17 16 18 17 19 18 20 19 21 20 23 21 24
REMARK SMILES IDX 22 25 74 26 23 27 73 28 24 29 25 30 26 31 67 32 27 33 72 34
REMARK SMILES IDX 66 35 68 36 28 37 71 38 65 39 64 40 29 42 55 43 38 44 54 45
REMARK SMILES IDX 39 46 42 47 53 48 69 49 40 50 41 51 52 53 70 54 43 55 30 56
REMARK SMILES IDX 31 57 36 58 32 59 33 60 35 61 37 62 34 63 56 64 57 65 62 66
REMARK SMILES IDX 58 67 59 68 61 69 63 70 60 71 44 72 45 73 50 74 46 75 47 76
REMARK SMILES IDX 49 77 51 78 48 79
REMARK H PARENT 11 8 18 22 68 41 42 52
REMARK Flexibility Score: inf
ROOT
ATOM      1  C   UNL A   1      44.918  20.288  24.238  1.00  0.00     0.002 C 
ENDROOT
BRANCH   1   2
ATOM      2  C   UNL A   1      46.150  21.087  24.688  1.00  0.00     0.002 C 
BRANCH   2   3
ATOM      3  C   UNL A   1      45.846  22.268  25.621  1.00  0.00     0.021 C 
BRANCH   3   4
ATOM      4  C   UNL A   1      46.038  23.627  24.950  1.00  0.00     0.116 C 
BRANCH   4   5
ATOM      5  N   UNL A   1      44.797  24.369  24.941  1.00  0.00    -0.349 N 
ATOM      6  C   UNL A   1      44.519  25.709  25.051  1.00  0.00     0.287 C 
ATOM      7  O   UNL A   1      43.321  26.001  24.998  1.00  0.00    -0.266 OA
ATOM      8  H   UNL A   1      43.997  23.804  24.835  1.00  0.00     0.163 HD
BRANCH   6   9
ATOM      9  C   UNL A   1      45.562  26.711  25.204  1.00  0.00     0.193 A 
ATOM     10  C   UNL A   1      46.253  28.737  25.875  1.00  0.00     0.218 A 
ATOM     11  C   UNL A   1      47.327  28.109  25.268  1.00  0.00     0.064 A 
ATOM     12  O   UNL A   1      45.187  27.874  25.835  1.00  0.00    -0.440 OA
ATOM     13  C   UNL A   1      46.904  26.813  24.892  1.00  0.00     0.058 A 
BRANCH  10  14
ATOM     14  S   UNL A   1      46.147  30.332  26.675  1.00  0.00     0.208 S 
ATOM     15  C   UNL A   1      47.697  30.407  27.534  1.00  0.00     0.167 C 
ATOM     16  O   UNL A   1      45.062  30.248  27.626  1.00  0.00    -0.221 OA
ATOM     17  O   UNL A   1      46.162  31.296  25.589  1.00  0.00    -0.221 OA
ENDBRANCH  10  14
ENDBRANCH   6   9
ENDBRANCH   4   5
ENDBRANCH   3   4
ENDBRANCH   2   3
ENDBRANCH   1   2
BRANCH   1  18
ATOM     18  C   UNL A   1      44.799  18.889  24.848  1.00  0.00     0.021 C 
BRANCH  18  19
ATOM     19  C   UNL A   1      43.897  18.820  26.075  1.00  0.00     0.116 C 
BRANCH  19  20
ATOM     20  N   UNL A   1      42.502  18.646  25.707  1.00  0.00    -0.352 N 
ATOM     21  C   UNL A   1      41.418  19.434  25.996  1.00  0.00     0.251 C 
ATOM     22  H   UNL A   1      42.306  17.842  25.172  1.00  0.00     0.163 HD
ATOM     23  O   UNL A   1      40.281  19.011  25.813  1.00  0.00    -0.269 OA
BRANCH  21  24
ATOM     24  C   UNL A   1      41.622  20.791  26.542  1.00  0.00     0.039 A 
ATOM     25  C   UNL A   1      41.574  20.979  27.925  1.00  0.00     0.014 A 
ATOM     26  C   UNL A   1      41.844  21.879  25.691  1.00  0.00     0.014 A 
ATOM     27  C   UNL A   1      41.802  22.248  28.457  1.00  0.00     0.010 A 
ATOM     28  C   UNL A   1      42.152  23.125  26.226  1.00  0.00     0.010 A 
ATOM     29  C   UNL A   1      42.126  23.324  27.613  1.00  0.00    -0.014 A 
BRANCH  29  30
ATOM     30  C   UNL A   1      42.444  24.664  28.170  1.00  0.00     0.031 A 
ATOM     31  C   UNL A   1      43.835  24.978  28.648  1.00  0.00     0.074 A 
ATOM     32  C   UNL A   1      41.463  25.577  28.298  1.00  0.00     0.049 A 
ATOM     33  N   UNL A   1      44.291  26.073  29.201  1.00  0.00    -0.248 NA
ATOM     34  C   UNL A   1      44.839  23.912  28.510  1.00  0.00     0.031 C 
ATOM     35  C   UNL A   1      40.064  25.374  27.918  1.00  0.00     0.029 A 
ATOM     36  N   UNL A   1      41.491  26.857  28.791  1.00  0.00    -0.354 N 
ATOM     37  C   UNL A   1      45.628  25.823  29.486  1.00  0.00     0.074 A 
ATOM     38  C   UNL A   1      45.892  24.455  29.102  1.00  0.00     0.031 C 
ATOM     39  C   UNL A   1      39.375  26.499  28.165  1.00  0.00     0.029 A 
ATOM     40  C   UNL A   1      40.270  27.485  28.759  1.00  0.00     0.049 A 
ATOM     41  H   UNL A   1      42.309  27.285  29.135  1.00  0.00     0.167 HD
ATOM     42  C   UNL A   1      46.555  26.666  30.000  1.00  0.00     0.037 A 
ATOM     43  C   UNL A   1      39.911  28.716  29.171  1.00  0.00     0.037 A 
ATOM     44  C   UNL A   1      46.287  28.032  30.371  1.00  0.00     0.049 A 
ATOM     45  C   UNL A   1      40.954  29.627  29.755  1.00  0.00     0.074 A 
ATOM     46  C   UNL A   1      47.171  28.986  30.845  1.00  0.00     0.029 A 
ATOM     47  N   UNL A   1      45.038  28.634  30.321  1.00  0.00    -0.354 N 
ATOM     48  N   UNL A   1      42.231  29.406  29.949  1.00  0.00    -0.248 NA
ATOM     49  C   UNL A   1      40.505  30.963  30.172  1.00  0.00     0.031 C 
ATOM     50  C   UNL A   1      46.445  30.145  31.138  1.00  0.00     0.029 A 
ATOM     51  C   UNL A   1      45.121  29.937  30.786  1.00  0.00     0.049 A 
ATOM     52  H   UNL A   1      44.214  28.200  30.001  1.00  0.00     0.167 HD
ATOM     53  C   UNL A   1      42.745  30.580  30.483  1.00  0.00     0.074 A 
ATOM     54  C   UNL A   1      41.643  31.516  30.566  1.00  0.00     0.031 C 
ATOM     55  C   UNL A   1      44.016  30.858  30.867  1.00  0.00     0.037 A 
BRANCH  42  56
ATOM     56  C   UNL A   1      47.944  26.128  30.199  1.00  0.00     0.057 A 
ATOM     57  C   UNL A   1      48.883  26.088  29.157  1.00  0.00     0.134 A 
ATOM     58  C   UNL A   1      48.357  25.661  31.454  1.00  0.00     0.134 A 
ATOM     59  F   UNL A   1      48.551  26.508  27.927  1.00  0.00    -0.206 F 
ATOM     60  C   UNL A   1      50.165  25.570  29.347  1.00  0.00     0.040 A 
ATOM     61  C   UNL A   1      49.648  25.173  31.664  1.00  0.00     0.040 A 
ATOM     62  F   UNL A   1      47.516  25.676  32.497  1.00  0.00    -0.206 F 
ATOM     63  C   UNL A   1      50.553  25.116  30.606  1.00  0.00     0.006 A 
ENDBRANCH  42  56
BRANCH  43  64
ATOM     64  C   UNL A   1      38.502  29.162  29.024  1.00  0.00     0.057 A 
ATOM     65  C   UNL A   1      38.019  29.646  27.803  1.00  0.00     0.134 A 
ATOM     66  C   UNL A   1      37.602  29.110  30.097  1.00  0.00     0.134 A 
ATOM     67  F   UNL A   1      38.836  29.735  26.742  1.00  0.00    -0.206 F 
ATOM     68  C   UNL A   1      36.700  30.078  27.657  1.00  0.00     0.040 A 
ATOM     69  C   UNL A   1      36.274  29.513  29.958  1.00  0.00     0.040 A 
ATOM     70  F   UNL A   1      38.000  28.647  31.292  1.00  0.00    -0.206 F 
ATOM     71  C   UNL A   1      35.821  30.006  28.736  1.00  0.00     0.006 A 
ENDBRANCH  43  64
BRANCH  55  72
ATOM     72  C   UNL A   1      44.290  32.242  31.384  1.00  0.00     0.057 A 
ATOM     73  C   UNL A   1      44.240  32.550  32.750  1.00  0.00     0.134 A 
ATOM     74  C   UNL A   1      44.642  33.274  30.503  1.00  0.00     0.134 A 
ATOM     75  F   UNL A   1      43.898  31.611  33.646  1.00  0.00    -0.206 F 
ATOM     76  C   UNL A   1      44.503  33.838  33.218  1.00  0.00     0.040 A 
ATOM     77  C   UNL A   1      44.939  34.558  30.963  1.00  0.00     0.040 A 
ATOM     78  F   UNL A   1      44.719  33.047  29.184  1.00  0.00    -0.206 F 
ATOM     79  C   UNL A   1      44.861  34.845  32.323  1.00  0.00     0.006 A 
ENDBRANCH  55  72
ENDBRANCH  29  30
ENDBRANCH  21  24
ENDBRANCH  19  20
ENDBRANCH  18  19
ENDBRANCH   1  18
TORSDOF 14
ENDMDL
