MODEL 1
REMARK VINA RESULT:     -11.8      0.000      0.000
REMARK SMILES Cc1cc(C)c2c(c1)C=C(C(=O)NCCCCCCNC(=O)c1ccc(-c3c4nc(c(-c5c(F)cccc5F)c5ccc([nH]5)c(-c5c(F)cccc5F)c5nc(c(-c6c(F)cccc6F)c6ccc3[nH]6)C=C5)C=C4)cc1)[C@@H](C(F)(F)F)O2
REMARK SMILES IDX 17 1 16 2 15 3 14 4 13 5 11 6 12 7 10 9 1 10 2 11 3 12 8 13
REMARK SMILES IDX 4 14 7 15 5 16 6 17 9 18 82 19 77 20 78 21 79 22 80 23 81 24
REMARK SMILES IDX 18 25 19 26 20 27 21 28 22 30 23 31 24 32 76 33 25 34 75 35
REMARK SMILES IDX 26 36 27 37 28 38 69 39 29 40 74 41 68 42 70 43 30 44 73 45
REMARK SMILES IDX 67 46 66 47 31 49 57 50 40 51 56 52 41 53 44 54 55 55 71 56
REMARK SMILES IDX 42 57 43 58 54 60 72 61 45 62 32 63 33 64 38 65 34 66 35 67
REMARK SMILES IDX 37 68 39 69 36 70 58 71 59 72 64 73 60 74 61 75 63 76 65 77
REMARK SMILES IDX 62 78 46 79 47 80 52 81 48 82 49 83 51 84 53 85 50 86
REMARK H PARENT 13 8 20 29 70 48 44 59
REMARK Flexibility Score: inf
ROOT
ATOM      1  C   UNL A   1      31.729  28.946  25.758  1.00  0.00     0.002 C 
ENDROOT
BRANCH   1   2
ATOM      2  C   UNL A   1      31.819  28.527  24.285  1.00  0.00     0.002 C 
BRANCH   2   3
ATOM      3  C   UNL A   1      30.589  27.792  23.748  1.00  0.00     0.021 C 
BRANCH   3   4
ATOM      4  C   UNL A   1      30.852  26.323  23.439  1.00  0.00     0.116 C 
BRANCH   4   5
ATOM      5  N   UNL A   1      31.684  26.161  22.261  1.00  0.00    -0.352 N 
ATOM      6  C   UNL A   1      32.686  25.343  21.860  1.00  0.00     0.251 C 
ATOM      7  O   UNL A   1      33.107  25.545  20.717  1.00  0.00    -0.270 OA
ATOM      8  H   UNL A   1      31.460  26.823  21.568  1.00  0.00     0.163 HD
BRANCH   6   9
ATOM      9  C   UNL A   1      33.288  24.257  22.690  1.00  0.00     0.067 C 
ATOM     10  C   UNL A   1      32.298  18.401  24.442  1.00  0.00     0.044 C 
ATOM     11  C   UNL A   1      33.048  19.692  24.289  1.00  0.00    -0.050 A 
ATOM     12  C   UNL A   1      34.300  19.846  24.901  1.00  0.00     0.010 A 
ATOM     13  C   UNL A   1      32.493  20.761  23.573  1.00  0.00     0.015 A 
ATOM     14  C   UNL A   1      35.009  21.045  24.785  1.00  0.00    -0.008 A 
ATOM     15  C   UNL A   1      33.189  21.966  23.450  1.00  0.00     0.018 A 
ATOM     16  C   UNL A   1      36.357  21.208  25.427  1.00  0.00     0.048 C 
ATOM     17  C   UNL A   1      34.438  22.097  24.061  1.00  0.00     0.130 A 
ATOM     18  C   UNL A   1      32.654  23.070  22.660  1.00  0.00     0.025 C 
ATOM     19  O   UNL A   1      35.189  23.230  23.950  1.00  0.00    -0.475 OA
ATOM     20  C   UNL A   1      34.508  24.438  23.544  1.00  0.00     0.314 C 
BRANCH  20  21
ATOM     21  C   UNL A   1      34.243  25.305  24.788  1.00  0.00     0.429 C 
ATOM     22  F   UNL A   1      34.291  26.623  24.463  1.00  0.00    -0.167 F 
ATOM     23  F   UNL A   1      33.018  25.095  25.324  1.00  0.00    -0.167 F 
ATOM     24  F   UNL A   1      35.145  25.097  25.773  1.00  0.00    -0.167 F 
ENDBRANCH  20  21
ENDBRANCH   6   9
ENDBRANCH   4   5
ENDBRANCH   3   4
ENDBRANCH   2   3
ENDBRANCH   1   2
BRANCH   1  25
ATOM     25  C   UNL A   1      32.445  28.017  26.743  1.00  0.00     0.021 C 
BRANCH  25  26
ATOM     26  C   UNL A   1      33.785  28.549  27.238  1.00  0.00     0.116 C 
BRANCH  26  27
ATOM     27  N   UNL A   1      33.693  29.945  27.634  1.00  0.00    -0.352 N 
ATOM     28  C   UNL A   1      34.605  30.714  28.306  1.00  0.00     0.251 C 
ATOM     29  H   UNL A   1      32.858  30.401  27.382  1.00  0.00     0.163 HD
ATOM     30  O   UNL A   1      34.279  31.806  28.767  1.00  0.00    -0.269 OA
BRANCH  28  31
ATOM     31  C   UNL A   1      35.981  30.217  28.484  1.00  0.00     0.039 A 
ATOM     32  C   UNL A   1      36.883  30.324  27.422  1.00  0.00     0.014 A 
ATOM     33  C   UNL A   1      36.378  29.642  29.696  1.00  0.00     0.014 A 
ATOM     34  C   UNL A   1      38.197  29.893  27.594  1.00  0.00     0.010 A 
ATOM     35  C   UNL A   1      37.706  29.284  29.889  1.00  0.00     0.010 A 
ATOM     36  C   UNL A   1      38.625  29.395  28.835  1.00  0.00    -0.014 A 
BRANCH  36  37
ATOM     37  C   UNL A   1      40.027  28.956  29.038  1.00  0.00     0.031 A 
ATOM     38  C   UNL A   1      41.011  29.879  29.699  1.00  0.00     0.074 A 
ATOM     39  C   UNL A   1      40.415  27.741  28.605  1.00  0.00     0.049 A 
ATOM     40  N   UNL A   1      42.285  29.695  29.933  1.00  0.00    -0.248 NA
ATOM     41  C   UNL A   1      40.503  31.189  30.142  1.00  0.00     0.031 C 
ATOM     42  C   UNL A   1      39.554  26.769  27.927  1.00  0.00     0.029 A 
ATOM     43  N   UNL A   1      41.634  27.114  28.673  1.00  0.00    -0.354 N 
ATOM     44  C   UNL A   1      42.726  30.859  30.551  1.00  0.00     0.074 A 
ATOM     45  C   UNL A   1      41.604  31.768  30.598  1.00  0.00     0.031 C 
ATOM     46  C   UNL A   1      40.262  25.656  27.675  1.00  0.00     0.029 A 
ATOM     47  C   UNL A   1      41.635  25.850  28.134  1.00  0.00     0.049 A 
ATOM     48  H   UNL A   1      42.432  27.530  29.070  1.00  0.00     0.167 HD
ATOM     49  C   UNL A   1      43.948  31.128  31.064  1.00  0.00     0.037 A 
ATOM     50  C   UNL A   1      42.632  24.951  28.022  1.00  0.00     0.037 A 
ATOM     51  C   UNL A   1      45.056  30.212  31.035  1.00  0.00     0.049 A 
ATOM     52  C   UNL A   1      43.995  25.300  28.557  1.00  0.00     0.074 A 
ATOM     53  C   UNL A   1      46.327  30.384  31.554  1.00  0.00     0.029 A 
ATOM     54  N   UNL A   1      45.023  28.951  30.461  1.00  0.00    -0.354 N 
ATOM     55  N   UNL A   1      44.384  26.386  29.179  1.00  0.00    -0.248 NA
ATOM     56  C   UNL A   1      45.055  24.300  28.375  1.00  0.00     0.031 C 
ATOM     57  C   UNL A   1      47.076  29.245  31.253  1.00  0.00     0.029 A 
ATOM     58  C   UNL A   1      46.258  28.342  30.595  1.00  0.00     0.049 A 
ATOM     59  H   UNL A   1      44.238  28.548  30.023  1.00  0.00     0.167 HD
ATOM     60  C   UNL A   1      45.724  26.188  29.489  1.00  0.00     0.074 A 
ATOM     61  C   UNL A   1      46.075  24.871  29.001  1.00  0.00     0.031 C 
ATOM     62  C   UNL A   1      46.586  27.023  30.117  1.00  0.00     0.037 A 
BRANCH  49  63
ATOM     63  C   UNL A   1      44.153  32.457  31.731  1.00  0.00     0.057 A 
ATOM     64  C   UNL A   1      44.588  33.576  31.010  1.00  0.00     0.134 A 
ATOM     65  C   UNL A   1      43.828  32.642  33.081  1.00  0.00     0.134 A 
ATOM     66  F   UNL A   1      44.928  33.463  29.717  1.00  0.00    -0.206 F 
ATOM     67  C   UNL A   1      44.698  34.833  31.609  1.00  0.00     0.040 A 
ATOM     68  C   UNL A   1      43.908  33.898  33.683  1.00  0.00     0.040 A 
ATOM     69  F   UNL A   1      43.401  31.612  33.825  1.00  0.00    -0.206 F 
ATOM     70  C   UNL A   1      44.344  34.998  32.946  1.00  0.00     0.006 A 
ENDBRANCH  49  63
BRANCH  50  71
ATOM     71  C   UNL A   1      42.378  23.625  27.402  1.00  0.00     0.057 A 
ATOM     72  C   UNL A   1      42.062  22.511  28.190  1.00  0.00     0.134 A 
ATOM     73  C   UNL A   1      42.457  23.431  26.018  1.00  0.00     0.134 A 
ATOM     74  F   UNL A   1      41.989  22.627  29.524  1.00  0.00    -0.206 F 
ATOM     75  C   UNL A   1      41.855  21.250  27.628  1.00  0.00     0.040 A 
ATOM     76  C   UNL A   1      42.224  22.181  25.439  1.00  0.00     0.040 A 
ATOM     77  F   UNL A   1      42.749  24.457  25.205  1.00  0.00    -0.206 F 
ATOM     78  C   UNL A   1      41.930  21.084  26.246  1.00  0.00     0.006 A 
ENDBRANCH  50  71
BRANCH  62  79
ATOM     79  C   UNL A   1      47.988  26.538  30.341  1.00  0.00     0.057 A 
ATOM     80  C   UNL A   1      48.351  25.843  31.501  1.00  0.00     0.134 A 
ATOM     81  C   UNL A   1      48.966  26.697  29.348  1.00  0.00     0.134 A 
ATOM     82  F   UNL A   1      47.465  25.665  32.491  1.00  0.00    -0.206 F 
ATOM     83  C   UNL A   1      49.638  25.333  31.671  1.00  0.00     0.040 A 
ATOM     84  C   UNL A   1      50.247  26.166  29.494  1.00  0.00     0.040 A 
ATOM     85  F   UNL A   1      48.679  27.342  28.207  1.00  0.00    -0.206 F 
ATOM     86  C   UNL A   1      50.586  25.483  30.661  1.00  0.00     0.006 A 
ENDBRANCH  62  79
ENDBRANCH  36  37
ENDBRANCH  28  31
ENDBRANCH  26  27
ENDBRANCH  25  26
ENDBRANCH   1  25
TORSDOF 14
ENDMDL
MODEL 2
REMARK VINA RESULT:     -11.8      1.725      2.281
REMARK SMILES Cc1cc(C)c2c(c1)C=C(C(=O)NCCCCCCNC(=O)c1ccc(-c3c4nc(c(-c5c(F)cccc5F)c5ccc([nH]5)c(-c5c(F)cccc5F)c5nc(c(-c6c(F)cccc6F)c6ccc3[nH]6)C=C5)C=C4)cc1)[C@@H](C(F)(F)F)O2
REMARK SMILES IDX 17 1 16 2 15 3 14 4 13 5 11 6 12 7 10 9 1 10 2 11 3 12 8 13
REMARK SMILES IDX 4 14 7 15 5 16 6 17 9 18 82 19 77 20 78 21 79 22 80 23 81 24
REMARK SMILES IDX 18 25 19 26 20 27 21 28 22 30 23 31 24 32 76 33 25 34 75 35
REMARK SMILES IDX 26 36 27 37 28 38 69 39 29 40 74 41 68 42 70 43 30 44 73 45
REMARK SMILES IDX 67 46 66 47 31 49 57 50 40 51 56 52 41 53 44 54 55 55 71 56
REMARK SMILES IDX 42 57 43 58 54 60 72 61 45 62 32 63 33 64 38 65 34 66 35 67
REMARK SMILES IDX 37 68 39 69 36 70 58 71 59 72 64 73 60 74 61 75 63 76 65 77
REMARK SMILES IDX 62 78 46 79 47 80 52 81 48 82 49 83 51 84 53 85 50 86
REMARK H PARENT 13 8 20 29 70 48 44 59
REMARK Flexibility Score: inf
ROOT
ATOM      1  C   UNL A   1      31.621  28.297  26.687  1.00  0.00     0.002 C 
ENDROOT
BRANCH   1   2
ATOM      2  C   UNL A   1      31.079  27.138  25.841  1.00  0.00     0.002 C 
BRANCH   2   3
ATOM      3  C   UNL A   1      31.098  27.379  24.330  1.00  0.00     0.021 C 
BRANCH   3   4
ATOM      4  C   UNL A   1      30.815  26.123  23.515  1.00  0.00     0.116 C 
BRANCH   4   5
ATOM      5  N   UNL A   1      31.675  26.030  22.351  1.00  0.00    -0.352 N 
ATOM      6  C   UNL A   1      32.704  25.252  21.938  1.00  0.00     0.251 C 
ATOM      7  O   UNL A   1      33.144  25.512  20.814  1.00  0.00    -0.270 OA
ATOM      8  H   UNL A   1      31.451  26.716  21.681  1.00  0.00     0.163 HD
BRANCH   6   9
ATOM      9  C   UNL A   1      33.313  24.145  22.734  1.00  0.00     0.067 C 
ATOM     10  C   UNL A   1      32.290  18.279  24.428  1.00  0.00     0.044 C 
ATOM     11  C   UNL A   1      33.053  19.561  24.272  1.00  0.00    -0.050 A 
ATOM     12  C   UNL A   1      34.324  19.688  24.851  1.00  0.00     0.010 A 
ATOM     13  C   UNL A   1      32.494  20.649  23.588  1.00  0.00     0.015 A 
ATOM     14  C   UNL A   1      35.046  20.879  24.734  1.00  0.00    -0.008 A 
ATOM     15  C   UNL A   1      33.203  21.845  23.463  1.00  0.00     0.018 A 
ATOM     16  C   UNL A   1      36.414  21.014  25.339  1.00  0.00     0.048 C 
ATOM     17  C   UNL A   1      34.470  21.950  24.041  1.00  0.00     0.130 A 
ATOM     18  C   UNL A   1      32.662  22.968  22.705  1.00  0.00     0.025 C 
ATOM     19  O   UNL A   1      35.234  23.074  23.926  1.00  0.00    -0.475 OA
ATOM     20  C   UNL A   1      34.559  24.297  23.557  1.00  0.00     0.314 C 
BRANCH  20  21
ATOM     21  C   UNL A   1      34.341  25.149  24.820  1.00  0.00     0.429 C 
ATOM     22  F   UNL A   1      33.189  24.786  25.441  1.00  0.00    -0.167 F 
ATOM     23  F   UNL A   1      35.326  24.992  25.737  1.00  0.00    -0.167 F 
ATOM     24  F   UNL A   1      34.259  26.471  24.553  1.00  0.00    -0.167 F 
ENDBRANCH  20  21
ENDBRANCH   6   9
ENDBRANCH   4   5
ENDBRANCH   3   4
ENDBRANCH   2   3
ENDBRANCH   1   2
BRANCH   1  25
ATOM     25  C   UNL A   1      33.095  28.177  27.085  1.00  0.00     0.021 C 
BRANCH  25  26
ATOM     26  C   UNL A   1      34.012  29.175  26.388  1.00  0.00     0.116 C 
BRANCH  26  27
ATOM     27  N   UNL A   1      33.869  30.510  26.944  1.00  0.00    -0.352 N 
ATOM     28  C   UNL A   1      34.596  31.116  27.934  1.00  0.00     0.251 C 
ATOM     29  H   UNL A   1      33.150  31.056  26.553  1.00  0.00     0.163 HD
ATOM     30  O   UNL A   1      34.200  32.160  28.447  1.00  0.00    -0.269 OA
BRANCH  28  31
ATOM     31  C   UNL A   1      35.857  30.500  28.388  1.00  0.00     0.039 A 
ATOM     32  C   UNL A   1      37.028  30.744  27.669  1.00  0.00     0.014 A 
ATOM     33  C   UNL A   1      35.877  29.678  29.519  1.00  0.00     0.014 A 
ATOM     34  C   UNL A   1      38.231  30.199  28.113  1.00  0.00     0.010 A 
ATOM     35  C   UNL A   1      37.088  29.198  30.002  1.00  0.00     0.010 A 
ATOM     36  C   UNL A   1      38.275  29.444  29.297  1.00  0.00    -0.014 A 
BRANCH  36  37
ATOM     37  C   UNL A   1      39.552  28.878  29.793  1.00  0.00     0.031 A 
ATOM     38  C   UNL A   1      40.218  29.480  30.998  1.00  0.00     0.074 A 
ATOM     39  C   UNL A   1      40.120  27.842  29.146  1.00  0.00     0.049 A 
ATOM     40  N   UNL A   1      41.352  29.154  31.562  1.00  0.00    -0.248 NA
ATOM     41  C   UNL A   1      39.529  30.610  31.646  1.00  0.00     0.031 C 
ATOM     42  C   UNL A   1      39.578  27.192  27.950  1.00  0.00     0.029 A 
ATOM     43  N   UNL A   1      41.279  27.153  29.402  1.00  0.00    -0.354 N 
ATOM     44  C   UNL A   1      41.508  30.031  32.629  1.00  0.00     0.074 A 
ATOM     45  C   UNL A   1      40.390  30.945  32.596  1.00  0.00     0.031 C 
ATOM     46  C   UNL A   1      40.384  26.176  27.600  1.00  0.00     0.029 A 
ATOM     47  C   UNL A   1      41.518  26.129  28.518  1.00  0.00     0.049 A 
ATOM     48  H   UNL A   1      41.881  27.371  30.149  1.00  0.00     0.167 HD
ATOM     49  C   UNL A   1      42.479  30.047  33.570  1.00  0.00     0.037 A 
ATOM     50  C   UNL A   1      42.540  25.253  28.455  1.00  0.00     0.037 A 
ATOM     51  C   UNL A   1      43.579  29.121  33.612  1.00  0.00     0.049 A 
ATOM     52  C   UNL A   1      43.632  25.329  29.488  1.00  0.00     0.074 A 
ATOM     53  C   UNL A   1      44.599  29.040  34.543  1.00  0.00     0.029 A 
ATOM     54  N   UNL A   1      43.798  28.113  32.686  1.00  0.00    -0.354 N 
ATOM     55  N   UNL A   1      43.742  26.134  30.516  1.00  0.00    -0.248 NA
ATOM     56  C   UNL A   1      44.742  24.376  29.351  1.00  0.00     0.031 C 
ATOM     57  C   UNL A   1      45.461  28.013  34.155  1.00  0.00     0.029 A 
ATOM     58  C   UNL A   1      44.949  27.418  33.013  1.00  0.00     0.049 A 
ATOM     59  H   UNL A   1      43.221  27.920  31.912  1.00  0.00     0.167 HD
ATOM     60  C   UNL A   1      44.914  25.766  31.165  1.00  0.00     0.074 A 
ATOM     61  C   UNL A   1      45.470  24.653  30.424  1.00  0.00     0.031 C 
ATOM     62  C   UNL A   1      45.481  26.303  32.272  1.00  0.00     0.037 A 
BRANCH  49  63
ATOM     63  C   UNL A   1      42.388  31.079  34.655  1.00  0.00     0.057 A 
ATOM     64  C   UNL A   1      43.007  32.330  34.528  1.00  0.00     0.134 A 
ATOM     65  C   UNL A   1      41.606  30.857  35.796  1.00  0.00     0.134 A 
ATOM     66  F   UNL A   1      43.781  32.600  33.466  1.00  0.00    -0.206 F 
ATOM     67  C   UNL A   1      42.853  33.322  35.498  1.00  0.00     0.040 A 
ATOM     68  C   UNL A   1      41.423  31.850  36.758  1.00  0.00     0.040 A 
ATOM     69  F   UNL A   1      40.984  29.683  35.976  1.00  0.00    -0.206 F 
ATOM     70  C   UNL A   1      42.048  33.088  36.610  1.00  0.00     0.006 A 
ENDBRANCH  49  63
BRANCH  50  71
ATOM     71  C   UNL A   1      42.569  24.211  27.396  1.00  0.00     0.057 A 
ATOM     72  C   UNL A   1      42.073  22.924  27.640  1.00  0.00     0.134 A 
ATOM     73  C   UNL A   1      43.100  24.466  26.127  1.00  0.00     0.134 A 
ATOM     74  F   UNL A   1      41.568  22.611  28.842  1.00  0.00    -0.206 F 
ATOM     75  C   UNL A   1      42.125  21.923  26.668  1.00  0.00     0.040 A 
ATOM     76  C   UNL A   1      43.132  23.482  25.135  1.00  0.00     0.040 A 
ATOM     77  F   UNL A   1      43.585  25.679  25.826  1.00  0.00    -0.206 F 
ATOM     78  C   UNL A   1      42.651  22.203  25.408  1.00  0.00     0.006 A 
ENDBRANCH  50  71
BRANCH  62  79
ATOM     79  C   UNL A   1      46.754  25.686  32.773  1.00  0.00     0.057 A 
ATOM     80  C   UNL A   1      48.007  26.109  32.313  1.00  0.00     0.134 A 
ATOM     81  C   UNL A   1      46.727  24.717  33.785  1.00  0.00     0.134 A 
ATOM     82  F   UNL A   1      48.100  27.026  31.340  1.00  0.00    -0.206 F 
ATOM     83  C   UNL A   1      49.189  25.581  32.835  1.00  0.00     0.040 A 
ATOM     84  C   UNL A   1      47.902  24.204  34.335  1.00  0.00     0.040 A 
ATOM     85  F   UNL A   1      45.559  24.279  34.278  1.00  0.00    -0.206 F 
ATOM     86  C   UNL A   1      49.138  24.635  33.857  1.00  0.00     0.006 A 
ENDBRANCH  62  79
ENDBRANCH  36  37
ENDBRANCH  28  31
ENDBRANCH  26  27
ENDBRANCH  25  26
ENDBRANCH   1  25
TORSDOF 14
ENDMDL
MODEL 3
REMARK VINA RESULT:     -11.8      2.930      7.928
REMARK SMILES Cc1cc(C)c2c(c1)C=C(C(=O)NCCCCCCNC(=O)c1ccc(-c3c4nc(c(-c5c(F)cccc5F)c5ccc([nH]5)c(-c5c(F)cccc5F)c5nc(c(-c6c(F)cccc6F)c6ccc3[nH]6)C=C5)C=C4)cc1)[C@@H](C(F)(F)F)O2
REMARK SMILES IDX 17 1 16 2 15 3 14 4 13 5 11 6 12 7 10 9 1 10 2 11 3 12 8 13
REMARK SMILES IDX 4 14 7 15 5 16 6 17 9 18 82 19 77 20 78 21 79 22 80 23 81 24
REMARK SMILES IDX 18 25 19 26 20 27 21 28 22 30 23 31 24 32 76 33 25 34 75 35
REMARK SMILES IDX 26 36 27 37 28 38 69 39 29 40 74 41 68 42 70 43 30 44 73 45
REMARK SMILES IDX 67 46 66 47 31 49 57 50 40 51 56 52 41 53 44 54 55 55 71 56
REMARK SMILES IDX 42 57 43 58 54 60 72 61 45 62 32 63 33 64 38 65 34 66 35 67
REMARK SMILES IDX 37 68 39 69 36 70 58 71 59 72 64 73 60 74 61 75 63 76 65 77
REMARK SMILES IDX 62 78 46 79 47 80 52 81 48 82 49 83 51 84 53 85 50 86
REMARK H PARENT 13 8 20 29 70 48 44 59
REMARK Flexibility Score: inf
ROOT
ATOM      1  C   UNL A   1      35.968  22.593  23.672  1.00  0.00     0.002 C 
ENDROOT
BRANCH   1   2
ATOM      2  C   UNL A   1      34.478  22.821  23.386  1.00  0.00     0.002 C 
BRANCH   2   3
ATOM      3  C   UNL A   1      33.523  22.076  24.321  1.00  0.00     0.021 C 
BRANCH   3   4
ATOM      4  C   UNL A   1      32.070  22.508  24.167  1.00  0.00     0.116 C 
BRANCH   4   5
ATOM      5  N   UNL A   1      31.419  22.680  25.452  1.00  0.00    -0.352 N 
ATOM      6  C   UNL A   1      30.967  23.711  26.205  1.00  0.00     0.251 C 
ATOM      7  O   UNL A   1      30.427  23.391  27.269  1.00  0.00    -0.270 OA
ATOM      8  H   UNL A   1      31.263  21.815  25.896  1.00  0.00     0.163 HD
BRANCH   6   9
ATOM      9  C   UNL A   1      31.085  25.154  25.839  1.00  0.00     0.067 C 
ATOM     10  C   UNL A   1      28.632  29.394  22.052  1.00  0.00     0.044 C 
ATOM     11  C   UNL A   1      29.477  28.863  23.171  1.00  0.00    -0.050 A 
ATOM     12  C   UNL A   1      30.337  29.727  23.864  1.00  0.00     0.010 A 
ATOM     13  C   UNL A   1      29.448  27.502  23.508  1.00  0.00     0.015 A 
ATOM     14  C   UNL A   1      31.147  29.251  24.899  1.00  0.00    -0.008 A 
ATOM     15  C   UNL A   1      30.252  27.012  24.539  1.00  0.00     0.018 A 
ATOM     16  C   UNL A   1      32.058  30.177  25.654  1.00  0.00     0.048 C 
ATOM     17  C   UNL A   1      31.096  27.890  25.222  1.00  0.00     0.130 A 
ATOM     18  C   UNL A   1      30.191  25.611  24.943  1.00  0.00     0.025 C 
ATOM     19  O   UNL A   1      31.879  27.487  26.263  1.00  0.00    -0.475 OA
ATOM     20  C   UNL A   1      32.138  26.072  26.388  1.00  0.00     0.314 C 
BRANCH  20  21
ATOM     21  C   UNL A   1      33.542  25.769  25.835  1.00  0.00     0.429 C 
ATOM     22  F   UNL A   1      33.498  25.631  24.485  1.00  0.00    -0.167 F 
ATOM     23  F   UNL A   1      34.429  26.762  26.082  1.00  0.00    -0.167 F 
ATOM     24  F   UNL A   1      34.071  24.634  26.342  1.00  0.00    -0.167 F 
ENDBRANCH  20  21
ENDBRANCH   6   9
ENDBRANCH   4   5
ENDBRANCH   3   4
ENDBRANCH   2   3
ENDBRANCH   1   2
BRANCH   1  25
ATOM     25  C   UNL A   1      36.634  23.662  24.543  1.00  0.00     0.021 C 
BRANCH  25  26
ATOM     26  C   UNL A   1      36.817  23.252  26.000  1.00  0.00     0.116 C 
BRANCH  26  27
ATOM     27  N   UNL A   1      37.945  22.350  26.163  1.00  0.00    -0.352 N 
ATOM     28  C   UNL A   1      39.251  22.643  26.454  1.00  0.00     0.251 C 
ATOM     29  H   UNL A   1      37.741  21.394  26.050  1.00  0.00     0.163 HD
ATOM     30  O   UNL A   1      40.124  21.787  26.328  1.00  0.00    -0.269 OA
BRANCH  28  31
ATOM     31  C   UNL A   1      39.605  23.999  26.912  1.00  0.00     0.039 A 
ATOM     32  C   UNL A   1      39.462  24.317  28.264  1.00  0.00     0.014 A 
ATOM     33  C   UNL A   1      40.072  24.955  26.003  1.00  0.00     0.014 A 
ATOM     34  C   UNL A   1      39.832  25.584  28.712  1.00  0.00     0.010 A 
ATOM     35  C   UNL A   1      40.510  26.190  26.465  1.00  0.00     0.010 A 
ATOM     36  C   UNL A   1      40.382  26.520  27.822  1.00  0.00    -0.014 A 
BRANCH  36  37
ATOM     37  C   UNL A   1      40.802  27.863  28.290  1.00  0.00     0.031 A 
ATOM     38  C   UNL A   1      42.260  28.224  28.314  1.00  0.00     0.074 A 
ATOM     39  C   UNL A   1      39.874  28.742  28.716  1.00  0.00     0.049 A 
ATOM     40  N   UNL A   1      42.829  29.329  28.723  1.00  0.00    -0.248 NA
ATOM     41  C   UNL A   1      43.208  27.204  27.832  1.00  0.00     0.031 C 
ATOM     42  C   UNL A   1      38.431  28.493  28.761  1.00  0.00     0.029 A 
ATOM     43  N   UNL A   1      40.005  30.023  29.189  1.00  0.00    -0.354 N 
ATOM     44  C   UNL A   1      44.194  29.138  28.542  1.00  0.00     0.074 A 
ATOM     45  C   UNL A   1      44.375  27.792  28.051  1.00  0.00     0.031 C 
ATOM     46  C   UNL A   1      37.809  29.599  29.201  1.00  0.00     0.029 A 
ATOM     47  C   UNL A   1      38.808  30.618  29.508  1.00  0.00     0.049 A 
ATOM     48  H   UNL A   1      40.874  30.474  29.290  1.00  0.00     0.167 HD
ATOM     49  C   UNL A   1      45.200  30.021  28.737  1.00  0.00     0.037 A 
ATOM     50  C   UNL A   1      38.549  31.847  29.994  1.00  0.00     0.037 A 
ATOM     51  C   UNL A   1      45.013  31.368  29.204  1.00  0.00     0.049 A 
ATOM     52  C   UNL A   1      39.695  32.790  30.248  1.00  0.00     0.074 A 
ATOM     53  C   UNL A   1      45.968  32.348  29.406  1.00  0.00     0.029 A 
ATOM     54  N   UNL A   1      43.788  31.926  29.537  1.00  0.00    -0.354 N 
ATOM     55  N   UNL A   1      40.975  32.611  30.030  1.00  0.00    -0.248 NA
ATOM     56  C   UNL A   1      39.360  34.104  30.815  1.00  0.00     0.031 C 
ATOM     57  C   UNL A   1      45.328  33.484  29.905  1.00  0.00     0.029 A 
ATOM     58  C   UNL A   1      43.967  33.230  29.963  1.00  0.00     0.049 A 
ATOM     59  H   UNL A   1      42.921  31.463  29.480  1.00  0.00     0.167 HD
ATOM     60  C   UNL A   1      41.594  33.798  30.404  1.00  0.00     0.074 A 
ATOM     61  C   UNL A   1      40.547  34.695  30.846  1.00  0.00     0.031 C 
ATOM     62  C   UNL A   1      42.911  34.114  30.386  1.00  0.00     0.037 A 
BRANCH  49  63
ATOM     63  C   UNL A   1      46.596  29.577  28.416  1.00  0.00     0.057 A 
ATOM     64  C   UNL A   1      47.149  29.766  27.143  1.00  0.00     0.134 A 
ATOM     65  C   UNL A   1      47.426  29.037  29.408  1.00  0.00     0.134 A 
ATOM     66  F   UNL A   1      46.404  30.265  26.145  1.00  0.00    -0.206 F 
ATOM     67  C   UNL A   1      48.476  29.431  26.866  1.00  0.00     0.040 A 
ATOM     68  C   UNL A   1      48.760  28.724  29.150  1.00  0.00     0.040 A 
ATOM     69  F   UNL A   1      46.959  28.835  30.649  1.00  0.00    -0.206 F 
ATOM     70  C   UNL A   1      49.289  28.921  27.876  1.00  0.00     0.006 A 
ENDBRANCH  49  63
BRANCH  50  71
ATOM     71  C   UNL A   1      37.148  32.271  30.250  1.00  0.00     0.057 A 
ATOM     72  C   UNL A   1      36.530  32.009  31.480  1.00  0.00     0.134 A 
ATOM     73  C   UNL A   1      36.389  32.931  29.277  1.00  0.00     0.134 A 
ATOM     74  F   UNL A   1      37.199  31.364  32.447  1.00  0.00    -0.206 F 
ATOM     75  C   UNL A   1      35.204  32.369  31.725  1.00  0.00     0.040 A 
ATOM     76  C   UNL A   1      35.069  33.322  29.518  1.00  0.00     0.040 A 
ATOM     77  F   UNL A   1      36.921  33.217  28.081  1.00  0.00    -0.206 F 
ATOM     78  C   UNL A   1      34.471  33.033  30.743  1.00  0.00     0.006 A 
ENDBRANCH  50  71
BRANCH  62  79
ATOM     79  C   UNL A   1      43.303  35.493  30.832  1.00  0.00     0.057 A 
ATOM     80  C   UNL A   1      43.586  35.781  32.172  1.00  0.00     0.134 A 
ATOM     81  C   UNL A   1      43.478  36.522  29.896  1.00  0.00     0.134 A 
ATOM     82  F   UNL A   1      43.429  34.842  33.117  1.00  0.00    -0.206 F 
ATOM     83  C   UNL A   1      44.018  37.046  32.569  1.00  0.00     0.040 A 
ATOM     84  C   UNL A   1      43.938  37.783  30.277  1.00  0.00     0.040 A 
ATOM     85  F   UNL A   1      43.237  36.308  28.594  1.00  0.00    -0.206 F 
ATOM     86  C   UNL A   1      44.207  38.048  31.618  1.00  0.00     0.006 A 
ENDBRANCH  62  79
ENDBRANCH  36  37
ENDBRANCH  28  31
ENDBRANCH  26  27
ENDBRANCH  25  26
ENDBRANCH   1  25
TORSDOF 14
ENDMDL
