MODEL 1
REMARK VINA RESULT:     -11.5      0.000      0.000
REMARK SMILES COc1ccc(NS(=O)(=O)c2cc(C(=O)NCCCCCCNC(=O)c3ccc(-c4c5nc(c(-c6c(F)cccc6F)c6ccc([nH]6)c(-c6c(F)cccc6F)c6nc(c(-c7c(F)cccc7F)c7ccc4[nH]7)C=C6)C=C5)cc3)cc(C)c2C)c(OC)c1
REMARK SMILES IDX 18 1 17 2 16 3 14 4 15 5 13 7 11 8 12 9 83 10 81 11 84 12
REMARK SMILES IDX 80 13 82 14 8 15 9 16 10 17 7 18 6 20 3 21 4 22 88 23 5 24
REMARK SMILES IDX 85 25 2 26 1 27 86 28 87 29 19 30 20 31 21 32 22 33 23 34
REMARK SMILES IDX 24 35 25 37 26 38 27 39 79 40 28 41 78 42 29 43 30 44 31 45
REMARK SMILES IDX 72 46 32 47 77 48 71 49 73 50 33 51 76 52 70 53 69 54 34 56
REMARK SMILES IDX 60 57 43 58 59 59 44 60 47 61 58 62 74 63 45 64 46 65 57 67
REMARK SMILES IDX 75 68 48 69 35 70 36 71 41 72 37 73 38 74 40 75 42 76 39 77
REMARK SMILES IDX 61 78 62 79 67 80 63 81 64 82 66 83 68 84 65 85 49 86 50 87
REMARK SMILES IDX 55 88 51 89 52 90 54 91 56 92 53 93
REMARK H PARENT 16 6 7 19 23 36 73 55 47 66
REMARK Flexibility Score: inf
ROOT
ATOM      1  C   UNL A   1      35.379  30.958  27.775  1.00  0.00     0.021 C 
ENDROOT
BRANCH   1   2
ATOM      2  C   UNL A   1      34.943  29.540  27.416  1.00  0.00     0.116 C 
BRANCH   2   3
ATOM      3  N   UNL A   1      33.631  29.196  27.922  1.00  0.00    -0.352 N 
ATOM      4  C   UNL A   1      32.638  28.434  27.360  1.00  0.00     0.251 C 
ATOM      5  O   UNL A   1      31.563  28.334  27.946  1.00  0.00    -0.269 OA
ATOM      6  H   UNL A   1      33.417  29.567  28.808  1.00  0.00     0.163 HD
BRANCH   4   7
ATOM      7  C   UNL A   1      32.814  27.739  26.058  1.00  0.00     0.041 A 
ATOM      8  C   UNL A   1      32.633  25.659  24.797  1.00  0.00     0.091 A 
ATOM      9  C   UNL A   1      32.429  26.401  25.975  1.00  0.00     0.036 A 
ATOM     10  C   UNL A   1      33.291  26.240  23.692  1.00  0.00    -0.028 A 
ATOM     11  C   UNL A   1      33.566  27.630  23.740  1.00  0.00    -0.046 A 
ATOM     12  C   UNL A   1      33.746  25.448  22.496  1.00  0.00     0.046 C 
ATOM     13  C   UNL A   1      33.375  28.347  24.938  1.00  0.00     0.017 A 
ATOM     14  C   UNL A   1      33.989  28.430  22.533  1.00  0.00     0.044 C 
BRANCH   8  15
ATOM     15  S   UNL A   1      31.858  24.038  24.790  1.00  0.00     0.262 S 
ATOM     16  O   UNL A   1      30.880  24.045  23.720  1.00  0.00    -0.201 OA
ATOM     17  O   UNL A   1      31.465  23.757  26.155  1.00  0.00    -0.201 OA
BRANCH  15  18
ATOM     18  N   UNL A   1      32.994  22.886  24.378  1.00  0.00    -0.276 N 
ATOM     19  H   UNL A   1      33.922  23.190  24.254  1.00  0.00     0.180 HD
BRANCH  18  20
ATOM     20  C   UNL A   1      32.730  21.496  24.192  1.00  0.00     0.091 A 
ATOM     21  C   UNL A   1      32.710  18.727  23.820  1.00  0.00     0.122 A 
ATOM     22  C   UNL A   1      32.188  19.582  22.845  1.00  0.00     0.049 A 
ATOM     23  C   UNL A   1      33.152  19.252  25.035  1.00  0.00     0.095 A 
ATOM     24  C   UNL A   1      32.158  20.964  23.043  1.00  0.00     0.034 A 
ATOM     25  C   UNL A   1      33.136  20.636  25.233  1.00  0.00     0.146 A 
BRANCH  21  26
ATOM     26  O   UNL A   1      32.825  17.420  23.439  1.00  0.00    -0.497 OA
ATOM     27  C   UNL A   1      34.146  16.910  23.311  1.00  0.00     0.278 C 
ENDBRANCH  21  26
BRANCH  25  28
ATOM     28  O   UNL A   1      33.635  21.244  26.364  1.00  0.00    -0.494 OA
ATOM     29  C   UNL A   1      35.038  21.498  26.336  1.00  0.00     0.278 C 
ENDBRANCH  25  28
ENDBRANCH  18  20
ENDBRANCH  15  18
ENDBRANCH   8  15
ENDBRANCH   4   7
ENDBRANCH   2   3
ENDBRANCH   1   2
BRANCH   1  30
ATOM     30  C   UNL A   1      34.359  31.819  28.528  1.00  0.00     0.002 C 
BRANCH  30  31
ATOM     31  C   UNL A   1      34.585  33.332  28.517  1.00  0.00     0.002 C 
BRANCH  31  32
ATOM     32  C   UNL A   1      33.337  34.217  28.531  1.00  0.00     0.021 C 
BRANCH  32  33
ATOM     33  C   UNL A   1      33.523  35.647  29.029  1.00  0.00     0.116 C 
BRANCH  33  34
ATOM     34  N   UNL A   1      32.647  35.999  30.132  1.00  0.00    -0.352 N 
ATOM     35  C   UNL A   1      32.770  35.729  31.473  1.00  0.00     0.251 C 
ATOM     36  H   UNL A   1      31.843  36.508  29.880  1.00  0.00     0.163 HD
ATOM     37  O   UNL A   1      31.872  36.050  32.245  1.00  0.00    -0.269 OA
BRANCH  35  38
ATOM     38  C   UNL A   1      33.958  35.015  31.997  1.00  0.00     0.039 A 
ATOM     39  C   UNL A   1      33.819  33.671  32.360  1.00  0.00     0.014 A 
ATOM     40  C   UNL A   1      35.194  35.652  32.152  1.00  0.00     0.014 A 
ATOM     41  C   UNL A   1      34.929  32.948  32.805  1.00  0.00     0.010 A 
ATOM     42  C   UNL A   1      36.313  34.914  32.542  1.00  0.00     0.010 A 
ATOM     43  C   UNL A   1      36.193  33.555  32.866  1.00  0.00    -0.014 A 
BRANCH  43  44
ATOM     44  C   UNL A   1      37.400  32.775  33.244  1.00  0.00     0.031 A 
ATOM     45  C   UNL A   1      38.123  33.063  34.529  1.00  0.00     0.074 A 
ATOM     46  C   UNL A   1      37.885  31.850  32.394  1.00  0.00     0.049 A 
ATOM     47  N   UNL A   1      39.232  32.539  34.987  1.00  0.00    -0.248 NA
ATOM     48  C   UNL A   1      37.536  34.090  35.401  1.00  0.00     0.031 C 
ATOM     49  C   UNL A   1      37.304  31.505  31.096  1.00  0.00     0.029 A 
ATOM     50  N   UNL A   1      38.989  31.040  32.491  1.00  0.00    -0.354 N 
ATOM     51  C   UNL A   1      39.486  33.184  36.191  1.00  0.00     0.074 A 
ATOM     52  C   UNL A   1      38.434  34.162  36.374  1.00  0.00     0.031 C 
ATOM     53  C   UNL A   1      38.048  30.545  30.524  1.00  0.00     0.029 A 
ATOM     54  C   UNL A   1      39.173  30.227  31.399  1.00  0.00     0.049 A 
ATOM     55  H   UNL A   1      39.592  31.040  33.269  1.00  0.00     0.167 HD
ATOM     56  C   UNL A   1      40.493  32.971  37.070  1.00  0.00     0.037 A 
ATOM     57  C   UNL A   1      40.141  29.333  31.127  1.00  0.00     0.037 A 
ATOM     58  C   UNL A   1      41.523  31.979  36.907  1.00  0.00     0.049 A 
ATOM     59  C   UNL A   1      41.239  29.103  32.126  1.00  0.00     0.074 A 
ATOM     60  C   UNL A   1      42.545  31.643  37.780  1.00  0.00     0.029 A 
ATOM     61  N   UNL A   1      41.661  31.159  35.798  1.00  0.00    -0.354 N 
ATOM     62  N   UNL A   1      41.435  29.682  33.284  1.00  0.00    -0.248 NA
ATOM     63  C   UNL A   1      42.250  28.093  31.778  1.00  0.00     0.031 C 
ATOM     64  C   UNL A   1      43.319  30.641  37.183  1.00  0.00     0.029 A 
ATOM     65  C   UNL A   1      42.761  30.332  35.953  1.00  0.00     0.049 A 
ATOM     66  H   UNL A   1      41.065  31.165  35.013  1.00  0.00     0.167 HD
ATOM     67  C   UNL A   1      42.578  29.097  33.813  1.00  0.00     0.074 A 
ATOM     68  C   UNL A   1      43.026  28.109  32.853  1.00  0.00     0.031 C 
ATOM     69  C   UNL A   1      43.198  29.356  34.989  1.00  0.00     0.037 A 
BRANCH  56  70
ATOM     70  C   UNL A   1      40.528  33.834  38.296  1.00  0.00     0.057 A 
ATOM     71  C   UNL A   1      39.809  33.501  39.451  1.00  0.00     0.134 A 
ATOM     72  C   UNL A   1      41.306  34.997  38.329  1.00  0.00     0.134 A 
ATOM     73  F   UNL A   1      39.035  32.405  39.476  1.00  0.00    -0.206 F 
ATOM     74  C   UNL A   1      39.841  34.309  40.588  1.00  0.00     0.040 A 
ATOM     75  C   UNL A   1      41.364  35.802  39.468  1.00  0.00     0.040 A 
ATOM     76  F   UNL A   1      42.021  35.370  37.257  1.00  0.00    -0.206 F 
ATOM     77  C   UNL A   1      40.626  35.461  40.600  1.00  0.00     0.006 A 
ENDBRANCH  56  70
BRANCH  57  78
ATOM     78  C   UNL A   1      40.098  28.568  29.859  1.00  0.00     0.057 A 
ATOM     79  C   UNL A   1      40.806  29.004  28.734  1.00  0.00     0.134 A 
ATOM     80  C   UNL A   1      39.364  27.383  29.745  1.00  0.00     0.134 A 
ATOM     81  F   UNL A   1      41.511  30.143  28.780  1.00  0.00    -0.206 F 
ATOM     82  C   UNL A   1      40.779  28.291  27.534  1.00  0.00     0.040 A 
ATOM     83  C   UNL A   1      39.343  26.650  28.558  1.00  0.00     0.040 A 
ATOM     84  F   UNL A   1      38.669  26.913  30.792  1.00  0.00    -0.206 F 
ATOM     85  C   UNL A   1      40.049  27.107  27.446  1.00  0.00     0.006 A 
ENDBRANCH  57  78
BRANCH  69  86
ATOM     86  C   UNL A   1      44.418  28.547  35.309  1.00  0.00     0.057 A 
ATOM     87  C   UNL A   1      45.700  28.981  34.951  1.00  0.00     0.134 A 
ATOM     88  C   UNL A   1      44.312  27.341  36.010  1.00  0.00     0.134 A 
ATOM     89  F   UNL A   1      45.864  30.123  34.265  1.00  0.00    -0.206 F 
ATOM     90  C   UNL A   1      46.835  28.232  35.266  1.00  0.00     0.040 A 
ATOM     91  C   UNL A   1      45.441  26.593  36.346  1.00  0.00     0.040 A 
ATOM     92  F   UNL A   1      43.111  26.873  36.385  1.00  0.00    -0.206 F 
ATOM     93  C   UNL A   1      46.707  27.037  35.971  1.00  0.00     0.006 A 
ENDBRANCH  69  86
ENDBRANCH  43  44
ENDBRANCH  35  38
ENDBRANCH  33  34
ENDBRANCH  32  33
ENDBRANCH  31  32
ENDBRANCH  30  31
ENDBRANCH   1  30
TORSDOF 18
ENDMDL
MODEL 2
REMARK VINA RESULT:     -11.1      2.964      8.736
REMARK SMILES COc1ccc(NS(=O)(=O)c2cc(C(=O)NCCCCCCNC(=O)c3ccc(-c4c5nc(c(-c6c(F)cccc6F)c6ccc([nH]6)c(-c6c(F)cccc6F)c6nc(c(-c7c(F)cccc7F)c7ccc4[nH]7)C=C6)C=C5)cc3)cc(C)c2C)c(OC)c1
REMARK SMILES IDX 18 1 17 2 16 3 14 4 15 5 13 7 11 8 12 9 83 10 81 11 84 12
REMARK SMILES IDX 80 13 82 14 8 15 9 16 10 17 7 18 6 20 3 21 4 22 88 23 5 24
REMARK SMILES IDX 85 25 2 26 1 27 86 28 87 29 19 30 20 31 21 32 22 33 23 34
REMARK SMILES IDX 24 35 25 37 26 38 27 39 79 40 28 41 78 42 29 43 30 44 31 45
REMARK SMILES IDX 72 46 32 47 77 48 71 49 73 50 33 51 76 52 70 53 69 54 34 56
REMARK SMILES IDX 60 57 43 58 59 59 44 60 47 61 58 62 74 63 45 64 46 65 57 67
REMARK SMILES IDX 75 68 48 69 35 70 36 71 41 72 37 73 38 74 40 75 42 76 39 77
REMARK SMILES IDX 61 78 62 79 67 80 63 81 64 82 66 83 68 84 65 85 49 86 50 87
REMARK SMILES IDX 55 88 51 89 52 90 54 91 56 92 53 93
REMARK H PARENT 16 6 7 19 23 36 73 55 47 66
REMARK Flexibility Score: inf
ROOT
ATOM      1  C   UNL A   1      36.367  19.322  25.019  1.00  0.00     0.021 C 
ENDROOT
BRANCH   1   2
ATOM      2  C   UNL A   1      35.377  18.462  24.238  1.00  0.00     0.116 C 
BRANCH   2   3
ATOM      3  N   UNL A   1      34.290  17.955  25.050  1.00  0.00    -0.352 N 
ATOM      4  C   UNL A   1      33.093  18.535  25.387  1.00  0.00     0.251 C 
ATOM      5  O   UNL A   1      32.342  17.943  26.158  1.00  0.00    -0.269 OA
ATOM      6  H   UNL A   1      34.432  17.054  25.418  1.00  0.00     0.163 HD
BRANCH   4   7
ATOM      7  C   UNL A   1      32.682  19.864  24.863  1.00  0.00     0.041 A 
ATOM      8  C   UNL A   1      31.969  22.142  25.369  1.00  0.00     0.091 A 
ATOM      9  C   UNL A   1      32.431  20.880  25.786  1.00  0.00     0.036 A 
ATOM     10  C   UNL A   1      31.689  22.385  24.008  1.00  0.00    -0.028 A 
ATOM     11  C   UNL A   1      32.064  21.394  23.066  1.00  0.00    -0.046 A 
ATOM     12  C   UNL A   1      30.981  23.621  23.521  1.00  0.00     0.046 C 
ATOM     13  C   UNL A   1      32.503  20.130  23.508  1.00  0.00     0.017 A 
ATOM     14  C   UNL A   1      32.098  21.638  21.577  1.00  0.00     0.044 C 
BRANCH   8  15
ATOM     15  S   UNL A   1      31.936  23.391  26.660  1.00  0.00     0.262 S 
ATOM     16  O   UNL A   1      32.554  22.801  27.831  1.00  0.00    -0.201 OA
ATOM     17  O   UNL A   1      30.583  23.904  26.711  1.00  0.00    -0.201 OA
BRANCH  15  18
ATOM     18  N   UNL A   1      32.910  24.672  26.212  1.00  0.00    -0.276 N 
ATOM     19  H   UNL A   1      33.874  24.497  26.123  1.00  0.00     0.180 HD
BRANCH  18  20
ATOM     20  C   UNL A   1      32.458  25.999  25.947  1.00  0.00     0.091 A 
ATOM     21  C   UNL A   1      32.053  28.722  25.473  1.00  0.00     0.122 A 
ATOM     22  C   UNL A   1      31.500  28.104  26.598  1.00  0.00     0.049 A 
ATOM     23  C   UNL A   1      32.728  27.954  24.523  1.00  0.00     0.095 A 
ATOM     24  C   UNL A   1      31.664  26.735  26.818  1.00  0.00     0.034 A 
ATOM     25  C   UNL A   1      32.905  26.586  24.746  1.00  0.00     0.146 A 
BRANCH  21  26
ATOM     26  O   UNL A   1      31.954  30.085  25.457  1.00  0.00    -0.497 OA
ATOM     27  C   UNL A   1      32.289  30.759  26.663  1.00  0.00     0.278 C 
ENDBRANCH  21  26
BRANCH  25  28
ATOM     28  O   UNL A   1      33.634  25.772  23.906  1.00  0.00    -0.494 OA
ATOM     29  C   UNL A   1      33.544  26.108  22.523  1.00  0.00     0.278 C 
ENDBRANCH  25  28
ENDBRANCH  18  20
ENDBRANCH  15  18
ENDBRANCH   8  15
ENDBRANCH   4   7
ENDBRANCH   2   3
ENDBRANCH   1   2
BRANCH   1  30
ATOM     30  C   UNL A   1      35.940  20.764  25.313  1.00  0.00     0.002 C 
BRANCH  30  31
ATOM     31  C   UNL A   1      36.165  21.795  24.205  1.00  0.00     0.002 C 
BRANCH  31  32
ATOM     32  C   UNL A   1      36.000  23.267  24.587  1.00  0.00     0.021 C 
BRANCH  32  33
ATOM     33  C   UNL A   1      37.070  23.857  25.500  1.00  0.00     0.116 C 
BRANCH  33  34
ATOM     34  N   UNL A   1      38.248  23.020  25.636  1.00  0.00    -0.352 N 
ATOM     35  C   UNL A   1      39.443  23.278  26.261  1.00  0.00     0.251 C 
ATOM     36  H   UNL A   1      38.179  22.132  25.216  1.00  0.00     0.163 HD
ATOM     37  O   UNL A   1      40.354  22.458  26.198  1.00  0.00    -0.269 OA
BRANCH  35  38
ATOM     38  C   UNL A   1      39.664  24.557  26.978  1.00  0.00     0.039 A 
ATOM     39  C   UNL A   1      39.155  24.688  28.274  1.00  0.00     0.014 A 
ATOM     40  C   UNL A   1      40.344  25.627  26.388  1.00  0.00     0.014 A 
ATOM     41  C   UNL A   1      39.390  25.856  29.004  1.00  0.00     0.010 A 
ATOM     42  C   UNL A   1      40.627  26.770  27.137  1.00  0.00     0.010 A 
ATOM     43  C   UNL A   1      40.159  26.893  28.453  1.00  0.00    -0.014 A 
BRANCH  43  44
ATOM     44  C   UNL A   1      40.500  28.100  29.249  1.00  0.00     0.031 A 
ATOM     45  C   UNL A   1      41.818  28.196  29.964  1.00  0.00     0.074 A 
ATOM     46  C   UNL A   1      39.591  29.085  29.385  1.00  0.00     0.049 A 
ATOM     47  N   UNL A   1      42.257  29.134  30.764  1.00  0.00    -0.248 NA
ATOM     48  C   UNL A   1      42.754  27.079  29.773  1.00  0.00     0.031 C 
ATOM     49  C   UNL A   1      38.258  29.096  28.780  1.00  0.00     0.029 A 
ATOM     50  N   UNL A   1      39.648  30.262  30.088  1.00  0.00    -0.354 N 
ATOM     51  C   UNL A   1      43.512  28.715  31.187  1.00  0.00     0.074 A 
ATOM     52  C   UNL A   1      43.748  27.421  30.581  1.00  0.00     0.031 C 
ATOM     53  C   UNL A   1      37.629  30.230  29.126  1.00  0.00     0.029 A 
ATOM     54  C   UNL A   1      38.500  31.012  30.000  1.00  0.00     0.049 A 
ATOM     55  H   UNL A   1      40.436  30.544  30.606  1.00  0.00     0.167 HD
ATOM     56  C   UNL A   1      44.393  29.356  31.991  1.00  0.00     0.037 A 
ATOM     57  C   UNL A   1      38.180  32.191  30.563  1.00  0.00     0.037 A 
ATOM     58  C   UNL A   1      44.175  30.656  32.568  1.00  0.00     0.049 A 
ATOM     59  C   UNL A   1      39.180  32.889  31.440  1.00  0.00     0.074 A 
ATOM     60  C   UNL A   1      45.040  31.414  33.340  1.00  0.00     0.029 A 
ATOM     61  N   UNL A   1      43.008  31.392  32.436  1.00  0.00    -0.354 N 
ATOM     62  N   UNL A   1      40.384  32.506  31.785  1.00  0.00    -0.248 NA
ATOM     63  C   UNL A   1      38.776  34.186  32.002  1.00  0.00     0.031 C 
ATOM     64  C   UNL A   1      44.384  32.597  33.700  1.00  0.00     0.029 A 
ATOM     65  C   UNL A   1      43.122  32.589  33.127  1.00  0.00     0.049 A 
ATOM     66  H   UNL A   1      42.214  31.108  31.928  1.00  0.00     0.167 HD
ATOM     67  C   UNL A   1      40.889  33.519  32.589  1.00  0.00     0.074 A 
ATOM     68  C   UNL A   1      39.865  34.540  32.671  1.00  0.00     0.031 C 
ATOM     69  C   UNL A   1      42.094  33.594  33.203  1.00  0.00     0.037 A 
BRANCH  56  70
ATOM     70  C   UNL A   1      45.682  28.652  32.293  1.00  0.00     0.057 A 
ATOM     71  C   UNL A   1      45.817  27.806  33.400  1.00  0.00     0.134 A 
ATOM     72  C   UNL A   1      46.793  28.806  31.455  1.00  0.00     0.134 A 
ATOM     73  F   UNL A   1      44.792  27.628  34.248  1.00  0.00    -0.206 F 
ATOM     74  C   UNL A   1      47.020  27.155  33.679  1.00  0.00     0.040 A 
ATOM     75  C   UNL A   1      47.995  28.143  31.710  1.00  0.00     0.040 A 
ATOM     76  F   UNL A   1      46.729  29.599  30.375  1.00  0.00    -0.206 F 
ATOM     77  C   UNL A   1      48.112  27.319  32.829  1.00  0.00     0.006 A 
ENDBRANCH  56  70
BRANCH  57  78
ATOM     78  C   UNL A   1      36.856  32.798  30.293  1.00  0.00     0.057 A 
ATOM     79  C   UNL A   1      35.778  32.585  31.160  1.00  0.00     0.134 A 
ATOM     80  C   UNL A   1      36.639  33.611  29.176  1.00  0.00     0.134 A 
ATOM     81  F   UNL A   1      35.923  31.799  32.236  1.00  0.00    -0.206 F 
ATOM     82  C   UNL A   1      34.527  33.155  30.920  1.00  0.00     0.040 A 
ATOM     83  C   UNL A   1      35.398  34.202  28.933  1.00  0.00     0.040 A 
ATOM     84  F   UNL A   1      37.636  33.855  28.312  1.00  0.00    -0.206 F 
ATOM     85  C   UNL A   1      34.336  33.970  29.806  1.00  0.00     0.006 A 
ENDBRANCH  57  78
BRANCH  69  86
ATOM     86  C   UNL A   1      42.376  34.829  34.003  1.00  0.00     0.057 A 
ATOM     87  C   UNL A   1      42.172  34.868  35.387  1.00  0.00     0.134 A 
ATOM     88  C   UNL A   1      42.886  35.978  33.388  1.00  0.00     0.134 A 
ATOM     89  F   UNL A   1      41.671  33.803  36.031  1.00  0.00    -0.206 F 
ATOM     90  C   UNL A   1      42.452  36.016  36.131  1.00  0.00     0.040 A 
ATOM     91  C   UNL A   1      43.187  37.124  34.124  1.00  0.00     0.040 A 
ATOM     92  F   UNL A   1      43.107  36.002  32.065  1.00  0.00    -0.206 F 
ATOM     93  C   UNL A   1      42.966  37.146  35.500  1.00  0.00     0.006 A 
ENDBRANCH  69  86
ENDBRANCH  43  44
ENDBRANCH  35  38
ENDBRANCH  33  34
ENDBRANCH  32  33
ENDBRANCH  31  32
ENDBRANCH  30  31
ENDBRANCH   1  30
TORSDOF 18
ENDMDL
MODEL 3
REMARK VINA RESULT:     -11.0      5.373      9.594
REMARK SMILES COc1ccc(NS(=O)(=O)c2cc(C(=O)NCCCCCCNC(=O)c3ccc(-c4c5nc(c(-c6c(F)cccc6F)c6ccc([nH]6)c(-c6c(F)cccc6F)c6nc(c(-c7c(F)cccc7F)c7ccc4[nH]7)C=C6)C=C5)cc3)cc(C)c2C)c(OC)c1
REMARK SMILES IDX 18 1 17 2 16 3 14 4 15 5 13 7 11 8 12 9 83 10 81 11 84 12
REMARK SMILES IDX 80 13 82 14 8 15 9 16 10 17 7 18 6 20 3 21 4 22 88 23 5 24
REMARK SMILES IDX 85 25 2 26 1 27 86 28 87 29 19 30 20 31 21 32 22 33 23 34
REMARK SMILES IDX 24 35 25 37 26 38 27 39 79 40 28 41 78 42 29 43 30 44 31 45
REMARK SMILES IDX 72 46 32 47 77 48 71 49 73 50 33 51 76 52 70 53 69 54 34 56
REMARK SMILES IDX 60 57 43 58 59 59 44 60 47 61 58 62 74 63 45 64 46 65 57 67
REMARK SMILES IDX 75 68 48 69 35 70 36 71 41 72 37 73 38 74 40 75 42 76 39 77
REMARK SMILES IDX 61 78 62 79 67 80 63 81 64 82 66 83 68 84 65 85 49 86 50 87
REMARK SMILES IDX 55 88 51 89 52 90 54 91 56 92 53 93
REMARK H PARENT 16 6 7 19 23 36 73 55 47 66
REMARK Flexibility Score: inf
ROOT
ATOM      1  C   UNL A   1      39.003  34.591  31.487  1.00  0.00     0.021 C 
ENDROOT
BRANCH   1   2
ATOM      2  C   UNL A   1      40.473  34.269  31.741  1.00  0.00     0.116 C 
BRANCH   2   3
ATOM      3  N   UNL A   1      40.849  34.363  33.136  1.00  0.00    -0.352 N 
ATOM      4  C   UNL A   1      40.866  33.400  34.114  1.00  0.00     0.251 C 
ATOM      5  O   UNL A   1      41.157  33.726  35.263  1.00  0.00    -0.269 OA
ATOM      6  H   UNL A   1      41.138  35.256  33.429  1.00  0.00     0.163 HD
BRANCH   4   7
ATOM      7  C   UNL A   1      40.528  31.980  33.833  1.00  0.00     0.041 A 
ATOM      8  C   UNL A   1      41.334  29.701  33.507  1.00  0.00     0.091 A 
ATOM      9  C   UNL A   1      41.567  31.050  33.835  1.00  0.00     0.036 A 
ATOM     10  C   UNL A   1      40.049  29.275  33.107  1.00  0.00    -0.028 A 
ATOM     11  C   UNL A   1      38.978  30.197  33.228  1.00  0.00    -0.046 A 
ATOM     12  C   UNL A   1      39.778  27.915  32.525  1.00  0.00     0.046 C 
ATOM     13  C   UNL A   1      39.239  31.547  33.536  1.00  0.00     0.017 A 
ATOM     14  C   UNL A   1      37.528  29.795  33.121  1.00  0.00     0.044 C 
BRANCH   8  15
ATOM     15  S   UNL A   1      42.729  28.608  33.798  1.00  0.00     0.262 S 
ATOM     16  O   UNL A   1      43.520  29.209  34.854  1.00  0.00    -0.201 OA
ATOM     17  O   UNL A   1      43.312  28.320  32.504  1.00  0.00    -0.201 OA
BRANCH  15  18
ATOM     18  N   UNL A   1      42.173  27.153  34.400  1.00  0.00    -0.276 N 
ATOM     19  H   UNL A   1      41.251  27.129  34.744  1.00  0.00     0.180 HD
BRANCH  18  20
ATOM     20  C   UNL A   1      42.925  25.942  34.458  1.00  0.00     0.091 A 
ATOM     21  C   UNL A   1      44.436  23.670  35.057  1.00  0.00     0.122 A 
ATOM     22  C   UNL A   1      44.944  24.663  34.215  1.00  0.00     0.049 A 
ATOM     23  C   UNL A   1      43.124  23.762  35.521  1.00  0.00     0.095 A 
ATOM     24  C   UNL A   1      44.178  25.781  33.879  1.00  0.00     0.034 A 
ATOM     25  C   UNL A   1      42.357  24.886  35.198  1.00  0.00     0.146 A 
BRANCH  21  26
ATOM     26  O   UNL A   1      45.339  22.714  35.431  1.00  0.00    -0.497 OA
ATOM     27  C   UNL A   1      45.064  21.384  35.012  1.00  0.00     0.278 C 
ENDBRANCH  21  26
BRANCH  25  28
ATOM     28  O   UNL A   1      41.087  25.100  35.686  1.00  0.00    -0.494 OA
ATOM     29  C   UNL A   1      41.007  25.239  37.103  1.00  0.00     0.278 C 
ENDBRANCH  25  28
ENDBRANCH  18  20
ENDBRANCH  15  18
ENDBRANCH   8  15
ENDBRANCH   4   7
ENDBRANCH   2   3
ENDBRANCH   1   2
BRANCH   1  30
ATOM     30  C   UNL A   1      38.474  34.318  30.074  1.00  0.00     0.002 C 
BRANCH  30  31
ATOM     31  C   UNL A   1      37.599  33.078  29.888  1.00  0.00     0.002 C 
BRANCH  31  32
ATOM     32  C   UNL A   1      36.221  33.293  29.259  1.00  0.00     0.021 C 
BRANCH  32  33
ATOM     33  C   UNL A   1      35.057  32.541  29.896  1.00  0.00     0.116 C 
BRANCH  33  34
ATOM     34  N   UNL A   1      34.322  31.705  28.964  1.00  0.00    -0.352 N 
ATOM     35  C   UNL A   1      34.734  30.597  28.264  1.00  0.00     0.251 C 
ATOM     36  H   UNL A   1      33.388  31.973  28.811  1.00  0.00     0.163 HD
ATOM     37  O   UNL A   1      33.975  30.069  27.457  1.00  0.00    -0.269 OA
BRANCH  35  38
ATOM     38  C   UNL A   1      36.101  30.053  28.440  1.00  0.00     0.039 A 
ATOM     39  C   UNL A   1      37.002  30.164  27.376  1.00  0.00     0.014 A 
ATOM     40  C   UNL A   1      36.500  29.424  29.624  1.00  0.00     0.014 A 
ATOM     41  C   UNL A   1      38.317  29.715  27.522  1.00  0.00     0.010 A 
ATOM     42  C   UNL A   1      37.827  29.027  29.789  1.00  0.00     0.010 A 
ATOM     43  C   UNL A   1      38.750  29.175  28.743  1.00  0.00    -0.014 A 
BRANCH  43  44
ATOM     44  C   UNL A   1      40.168  28.782  28.947  1.00  0.00     0.031 A 
ATOM     45  C   UNL A   1      41.159  29.762  29.506  1.00  0.00     0.074 A 
ATOM     46  C   UNL A   1      40.580  27.558  28.562  1.00  0.00     0.049 A 
ATOM     47  N   UNL A   1      42.449  29.623  29.683  1.00  0.00    -0.248 NA
ATOM     48  C   UNL A   1      40.636  31.079  29.897  1.00  0.00     0.031 C 
ATOM     49  C   UNL A   1      39.729  26.527  27.965  1.00  0.00     0.029 A 
ATOM     50  N   UNL A   1      41.824  26.980  28.606  1.00  0.00    -0.354 N 
ATOM     51  C   UNL A   1      42.895  30.838  30.187  1.00  0.00     0.074 A 
ATOM     52  C   UNL A   1      41.744  31.713  30.256  1.00  0.00     0.031 C 
ATOM     53  C   UNL A   1      40.473  25.439  27.710  1.00  0.00     0.029 A 
ATOM     54  C   UNL A   1      41.855  25.703  28.098  1.00  0.00     0.049 A 
ATOM     55  H   UNL A   1      42.618  27.435  28.967  1.00  0.00     0.167 HD
ATOM     56  C   UNL A   1      44.145  31.186  30.574  1.00  0.00     0.037 A 
ATOM     57  C   UNL A   1      42.881  24.845  27.954  1.00  0.00     0.037 A 
ATOM     58  C   UNL A   1      45.286  30.310  30.537  1.00  0.00     0.049 A 
ATOM     59  C   UNL A   1      44.256  25.250  28.404  1.00  0.00     0.074 A 
ATOM     60  C   UNL A   1      46.577  30.554  30.973  1.00  0.00     0.029 A 
ATOM     61  N   UNL A   1      45.271  29.017  30.038  1.00  0.00    -0.354 N 
ATOM     62  N   UNL A   1      44.651  26.383  28.930  1.00  0.00    -0.248 NA
ATOM     63  C   UNL A   1      45.326  24.255  28.242  1.00  0.00     0.031 C 
ATOM     64  C   UNL A   1      47.352  29.418  30.709  1.00  0.00     0.029 A 
ATOM     65  C   UNL A   1      46.535  28.456  30.137  1.00  0.00     0.049 A 
ATOM     66  H   UNL A   1      44.480  28.563  29.666  1.00  0.00     0.167 HD
ATOM     67  C   UNL A   1      46.009  26.233  29.178  1.00  0.00     0.074 A 
ATOM     68  C   UNL A   1      46.368  24.894  28.756  1.00  0.00     0.031 C 
ATOM     69  C   UNL A   1      46.878  27.125  29.709  1.00  0.00     0.037 A 
BRANCH  56  70
ATOM     70  C   UNL A   1      44.343  32.587  31.073  1.00  0.00     0.057 A 
ATOM     71  C   UNL A   1      44.410  33.678  30.197  1.00  0.00     0.134 A 
ATOM     72  C   UNL A   1      44.444  32.848  32.444  1.00  0.00     0.134 A 
ATOM     73  F   UNL A   1      44.332  33.490  28.871  1.00  0.00    -0.206 F 
ATOM     74  C   UNL A   1      44.596  34.979  30.666  1.00  0.00     0.040 A 
ATOM     75  C   UNL A   1      44.608  34.148  32.927  1.00  0.00     0.040 A 
ATOM     76  F   UNL A   1      44.383  31.848  33.336  1.00  0.00    -0.206 F 
ATOM     77  C   UNL A   1      44.690  35.217  32.036  1.00  0.00     0.006 A 
ENDBRANCH  56  70
BRANCH  57  78
ATOM     78  C   UNL A   1      42.639  23.502  27.376  1.00  0.00     0.057 A 
ATOM     79  C   UNL A   1      42.817  23.266  26.009  1.00  0.00     0.134 A 
ATOM     80  C   UNL A   1      42.238  22.425  28.174  1.00  0.00     0.134 A 
ATOM     81  F   UNL A   1      43.182  24.266  25.194  1.00  0.00    -0.206 F 
ATOM     82  C   UNL A   1      42.597  22.006  25.452  1.00  0.00     0.040 A 
ATOM     83  C   UNL A   1      42.032  21.155  27.634  1.00  0.00     0.040 A 
ATOM     84  F   UNL A   1      42.056  22.590  29.493  1.00  0.00    -0.206 F 
ATOM     85  C   UNL A   1      42.208  20.945  26.267  1.00  0.00     0.006 A 
ENDBRANCH  57  78
BRANCH  69  86
ATOM     86  C   UNL A   1      48.298  26.677  29.878  1.00  0.00     0.057 A 
ATOM     87  C   UNL A   1      48.741  26.075  31.063  1.00  0.00     0.134 A 
ATOM     88  C   UNL A   1      49.222  26.819  28.837  1.00  0.00     0.134 A 
ATOM     89  F   UNL A   1      47.905  25.924  32.101  1.00  0.00    -0.206 F 
ATOM     90  C   UNL A   1      50.060  25.643  31.210  1.00  0.00     0.040 A 
ATOM     91  C   UNL A   1      50.538  26.375  28.966  1.00  0.00     0.040 A 
ATOM     92  F   UNL A   1      48.858  27.385  27.676  1.00  0.00    -0.206 F 
ATOM     93  C   UNL A   1      50.961  25.788  30.158  1.00  0.00     0.006 A 
ENDBRANCH  69  86
ENDBRANCH  43  44
ENDBRANCH  35  38
ENDBRANCH  33  34
ENDBRANCH  32  33
ENDBRANCH  31  32
ENDBRANCH  30  31
ENDBRANCH   1  30
TORSDOF 18
ENDMDL
