MODEL 1
REMARK VINA RESULT:     -12.5      0.000      0.000
REMARK SMILES O=C(NCCCCCCNC(=O)c1ccc(-c2c3nc(c(-c4c(F)cccc4F)c4ccc([nH]4)c(-c4c(F)cccc4F)c4nc(c(-c5c(F)cccc5F)c5ccc2[nH]5)C=C4)C=C3)cc1)c1ccc(NS(=O)(=O)C2=Cc3ccccc3CC2)cc1
REMARK SMILES IDX 6 1 5 2 4 3 3 4 1 5 2 6 67 8 68 9 86 10 69 11 85 12 70 13
REMARK SMILES IDX 71 14 72 16 73 17 74 18 75 19 76 20 84 21 77 22 83 23 78 24
REMARK SMILES IDX 82 25 79 26 81 27 80 28 7 29 8 30 9 31 10 32 11 33 12 35
REMARK SMILES IDX 13 36 14 37 66 38 15 39 65 40 16 41 17 42 18 43 59 44 19 45
REMARK SMILES IDX 64 46 58 47 60 48 20 49 63 50 57 51 56 52 21 54 47 55 30 56
REMARK SMILES IDX 46 57 31 58 34 59 45 60 61 61 32 62 33 63 44 65 62 66 35 67
REMARK SMILES IDX 22 68 23 69 28 70 24 71 25 72 27 73 29 74 26 75 48 76 49 77
REMARK SMILES IDX 54 78 50 79 51 80 53 81 55 82 52 83 36 84 37 85 42 86 38 87
REMARK SMILES IDX 39 88 41 89 43 90 40 91
REMARK H PARENT 3 7 71 15 10 34 60 53 34 64
REMARK Flexibility Score: inf
ROOT
ATOM      1  C   UNL A   1      32.904  30.008  25.490  1.00  0.00     0.002 C 
ENDROOT
BRANCH   1   2
ATOM      2  C   UNL A   1      33.058  28.771  24.600  1.00  0.00     0.021 C 
BRANCH   2   3
ATOM      3  C   UNL A   1      33.224  29.059  23.110  1.00  0.00     0.116 C 
BRANCH   3   4
ATOM      4  N   UNL A   1      31.979  29.490  22.501  1.00  0.00    -0.352 N 
ATOM      5  O   UNL A   1      29.943  29.217  21.569  1.00  0.00    -0.269 OA
ATOM      6  C   UNL A   1      30.837  28.764  22.276  1.00  0.00     0.251 C 
ATOM      7  H   UNL A   1      31.951  30.431  22.211  1.00  0.00     0.163 HD
BRANCH   6   8
ATOM      8  C   UNL A   1      30.676  27.435  22.901  1.00  0.00     0.039 A 
ATOM      9  C   UNL A   1      31.369  26.333  22.395  1.00  0.00     0.016 A 
ATOM     10  C   UNL A   1      29.907  27.308  24.061  1.00  0.00     0.016 A 
ATOM     11  C   UNL A   1      31.271  25.098  23.036  1.00  0.00     0.027 A 
ATOM     12  C   UNL A   1      29.799  26.062  24.693  1.00  0.00     0.027 A 
ATOM     13  C   UNL A   1      30.480  24.954  24.178  1.00  0.00     0.049 A 
BRANCH  13  14
ATOM     14  N   UNL A   1      30.505  23.725  24.904  1.00  0.00    -0.280 N 
ATOM     15  H   UNL A   1      29.988  22.953  24.578  1.00  0.00     0.180 HD
BRANCH  14  16
ATOM     16  S   UNL A   1      31.422  23.590  26.332  1.00  0.00     0.258 S 
ATOM     17  O   UNL A   1      32.276  24.761  26.313  1.00  0.00    -0.202 OA
ATOM     18  O   UNL A   1      30.443  23.453  27.396  1.00  0.00    -0.202 OA
BRANCH  16  19
ATOM     19  C   UNL A   1      32.394  22.115  26.240  1.00  0.00     0.066 C 
ATOM     20  C   UNL A   1      32.999  21.873  25.056  1.00  0.00     0.026 C 
ATOM     21  C   UNL A   1      33.217  21.829  27.475  1.00  0.00     0.055 C 
ATOM     22  C   UNL A   1      34.372  22.444  24.938  1.00  0.00    -0.021 A 
ATOM     23  C   UNL A   1      34.494  22.681  27.470  1.00  0.00     0.041 C 
ATOM     24  C   UNL A   1      34.947  22.587  23.672  1.00  0.00     0.008 A 
ATOM     25  C   UNL A   1      35.086  22.848  26.086  1.00  0.00    -0.040 A 
ATOM     26  C   UNL A   1      36.204  23.177  23.538  1.00  0.00     0.001 A 
ATOM     27  C   UNL A   1      36.337  23.460  25.935  1.00  0.00     0.004 A 
ATOM     28  C   UNL A   1      36.889  23.626  24.666  1.00  0.00     0.000 A 
ENDBRANCH  16  19
ENDBRANCH  14  16
ENDBRANCH  13  14
ENDBRANCH   6   8
ENDBRANCH   3   4
ENDBRANCH   2   3
ENDBRANCH   1   2
BRANCH   1  29
ATOM     29  C   UNL A   1      31.465  30.419  25.812  1.00  0.00     0.002 C 
BRANCH  29  30
ATOM     30  C   UNL A   1      31.299  31.787  26.477  1.00  0.00     0.021 C 
BRANCH  30  31
ATOM     31  C   UNL A   1      32.572  32.396  27.056  1.00  0.00     0.116 C 
BRANCH  31  32
ATOM     32  N   UNL A   1      32.367  33.729  27.593  1.00  0.00    -0.352 N 
ATOM     33  C   UNL A   1      33.118  34.431  28.503  1.00  0.00     0.251 C 
ATOM     34  H   UNL A   1      31.570  34.200  27.254  1.00  0.00     0.163 HD
ATOM     35  O   UNL A   1      32.712  35.505  28.937  1.00  0.00    -0.269 OA
BRANCH  33  36
ATOM     36  C   UNL A   1      34.404  33.884  28.988  1.00  0.00     0.039 A 
ATOM     37  C   UNL A   1      34.405  33.105  30.150  1.00  0.00     0.014 A 
ATOM     38  C   UNL A   1      35.603  34.144  28.319  1.00  0.00     0.014 A 
ATOM     39  C   UNL A   1      35.596  32.539  30.606  1.00  0.00     0.010 A 
ATOM     40  C   UNL A   1      36.780  33.527  28.739  1.00  0.00     0.010 A 
ATOM     41  C   UNL A   1      36.788  32.719  29.886  1.00  0.00    -0.014 A 
BRANCH  41  42
ATOM     42  C   UNL A   1      38.050  32.068  30.317  1.00  0.00     0.031 A 
ATOM     43  C   UNL A   1      38.944  32.738  31.323  1.00  0.00     0.074 A 
ATOM     44  C   UNL A   1      38.426  30.903  29.753  1.00  0.00     0.049 A 
ATOM     45  N   UNL A   1      40.114  32.359  31.771  1.00  0.00    -0.248 NA
ATOM     46  C   UNL A   1      38.472  34.014  31.880  1.00  0.00     0.031 C 
ATOM     47  C   UNL A   1      37.668  30.173  28.736  1.00  0.00     0.029 A 
ATOM     48  N   UNL A   1      39.545  30.134  29.950  1.00  0.00    -0.354 N 
ATOM     49  C   UNL A   1      40.526  33.358  32.643  1.00  0.00     0.074 A 
ATOM     50  C   UNL A   1      39.501  34.378  32.631  1.00  0.00     0.031 C 
ATOM     51  C   UNL A   1      38.333  29.049  28.416  1.00  0.00     0.029 A 
ATOM     52  C   UNL A   1      39.576  28.999  29.179  1.00  0.00     0.049 A 
ATOM     53  H   UNL A   1      40.258  30.375  30.585  1.00  0.00     0.167 HD
ATOM     54  C   UNL A   1      41.649  33.412  33.398  1.00  0.00     0.037 A 
ATOM     55  C   UNL A   1      40.504  28.028  29.093  1.00  0.00     0.037 A 
ATOM     56  C   UNL A   1      42.650  32.378  33.440  1.00  0.00     0.049 A 
ATOM     57  C   UNL A   1      41.740  28.110  29.945  1.00  0.00     0.074 A 
ATOM     58  C   UNL A   1      43.781  32.305  34.235  1.00  0.00     0.029 A 
ATOM     59  N   UNL A   1      42.640  31.239  32.651  1.00  0.00    -0.354 N 
ATOM     60  N   UNL A   1      42.083  29.027  30.815  1.00  0.00    -0.248 NA
ATOM     61  C   UNL A   1      42.716  27.020  29.801  1.00  0.00     0.031 C 
ATOM     62  C   UNL A   1      44.476  31.138  33.898  1.00  0.00     0.029 A 
ATOM     63  C   UNL A   1      43.758  30.466  32.923  1.00  0.00     0.049 A 
ATOM     64  H   UNL A   1      41.943  31.011  31.995  1.00  0.00     0.167 HD
ATOM     65  C   UNL A   1      43.298  28.612  31.345  1.00  0.00     0.074 A 
ATOM     66  C   UNL A   1      43.627  27.356  30.703  1.00  0.00     0.031 C 
ATOM     67  C   UNL A   1      44.070  29.216  32.281  1.00  0.00     0.037 A 
BRANCH  54  68
ATOM     68  C   UNL A   1      41.855  34.634  34.244  1.00  0.00     0.057 A 
ATOM     69  C   UNL A   1      42.478  35.784  33.743  1.00  0.00     0.134 A 
ATOM     70  C   UNL A   1      41.400  34.669  35.568  1.00  0.00     0.134 A 
ATOM     71  F   UNL A   1      42.947  35.811  32.486  1.00  0.00    -0.206 F 
ATOM     72  C   UNL A   1      42.663  36.919  34.536  1.00  0.00     0.040 A 
ATOM     73  C   UNL A   1      41.557  35.806  36.364  1.00  0.00     0.040 A 
ATOM     74  F   UNL A   1      40.791  33.603  36.108  1.00  0.00    -0.206 F 
ATOM     75  C   UNL A   1      42.196  36.933  35.849  1.00  0.00     0.006 A 
ENDBRANCH  54  68
BRANCH  55  76
ATOM     76  C   UNL A   1      40.287  26.872  28.189  1.00  0.00     0.057 A 
ATOM     77  C   UNL A   1      40.861  26.842  26.912  1.00  0.00     0.134 A 
ATOM     78  C   UNL A   1      39.501  25.778  28.570  1.00  0.00     0.134 A 
ATOM     79  F   UNL A   1      41.609  27.871  26.486  1.00  0.00    -0.206 F 
ATOM     80  C   UNL A   1      40.651  25.773  26.041  1.00  0.00     0.040 A 
ATOM     81  C   UNL A   1      39.300  24.692  27.717  1.00  0.00     0.040 A 
ATOM     82  F   UNL A   1      38.928  25.745  29.782  1.00  0.00    -0.206 F 
ATOM     83  C   UNL A   1      39.871  24.691  26.446  1.00  0.00     0.006 A 
ENDBRANCH  55  76
BRANCH  67  84
ATOM     84  C   UNL A   1      45.327  28.510  32.691  1.00  0.00     0.057 A 
ATOM     85  C   UNL A   1      45.336  27.553  33.713  1.00  0.00     0.134 A 
ATOM     86  C   UNL A   1      46.535  28.766  32.030  1.00  0.00     0.134 A 
ATOM     87  F   UNL A   1      44.214  27.274  34.393  1.00  0.00    -0.206 F 
ATOM     88  C   UNL A   1      46.508  26.887  34.076  1.00  0.00     0.040 A 
ATOM     89  C   UNL A   1      47.708  28.090  32.369  1.00  0.00     0.040 A 
ATOM     90  F   UNL A   1      46.592  29.667  31.038  1.00  0.00    -0.206 F 
ATOM     91  C   UNL A   1      47.697  27.151  33.399  1.00  0.00     0.006 A 
ENDBRANCH  67  84
ENDBRANCH  41  42
ENDBRANCH  33  36
ENDBRANCH  31  32
ENDBRANCH  30  31
ENDBRANCH  29  30
ENDBRANCH   1  29
TORSDOF 16
ENDMDL
MODEL 2
REMARK VINA RESULT:     -12.3      4.617      8.288
REMARK SMILES O=C(NCCCCCCNC(=O)c1ccc(-c2c3nc(c(-c4c(F)cccc4F)c4ccc([nH]4)c(-c4c(F)cccc4F)c4nc(c(-c5c(F)cccc5F)c5ccc2[nH]5)C=C4)C=C3)cc1)c1ccc(NS(=O)(=O)C2=Cc3ccccc3CC2)cc1
REMARK SMILES IDX 6 1 5 2 4 3 3 4 1 5 2 6 67 8 68 9 86 10 69 11 85 12 70 13
REMARK SMILES IDX 71 14 72 16 73 17 74 18 75 19 76 20 84 21 77 22 83 23 78 24
REMARK SMILES IDX 82 25 79 26 81 27 80 28 7 29 8 30 9 31 10 32 11 33 12 35
REMARK SMILES IDX 13 36 14 37 66 38 15 39 65 40 16 41 17 42 18 43 59 44 19 45
REMARK SMILES IDX 64 46 58 47 60 48 20 49 63 50 57 51 56 52 21 54 47 55 30 56
REMARK SMILES IDX 46 57 31 58 34 59 45 60 61 61 32 62 33 63 44 65 62 66 35 67
REMARK SMILES IDX 22 68 23 69 28 70 24 71 25 72 27 73 29 74 26 75 48 76 49 77
REMARK SMILES IDX 54 78 50 79 51 80 53 81 55 82 52 83 36 84 37 85 42 86 38 87
REMARK SMILES IDX 39 88 41 89 43 90 40 91
REMARK H PARENT 3 7 71 15 10 34 60 53 34 64
REMARK Flexibility Score: inf
ROOT
ATOM      1  C   UNL A   1      37.905  33.236  30.328  1.00  0.00     0.002 C 
ENDROOT
BRANCH   1   2
ATOM      2  C   UNL A   1      38.538  34.455  31.007  1.00  0.00     0.021 C 
BRANCH   2   3
ATOM      3  C   UNL A   1      39.093  34.203  32.406  1.00  0.00     0.116 C 
BRANCH   3   4
ATOM      4  N   UNL A   1      38.048  33.843  33.347  1.00  0.00    -0.352 N 
ATOM      5  O   UNL A   1      36.787  32.436  34.581  1.00  0.00    -0.269 OA
ATOM      6  C   UNL A   1      37.831  32.639  33.968  1.00  0.00     0.251 C 
ATOM      7  H   UNL A   1      37.411  34.559  33.569  1.00  0.00     0.163 HD
BRANCH   6   8
ATOM      8  C   UNL A   1      38.866  31.586  33.915  1.00  0.00     0.039 A 
ATOM      9  C   UNL A   1      40.079  31.758  34.585  1.00  0.00     0.016 A 
ATOM     10  C   UNL A   1      38.584  30.375  33.276  1.00  0.00     0.016 A 
ATOM     11  C   UNL A   1      41.019  30.729  34.593  1.00  0.00     0.027 A 
ATOM     12  C   UNL A   1      39.538  29.349  33.274  1.00  0.00     0.027 A 
ATOM     13  C   UNL A   1      40.760  29.528  33.931  1.00  0.00     0.049 A 
BRANCH  13  14
ATOM     14  N   UNL A   1      41.668  28.434  34.070  1.00  0.00    -0.280 N 
ATOM     15  H   UNL A   1      42.330  28.254  33.364  1.00  0.00     0.180 HD
BRANCH  14  16
ATOM     16  S   UNL A   1      41.607  27.439  35.451  1.00  0.00     0.258 S 
ATOM     17  O   UNL A   1      41.138  28.322  36.500  1.00  0.00    -0.202 OA
ATOM     18  O   UNL A   1      40.782  26.309  35.063  1.00  0.00    -0.202 OA
BRANCH  16  19
ATOM     19  C   UNL A   1      43.244  26.870  35.807  1.00  0.00     0.066 C 
ATOM     20  C   UNL A   1      43.385  25.538  35.988  1.00  0.00     0.026 C 
ATOM     21  C   UNL A   1      44.332  27.548  35.007  1.00  0.00     0.055 C 
ATOM     22  C   UNL A   1      43.698  24.778  34.743  1.00  0.00    -0.021 A 
ATOM     23  C   UNL A   1      44.416  26.937  33.601  1.00  0.00     0.041 C 
ATOM     24  C   UNL A   1      43.505  23.394  34.721  1.00  0.00     0.008 A 
ATOM     25  C   UNL A   1      44.175  25.442  33.594  1.00  0.00    -0.040 A 
ATOM     26  C   UNL A   1      43.733  22.675  33.546  1.00  0.00     0.001 A 
ATOM     27  C   UNL A   1      44.377  24.713  32.415  1.00  0.00     0.004 A 
ATOM     28  C   UNL A   1      44.152  23.337  32.393  1.00  0.00     0.000 A 
ENDBRANCH  16  19
ENDBRANCH  14  16
ENDBRANCH  13  14
ENDBRANCH   6   8
ENDBRANCH   3   4
ENDBRANCH   2   3
ENDBRANCH   1   2
BRANCH   1  29
ATOM     29  C   UNL A   1      37.379  33.466  28.908  1.00  0.00     0.002 C 
BRANCH  29  30
ATOM     30  C   UNL A   1      35.862  33.605  28.777  1.00  0.00     0.021 C 
BRANCH  30  31
ATOM     31  C   UNL A   1      35.037  32.636  29.619  1.00  0.00     0.116 C 
BRANCH  31  32
ATOM     32  N   UNL A   1      34.279  31.694  28.816  1.00  0.00    -0.352 N 
ATOM     33  C   UNL A   1      34.688  30.530  28.213  1.00  0.00     0.251 C 
ATOM     34  H   UNL A   1      33.330  31.924  28.683  1.00  0.00     0.163 HD
ATOM     35  O   UNL A   1      33.929  29.928  27.461  1.00  0.00    -0.269 OA
BRANCH  33  36
ATOM     36  C   UNL A   1      36.055  30.012  28.444  1.00  0.00     0.039 A 
ATOM     37  C   UNL A   1      37.001  30.140  27.423  1.00  0.00     0.014 A 
ATOM     38  C   UNL A   1      36.402  29.391  29.647  1.00  0.00     0.014 A 
ATOM     39  C   UNL A   1      38.310  29.701  27.630  1.00  0.00     0.010 A 
ATOM     40  C   UNL A   1      37.724  29.011  29.875  1.00  0.00     0.010 A 
ATOM     41  C   UNL A   1      38.690  29.161  28.869  1.00  0.00    -0.014 A 
BRANCH  41  42
ATOM     42  C   UNL A   1      40.093  28.753  29.129  1.00  0.00     0.031 A 
ATOM     43  C   UNL A   1      41.040  29.692  29.822  1.00  0.00     0.074 A 
ATOM     44  C   UNL A   1      40.533  27.561  28.682  1.00  0.00     0.049 A 
ATOM     45  N   UNL A   1      42.315  29.542  30.077  1.00  0.00    -0.248 NA
ATOM     46  C   UNL A   1      40.487  30.981  30.265  1.00  0.00     0.031 C 
ATOM     47  C   UNL A   1      39.726  26.577  27.960  1.00  0.00     0.029 A 
ATOM     48  N   UNL A   1      41.774  26.979  28.762  1.00  0.00    -0.354 N 
ATOM     49  C   UNL A   1      42.720  30.721  30.687  1.00  0.00     0.074 A 
ATOM     50  C   UNL A   1      41.567  31.593  30.729  1.00  0.00     0.031 C 
ATOM     51  C   UNL A   1      40.485  25.503  27.685  1.00  0.00     0.029 A 
ATOM     52  C   UNL A   1      41.838  25.737  28.179  1.00  0.00     0.049 A 
ATOM     53  H   UNL A   1      42.544  27.412  29.197  1.00  0.00     0.167 HD
ATOM     54  C   UNL A   1      43.939  31.042  31.183  1.00  0.00     0.037 A 
ATOM     55  C   UNL A   1      42.872  24.885  28.055  1.00  0.00     0.037 A 
ATOM     56  C   UNL A   1      45.076  30.160  31.177  1.00  0.00     0.049 A 
ATOM     57  C   UNL A   1      44.214  25.264  28.617  1.00  0.00     0.074 A 
ATOM     58  C   UNL A   1      46.329  30.364  31.729  1.00  0.00     0.029 A 
ATOM     59  N   UNL A   1      45.099  28.906  30.586  1.00  0.00    -0.354 N 
ATOM     60  N   UNL A   1      44.564  26.354  29.253  1.00  0.00    -0.248 NA
ATOM     61  C   UNL A   1      45.302  24.291  28.445  1.00  0.00     0.031 C 
ATOM     62  C   UNL A   1      47.122  29.248  31.438  1.00  0.00     0.029 A 
ATOM     63  C   UNL A   1      46.351  28.334  30.740  1.00  0.00     0.049 A 
ATOM     64  H   UNL A   1      44.338  28.484  30.125  1.00  0.00     0.167 HD
ATOM     65  C   UNL A   1      45.903  26.188  29.583  1.00  0.00     0.074 A 
ATOM     66  C   UNL A   1      46.299  24.887  29.083  1.00  0.00     0.031 C 
ATOM     67  C   UNL A   1      46.729  27.036  30.243  1.00  0.00     0.037 A 
BRANCH  54  68
ATOM     68  C   UNL A   1      44.106  32.409  31.777  1.00  0.00     0.057 A 
ATOM     69  C   UNL A   1      44.288  33.546  30.979  1.00  0.00     0.134 A 
ATOM     70  C   UNL A   1      44.054  32.596  33.164  1.00  0.00     0.134 A 
ATOM     71  F   UNL A   1      44.359  33.435  29.644  1.00  0.00    -0.206 F 
ATOM     72  C   UNL A   1      44.439  34.816  31.540  1.00  0.00     0.040 A 
ATOM     73  C   UNL A   1      44.179  33.863  33.736  1.00  0.00     0.040 A 
ATOM     74  F   UNL A   1      43.876  31.550  33.986  1.00  0.00    -0.206 F 
ATOM     75  C   UNL A   1      44.378  34.977  32.923  1.00  0.00     0.006 A 
ENDBRANCH  54  68
BRANCH  55  76
ATOM     76  C   UNL A   1      42.674  23.570  27.397  1.00  0.00     0.057 A 
ATOM     77  C   UNL A   1      42.825  23.432  26.012  1.00  0.00     0.134 A 
ATOM     78  C   UNL A   1      42.327  22.428  28.127  1.00  0.00     0.134 A 
ATOM     79  F   UNL A   1      43.139  24.496  25.259  1.00  0.00    -0.206 F 
ATOM     80  C   UNL A   1      42.623  22.208  25.373  1.00  0.00     0.040 A 
ATOM     81  C   UNL A   1      42.143  21.192  27.504  1.00  0.00     0.040 A 
ATOM     82  F   UNL A   1      42.173  22.495  29.458  1.00  0.00    -0.206 F 
ATOM     83  C   UNL A   1      42.285  21.082  26.122  1.00  0.00     0.006 A 
ENDBRANCH  55  76
BRANCH  67  84
ATOM     84  C   UNL A   1      48.132  26.570  30.492  1.00  0.00     0.057 A 
ATOM     85  C   UNL A   1      49.160  26.797  29.569  1.00  0.00     0.134 A 
ATOM     86  C   UNL A   1      48.464  25.917  31.686  1.00  0.00     0.134 A 
ATOM     87  F   UNL A   1      48.902  27.405  28.401  1.00  0.00    -0.206 F 
ATOM     88  C   UNL A   1      50.467  26.375  29.816  1.00  0.00     0.040 A 
ATOM     89  C   UNL A   1      49.772  25.511  31.954  1.00  0.00     0.040 A 
ATOM     90  F   UNL A   1      47.526  25.675  32.613  1.00  0.00    -0.206 F 
ATOM     91  C   UNL A   1      50.776  25.735  31.015  1.00  0.00     0.006 A 
ENDBRANCH  67  84
ENDBRANCH  41  42
ENDBRANCH  33  36
ENDBRANCH  31  32
ENDBRANCH  30  31
ENDBRANCH  29  30
ENDBRANCH   1  29
TORSDOF 16
ENDMDL
MODEL 3
REMARK VINA RESULT:     -12.2      3.424      8.785
REMARK SMILES O=C(NCCCCCCNC(=O)c1ccc(-c2c3nc(c(-c4c(F)cccc4F)c4ccc([nH]4)c(-c4c(F)cccc4F)c4nc(c(-c5c(F)cccc5F)c5ccc2[nH]5)C=C4)C=C3)cc1)c1ccc(NS(=O)(=O)C2=Cc3ccccc3CC2)cc1
REMARK SMILES IDX 6 1 5 2 4 3 3 4 1 5 2 6 67 8 68 9 86 10 69 11 85 12 70 13
REMARK SMILES IDX 71 14 72 16 73 17 74 18 75 19 76 20 84 21 77 22 83 23 78 24
REMARK SMILES IDX 82 25 79 26 81 27 80 28 7 29 8 30 9 31 10 32 11 33 12 35
REMARK SMILES IDX 13 36 14 37 66 38 15 39 65 40 16 41 17 42 18 43 59 44 19 45
REMARK SMILES IDX 64 46 58 47 60 48 20 49 63 50 57 51 56 52 21 54 47 55 30 56
REMARK SMILES IDX 46 57 31 58 34 59 45 60 61 61 32 62 33 63 44 65 62 66 35 67
REMARK SMILES IDX 22 68 23 69 28 70 24 71 25 72 27 73 29 74 26 75 48 76 49 77
REMARK SMILES IDX 54 78 50 79 51 80 53 81 55 82 52 83 36 84 37 85 42 86 38 87
REMARK SMILES IDX 39 88 41 89 43 90 40 91
REMARK H PARENT 3 7 71 15 10 34 60 53 34 64
REMARK Flexibility Score: inf
ROOT
ATOM      1  C   UNL A   1      37.352  22.926  25.765  1.00  0.00     0.002 C 
ENDROOT
BRANCH   1   2
ATOM      2  C   UNL A   1      36.253  21.935  25.370  1.00  0.00     0.021 C 
BRANCH   2   3
ATOM      3  C   UNL A   1      35.209  21.660  26.450  1.00  0.00     0.116 C 
BRANCH   3   4
ATOM      4  N   UNL A   1      34.425  20.474  26.155  1.00  0.00    -0.352 N 
ATOM      5  O   UNL A   1      32.596  19.330  25.496  1.00  0.00    -0.269 OA
ATOM      6  C   UNL A   1      33.231  20.380  25.488  1.00  0.00     0.251 C 
ATOM      7  H   UNL A   1      34.803  19.625  26.477  1.00  0.00     0.163 HD
BRANCH   6   8
ATOM      8  C   UNL A   1      32.711  21.544  24.740  1.00  0.00     0.039 A 
ATOM      9  C   UNL A   1      33.193  21.828  23.461  1.00  0.00     0.016 A 
ATOM     10  C   UNL A   1      31.664  22.297  25.279  1.00  0.00     0.016 A 
ATOM     11  C   UNL A   1      32.644  22.882  22.731  1.00  0.00     0.027 A 
ATOM     12  C   UNL A   1      31.125  23.365  24.548  1.00  0.00     0.027 A 
ATOM     13  C   UNL A   1      31.619  23.660  23.273  1.00  0.00     0.049 A 
BRANCH  13  14
ATOM     14  N   UNL A   1      30.970  24.640  22.461  1.00  0.00    -0.280 N 
ATOM     15  H   UNL A   1      30.322  24.356  21.776  1.00  0.00     0.180 HD
BRANCH  14  16
ATOM     16  S   UNL A   1      31.313  26.293  22.673  1.00  0.00     0.258 S 
ATOM     17  O   UNL A   1      32.658  26.308  23.211  1.00  0.00    -0.202 OA
ATOM     18  O   UNL A   1      31.070  26.896  21.374  1.00  0.00    -0.202 OA
BRANCH  16  19
ATOM     19  C   UNL A   1      30.170  26.960  23.847  1.00  0.00     0.066 C 
ATOM     20  C   UNL A   1      30.472  26.763  25.150  1.00  0.00     0.026 C 
ATOM     21  C   UNL A   1      29.632  28.327  23.492  1.00  0.00     0.055 C 
ATOM     22  C   UNL A   1      31.294  27.846  25.762  1.00  0.00    -0.021 A 
ATOM     23  C   UNL A   1      30.655  29.411  23.858  1.00  0.00     0.041 C 
ATOM     24  C   UNL A   1      31.973  27.597  26.958  1.00  0.00     0.008 A 
ATOM     25  C   UNL A   1      31.400  29.109  25.142  1.00  0.00    -0.040 A 
ATOM     26  C   UNL A   1      32.797  28.578  27.512  1.00  0.00     0.001 A 
ATOM     27  C   UNL A   1      32.248  30.076  25.696  1.00  0.00     0.004 A 
ATOM     28  C   UNL A   1      32.945  29.807  26.873  1.00  0.00     0.000 A 
ENDBRANCH  16  19
ENDBRANCH  14  16
ENDBRANCH  13  14
ENDBRANCH   6   8
ENDBRANCH   3   4
ENDBRANCH   2   3
ENDBRANCH   1   2
BRANCH   1  29
ATOM     29  C   UNL A   1      38.726  22.315  26.051  1.00  0.00     0.002 C 
BRANCH  29  30
ATOM     30  C   UNL A   1      39.000  20.962  25.392  1.00  0.00     0.021 C 
BRANCH  30  31
ATOM     31  C   UNL A   1      39.433  19.845  26.337  1.00  0.00     0.116 C 
BRANCH  31  32
ATOM     32  N   UNL A   1      40.637  19.165  25.895  1.00  0.00    -0.352 N 
ATOM     33  C   UNL A   1      41.932  19.617  25.854  1.00  0.00     0.251 C 
ATOM     34  H   UNL A   1      40.505  18.242  25.576  1.00  0.00     0.163 HD
ATOM     35  O   UNL A   1      42.804  18.937  25.323  1.00  0.00    -0.269 OA
BRANCH  33  36
ATOM     36  C   UNL A   1      42.278  20.938  26.424  1.00  0.00     0.039 A 
ATOM     37  C   UNL A   1      42.656  21.964  25.554  1.00  0.00     0.014 A 
ATOM     38  C   UNL A   1      42.248  21.165  27.803  1.00  0.00     0.014 A 
ATOM     39  C   UNL A   1      42.945  23.233  26.059  1.00  0.00     0.010 A 
ATOM     40  C   UNL A   1      42.475  22.447  28.300  1.00  0.00     0.010 A 
ATOM     41  C   UNL A   1      42.826  23.494  27.433  1.00  0.00    -0.014 A 
BRANCH  41  42
ATOM     42  C   UNL A   1      43.062  24.853  27.980  1.00  0.00     0.031 A 
ATOM     43  C   UNL A   1      44.442  25.272  28.400  1.00  0.00     0.074 A 
ATOM     44  C   UNL A   1      42.020  25.688  28.161  1.00  0.00     0.049 A 
ATOM     45  N   UNL A   1      44.833  26.390  28.959  1.00  0.00    -0.248 NA
ATOM     46  C   UNL A   1      45.523  24.299  28.185  1.00  0.00     0.031 C 
ATOM     47  C   UNL A   1      40.626  25.386  27.833  1.00  0.00     0.029 A 
ATOM     48  N   UNL A   1      41.973  26.960  28.674  1.00  0.00    -0.354 N 
ATOM     49  C   UNL A   1      46.196  26.244  29.183  1.00  0.00     0.074 A 
ATOM     50  C   UNL A   1      46.557  24.917  28.737  1.00  0.00     0.031 C 
ATOM     51  C   UNL A   1      39.864  26.452  28.130  1.00  0.00     0.029 A 
ATOM     52  C   UNL A   1      40.709  27.497  28.700  1.00  0.00     0.049 A 
ATOM     53  H   UNL A   1      42.770  27.441  28.993  1.00  0.00     0.167 HD
ATOM     54  C   UNL A   1      47.069  27.141  29.699  1.00  0.00     0.037 A 
ATOM     55  C   UNL A   1      40.279  28.695  29.138  1.00  0.00     0.037 A 
ATOM     56  C   UNL A   1      46.717  28.476  30.106  1.00  0.00     0.049 A 
ATOM     57  C   UNL A   1      41.270  29.674  29.702  1.00  0.00     0.074 A 
ATOM     58  C   UNL A   1      47.546  29.485  30.564  1.00  0.00     0.029 A 
ATOM     59  N   UNL A   1      45.428  28.985  30.108  1.00  0.00    -0.354 N 
ATOM     60  N   UNL A   1      42.566  29.547  29.844  1.00  0.00    -0.248 NA
ATOM     61  C   UNL A   1      40.736  30.963  30.166  1.00  0.00     0.031 C 
ATOM     62  C   UNL A   1      46.752  30.594  30.879  1.00  0.00     0.029 A 
ATOM     63  C   UNL A   1      45.435  30.288  30.581  1.00  0.00     0.049 A 
ATOM     64  H   UNL A   1      44.625  28.495  29.817  1.00  0.00     0.167 HD
ATOM     65  C   UNL A   1      43.008  30.748  30.385  1.00  0.00     0.074 A 
ATOM     66  C   UNL A   1      41.841  31.593  30.538  1.00  0.00     0.031 C 
ATOM     67  C   UNL A   1      44.267  31.118  30.722  1.00  0.00     0.037 A 
BRANCH  54  68
ATOM     68  C   UNL A   1      48.497  26.707  29.851  1.00  0.00     0.057 A 
ATOM     69  C   UNL A   1      49.463  26.988  28.876  1.00  0.00     0.134 A 
ATOM     70  C   UNL A   1      48.917  26.025  31.000  1.00  0.00     0.134 A 
ATOM     71  F   UNL A   1      49.124  27.627  27.747  1.00  0.00    -0.206 F 
ATOM     72  C   UNL A   1      50.792  26.583  29.027  1.00  0.00     0.040 A 
ATOM     73  C   UNL A   1      50.247  25.637  31.174  1.00  0.00     0.040 A 
ATOM     74  F   UNL A   1      48.043  25.730  31.975  1.00  0.00    -0.206 F 
ATOM     75  C   UNL A   1      51.187  25.911  30.182  1.00  0.00     0.006 A 
ENDBRANCH  54  68
BRANCH  55  76
ATOM     76  C   UNL A   1      38.843  29.052  29.029  1.00  0.00     0.057 A 
ATOM     77  C   UNL A   1      38.303  29.488  27.814  1.00  0.00     0.134 A 
ATOM     78  C   UNL A   1      37.981  28.974  30.130  1.00  0.00     0.134 A 
ATOM     79  F   UNL A   1      39.086  29.600  26.730  1.00  0.00    -0.206 F 
ATOM     80  C   UNL A   1      36.960  29.847  27.698  1.00  0.00     0.040 A 
ATOM     81  C   UNL A   1      36.630  29.310  30.022  1.00  0.00     0.040 A 
ATOM     82  F   UNL A   1      38.438  28.558  31.320  1.00  0.00    -0.206 F 
ATOM     83  C   UNL A   1      36.119  29.754  28.805  1.00  0.00     0.006 A 
ENDBRANCH  55  76
BRANCH  67  84
ATOM     84  C   UNL A   1      44.453  32.506  31.256  1.00  0.00     0.057 A 
ATOM     85  C   UNL A   1      44.421  32.779  32.629  1.00  0.00     0.134 A 
ATOM     86  C   UNL A   1      44.702  33.577  30.388  1.00  0.00     0.134 A 
ATOM     87  F   UNL A   1      44.174  31.798  33.511  1.00  0.00    -0.206 F 
ATOM     88  C   UNL A   1      44.613  34.071  33.120  1.00  0.00     0.040 A 
ATOM     89  C   UNL A   1      44.917  34.869  30.868  1.00  0.00     0.040 A 
ATOM     90  F   UNL A   1      44.750  33.381  29.062  1.00  0.00    -0.206 F 
ATOM     91  C   UNL A   1      44.868  35.120  32.237  1.00  0.00     0.006 A 
ENDBRANCH  67  84
ENDBRANCH  41  42
ENDBRANCH  33  36
ENDBRANCH  31  32
ENDBRANCH  30  31
ENDBRANCH  29  30
ENDBRANCH   1  29
TORSDOF 16
ENDMDL
