MODEL 1
REMARK VINA RESULT:     -10.5      0.000      0.000
REMARK SMILES O=C(C[NH+]1CC2(CCCC2)C1)NCCCCCCNC(=O)c1ccc(-c2c3nc(c(-c4c(F)cccc4F)c4ccc([nH]4)c(-c4c(F)cccc4F)c4nc(c(-c5c(F)cccc5F)c5ccc2[nH]5)C=C4)C=C3)cc1
REMARK SMILES IDX 16 1 15 2 14 3 13 4 12 5 1 6 2 7 3 9 4 10 5 11 11 12 6 14
REMARK SMILES IDX 7 15 10 16 8 17 9 18 17 19 18 20 19 21 20 22 21 24 22 25
REMARK SMILES IDX 23 26 75 27 24 28 74 29 25 30 26 31 27 32 68 33 28 34 73 35
REMARK SMILES IDX 67 36 69 37 29 38 72 39 66 40 65 41 30 43 56 44 39 45 55 46
REMARK SMILES IDX 40 47 43 48 54 49 70 50 41 51 42 52 53 54 71 55 44 56 31 57
REMARK SMILES IDX 32 58 37 59 33 60 34 61 36 62 38 63 35 64 57 65 58 66 63 67
REMARK SMILES IDX 59 68 60 69 62 70 64 71 61 72 45 73 46 74 51 75 47 76 48 77
REMARK SMILES IDX 50 78 52 79 49 80
REMARK H PARENT 12 8 4 13 19 23 69 42 43 53
REMARK Flexibility Score: inf
ROOT
ATOM      1  C   UNL A   1      34.776  33.845  29.214  1.00  0.00     0.002 C 
ENDROOT
BRANCH   1   2
ATOM      2  C   UNL A   1      35.051  32.866  28.069  1.00  0.00     0.002 C 
BRANCH   2   3
ATOM      3  C   UNL A   1      34.139  31.633  28.027  1.00  0.00     0.021 C 
BRANCH   3   4
ATOM      4  C   UNL A   1      34.856  30.333  27.663  1.00  0.00     0.116 C 
BRANCH   4   5
ATOM      5  N   UNL A   1      34.479  29.875  26.349  1.00  0.00    -0.351 N 
ATOM      6  O   UNL A   1      33.278  28.053  27.061  1.00  0.00    -0.269 OA
ATOM      7  C   UNL A   1      33.735  28.737  26.149  1.00  0.00     0.275 C 
ATOM      8  H   UNL A   1      34.767  30.397  25.565  1.00  0.00     0.163 HD
BRANCH   7   9
ATOM      9  C   UNL A   1      33.574  28.350  24.680  1.00  0.00     0.363 C 
BRANCH   9  10
ATOM     10  N   UNL A   1      32.646  29.264  23.977  1.00  0.00    -0.326 N 
ATOM     11  C   UNL A   1      31.342  29.351  24.668  1.00  0.00     0.275 C 
ATOM     12  C   UNL A   1      31.993  28.566  22.843  1.00  0.00     0.275 C 
ATOM     13  H   UNL A   1      33.211  30.101  23.832  1.00  0.00     0.348 HD
ATOM     14  C   UNL A   1      30.761  28.249  23.742  1.00  0.00     0.068 C 
ATOM     15  C   UNL A   1      29.371  28.556  23.161  1.00  0.00     0.019 C 
ATOM     16  C   UNL A   1      30.696  26.818  24.302  1.00  0.00     0.019 C 
ATOM     17  C   UNL A   1      28.504  27.375  23.592  1.00  0.00     0.001 C 
ATOM     18  C   UNL A   1      29.476  26.214  23.624  1.00  0.00     0.001 C 
ENDBRANCH   9  10
ENDBRANCH   7   9
ENDBRANCH   4   5
ENDBRANCH   3   4
ENDBRANCH   2   3
ENDBRANCH   1   2
BRANCH   1  19
ATOM     19  C   UNL A   1      33.434  34.575  29.135  1.00  0.00     0.021 C 
BRANCH  19  20
ATOM     20  C   UNL A   1      33.480  36.040  29.554  1.00  0.00     0.116 C 
BRANCH  20  21
ATOM     21  N   UNL A   1      32.541  36.343  30.621  1.00  0.00    -0.352 N 
ATOM     22  C   UNL A   1      32.549  35.917  31.929  1.00  0.00     0.251 C 
ATOM     23  H   UNL A   1      31.795  36.937  30.373  1.00  0.00     0.163 HD
ATOM     24  O   UNL A   1      31.597  36.133  32.661  1.00  0.00    -0.269 OA
BRANCH  22  25
ATOM     25  C   UNL A   1      33.718  35.164  32.435  1.00  0.00     0.039 A 
ATOM     26  C   UNL A   1      33.535  33.854  32.888  1.00  0.00     0.014 A 
ATOM     27  C   UNL A   1      34.990  35.744  32.445  1.00  0.00     0.014 A 
ATOM     28  C   UNL A   1      34.643  33.101  33.287  1.00  0.00     0.010 A 
ATOM     29  C   UNL A   1      36.097  34.970  32.777  1.00  0.00     0.010 A 
ATOM     30  C   UNL A   1      35.936  33.640  33.200  1.00  0.00    -0.014 A 
BRANCH  30  31
ATOM     31  C   UNL A   1      37.139  32.839  33.545  1.00  0.00     0.031 A 
ATOM     32  C   UNL A   1      37.894  33.130  34.813  1.00  0.00     0.074 A 
ATOM     33  C   UNL A   1      37.599  31.913  32.680  1.00  0.00     0.049 A 
ATOM     34  N   UNL A   1      39.027  32.628  35.233  1.00  0.00    -0.248 NA
ATOM     35  C   UNL A   1      37.313  34.136  35.716  1.00  0.00     0.031 C 
ATOM     36  C   UNL A   1      36.979  31.565  31.399  1.00  0.00     0.029 A 
ATOM     37  N   UNL A   1      38.709  31.108  32.738  1.00  0.00    -0.354 N 
ATOM     38  C   UNL A   1      39.308  33.277  36.428  1.00  0.00     0.074 A 
ATOM     39  C   UNL A   1      38.246  34.233  36.652  1.00  0.00     0.031 C 
ATOM     40  C   UNL A   1      37.711  30.611  30.801  1.00  0.00     0.029 A 
ATOM     41  C   UNL A   1      38.872  30.310  31.632  1.00  0.00     0.049 A 
ATOM     42  H   UNL A   1      39.331  31.102  33.503  1.00  0.00     0.167 HD
ATOM     43  C   UNL A   1      40.350  33.082  37.271  1.00  0.00     0.037 A 
ATOM     44  C   UNL A   1      39.857  29.447  31.315  1.00  0.00     0.037 A 
ATOM     45  C   UNL A   1      41.379  32.098  37.070  1.00  0.00     0.049 A 
ATOM     46  C   UNL A   1      41.003  29.255  32.272  1.00  0.00     0.074 A 
ATOM     47  C   UNL A   1      42.427  31.767  37.912  1.00  0.00     0.029 A 
ATOM     48  N   UNL A   1      41.493  31.289  35.952  1.00  0.00    -0.354 N 
ATOM     49  N   UNL A   1      41.211  29.817  33.437  1.00  0.00    -0.248 NA
ATOM     50  C   UNL A   1      42.052  28.304  31.870  1.00  0.00     0.031 C 
ATOM     51  C   UNL A   1      43.202  30.790  37.281  1.00  0.00     0.029 A 
ATOM     52  C   UNL A   1      42.608  30.477  36.069  1.00  0.00     0.049 A 
ATOM     53  H   UNL A   1      40.872  31.290  35.187  1.00  0.00     0.167 HD
ATOM     54  C   UNL A   1      42.388  29.261  33.923  1.00  0.00     0.074 A 
ATOM     55  C   UNL A   1      42.845  28.311  32.932  1.00  0.00     0.031 C 
ATOM     56  C   UNL A   1      43.033  29.515  35.087  1.00  0.00     0.037 A 
BRANCH  43  57
ATOM     57  C   UNL A   1      40.435  33.944  38.495  1.00  0.00     0.057 A 
ATOM     58  C   UNL A   1      41.162  35.141  38.510  1.00  0.00     0.134 A 
ATOM     59  C   UNL A   1      39.715  33.609  39.650  1.00  0.00     0.134 A 
ATOM     60  F   UNL A   1      41.880  35.513  37.441  1.00  0.00    -0.206 F 
ATOM     61  C   UNL A   1      41.180  35.968  39.634  1.00  0.00     0.040 A 
ATOM     62  C   UNL A   1      39.704  34.441  40.771  1.00  0.00     0.040 A 
ATOM     63  F   UNL A   1      38.993  32.479  39.699  1.00  0.00    -0.206 F 
ATOM     64  C   UNL A   1      40.441  35.624  40.765  1.00  0.00     0.006 A 
ENDBRANCH  43  57
BRANCH  44  65
ATOM     65  C   UNL A   1      39.816  28.687  30.037  1.00  0.00     0.057 A 
ATOM     66  C   UNL A   1      39.176  27.445  29.957  1.00  0.00     0.134 A 
ATOM     67  C   UNL A   1      40.455  29.158  28.884  1.00  0.00     0.134 A 
ATOM     68  F   UNL A   1      38.563  26.931  31.034  1.00  0.00    -0.206 F 
ATOM     69  C   UNL A   1      39.202  26.681  28.789  1.00  0.00     0.040 A 
ATOM     70  C   UNL A   1      40.464  28.418  27.700  1.00  0.00     0.040 A 
ATOM     71  F   UNL A   1      41.081  30.344  28.891  1.00  0.00    -0.206 F 
ATOM     72  C   UNL A   1      39.847  27.169  27.655  1.00  0.00     0.006 A 
ENDBRANCH  44  65
BRANCH  56  73
ATOM     73  C   UNL A   1      44.267  28.714  35.383  1.00  0.00     0.057 A 
ATOM     74  C   UNL A   1      45.537  29.126  34.965  1.00  0.00     0.134 A 
ATOM     75  C   UNL A   1      44.184  27.543  36.148  1.00  0.00     0.134 A 
ATOM     76  F   UNL A   1      45.682  30.233  34.219  1.00  0.00    -0.206 F 
ATOM     77  C   UNL A   1      46.681  28.391  35.280  1.00  0.00     0.040 A 
ATOM     78  C   UNL A   1      45.323  26.815  36.493  1.00  0.00     0.040 A 
ATOM     79  F   UNL A   1      42.997  27.099  36.589  1.00  0.00    -0.206 F 
ATOM     80  C   UNL A   1      46.576  27.236  36.054  1.00  0.00     0.006 A 
ENDBRANCH  56  73
ENDBRANCH  30  31
ENDBRANCH  22  25
ENDBRANCH  20  21
ENDBRANCH  19  20
ENDBRANCH   1  19
TORSDOF 14
ENDMDL
MODEL 2
REMARK VINA RESULT:     -10.3      4.834      7.131
REMARK SMILES O=C(C[NH+]1CC2(CCCC2)C1)NCCCCCCNC(=O)c1ccc(-c2c3nc(c(-c4c(F)cccc4F)c4ccc([nH]4)c(-c4c(F)cccc4F)c4nc(c(-c5c(F)cccc5F)c5ccc2[nH]5)C=C4)C=C3)cc1
REMARK SMILES IDX 16 1 15 2 14 3 13 4 12 5 1 6 2 7 3 9 4 10 5 11 11 12 6 14
REMARK SMILES IDX 7 15 10 16 8 17 9 18 17 19 18 20 19 21 20 22 21 24 22 25
REMARK SMILES IDX 23 26 75 27 24 28 74 29 25 30 26 31 27 32 68 33 28 34 73 35
REMARK SMILES IDX 67 36 69 37 29 38 72 39 66 40 65 41 30 43 56 44 39 45 55 46
REMARK SMILES IDX 40 47 43 48 54 49 70 50 41 51 42 52 53 54 71 55 44 56 31 57
REMARK SMILES IDX 32 58 37 59 33 60 34 61 36 62 38 63 35 64 57 65 58 66 63 67
REMARK SMILES IDX 59 68 60 69 62 70 64 71 61 72 45 73 46 74 51 75 47 76 48 77
REMARK SMILES IDX 50 78 52 79 49 80
REMARK H PARENT 12 8 4 13 19 23 69 42 43 53
REMARK Flexibility Score: inf
ROOT
ATOM      1  C   UNL A   1      32.847  29.467  25.003  1.00  0.00     0.002 C 
ENDROOT
BRANCH   1   2
ATOM      2  C   UNL A   1      31.364  29.093  24.908  1.00  0.00     0.002 C 
BRANCH   2   3
ATOM      3  C   UNL A   1      31.024  28.017  23.868  1.00  0.00     0.021 C 
BRANCH   3   4
ATOM      4  C   UNL A   1      30.174  26.867  24.407  1.00  0.00     0.116 C 
BRANCH   4   5
ATOM      5  N   UNL A   1      30.966  25.682  24.616  1.00  0.00    -0.351 N 
ATOM      6  O   UNL A   1      31.377  26.053  26.843  1.00  0.00    -0.269 OA
ATOM      7  C   UNL A   1      31.540  25.380  25.828  1.00  0.00     0.275 C 
ATOM      8  H   UNL A   1      31.103  25.064  23.861  1.00  0.00     0.163 HD
BRANCH   7   9
ATOM      9  C   UNL A   1      32.459  24.161  25.795  1.00  0.00     0.363 C 
BRANCH   9  10
ATOM     10  N   UNL A   1      32.992  23.920  24.435  1.00  0.00    -0.326 N 
ATOM     11  C   UNL A   1      33.801  22.683  24.379  1.00  0.00     0.275 C 
ATOM     12  C   UNL A   1      34.216  24.725  24.209  1.00  0.00     0.275 C 
ATOM     13  H   UNL A   1      32.168  24.025  23.842  1.00  0.00     0.348 HD
ATOM     14  C   UNL A   1      35.097  23.504  24.608  1.00  0.00     0.068 C 
ATOM     15  C   UNL A   1      36.264  23.147  23.673  1.00  0.00     0.019 C 
ATOM     16  C   UNL A   1      35.672  23.535  26.034  1.00  0.00     0.019 C 
ATOM     17  C   UNL A   1      37.414  22.783  24.612  1.00  0.00     0.001 C 
ATOM     18  C   UNL A   1      37.173  23.662  25.822  1.00  0.00     0.001 C 
ENDBRANCH   9  10
ENDBRANCH   7   9
ENDBRANCH   4   5
ENDBRANCH   3   4
ENDBRANCH   2   3
ENDBRANCH   1   2
BRANCH   1  19
ATOM     19  C   UNL A   1      33.726  28.450  25.732  1.00  0.00     0.021 C 
BRANCH  19  20
ATOM     20  C   UNL A   1      33.729  28.583  27.250  1.00  0.00     0.116 C 
BRANCH  20  21
ATOM     21  N   UNL A   1      33.696  29.969  27.687  1.00  0.00    -0.352 N 
ATOM     22  C   UNL A   1      34.672  30.700  28.324  1.00  0.00     0.251 C 
ATOM     23  H   UNL A   1      32.858  30.452  27.502  1.00  0.00     0.163 HD
ATOM     24  O   UNL A   1      34.430  31.810  28.769  1.00  0.00    -0.269 OA
BRANCH  22  25
ATOM     25  C   UNL A   1      36.021  30.112  28.491  1.00  0.00     0.039 A 
ATOM     26  C   UNL A   1      36.921  30.173  27.424  1.00  0.00     0.014 A 
ATOM     27  C   UNL A   1      36.396  29.520  29.700  1.00  0.00     0.014 A 
ATOM     28  C   UNL A   1      38.226  29.701  27.594  1.00  0.00     0.010 A 
ATOM     29  C   UNL A   1      37.713  29.114  29.888  1.00  0.00     0.010 A 
ATOM     30  C   UNL A   1      38.642  29.202  28.839  1.00  0.00    -0.014 A 
BRANCH  30  31
ATOM     31  C   UNL A   1      40.043  28.763  29.072  1.00  0.00     0.031 A 
ATOM     32  C   UNL A   1      41.040  29.723  29.664  1.00  0.00     0.074 A 
ATOM     33  C   UNL A   1      40.436  27.537  28.675  1.00  0.00     0.049 A 
ATOM     34  N   UNL A   1      42.328  29.573  29.835  1.00  0.00    -0.248 NA
ATOM     35  C   UNL A   1      40.525  31.032  30.095  1.00  0.00     0.031 C 
ATOM     36  C   UNL A   1      39.576  26.528  28.054  1.00  0.00     0.029 A 
ATOM     37  N   UNL A   1      41.670  26.937  28.717  1.00  0.00    -0.354 N 
ATOM     38  C   UNL A   1      42.781  30.776  30.362  1.00  0.00     0.074 A 
ATOM     39  C   UNL A   1      41.638  31.657  30.454  1.00  0.00     0.031 C 
ATOM     40  C   UNL A   1      40.304  25.433  27.784  1.00  0.00     0.029 A 
ATOM     41  C   UNL A   1      41.690  25.675  28.172  1.00  0.00     0.049 A 
ATOM     42  H   UNL A   1      42.467  27.370  29.102  1.00  0.00     0.167 HD
ATOM     43  C   UNL A   1      44.035  31.109  30.751  1.00  0.00     0.037 A 
ATOM     44  C   UNL A   1      42.714  24.818  27.989  1.00  0.00     0.037 A 
ATOM     45  C   UNL A   1      45.160  30.214  30.704  1.00  0.00     0.049 A 
ATOM     46  C   UNL A   1      44.096  25.220  28.430  1.00  0.00     0.074 A 
ATOM     47  C   UNL A   1      46.450  30.433  31.157  1.00  0.00     0.029 A 
ATOM     48  N   UNL A   1      45.133  28.935  30.174  1.00  0.00    -0.354 N 
ATOM     49  N   UNL A   1      44.493  26.330  29.003  1.00  0.00    -0.248 NA
ATOM     50  C   UNL A   1      45.175  24.247  28.200  1.00  0.00     0.031 C 
ATOM     51  C   UNL A   1      47.215  29.303  30.856  1.00  0.00     0.029 A 
ATOM     52  C   UNL A   1      46.389  28.361  30.263  1.00  0.00     0.049 A 
ATOM     53  H   UNL A   1      44.338  28.499  29.790  1.00  0.00     0.167 HD
ATOM     54  C   UNL A   1      45.853  26.173  29.237  1.00  0.00     0.074 A 
ATOM     55  C   UNL A   1      46.213  24.858  28.753  1.00  0.00     0.031 C 
ATOM     56  C   UNL A   1      46.726  27.041  29.803  1.00  0.00     0.037 A 
BRANCH  43  57
ATOM     57  C   UNL A   1      44.265  32.497  31.269  1.00  0.00     0.057 A 
ATOM     58  C   UNL A   1      44.169  32.806  32.631  1.00  0.00     0.134 A 
ATOM     59  C   UNL A   1      44.666  33.521  30.399  1.00  0.00     0.134 A 
ATOM     60  F   UNL A   1      43.782  31.874  33.513  1.00  0.00    -0.206 F 
ATOM     61  C   UNL A   1      44.450  34.087  33.109  1.00  0.00     0.040 A 
ATOM     62  C   UNL A   1      44.974  34.799  30.868  1.00  0.00     0.040 A 
ATOM     63  F   UNL A   1      44.783  33.290  29.083  1.00  0.00    -0.206 F 
ATOM     64  C   UNL A   1      44.864  35.085  32.228  1.00  0.00     0.006 A 
ENDBRANCH  43  57
BRANCH  44  65
ATOM     65  C   UNL A   1      42.486  23.489  27.364  1.00  0.00     0.057 A 
ATOM     66  C   UNL A   1      42.160  22.373  28.142  1.00  0.00     0.134 A 
ATOM     67  C   UNL A   1      42.638  23.292  25.986  1.00  0.00     0.134 A 
ATOM     68  F   UNL A   1      42.021  22.494  29.471  1.00  0.00    -0.206 F 
ATOM     69  C   UNL A   1      42.028  21.102  27.581  1.00  0.00     0.040 A 
ATOM     70  C   UNL A   1      42.480  22.032  25.407  1.00  0.00     0.040 A 
ATOM     71  F   UNL A   1      42.943  24.322  25.183  1.00  0.00    -0.206 F 
ATOM     72  C   UNL A   1      42.186  20.929  26.207  1.00  0.00     0.006 A 
ENDBRANCH  44  65
BRANCH  56  73
ATOM     73  C   UNL A   1      48.141  26.577  29.987  1.00  0.00     0.057 A 
ATOM     74  C   UNL A   1      49.137  26.842  29.040  1.00  0.00     0.134 A 
ATOM     75  C   UNL A   1      48.520  25.905  31.157  1.00  0.00     0.134 A 
ATOM     76  F   UNL A   1      48.836  27.471  27.894  1.00  0.00    -0.206 F 
ATOM     77  C   UNL A   1      50.459  26.438  29.242  1.00  0.00     0.040 A 
ATOM     78  C   UNL A   1      49.842  25.521  31.381  1.00  0.00     0.040 A 
ATOM     79  F   UNL A   1      47.615  25.629  32.108  1.00  0.00    -0.206 F 
ATOM     80  C   UNL A   1      50.815  25.783  30.419  1.00  0.00     0.006 A 
ENDBRANCH  56  73
ENDBRANCH  30  31
ENDBRANCH  22  25
ENDBRANCH  20  21
ENDBRANCH  19  20
ENDBRANCH   1  19
TORSDOF 14
ENDMDL
MODEL 3
REMARK VINA RESULT:     -10.3      4.777      7.180
REMARK SMILES O=C(C[NH+]1CC2(CCCC2)C1)NCCCCCCNC(=O)c1ccc(-c2c3nc(c(-c4c(F)cccc4F)c4ccc([nH]4)c(-c4c(F)cccc4F)c4nc(c(-c5c(F)cccc5F)c5ccc2[nH]5)C=C4)C=C3)cc1
REMARK SMILES IDX 16 1 15 2 14 3 13 4 12 5 1 6 2 7 3 9 4 10 5 11 11 12 6 14
REMARK SMILES IDX 7 15 10 16 8 17 9 18 17 19 18 20 19 21 20 22 21 24 22 25
REMARK SMILES IDX 23 26 75 27 24 28 74 29 25 30 26 31 27 32 68 33 28 34 73 35
REMARK SMILES IDX 67 36 69 37 29 38 72 39 66 40 65 41 30 43 56 44 39 45 55 46
REMARK SMILES IDX 40 47 43 48 54 49 70 50 41 51 42 52 53 54 71 55 44 56 31 57
REMARK SMILES IDX 32 58 37 59 33 60 34 61 36 62 38 63 35 64 57 65 58 66 63 67
REMARK SMILES IDX 59 68 60 69 62 70 64 71 61 72 45 73 46 74 51 75 47 76 48 77
REMARK SMILES IDX 50 78 52 79 49 80
REMARK H PARENT 12 8 4 13 19 23 69 42 43 53
REMARK Flexibility Score: inf
ROOT
ATOM      1  C   UNL A   1      32.884  29.236  24.817  1.00  0.00     0.002 C 
ENDROOT
BRANCH   1   2
ATOM      2  C   UNL A   1      31.465  28.745  25.114  1.00  0.00     0.002 C 
BRANCH   2   3
ATOM      3  C   UNL A   1      30.693  28.201  23.904  1.00  0.00     0.021 C 
BRANCH   3   4
ATOM      4  C   UNL A   1      31.581  27.686  22.771  1.00  0.00     0.116 C 
BRANCH   4   5
ATOM      5  N   UNL A   1      32.113  26.381  23.073  1.00  0.00    -0.351 N 
ATOM      6  O   UNL A   1      33.792  26.435  21.509  1.00  0.00    -0.269 OA
ATOM      7  C   UNL A   1      33.173  25.838  22.387  1.00  0.00     0.275 C 
ATOM      8  H   UNL A   1      31.701  25.857  23.799  1.00  0.00     0.163 HD
BRANCH   7   9
ATOM      9  C   UNL A   1      33.482  24.391  22.763  1.00  0.00     0.363 C 
BRANCH   9  10
ATOM     10  N   UNL A   1      33.495  24.203  24.231  1.00  0.00    -0.326 N 
ATOM     11  C   UNL A   1      34.758  24.688  24.830  1.00  0.00     0.275 C 
ATOM     12  C   UNL A   1      33.875  22.811  24.571  1.00  0.00     0.275 C 
ATOM     13  H   UNL A   1      32.600  24.598  24.523  1.00  0.00     0.348 HD
ATOM     14  C   UNL A   1      35.354  23.257  24.766  1.00  0.00     0.068 C 
ATOM     15  C   UNL A   1      36.064  22.792  26.048  1.00  0.00     0.019 C 
ATOM     16  C   UNL A   1      36.304  22.939  23.599  1.00  0.00     0.019 C 
ATOM     17  C   UNL A   1      37.474  22.418  25.595  1.00  0.00     0.001 C 
ATOM     18  C   UNL A   1      37.269  21.916  24.180  1.00  0.00     0.001 C 
ENDBRANCH   9  10
ENDBRANCH   7   9
ENDBRANCH   4   5
ENDBRANCH   3   4
ENDBRANCH   2   3
ENDBRANCH   1   2
BRANCH   1  19
ATOM     19  C   UNL A   1      33.986  28.577  25.648  1.00  0.00     0.021 C 
BRANCH  19  20
ATOM     20  C   UNL A   1      33.777  28.653  27.156  1.00  0.00     0.116 C 
BRANCH  20  21
ATOM     21  N   UNL A   1      33.727  30.022  27.643  1.00  0.00    -0.352 N 
ATOM     22  C   UNL A   1      34.684  30.732  28.332  1.00  0.00     0.251 C 
ATOM     23  H   UNL A   1      32.892  30.509  27.453  1.00  0.00     0.163 HD
ATOM     24  O   UNL A   1      34.425  31.824  28.810  1.00  0.00    -0.269 OA
BRANCH  22  25
ATOM     25  C   UNL A   1      36.030  30.142  28.511  1.00  0.00     0.039 A 
ATOM     26  C   UNL A   1      36.947  30.219  27.461  1.00  0.00     0.014 A 
ATOM     27  C   UNL A   1      36.386  29.534  29.718  1.00  0.00     0.014 A 
ATOM     28  C   UNL A   1      38.249  29.745  27.645  1.00  0.00     0.010 A 
ATOM     29  C   UNL A   1      37.701  29.126  29.922  1.00  0.00     0.010 A 
ATOM     30  C   UNL A   1      38.646  29.229  28.889  1.00  0.00    -0.014 A 
BRANCH  30  31
ATOM     31  C   UNL A   1      40.043  28.788  29.139  1.00  0.00     0.031 A 
ATOM     32  C   UNL A   1      41.037  29.749  29.733  1.00  0.00     0.074 A 
ATOM     33  C   UNL A   1      40.437  27.558  28.754  1.00  0.00     0.049 A 
ATOM     34  N   UNL A   1      42.324  29.597  29.917  1.00  0.00    -0.248 NA
ATOM     35  C   UNL A   1      40.522  31.063  30.150  1.00  0.00     0.031 C 
ATOM     36  C   UNL A   1      39.580  26.547  28.131  1.00  0.00     0.029 A 
ATOM     37  N   UNL A   1      41.669  26.955  28.811  1.00  0.00    -0.354 N 
ATOM     38  C   UNL A   1      42.775  30.802  30.441  1.00  0.00     0.074 A 
ATOM     39  C   UNL A   1      41.633  31.687  30.516  1.00  0.00     0.031 C 
ATOM     40  C   UNL A   1      40.308  25.449  27.876  1.00  0.00     0.029 A 
ATOM     41  C   UNL A   1      41.690  25.690  28.275  1.00  0.00     0.049 A 
ATOM     42  H   UNL A   1      42.463  27.388  29.201  1.00  0.00     0.167 HD
ATOM     43  C   UNL A   1      44.026  31.134  30.840  1.00  0.00     0.037 A 
ATOM     44  C   UNL A   1      42.713  24.829  28.108  1.00  0.00     0.037 A 
ATOM     45  C   UNL A   1      45.149  30.236  30.810  1.00  0.00     0.049 A 
ATOM     46  C   UNL A   1      44.093  25.230  28.559  1.00  0.00     0.074 A 
ATOM     47  C   UNL A   1      46.435  30.454  31.273  1.00  0.00     0.029 A 
ATOM     48  N   UNL A   1      45.123  28.954  30.287  1.00  0.00    -0.354 N 
ATOM     49  N   UNL A   1      44.487  26.343  29.128  1.00  0.00    -0.248 NA
ATOM     50  C   UNL A   1      45.171  24.252  28.346  1.00  0.00     0.031 C 
ATOM     51  C   UNL A   1      47.200  29.320  30.987  1.00  0.00     0.029 A 
ATOM     52  C   UNL A   1      46.377  28.377  30.393  1.00  0.00     0.049 A 
ATOM     53  H   UNL A   1      44.330  28.517  29.899  1.00  0.00     0.167 HD
ATOM     54  C   UNL A   1      45.844  26.183  29.376  1.00  0.00     0.074 A 
ATOM     55  C   UNL A   1      46.205  24.864  28.904  1.00  0.00     0.031 C 
ATOM     56  C   UNL A   1      46.714  27.052  29.945  1.00  0.00     0.037 A 
BRANCH  43  57
ATOM     57  C   UNL A   1      44.255  32.526  31.350  1.00  0.00     0.057 A 
ATOM     58  C   UNL A   1      44.606  33.579  30.497  1.00  0.00     0.134 A 
ATOM     59  C   UNL A   1      44.045  32.829  32.702  1.00  0.00     0.134 A 
ATOM     60  F   UNL A   1      44.830  33.353  29.194  1.00  0.00    -0.206 F 
ATOM     61  C   UNL A   1      44.752  34.883  30.972  1.00  0.00     0.040 A 
ATOM     62  C   UNL A   1      44.163  34.134  33.184  1.00  0.00     0.040 A 
ATOM     63  F   UNL A   1      43.701  31.866  33.571  1.00  0.00    -0.206 F 
ATOM     64  C   UNL A   1      44.520  35.165  32.317  1.00  0.00     0.006 A 
ENDBRANCH  43  57
BRANCH  44  65
ATOM     65  C   UNL A   1      42.488  23.496  27.489  1.00  0.00     0.057 A 
ATOM     66  C   UNL A   1      42.511  23.334  26.099  1.00  0.00     0.134 A 
ATOM     67  C   UNL A   1      42.195  22.368  28.264  1.00  0.00     0.134 A 
ATOM     68  F   UNL A   1      42.765  24.382  25.301  1.00  0.00    -0.206 F 
ATOM     69  C   UNL A   1      42.216  22.108  25.499  1.00  0.00     0.040 A 
ATOM     70  C   UNL A   1      41.927  21.129  27.679  1.00  0.00     0.040 A 
ATOM     71  F   UNL A   1      42.164  22.453  29.602  1.00  0.00    -0.206 F 
ATOM     72  C   UNL A   1      41.925  21.000  26.291  1.00  0.00     0.006 A 
ENDBRANCH  44  65
BRANCH  56  73
ATOM     73  C   UNL A   1      48.127  26.586  30.145  1.00  0.00     0.057 A 
ATOM     74  C   UNL A   1      48.518  25.870  31.282  1.00  0.00     0.134 A 
ATOM     75  C   UNL A   1      49.093  26.810  29.156  1.00  0.00     0.134 A 
ATOM     76  F   UNL A   1      47.642  25.634  32.272  1.00  0.00    -0.206 F 
ATOM     77  C   UNL A   1      49.826  25.410  31.438  1.00  0.00     0.040 A 
ATOM     78  C   UNL A   1      50.396  26.331  29.288  1.00  0.00     0.040 A 
ATOM     79  F   UNL A   1      48.780  27.481  28.037  1.00  0.00    -0.206 F 
ATOM     80  C   UNL A   1      50.768  25.633  30.435  1.00  0.00     0.006 A 
ENDBRANCH  56  73
ENDBRANCH  30  31
ENDBRANCH  22  25
ENDBRANCH  20  21
ENDBRANCH  19  20
ENDBRANCH   1  19
TORSDOF 14
ENDMDL
