MODEL 1
REMARK VINA RESULT:      -9.9      0.000      0.000
REMARK SMILES COCCCN(C)C(=O)N1CCC(CC(=O)NCCCCCCNC(=O)c2ccc(-c3c4nc(c(-c5c(F)cccc5F)c5ccc([nH]5)c(-c5c(F)cccc5F)c5nc(c(-c6c(F)cccc6F)c6ccc3[nH]6)C=C5)C=C4)cc2)CC1
REMARK SMILES IDX 18 1 17 2 15 3 16 4 14 6 13 7 8 8 9 9 10 10 11 11 82 12
REMARK SMILES IDX 12 13 81 14 6 15 7 16 5 17 4 18 3 19 2 20 1 21 19 22 20 23
REMARK SMILES IDX 21 24 22 25 23 26 24 27 25 28 26 30 27 31 28 32 80 33 29 34
REMARK SMILES IDX 79 35 30 36 31 37 32 38 73 39 33 40 78 41 72 42 74 43 34 44
REMARK SMILES IDX 77 45 71 46 70 47 35 49 61 50 44 51 60 52 45 53 48 54 59 55
REMARK SMILES IDX 75 56 46 57 47 58 58 60 76 61 49 62 36 63 37 64 42 65 38 66
REMARK SMILES IDX 39 67 41 68 43 69 40 70 62 71 63 72 68 73 64 74 65 75 67 76
REMARK SMILES IDX 69 77 66 78 50 79 51 80 56 81 52 82 53 83 55 84 57 85 54 86
REMARK H PARENT 17 5 24 29 74 48 48 59
REMARK Flexibility Score: inf
ROOT
ATOM      1  C   UNL A   1      35.020  30.682  28.193  1.00  0.00     0.116 C 
ENDROOT
BRANCH   1   2
ATOM      2  N   UNL A   1      33.671  30.860  27.683  1.00  0.00    -0.356 N 
ATOM      3  C   UNL A   1      32.790  29.952  27.174  1.00  0.00     0.220 C 
ATOM      4  O   UNL A   1      31.734  30.371  26.693  1.00  0.00    -0.275 OA
ATOM      5  H   UNL A   1      33.339  31.787  27.708  1.00  0.00     0.163 HD
BRANCH   3   6
ATOM      6  C   UNL A   1      33.093  28.463  27.201  1.00  0.00     0.103 C 
BRANCH   6   7
ATOM      7  C   UNL A   1      32.597  27.695  25.960  1.00  0.00     0.002 C 
ATOM      8  C   UNL A   1      33.997  24.528  24.237  1.00  0.00     0.319 C 
ATOM      9  O   UNL A   1      35.021  24.798  24.856  1.00  0.00    -0.248 OA
ATOM     10  N   UNL A   1      32.968  25.446  24.133  1.00  0.00    -0.325 N 
ATOM     11  C   UNL A   1      33.303  26.777  23.682  1.00  0.00     0.121 C 
ATOM     12  C   UNL A   1      31.891  25.389  25.109  1.00  0.00     0.121 C 
ATOM     13  C   UNL A   1      33.649  27.688  24.848  1.00  0.00     0.026 C 
ATOM     14  C   UNL A   1      32.210  26.250  26.339  1.00  0.00     0.026 C 
BRANCH   8  15
ATOM     15  N   UNL A   1      33.788  23.331  23.571  1.00  0.00    -0.328 N 
ATOM     16  C   UNL A   1      33.108  23.258  22.286  1.00  0.00     0.148 C 
BRANCH  15  17
ATOM     17  C   UNL A   1      34.134  22.066  24.223  1.00  0.00     0.123 C 
BRANCH  17  18
ATOM     18  C   UNL A   1      33.213  21.656  25.381  1.00  0.00     0.050 C 
BRANCH  18  19
ATOM     19  C   UNL A   1      33.011  20.157  25.628  1.00  0.00     0.161 C 
BRANCH  19  20
ATOM     20  O   UNL A   1      32.209  19.507  24.642  1.00  0.00    -0.385 OA
ATOM     21  C   UNL A   1      32.420  18.110  24.527  1.00  0.00     0.194 C 
ENDBRANCH  19  20
ENDBRANCH  18  19
ENDBRANCH  17  18
ENDBRANCH  15  17
ENDBRANCH   8  15
ENDBRANCH   6   7
ENDBRANCH   3   6
ENDBRANCH   1   2
BRANCH   1  22
ATOM     22  C   UNL A   1      35.870  31.931  27.935  1.00  0.00     0.021 C 
BRANCH  22  23
ATOM     23  C   UNL A   1      35.082  33.239  27.872  1.00  0.00     0.002 C 
BRANCH  23  24
ATOM     24  C   UNL A   1      34.605  33.768  29.225  1.00  0.00     0.002 C 
BRANCH  24  25
ATOM     25  C   UNL A   1      33.265  34.509  29.203  1.00  0.00     0.021 C 
BRANCH  25  26
ATOM     26  C   UNL A   1      33.332  35.977  29.615  1.00  0.00     0.116 C 
BRANCH  26  27
ATOM     27  N   UNL A   1      32.491  36.258  30.768  1.00  0.00    -0.352 N 
ATOM     28  C   UNL A   1      32.576  35.774  32.049  1.00  0.00     0.251 C 
ATOM     29  H   UNL A   1      31.753  36.889  30.605  1.00  0.00     0.163 HD
ATOM     30  O   UNL A   1      31.649  35.936  32.834  1.00  0.00    -0.269 OA
BRANCH  28  31
ATOM     31  C   UNL A   1      33.788  35.047  32.480  1.00  0.00     0.039 A 
ATOM     32  C   UNL A   1      33.663  33.733  32.936  1.00  0.00     0.014 A 
ATOM     33  C   UNL A   1      35.040  35.668  32.452  1.00  0.00     0.014 A 
ATOM     34  C   UNL A   1      34.804  33.022  33.313  1.00  0.00     0.010 A 
ATOM     35  C   UNL A   1      36.183  34.936  32.760  1.00  0.00     0.010 A 
ATOM     36  C   UNL A   1      36.076  33.608  33.199  1.00  0.00    -0.014 A 
BRANCH  36  37
ATOM     37  C   UNL A   1      37.305  32.847  33.539  1.00  0.00     0.031 A 
ATOM     38  C   UNL A   1      38.054  33.150  34.807  1.00  0.00     0.074 A 
ATOM     39  C   UNL A   1      37.775  31.921  32.680  1.00  0.00     0.049 A 
ATOM     40  N   UNL A   1      39.182  32.647  35.243  1.00  0.00    -0.248 NA
ATOM     41  C   UNL A   1      37.473  34.173  35.693  1.00  0.00     0.031 C 
ATOM     42  C   UNL A   1      37.164  31.569  31.397  1.00  0.00     0.029 A 
ATOM     43  N   UNL A   1      38.885  31.117  32.750  1.00  0.00    -0.354 N 
ATOM     44  C   UNL A   1      39.444  33.292  36.444  1.00  0.00     0.074 A 
ATOM     45  C   UNL A   1      38.392  34.264  36.643  1.00  0.00     0.031 C 
ATOM     46  C   UNL A   1      37.898  30.611  30.808  1.00  0.00     0.029 A 
ATOM     47  C   UNL A   1      39.050  30.309  31.651  1.00  0.00     0.049 A 
ATOM     48  H   UNL A   1      39.504  31.119  33.516  1.00  0.00     0.167 HD
ATOM     49  C   UNL A   1      40.458  33.075  37.317  1.00  0.00     0.037 A 
ATOM     50  C   UNL A   1      40.028  29.434  31.352  1.00  0.00     0.037 A 
ATOM     51  C   UNL A   1      41.496  32.097  37.124  1.00  0.00     0.049 A 
ATOM     52  C   UNL A   1      41.152  29.226  32.330  1.00  0.00     0.074 A 
ATOM     53  C   UNL A   1      42.544  31.776  37.969  1.00  0.00     0.029 A 
ATOM     54  N   UNL A   1      41.616  31.282  36.008  1.00  0.00    -0.354 N 
ATOM     55  N   UNL A   1      41.354  29.799  33.491  1.00  0.00    -0.248 NA
ATOM     56  C   UNL A   1      42.178  28.242  31.960  1.00  0.00     0.031 C 
ATOM     57  C   UNL A   1      43.322  30.795  37.346  1.00  0.00     0.029 A 
ATOM     58  C   UNL A   1      42.730  30.468  36.136  1.00  0.00     0.049 A 
ATOM     59  H   UNL A   1      41.000  31.281  35.240  1.00  0.00     0.167 HD
ATOM     60  C   UNL A   1      42.511  29.226  34.003  1.00  0.00     0.074 A 
ATOM     61  C   UNL A   1      42.956  28.248  33.033  1.00  0.00     0.031 C 
ATOM     62  C   UNL A   1      43.150  29.488  35.169  1.00  0.00     0.037 A 
BRANCH  49  63
ATOM     63  C   UNL A   1      40.485  33.903  38.569  1.00  0.00     0.057 A 
ATOM     64  C   UNL A   1      39.769  33.528  39.714  1.00  0.00     0.134 A 
ATOM     65  C   UNL A   1      41.274  35.057  38.652  1.00  0.00     0.134 A 
ATOM     66  F   UNL A   1      38.984  32.439  39.699  1.00  0.00    -0.206 F 
ATOM     67  C   UNL A   1      39.820  34.281  40.888  1.00  0.00     0.040 A 
ATOM     68  C   UNL A   1      41.355  35.803  39.829  1.00  0.00     0.040 A 
ATOM     69  F   UNL A   1      41.991  35.470  37.596  1.00  0.00    -0.206 F 
ATOM     70  C   UNL A   1      40.622  35.418  40.950  1.00  0.00     0.006 A 
ENDBRANCH  49  63
BRANCH  50  71
ATOM     71  C   UNL A   1      39.992  28.681  30.071  1.00  0.00     0.057 A 
ATOM     72  C   UNL A   1      40.649  29.158  28.930  1.00  0.00     0.134 A 
ATOM     73  C   UNL A   1      39.278  27.483  29.948  1.00  0.00     0.134 A 
ATOM     74  F   UNL A   1      41.334  30.310  28.980  1.00  0.00    -0.206 F 
ATOM     75  C   UNL A   1      40.573  28.489  27.707  1.00  0.00     0.040 A 
ATOM     76  C   UNL A   1      39.217  26.788  28.739  1.00  0.00     0.040 A 
ATOM     77  F   UNL A   1      38.633  26.966  31.005  1.00  0.00    -0.206 F 
ATOM     78  C   UNL A   1      39.857  27.298  27.611  1.00  0.00     0.006 A 
ENDBRANCH  50  71
BRANCH  62  79
ATOM     79  C   UNL A   1      44.370  28.674  35.482  1.00  0.00     0.057 A 
ATOM     80  C   UNL A   1      45.655  29.087  35.104  1.00  0.00     0.134 A 
ATOM     81  C   UNL A   1      44.262  27.478  36.203  1.00  0.00     0.134 A 
ATOM     82  F   UNL A   1      45.826  30.216  34.400  1.00  0.00    -0.206 F 
ATOM     83  C   UNL A   1      46.784  28.328  35.412  1.00  0.00     0.040 A 
ATOM     84  C   UNL A   1      45.387  26.725  36.542  1.00  0.00     0.040 A 
ATOM     85  F   UNL A   1      43.063  27.030  36.605  1.00  0.00    -0.206 F 
ATOM     86  C   UNL A   1      46.652  27.145  36.140  1.00  0.00     0.006 A 
ENDBRANCH  62  79
ENDBRANCH  36  37
ENDBRANCH  28  31
ENDBRANCH  26  27
ENDBRANCH  25  26
ENDBRANCH  24  25
ENDBRANCH  23  24
ENDBRANCH  22  23
ENDBRANCH   1  22
TORSDOF 19
ENDMDL
MODEL 2
REMARK VINA RESULT:      -9.7      6.880     12.145
REMARK SMILES COCCCN(C)C(=O)N1CCC(CC(=O)NCCCCCCNC(=O)c2ccc(-c3c4nc(c(-c5c(F)cccc5F)c5ccc([nH]5)c(-c5c(F)cccc5F)c5nc(c(-c6c(F)cccc6F)c6ccc3[nH]6)C=C5)C=C4)cc2)CC1
REMARK SMILES IDX 18 1 17 2 15 3 16 4 14 6 13 7 8 8 9 9 10 10 11 11 82 12
REMARK SMILES IDX 12 13 81 14 6 15 7 16 5 17 4 18 3 19 2 20 1 21 19 22 20 23
REMARK SMILES IDX 21 24 22 25 23 26 24 27 25 28 26 30 27 31 28 32 80 33 29 34
REMARK SMILES IDX 79 35 30 36 31 37 32 38 73 39 33 40 78 41 72 42 74 43 34 44
REMARK SMILES IDX 77 45 71 46 70 47 35 49 61 50 44 51 60 52 45 53 48 54 59 55
REMARK SMILES IDX 75 56 46 57 47 58 58 60 76 61 49 62 36 63 37 64 42 65 38 66
REMARK SMILES IDX 39 67 41 68 43 69 40 70 62 71 63 72 68 73 64 74 65 75 67 76
REMARK SMILES IDX 69 77 66 78 50 79 51 80 56 81 52 82 53 83 55 84 57 85 54 86
REMARK H PARENT 17 5 24 29 74 48 48 59
REMARK Flexibility Score: inf
ROOT
ATOM      1  C   UNL A   1      40.081  21.957  26.403  1.00  0.00     0.116 C 
ENDROOT
BRANCH   1   2
ATOM      2  N   UNL A   1      39.796  23.163  27.163  1.00  0.00    -0.356 N 
ATOM      3  C   UNL A   1      38.899  24.164  26.931  1.00  0.00     0.220 C 
ATOM      4  O   UNL A   1      38.925  25.152  27.667  1.00  0.00    -0.275 OA
ATOM      5  H   UNL A   1      40.339  23.277  27.976  1.00  0.00     0.163 HD
BRANCH   3   6
ATOM      6  C   UNL A   1      37.888  24.066  25.799  1.00  0.00     0.103 C 
BRANCH   6   7
ATOM      7  C   UNL A   1      36.595  23.314  26.172  1.00  0.00     0.002 C 
ATOM      8  C   UNL A   1      33.672  22.088  23.955  1.00  0.00     0.319 C 
ATOM      9  O   UNL A   1      34.119  22.891  23.142  1.00  0.00    -0.248 OA
ATOM     10  N   UNL A   1      34.094  22.103  25.272  1.00  0.00    -0.325 N 
ATOM     11  C   UNL A   1      34.048  23.365  25.973  1.00  0.00     0.121 C 
ATOM     12  C   UNL A   1      35.197  21.236  25.653  1.00  0.00     0.121 C 
ATOM     13  C   UNL A   1      35.349  24.133  25.820  1.00  0.00     0.026 C 
ATOM     14  C   UNL A   1      36.547  21.941  25.468  1.00  0.00     0.026 C 
BRANCH   8  15
ATOM     15  N   UNL A   1      32.707  21.140  23.655  1.00  0.00    -0.328 N 
ATOM     16  C   UNL A   1      32.085  21.044  22.342  1.00  0.00     0.148 C 
BRANCH  15  17
ATOM     17  C   UNL A   1      32.178  20.281  24.717  1.00  0.00     0.123 C 
BRANCH  17  18
ATOM     18  C   UNL A   1      32.417  18.777  24.518  1.00  0.00     0.050 C 
BRANCH  18  19
ATOM     19  C   UNL A   1      33.829  18.331  24.122  1.00  0.00     0.161 C 
BRANCH  19  20
ATOM     20  O   UNL A   1      34.302  17.189  24.837  1.00  0.00    -0.385 OA
ATOM     21  C   UNL A   1      33.522  16.017  24.675  1.00  0.00     0.194 C 
ENDBRANCH  19  20
ENDBRANCH  18  19
ENDBRANCH  17  18
ENDBRANCH  15  17
ENDBRANCH   8  15
ENDBRANCH   6   7
ENDBRANCH   3   6
ENDBRANCH   1   2
BRANCH   1  22
ATOM     22  C   UNL A   1      41.583  21.830  26.125  1.00  0.00     0.021 C 
BRANCH  22  23
ATOM     23  C   UNL A   1      42.278  20.693  26.873  1.00  0.00     0.002 C 
BRANCH  23  24
ATOM     24  C   UNL A   1      41.644  19.314  26.679  1.00  0.00     0.002 C 
BRANCH  24  25
ATOM     25  C   UNL A   1      42.574  18.242  26.104  1.00  0.00     0.021 C 
BRANCH  25  26
ATOM     26  C   UNL A   1      44.056  18.607  26.099  1.00  0.00     0.116 C 
BRANCH  26  27
ATOM     27  N   UNL A   1      44.625  18.559  24.761  1.00  0.00    -0.352 N 
ATOM     28  C   UNL A   1      44.971  19.588  23.923  1.00  0.00     0.251 C 
ATOM     29  H   UNL A   1      44.785  17.655  24.406  1.00  0.00     0.163 HD
ATOM     30  O   UNL A   1      45.220  19.368  22.743  1.00  0.00    -0.269 OA
BRANCH  28  31
ATOM     31  C   UNL A   1      45.034  20.970  24.444  1.00  0.00     0.039 A 
ATOM     32  C   UNL A   1      45.628  21.199  25.687  1.00  0.00     0.014 A 
ATOM     33  C   UNL A   1      44.491  22.031  23.714  1.00  0.00     0.014 A 
ATOM     34  C   UNL A   1      45.727  22.503  26.174  1.00  0.00     0.010 A 
ATOM     35  C   UNL A   1      44.654  23.337  24.169  1.00  0.00     0.010 A 
ATOM     36  C   UNL A   1      45.267  23.586  25.406  1.00  0.00    -0.014 A 
BRANCH  36  37
ATOM     37  C   UNL A   1      45.417  24.984  25.882  1.00  0.00     0.031 A 
ATOM     38  C   UNL A   1      46.763  25.655  25.846  1.00  0.00     0.074 A 
ATOM     39  C   UNL A   1      44.352  25.631  26.396  1.00  0.00     0.049 A 
ATOM     40  N   UNL A   1      47.109  26.840  26.281  1.00  0.00    -0.248 NA
ATOM     41  C   UNL A   1      47.874  24.881  25.265  1.00  0.00     0.031 C 
ATOM     42  C   UNL A   1      43.005  25.072  26.528  1.00  0.00     0.029 A 
ATOM     43  N   UNL A   1      44.240  26.895  26.918  1.00  0.00    -0.354 N 
ATOM     44  C   UNL A   1      48.471  26.951  26.032  1.00  0.00     0.074 A 
ATOM     45  C   UNL A   1      48.901  25.693  25.462  1.00  0.00     0.031 C 
ATOM     46  C   UNL A   1      42.200  25.994  27.081  1.00  0.00     0.029 A 
ATOM     47  C   UNL A   1      42.979  27.191  27.377  1.00  0.00     0.049 A 
ATOM     48  H   UNL A   1      44.991  27.530  26.959  1.00  0.00     0.167 HD
ATOM     49  C   UNL A   1      49.284  28.015  26.236  1.00  0.00     0.037 A 
ATOM     50  C   UNL A   1      42.508  28.299  27.981  1.00  0.00     0.037 A 
ATOM     51  C   UNL A   1      48.850  29.270  26.790  1.00  0.00     0.049 A 
ATOM     52  C   UNL A   1      43.438  29.459  28.212  1.00  0.00     0.074 A 
ATOM     53  C   UNL A   1      49.590  30.421  27.001  1.00  0.00     0.029 A 
ATOM     54  N   UNL A   1      47.559  29.539  27.222  1.00  0.00    -0.354 N 
ATOM     55  N   UNL A   1      44.709  29.572  27.915  1.00  0.00    -0.248 NA
ATOM     56  C   UNL A   1      42.864  30.649  28.854  1.00  0.00     0.031 C 
ATOM     57  C   UNL A   1      48.757  31.373  27.597  1.00  0.00     0.029 A 
ATOM     58  C   UNL A   1      47.485  30.833  27.711  1.00  0.00     0.049 A 
ATOM     59  H   UNL A   1      46.808  28.905  27.185  1.00  0.00     0.167 HD
ATOM     60  C   UNL A   1      45.080  30.852  28.307  1.00  0.00     0.074 A 
ATOM     61  C   UNL A   1      43.894  31.483  28.845  1.00  0.00     0.031 C 
ATOM     62  C   UNL A   1      46.293  31.451  28.229  1.00  0.00     0.037 A 
BRANCH  49  63
ATOM     63  C   UNL A   1      50.726  27.872  25.845  1.00  0.00     0.057 A 
ATOM     64  C   UNL A   1      51.715  27.559  26.787  1.00  0.00     0.134 A 
ATOM     65  C   UNL A   1      51.125  27.997  24.508  1.00  0.00     0.134 A 
ATOM     66  F   UNL A   1      51.403  27.437  28.086  1.00  0.00    -0.206 F 
ATOM     67  C   UNL A   1      53.052  27.394  26.417  1.00  0.00     0.040 A 
ATOM     68  C   UNL A   1      52.454  27.808  24.122  1.00  0.00     0.040 A 
ATOM     69  F   UNL A   1      50.230  28.289  23.554  1.00  0.00    -0.206 F 
ATOM     70  C   UNL A   1      53.422  27.511  25.080  1.00  0.00     0.006 A 
ENDBRANCH  49  63
BRANCH  50  71
ATOM     71  C   UNL A   1      41.087  28.372  28.408  1.00  0.00     0.057 A 
ATOM     72  C   UNL A   1      40.088  28.810  27.530  1.00  0.00     0.134 A 
ATOM     73  C   UNL A   1      40.697  28.035  29.710  1.00  0.00     0.134 A 
ATOM     74  F   UNL A   1      40.401  29.165  26.276  1.00  0.00    -0.206 F 
ATOM     75  C   UNL A   1      38.759  28.938  27.939  1.00  0.00     0.040 A 
ATOM     76  C   UNL A   1      39.368  28.130  30.124  1.00  0.00     0.040 A 
ATOM     77  F   UNL A   1      41.604  27.600  30.597  1.00  0.00    -0.206 F 
ATOM     78  C   UNL A   1      38.396  28.594  29.240  1.00  0.00     0.006 A 
ENDBRANCH  50  71
BRANCH  62  79
ATOM     79  C   UNL A   1      46.388  32.874  28.696  1.00  0.00     0.057 A 
ATOM     80  C   UNL A   1      46.146  33.955  27.837  1.00  0.00     0.134 A 
ATOM     81  C   UNL A   1      46.689  33.165  30.032  1.00  0.00     0.134 A 
ATOM     82  F   UNL A   1      45.865  33.744  26.542  1.00  0.00    -0.206 F 
ATOM     83  C   UNL A   1      46.225  35.273  28.286  1.00  0.00     0.040 A 
ATOM     84  C   UNL A   1      46.743  34.479  30.499  1.00  0.00     0.040 A 
ATOM     85  F   UNL A   1      46.922  32.178  30.910  1.00  0.00    -0.206 F 
ATOM     86  C   UNL A   1      46.518  35.539  29.623  1.00  0.00     0.006 A 
ENDBRANCH  62  79
ENDBRANCH  36  37
ENDBRANCH  28  31
ENDBRANCH  26  27
ENDBRANCH  25  26
ENDBRANCH  24  25
ENDBRANCH  23  24
ENDBRANCH  22  23
ENDBRANCH   1  22
TORSDOF 19
ENDMDL
MODEL 3
REMARK VINA RESULT:      -9.6      1.791      6.789
REMARK SMILES COCCCN(C)C(=O)N1CCC(CC(=O)NCCCCCCNC(=O)c2ccc(-c3c4nc(c(-c5c(F)cccc5F)c5ccc([nH]5)c(-c5c(F)cccc5F)c5nc(c(-c6c(F)cccc6F)c6ccc3[nH]6)C=C5)C=C4)cc2)CC1
REMARK SMILES IDX 18 1 17 2 15 3 16 4 14 6 13 7 8 8 9 9 10 10 11 11 82 12
REMARK SMILES IDX 12 13 81 14 6 15 7 16 5 17 4 18 3 19 2 20 1 21 19 22 20 23
REMARK SMILES IDX 21 24 22 25 23 26 24 27 25 28 26 30 27 31 28 32 80 33 29 34
REMARK SMILES IDX 79 35 30 36 31 37 32 38 73 39 33 40 78 41 72 42 74 43 34 44
REMARK SMILES IDX 77 45 71 46 70 47 35 49 61 50 44 51 60 52 45 53 48 54 59 55
REMARK SMILES IDX 75 56 46 57 47 58 58 60 76 61 49 62 36 63 37 64 42 65 38 66
REMARK SMILES IDX 39 67 41 68 43 69 40 70 62 71 63 72 68 73 64 74 65 75 67 76
REMARK SMILES IDX 69 77 66 78 50 79 51 80 56 81 52 82 53 83 55 84 57 85 54 86
REMARK H PARENT 17 5 24 29 74 48 48 59
REMARK Flexibility Score: inf
ROOT
ATOM      1  C   UNL A   1      31.940  27.344  26.243  1.00  0.00     0.116 C 
ENDROOT
BRANCH   1   2
ATOM      2  N   UNL A   1      31.696  27.681  24.851  1.00  0.00    -0.356 N 
ATOM      3  C   UNL A   1      31.321  26.894  23.802  1.00  0.00     0.220 C 
ATOM      4  O   UNL A   1      31.291  27.399  22.677  1.00  0.00    -0.275 OA
ATOM      5  H   UNL A   1      31.822  28.632  24.628  1.00  0.00     0.163 HD
BRANCH   3   6
ATOM      6  C   UNL A   1      30.945  25.436  24.009  1.00  0.00     0.103 C 
BRANCH   6   7
ATOM      7  C   UNL A   1      31.959  24.434  23.423  1.00  0.00     0.002 C 
ATOM      8  C   UNL A   1      33.914  21.556  25.112  1.00  0.00     0.319 C 
ATOM      9  O   UNL A   1      33.634  22.145  26.151  1.00  0.00    -0.248 OA
ATOM     10  N   UNL A   1      33.740  22.164  23.882  1.00  0.00    -0.325 N 
ATOM     11  C   UNL A   1      34.313  23.478  23.699  1.00  0.00     0.121 C 
ATOM     12  C   UNL A   1      32.488  21.944  23.175  1.00  0.00     0.121 C 
ATOM     13  C   UNL A   1      33.332  24.570  24.088  1.00  0.00     0.026 C 
ATOM     14  C   UNL A   1      31.436  22.989  23.569  1.00  0.00     0.026 C 
BRANCH   8  15
ATOM     15  N   UNL A   1      34.450  20.279  25.067  1.00  0.00    -0.328 N 
ATOM     16  C   UNL A   1      35.884  20.033  24.997  1.00  0.00     0.148 C 
BRANCH  15  17
ATOM     17  C   UNL A   1      33.561  19.121  24.947  1.00  0.00     0.123 C 
BRANCH  17  18
ATOM     18  C   UNL A   1      34.082  17.988  24.051  1.00  0.00     0.050 C 
BRANCH  18  19
ATOM     19  C   UNL A   1      33.339  16.648  24.101  1.00  0.00     0.161 C 
BRANCH  19  20
ATOM     20  O   UNL A   1      33.805  15.760  25.117  1.00  0.00    -0.385 OA
ATOM     21  C   UNL A   1      35.197  15.828  25.379  1.00  0.00     0.194 C 
ENDBRANCH  19  20
ENDBRANCH  18  19
ENDBRANCH  17  18
ENDBRANCH  15  17
ENDBRANCH   8  15
ENDBRANCH   6   7
ENDBRANCH   3   6
ENDBRANCH   1   2
BRANCH   1  22
ATOM     22  C   UNL A   1      31.532  28.500  27.164  1.00  0.00     0.021 C 
BRANCH  22  23
ATOM     23  C   UNL A   1      32.278  29.810  26.914  1.00  0.00     0.002 C 
BRANCH  23  24
ATOM     24  C   UNL A   1      31.534  30.816  26.035  1.00  0.00     0.002 C 
BRANCH  24  25
ATOM     25  C   UNL A   1      31.375  32.216  26.634  1.00  0.00     0.021 C 
BRANCH  25  26
ATOM     26  C   UNL A   1      32.639  32.798  27.262  1.00  0.00     0.116 C 
BRANCH  26  27
ATOM     27  N   UNL A   1      32.472  34.196  27.627  1.00  0.00    -0.352 N 
ATOM     28  C   UNL A   1      33.075  34.914  28.629  1.00  0.00     0.251 C 
ATOM     29  H   UNL A   1      31.833  34.700  27.073  1.00  0.00     0.163 HD
ATOM     30  O   UNL A   1      32.646  36.019  28.941  1.00  0.00    -0.269 OA
BRANCH  28  31
ATOM     31  C   UNL A   1      34.239  34.348  29.340  1.00  0.00     0.039 A 
ATOM     32  C   UNL A   1      34.028  33.607  30.504  1.00  0.00     0.014 A 
ATOM     33  C   UNL A   1      35.537  34.566  28.868  1.00  0.00     0.014 A 
ATOM     34  C   UNL A   1      35.116  33.036  31.166  1.00  0.00     0.010 A 
ATOM     35  C   UNL A   1      36.613  33.938  29.490  1.00  0.00     0.010 A 
ATOM     36  C   UNL A   1      36.414  33.172  30.648  1.00  0.00    -0.014 A 
BRANCH  36  37
ATOM     37  C   UNL A   1      37.576  32.523  31.306  1.00  0.00     0.031 A 
ATOM     38  C   UNL A   1      38.251  31.345  30.658  1.00  0.00     0.074 A 
ATOM     39  C   UNL A   1      37.990  32.961  32.512  1.00  0.00     0.049 A 
ATOM     40  N   UNL A   1      39.230  30.602  31.108  1.00  0.00    -0.248 NA
ATOM     41  C   UNL A   1      37.741  30.932  29.340  1.00  0.00     0.031 C 
ATOM     42  C   UNL A   1      37.389  34.065  33.263  1.00  0.00     0.029 A 
ATOM     43  N   UNL A   1      39.004  32.520  33.324  1.00  0.00    -0.354 N 
ATOM     44  C   UNL A   1      39.448  29.635  30.135  1.00  0.00     0.074 A 
ATOM     45  C   UNL A   1      38.464  29.848  29.097  1.00  0.00     0.031 C 
ATOM     46  C   UNL A   1      38.054  34.223  34.419  1.00  0.00     0.029 A 
ATOM     47  C   UNL A   1      39.101  33.211  34.507  1.00  0.00     0.049 A 
ATOM     48  H   UNL A   1      39.605  31.779  33.081  1.00  0.00     0.167 HD
ATOM     49  C   UNL A   1      40.402  28.673  30.097  1.00  0.00     0.037 A 
ATOM     50  C   UNL A   1      39.933  33.039  35.552  1.00  0.00     0.037 A 
ATOM     51  C   UNL A   1      41.389  28.473  31.124  1.00  0.00     0.049 A 
ATOM     52  C   UNL A   1      40.970  31.950  35.492  1.00  0.00     0.074 A 
ATOM     53  C   UNL A   1      42.420  27.550  31.160  1.00  0.00     0.029 A 
ATOM     54  N   UNL A   1      41.469  29.208  32.298  1.00  0.00    -0.354 N 
ATOM     55  N   UNL A   1      41.204  31.083  34.538  1.00  0.00    -0.248 NA
ATOM     56  C   UNL A   1      41.864  31.823  36.651  1.00  0.00     0.031 C 
ATOM     57  C   UNL A   1      43.099  27.699  32.373  1.00  0.00     0.029 A 
ATOM     58  C   UNL A   1      42.524  28.749  33.071  1.00  0.00     0.049 A 
ATOM     59  H   UNL A   1      40.867  29.946  32.544  1.00  0.00     0.167 HD
ATOM     60  C   UNL A   1      42.288  30.328  34.967  1.00  0.00     0.074 A 
ATOM     61  C   UNL A   1      42.676  30.852  36.260  1.00  0.00     0.031 C 
ATOM     62  C   UNL A   1      42.906  29.293  34.349  1.00  0.00     0.037 A 
BRANCH  49  63
ATOM     63  C   UNL A   1      40.431  27.771  28.898  1.00  0.00     0.057 A 
ATOM     64  C   UNL A   1      39.661  26.600  28.841  1.00  0.00     0.134 A 
ATOM     65  C   UNL A   1      41.192  28.098  27.769  1.00  0.00     0.134 A 
ATOM     66  F   UNL A   1      38.918  26.223  29.893  1.00  0.00    -0.206 F 
ATOM     67  C   UNL A   1      39.663  25.778  27.713  1.00  0.00     0.040 A 
ATOM     68  C   UNL A   1      41.181  27.298  26.624  1.00  0.00     0.040 A 
ATOM     69  F   UNL A   1      41.946  29.206  27.753  1.00  0.00    -0.206 F 
ATOM     70  C   UNL A   1      40.419  26.131  26.597  1.00  0.00     0.006 A 
ENDBRANCH  49  63
BRANCH  50  71
ATOM     71  C   UNL A   1      39.827  33.917  36.746  1.00  0.00     0.057 A 
ATOM     72  C   UNL A   1      39.047  33.550  37.849  1.00  0.00     0.134 A 
ATOM     73  C   UNL A   1      40.479  35.155  36.803  1.00  0.00     0.134 A 
ATOM     74  F   UNL A   1      38.382  32.386  37.848  1.00  0.00    -0.206 F 
ATOM     75  C   UNL A   1      38.893  34.394  38.951  1.00  0.00     0.040 A 
ATOM     76  C   UNL A   1      40.359  35.995  37.909  1.00  0.00     0.040 A 
ATOM     77  F   UNL A   1      41.250  35.562  35.783  1.00  0.00    -0.206 F 
ATOM     78  C   UNL A   1      39.554  35.620  38.983  1.00  0.00     0.006 A 
ENDBRANCH  50  71
BRANCH  62  79
ATOM     79  C   UNL A   1      44.093  28.688  35.039  1.00  0.00     0.057 A 
ATOM     80  C   UNL A   1      43.959  27.661  35.984  1.00  0.00     0.134 A 
ATOM     81  C   UNL A   1      45.390  29.115  34.728  1.00  0.00     0.134 A 
ATOM     82  F   UNL A   1      42.743  27.216  36.335  1.00  0.00    -0.206 F 
ATOM     83  C   UNL A   1      45.071  27.098  36.610  1.00  0.00     0.040 A 
ATOM     84  C   UNL A   1      46.511  28.539  35.327  1.00  0.00     0.040 A 
ATOM     85  F   UNL A   1      45.590  30.087  33.826  1.00  0.00    -0.206 F 
ATOM     86  C   UNL A   1      46.354  27.533  36.276  1.00  0.00     0.006 A 
ENDBRANCH  62  79
ENDBRANCH  36  37
ENDBRANCH  28  31
ENDBRANCH  26  27
ENDBRANCH  25  26
ENDBRANCH  24  25
ENDBRANCH  23  24
ENDBRANCH  22  23
ENDBRANCH   1  22
TORSDOF 19
ENDMDL
