MODEL 1
REMARK VINA RESULT:     -12.6      0.000      0.000
REMARK SMILES Cc1ccc2c(=O)c3cccc(CC(=O)NCCCCCCNC(=O)c4ccc(-c5c6nc(c(-c7c(F)cccc7F)c7ccc([nH]7)c(-c7c(F)cccc7F)c7nc(c(-c8c(F)cccc8F)c8ccc5[nH]8)C=C7)C=C6)cc4)c3oc2c1C
REMARK SMILES IDX 20 1 19 2 18 3 17 4 16 5 14 6 15 7 13 9 12 10 1 11 2 12 3 13
REMARK SMILES IDX 83 14 4 15 82 16 84 17 5 18 81 19 6 20 80 21 7 22 8 23 9 24
REMARK SMILES IDX 11 25 10 26 21 27 22 28 23 29 24 30 25 32 26 33 27 34 79 35
REMARK SMILES IDX 28 36 78 37 29 38 30 39 31 40 72 41 32 42 77 43 71 44 73 45
REMARK SMILES IDX 33 46 76 47 70 48 69 49 34 51 60 52 43 53 59 54 44 55 47 56
REMARK SMILES IDX 58 57 74 58 45 59 46 60 57 62 75 63 48 64 35 65 36 66 41 67
REMARK SMILES IDX 37 68 38 69 40 70 42 71 39 72 61 73 62 74 67 75 63 76 64 77
REMARK SMILES IDX 66 78 68 79 65 80 49 81 50 82 55 83 51 84 52 85 54 86 56 87
REMARK SMILES IDX 53 88
REMARK H PARENT 16 8 23 31 73 50 47 61
REMARK Flexibility Score: inf
ROOT
ATOM      1  C   UNL A   1      35.649  23.462  25.096  1.00  0.00     0.002 C 
ENDROOT
BRANCH   1   2
ATOM      2  C   UNL A   1      35.158  22.027  24.872  1.00  0.00     0.002 C 
BRANCH   2   3
ATOM      3  C   UNL A   1      34.862  21.231  26.151  1.00  0.00     0.021 C 
BRANCH   3   4
ATOM      4  C   UNL A   1      33.372  20.992  26.397  1.00  0.00     0.116 C 
BRANCH   4   5
ATOM      5  N   UNL A   1      32.789  22.068  27.172  1.00  0.00    -0.356 N 
ATOM      6  C   UNL A   1      31.778  22.924  26.846  1.00  0.00     0.224 C 
ATOM      7  O   UNL A   1      31.474  23.799  27.660  1.00  0.00    -0.275 OA
ATOM      8  H   UNL A   1      33.180  22.202  28.065  1.00  0.00     0.163 HD
BRANCH   6   9
ATOM      9  C   UNL A   1      30.988  22.733  25.560  1.00  0.00     0.139 C 
BRANCH   9  10
ATOM     10  C   UNL A   1      31.716  23.090  24.283  1.00  0.00     0.005 A 
ATOM     11  C   UNL A   1      31.984  30.053  26.487  1.00  0.00     0.045 C 
ATOM     12  C   UNL A   1      32.292  28.978  25.479  1.00  0.00    -0.044 A 
ATOM     13  C   UNL A   1      32.984  29.336  24.310  1.00  0.00     0.005 A 
ATOM     14  C   UNL A   1      31.920  27.628  25.683  1.00  0.00    -0.005 A 
ATOM     15  C   UNL A   1      33.315  28.379  23.354  1.00  0.00     0.016 A 
ATOM     16  C   UNL A   1      32.259  26.666  24.707  1.00  0.00     0.141 A 
ATOM     17  C   UNL A   1      31.190  27.175  26.923  1.00  0.00     0.049 C 
ATOM     18  C   UNL A   1      32.952  27.049  23.560  1.00  0.00     0.066 A 
ATOM     19  O   UNL A   1      31.878  25.364  24.948  1.00  0.00    -0.455 OA
ATOM     20  C   UNL A   1      33.306  26.028  22.566  1.00  0.00     0.200 A 
ATOM     21  C   UNL A   1      32.159  24.396  24.015  1.00  0.00     0.142 A 
ATOM     22  O   UNL A   1      33.945  26.304  21.559  1.00  0.00    -0.288 OA
ATOM     23  C   UNL A   1      32.854  24.658  22.834  1.00  0.00     0.066 A 
ATOM     24  C   UNL A   1      33.118  23.642  21.910  1.00  0.00     0.016 A 
ATOM     25  C   UNL A   1      31.945  22.085  23.322  1.00  0.00     0.008 A 
ATOM     26  C   UNL A   1      32.655  22.354  22.153  1.00  0.00     0.001 A 
ENDBRANCH   9  10
ENDBRANCH   6   9
ENDBRANCH   4   5
ENDBRANCH   3   4
ENDBRANCH   2   3
ENDBRANCH   1   2
BRANCH   1  27
ATOM     27  C   UNL A   1      37.153  23.667  24.915  1.00  0.00     0.021 C 
BRANCH  27  28
ATOM     28  C   UNL A   1      37.914  23.921  26.209  1.00  0.00     0.116 C 
BRANCH  28  29
ATOM     29  N   UNL A   1      39.328  23.590  26.100  1.00  0.00    -0.352 N 
ATOM     30  C   UNL A   1      40.428  24.267  26.572  1.00  0.00     0.251 C 
ATOM     31  H   UNL A   1      39.527  22.756  25.614  1.00  0.00     0.163 HD
ATOM     32  O   UNL A   1      41.557  23.923  26.231  1.00  0.00    -0.269 OA
BRANCH  30  33
ATOM     33  C   UNL A   1      40.250  25.429  27.470  1.00  0.00     0.039 A 
ATOM     34  C   UNL A   1      40.946  26.615  27.242  1.00  0.00     0.014 A 
ATOM     35  C   UNL A   1      39.382  25.329  28.564  1.00  0.00     0.014 A 
ATOM     36  C   UNL A   1      40.925  27.621  28.199  1.00  0.00     0.010 A 
ATOM     37  C   UNL A   1      39.276  26.392  29.468  1.00  0.00     0.010 A 
ATOM     38  C   UNL A   1      40.085  27.529  29.322  1.00  0.00    -0.014 A 
BRANCH  38  39
ATOM     39  C   UNL A   1      40.077  28.653  30.298  1.00  0.00     0.031 A 
ATOM     40  C   UNL A   1      39.048  29.752  30.222  1.00  0.00     0.074 A 
ATOM     41  C   UNL A   1      40.964  28.634  31.312  1.00  0.00     0.049 A 
ATOM     42  N   UNL A   1      38.833  30.737  31.060  1.00  0.00    -0.248 NA
ATOM     43  C   UNL A   1      38.150  29.757  29.057  1.00  0.00     0.031 C 
ATOM     44  C   UNL A   1      42.027  27.639  31.484  1.00  0.00     0.029 A 
ATOM     45  N   UNL A   1      41.094  29.447  32.409  1.00  0.00    -0.354 N 
ATOM     46  C   UNL A   1      37.794  31.484  30.517  1.00  0.00     0.074 A 
ATOM     47  C   UNL A   1      37.442  30.858  29.261  1.00  0.00     0.031 C 
ATOM     48  C   UNL A   1      42.653  27.858  32.651  1.00  0.00     0.029 A 
ATOM     49  C   UNL A   1      42.082  29.044  33.276  1.00  0.00     0.049 A 
ATOM     50  H   UNL A   1      40.535  30.242  32.561  1.00  0.00     0.167 HD
ATOM     51  C   UNL A   1      37.182  32.582  31.023  1.00  0.00     0.037 A 
ATOM     52  C   UNL A   1      42.489  29.574  34.443  1.00  0.00     0.037 A 
ATOM     53  C   UNL A   1      37.522  33.196  32.282  1.00  0.00     0.049 A 
ATOM     54  C   UNL A   1      41.799  30.801  34.966  1.00  0.00     0.074 A 
ATOM     55  C   UNL A   1      36.924  34.280  32.904  1.00  0.00     0.029 A 
ATOM     56  N   UNL A   1      38.559  32.788  33.109  1.00  0.00    -0.354 N 
ATOM     57  N   UNL A   1      40.775  31.452  34.472  1.00  0.00    -0.248 NA
ATOM     58  C   UNL A   1      42.328  31.366  36.214  1.00  0.00     0.031 C 
ATOM     59  C   UNL A   1      37.635  34.562  34.076  1.00  0.00     0.029 A 
ATOM     60  C   UNL A   1      38.637  33.618  34.218  1.00  0.00     0.049 A 
ATOM     61  H   UNL A   1      39.151  32.020  32.934  1.00  0.00     0.167 HD
ATOM     62  C   UNL A   1      40.525  32.491  35.357  1.00  0.00     0.074 A 
ATOM     63  C   UNL A   1      41.478  32.357  36.439  1.00  0.00     0.031 C 
ATOM     64  C   UNL A   1      39.597  33.477  35.281  1.00  0.00     0.037 A 
BRANCH  51  65
ATOM     65  C   UNL A   1      36.090  33.214  30.206  1.00  0.00     0.057 A 
ATOM     66  C   UNL A   1      36.404  34.017  29.100  1.00  0.00     0.134 A 
ATOM     67  C   UNL A   1      34.736  33.077  30.538  1.00  0.00     0.134 A 
ATOM     68  F   UNL A   1      37.680  34.198  28.731  1.00  0.00    -0.206 F 
ATOM     69  C   UNL A   1      35.412  34.665  28.360  1.00  0.00     0.040 A 
ATOM     70  C   UNL A   1      33.733  33.698  29.789  1.00  0.00     0.040 A 
ATOM     71  F   UNL A   1      34.364  32.316  31.578  1.00  0.00    -0.206 F 
ATOM     72  C   UNL A   1      34.072  34.501  28.702  1.00  0.00     0.006 A 
ENDBRANCH  51  65
BRANCH  52  73
ATOM     73  C   UNL A   1      43.620  28.968  35.195  1.00  0.00     0.057 A 
ATOM     74  C   UNL A   1      44.944  29.347  34.943  1.00  0.00     0.134 A 
ATOM     75  C   UNL A   1      43.398  28.048  36.226  1.00  0.00     0.134 A 
ATOM     76  F   UNL A   1      45.225  30.219  33.964  1.00  0.00    -0.206 F 
ATOM     77  C   UNL A   1      46.005  28.838  35.691  1.00  0.00     0.040 A 
ATOM     78  C   UNL A   1      44.447  27.557  37.006  1.00  0.00     0.040 A 
ATOM     79  F   UNL A   1      42.150  27.659  36.529  1.00  0.00    -0.206 F 
ATOM     80  C   UNL A   1      45.756  27.953  36.738  1.00  0.00     0.006 A 
ENDBRANCH  52  73
BRANCH  64  81
ATOM     81  C   UNL A   1      39.565  34.458  36.419  1.00  0.00     0.057 A 
ATOM     82  C   UNL A   1      38.876  34.157  37.601  1.00  0.00     0.134 A 
ATOM     83  C   UNL A   1      40.246  35.681  36.363  1.00  0.00     0.134 A 
ATOM     84  F   UNL A   1      38.193  33.009  37.720  1.00  0.00    -0.206 F 
ATOM     85  C   UNL A   1      38.881  35.028  38.691  1.00  0.00     0.040 A 
ATOM     86  C   UNL A   1      40.288  36.544  37.460  1.00  0.00     0.040 A 
ATOM     87  F   UNL A   1      40.939  36.025  35.267  1.00  0.00    -0.206 F 
ATOM     88  C   UNL A   1      39.603  36.219  38.628  1.00  0.00     0.006 A 
ENDBRANCH  64  81
ENDBRANCH  38  39
ENDBRANCH  30  33
ENDBRANCH  28  29
ENDBRANCH  27  28
ENDBRANCH   1  27
TORSDOF 14
ENDMDL
MODEL 2
REMARK VINA RESULT:     -12.6      2.591      7.854
REMARK SMILES Cc1ccc2c(=O)c3cccc(CC(=O)NCCCCCCNC(=O)c4ccc(-c5c6nc(c(-c7c(F)cccc7F)c7ccc([nH]7)c(-c7c(F)cccc7F)c7nc(c(-c8c(F)cccc8F)c8ccc5[nH]8)C=C7)C=C6)cc4)c3oc2c1C
REMARK SMILES IDX 20 1 19 2 18 3 17 4 16 5 14 6 15 7 13 9 12 10 1 11 2 12 3 13
REMARK SMILES IDX 83 14 4 15 82 16 84 17 5 18 81 19 6 20 80 21 7 22 8 23 9 24
REMARK SMILES IDX 11 25 10 26 21 27 22 28 23 29 24 30 25 32 26 33 27 34 79 35
REMARK SMILES IDX 28 36 78 37 29 38 30 39 31 40 72 41 32 42 77 43 71 44 73 45
REMARK SMILES IDX 33 46 76 47 70 48 69 49 34 51 60 52 43 53 59 54 44 55 47 56
REMARK SMILES IDX 58 57 74 58 45 59 46 60 57 62 75 63 48 64 35 65 36 66 41 67
REMARK SMILES IDX 37 68 38 69 40 70 42 71 39 72 61 73 62 74 67 75 63 76 64 77
REMARK SMILES IDX 66 78 68 79 65 80 49 81 50 82 55 83 51 84 52 85 54 86 56 87
REMARK SMILES IDX 53 88
REMARK H PARENT 16 8 23 31 73 50 47 61
REMARK Flexibility Score: inf
ROOT
ATOM      1  C   UNL A   1      34.507  33.710  29.356  1.00  0.00     0.002 C 
ENDROOT
BRANCH   1   2
ATOM      2  C   UNL A   1      34.922  32.772  28.217  1.00  0.00     0.002 C 
BRANCH   2   3
ATOM      3  C   UNL A   1      34.820  31.273  28.535  1.00  0.00     0.021 C 
BRANCH   3   4
ATOM      4  C   UNL A   1      34.412  30.415  27.336  1.00  0.00     0.116 C 
BRANCH   4   5
ATOM      5  N   UNL A   1      33.118  29.800  27.548  1.00  0.00    -0.356 N 
ATOM      6  C   UNL A   1      32.667  28.572  27.161  1.00  0.00     0.224 C 
ATOM      7  O   UNL A   1      31.498  28.276  27.422  1.00  0.00    -0.275 OA
ATOM      8  H   UNL A   1      32.469  30.349  28.044  1.00  0.00     0.163 HD
BRANCH   6   9
ATOM      9  C   UNL A   1      33.611  27.568  26.520  1.00  0.00     0.139 C 
BRANCH   9  10
ATOM     10  C   UNL A   1      33.636  27.564  25.007  1.00  0.00     0.005 A 
ATOM     11  C   UNL A   1      32.443  20.354  25.096  1.00  0.00     0.045 C 
ATOM     12  C   UNL A   1      32.663  21.643  24.351  1.00  0.00    -0.044 A 
ATOM     13  C   UNL A   1      32.665  21.611  22.946  1.00  0.00     0.005 A 
ATOM     14  C   UNL A   1      32.851  22.876  25.020  1.00  0.00    -0.005 A 
ATOM     15  C   UNL A   1      32.843  22.777  22.205  1.00  0.00     0.016 A 
ATOM     16  C   UNL A   1      33.032  24.051  24.259  1.00  0.00     0.141 A 
ATOM     17  C   UNL A   1      32.844  22.981  26.525  1.00  0.00     0.049 C 
ATOM     18  C   UNL A   1      33.023  23.991  22.867  1.00  0.00     0.066 A 
ATOM     19  O   UNL A   1      33.210  25.228  24.954  1.00  0.00    -0.455 OA
ATOM     20  C   UNL A   1      33.198  25.228  22.098  1.00  0.00     0.200 A 
ATOM     21  C   UNL A   1      33.419  26.394  24.259  1.00  0.00     0.142 A 
ATOM     22  O   UNL A   1      33.162  25.237  20.874  1.00  0.00    -0.288 OA
ATOM     23  C   UNL A   1      33.423  26.459  22.865  1.00  0.00     0.066 A 
ATOM     24  C   UNL A   1      33.640  27.668  22.198  1.00  0.00     0.016 A 
ATOM     25  C   UNL A   1      33.903  28.767  24.324  1.00  0.00     0.008 A 
ATOM     26  C   UNL A   1      33.888  28.824  22.931  1.00  0.00     0.001 A 
ENDBRANCH   9  10
ENDBRANCH   6   9
ENDBRANCH   4   5
ENDBRANCH   3   4
ENDBRANCH   2   3
ENDBRANCH   1   2
BRANCH   1  27
ATOM     27  C   UNL A   1      33.340  34.642  29.033  1.00  0.00     0.021 C 
BRANCH  27  28
ATOM     28  C   UNL A   1      33.497  36.058  29.573  1.00  0.00     0.116 C 
BRANCH  28  29
ATOM     29  N   UNL A   1      32.530  36.368  30.617  1.00  0.00    -0.352 N 
ATOM     30  C   UNL A   1      32.487  35.950  31.925  1.00  0.00     0.251 C 
ATOM     31  H   UNL A   1      31.798  36.968  30.344  1.00  0.00     0.163 HD
ATOM     32  O   UNL A   1      31.494  36.178  32.613  1.00  0.00    -0.269 OA
BRANCH  30  33
ATOM     33  C   UNL A   1      33.625  35.200  32.499  1.00  0.00     0.039 A 
ATOM     34  C   UNL A   1      34.888  35.785  32.587  1.00  0.00     0.014 A 
ATOM     35  C   UNL A   1      33.432  33.889  32.947  1.00  0.00     0.014 A 
ATOM     36  C   UNL A   1      35.984  35.008  32.938  1.00  0.00     0.010 A 
ATOM     37  C   UNL A   1      34.523  33.142  33.409  1.00  0.00     0.010 A 
ATOM     38  C   UNL A   1      35.819  33.678  33.361  1.00  0.00    -0.014 A 
BRANCH  38  39
ATOM     39  C   UNL A   1      37.025  32.903  33.759  1.00  0.00     0.031 A 
ATOM     40  C   UNL A   1      37.657  31.901  32.828  1.00  0.00     0.074 A 
ATOM     41  C   UNL A   1      37.601  33.169  34.948  1.00  0.00     0.049 A 
ATOM     42  N   UNL A   1      38.773  31.229  32.976  1.00  0.00    -0.248 NA
ATOM     43  C   UNL A   1      36.948  31.604  31.574  1.00  0.00     0.031 C 
ATOM     44  C   UNL A   1      37.073  34.100  35.951  1.00  0.00     0.029 A 
ATOM     45  N   UNL A   1      38.771  32.717  35.503  1.00  0.00    -0.354 N 
ATOM     46  C   UNL A   1      38.890  30.422  31.850  1.00  0.00     0.074 A 
ATOM     47  C   UNL A   1      37.714  30.662  31.042  1.00  0.00     0.031 C 
ATOM     48  C   UNL A   1      37.948  34.202  36.962  1.00  0.00     0.029 A 
ATOM     49  C   UNL A   1      39.063  33.298  36.714  1.00  0.00     0.049 A 
ATOM     50  H   UNL A   1      39.345  32.042  35.075  1.00  0.00     0.167 HD
ATOM     51  C   UNL A   1      39.888  29.568  31.517  1.00  0.00     0.037 A 
ATOM     52  C   UNL A   1      40.111  33.119  37.538  1.00  0.00     0.037 A 
ATOM     53  C   UNL A   1      41.066  29.341  32.315  1.00  0.00     0.049 A 
ATOM     54  C   UNL A   1      41.191  32.152  37.143  1.00  0.00     0.074 A 
ATOM     55  C   UNL A   1      42.157  28.535  32.034  1.00  0.00     0.029 A 
ATOM     56  N   UNL A   1      41.305  29.911  33.557  1.00  0.00    -0.354 N 
ATOM     57  N   UNL A   1      41.316  31.450  36.044  1.00  0.00    -0.248 NA
ATOM     58  C   UNL A   1      42.278  31.956  38.111  1.00  0.00     0.031 C 
ATOM     59  C   UNL A   1      43.027  28.574  33.130  1.00  0.00     0.029 A 
ATOM     60  C   UNL A   1      42.509  29.450  34.068  1.00  0.00     0.049 A 
ATOM     61  H   UNL A   1      40.707  30.551  34.008  1.00  0.00     0.167 HD
ATOM     62  C   UNL A   1      42.503  30.743  36.180  1.00  0.00     0.074 A 
ATOM     63  C   UNL A   1      43.079  31.136  37.449  1.00  0.00     0.031 C 
ATOM     64  C   UNL A   1      43.065  29.842  35.337  1.00  0.00     0.037 A 
BRANCH  51  65
ATOM     65  C   UNL A   1      39.745  28.791  30.237  1.00  0.00     0.057 A 
ATOM     66  C   UNL A   1      39.132  27.530  30.236  1.00  0.00     0.134 A 
ATOM     67  C   UNL A   1      40.258  29.258  29.020  1.00  0.00     0.134 A 
ATOM     68  F   UNL A   1      38.626  27.019  31.368  1.00  0.00    -0.206 F 
ATOM     69  C   UNL A   1      39.041  26.762  29.074  1.00  0.00     0.040 A 
ATOM     70  C   UNL A   1      40.149  28.510  27.845  1.00  0.00     0.040 A 
ATOM     71  F   UNL A   1      40.849  30.460  28.947  1.00  0.00    -0.206 F 
ATOM     72  C   UNL A   1      39.546  27.254  27.873  1.00  0.00     0.006 A 
ENDBRANCH  51  65
BRANCH  52  73
ATOM     73  C   UNL A   1      40.190  33.848  38.830  1.00  0.00     0.057 A 
ATOM     74  C   UNL A   1      39.545  33.367  39.976  1.00  0.00     0.134 A 
ATOM     75  C   UNL A   1      40.965  35.006  38.967  1.00  0.00     0.134 A 
ATOM     76  F   UNL A   1      38.781  32.267  39.911  1.00  0.00    -0.206 F 
ATOM     77  C   UNL A   1      39.671  34.005  41.209  1.00  0.00     0.040 A 
ATOM     78  C   UNL A   1      41.130  35.635  40.202  1.00  0.00     0.040 A 
ATOM     79  F   UNL A   1      41.624  35.507  37.911  1.00  0.00    -0.206 F 
ATOM     80  C   UNL A   1      40.480  35.133  41.329  1.00  0.00     0.006 A 
ENDBRANCH  52  73
BRANCH  64  81
ATOM     81  C   UNL A   1      44.380  29.253  35.763  1.00  0.00     0.057 A 
ATOM     82  C   UNL A   1      44.423  28.065  36.504  1.00  0.00     0.134 A 
ATOM     83  C   UNL A   1      45.603  29.837  35.409  1.00  0.00     0.134 A 
ATOM     84  F   UNL A   1      43.291  27.458  36.887  1.00  0.00    -0.206 F 
ATOM     85  C   UNL A   1      45.635  27.471  36.861  1.00  0.00     0.040 A 
ATOM     86  C   UNL A   1      46.821  29.234  35.729  1.00  0.00     0.040 A 
ATOM     87  F   UNL A   1      45.634  30.968  34.686  1.00  0.00    -0.206 F 
ATOM     88  C   UNL A   1      46.838  28.047  36.458  1.00  0.00     0.006 A 
ENDBRANCH  64  81
ENDBRANCH  38  39
ENDBRANCH  30  33
ENDBRANCH  28  29
ENDBRANCH  27  28
ENDBRANCH   1  27
TORSDOF 14
ENDMDL
MODEL 3
REMARK VINA RESULT:     -12.5      2.634      7.946
REMARK SMILES Cc1ccc2c(=O)c3cccc(CC(=O)NCCCCCCNC(=O)c4ccc(-c5c6nc(c(-c7c(F)cccc7F)c7ccc([nH]7)c(-c7c(F)cccc7F)c7nc(c(-c8c(F)cccc8F)c8ccc5[nH]8)C=C7)C=C6)cc4)c3oc2c1C
REMARK SMILES IDX 20 1 19 2 18 3 17 4 16 5 14 6 15 7 13 9 12 10 1 11 2 12 3 13
REMARK SMILES IDX 83 14 4 15 82 16 84 17 5 18 81 19 6 20 80 21 7 22 8 23 9 24
REMARK SMILES IDX 11 25 10 26 21 27 22 28 23 29 24 30 25 32 26 33 27 34 79 35
REMARK SMILES IDX 28 36 78 37 29 38 30 39 31 40 72 41 32 42 77 43 71 44 73 45
REMARK SMILES IDX 33 46 76 47 70 48 69 49 34 51 60 52 43 53 59 54 44 55 47 56
REMARK SMILES IDX 58 57 74 58 45 59 46 60 57 62 75 63 48 64 35 65 36 66 41 67
REMARK SMILES IDX 37 68 38 69 40 70 42 71 39 72 61 73 62 74 67 75 63 76 64 77
REMARK SMILES IDX 66 78 68 79 65 80 49 81 50 82 55 83 51 84 52 85 54 86 56 87
REMARK SMILES IDX 53 88
REMARK H PARENT 16 8 23 31 73 50 47 61
REMARK Flexibility Score: inf
ROOT
ATOM      1  C   UNL A   1      34.430  33.370  29.278  1.00  0.00     0.002 C 
ENDROOT
BRANCH   1   2
ATOM      2  C   UNL A   1      34.810  32.420  28.137  1.00  0.00     0.002 C 
BRANCH   2   3
ATOM      3  C   UNL A   1      33.679  31.507  27.642  1.00  0.00     0.021 C 
BRANCH   3   4
ATOM      4  C   UNL A   1      34.142  30.099  27.268  1.00  0.00     0.116 C 
BRANCH   4   5
ATOM      5  N   UNL A   1      33.818  29.789  25.890  1.00  0.00    -0.356 N 
ATOM      6  C   UNL A   1      33.772  28.580  25.260  1.00  0.00     0.224 C 
ATOM      7  O   UNL A   1      33.508  28.565  24.055  1.00  0.00    -0.275 OA
ATOM      8  H   UNL A   1      33.599  30.565  25.327  1.00  0.00     0.163 HD
BRANCH   6   9
ATOM      9  C   UNL A   1      33.944  27.291  26.047  1.00  0.00     0.139 C 
BRANCH   9  10
ATOM     10  C   UNL A   1      32.781  26.325  25.986  1.00  0.00     0.005 A 
ATOM     11  C   UNL A   1      37.498  20.861  24.840  1.00  0.00     0.045 C 
ATOM     12  C   UNL A   1      36.094  21.372  25.021  1.00  0.00    -0.044 A 
ATOM     13  C   UNL A   1      35.035  20.449  24.976  1.00  0.00     0.005 A 
ATOM     14  C   UNL A   1      35.816  22.741  25.248  1.00  0.00    -0.005 A 
ATOM     15  C   UNL A   1      33.718  20.863  25.159  1.00  0.00     0.016 A 
ATOM     16  C   UNL A   1      34.477  23.150  25.430  1.00  0.00     0.141 A 
ATOM     17  C   UNL A   1      36.907  23.780  25.323  1.00  0.00     0.049 C 
ATOM     18  C   UNL A   1      33.447  22.211  25.387  1.00  0.00     0.066 A 
ATOM     19  O   UNL A   1      34.254  24.492  25.650  1.00  0.00    -0.455 OA
ATOM     20  C   UNL A   1      32.065  22.658  25.594  1.00  0.00     0.200 A 
ATOM     21  C   UNL A   1      32.966  24.943  25.805  1.00  0.00     0.142 A 
ATOM     22  O   UNL A   1      31.128  21.871  25.602  1.00  0.00    -0.288 OA
ATOM     23  C   UNL A   1      31.856  24.098  25.789  1.00  0.00     0.066 A 
ATOM     24  C   UNL A   1      30.561  24.600  25.949  1.00  0.00     0.016 A 
ATOM     25  C   UNL A   1      31.468  26.825  26.097  1.00  0.00     0.008 A 
ATOM     26  C   UNL A   1      30.368  25.969  26.097  1.00  0.00     0.001 A 
ENDBRANCH   9  10
ENDBRANCH   6   9
ENDBRANCH   4   5
ENDBRANCH   3   4
ENDBRANCH   2   3
ENDBRANCH   1   2
BRANCH   1  27
ATOM     27  C   UNL A   1      33.276  34.323  28.969  1.00  0.00     0.021 C 
BRANCH  27  28
ATOM     28  C   UNL A   1      33.527  35.769  29.376  1.00  0.00     0.116 C 
BRANCH  28  29
ATOM     29  N   UNL A   1      32.625  36.218  30.428  1.00  0.00    -0.352 N 
ATOM     30  C   UNL A   1      32.623  35.922  31.770  1.00  0.00     0.251 C 
ATOM     31  H   UNL A   1      31.907  36.826  30.133  1.00  0.00     0.163 HD
ATOM     32  O   UNL A   1      31.675  36.258  32.475  1.00  0.00    -0.269 OA
BRANCH  30  33
ATOM     33  C   UNL A   1      33.753  35.172  32.361  1.00  0.00     0.039 A 
ATOM     34  C   UNL A   1      35.022  35.743  32.434  1.00  0.00     0.014 A 
ATOM     35  C   UNL A   1      33.543  33.874  32.841  1.00  0.00     0.014 A 
ATOM     36  C   UNL A   1      36.109  34.961  32.804  1.00  0.00     0.010 A 
ATOM     37  C   UNL A   1      34.625  33.126  33.321  1.00  0.00     0.010 A 
ATOM     38  C   UNL A   1      35.928  33.645  33.259  1.00  0.00    -0.014 A 
BRANCH  38  39
ATOM     39  C   UNL A   1      37.125  32.864  33.676  1.00  0.00     0.031 A 
ATOM     40  C   UNL A   1      37.762  31.853  32.757  1.00  0.00     0.074 A 
ATOM     41  C   UNL A   1      37.688  33.133  34.870  1.00  0.00     0.049 A 
ATOM     42  N   UNL A   1      38.872  31.176  32.922  1.00  0.00    -0.248 NA
ATOM     43  C   UNL A   1      37.065  31.553  31.497  1.00  0.00     0.031 C 
ATOM     44  C   UNL A   1      37.154  34.073  35.861  1.00  0.00     0.029 A 
ATOM     45  N   UNL A   1      38.849  32.678  35.441  1.00  0.00    -0.354 N 
ATOM     46  C   UNL A   1      38.996  30.361  31.802  1.00  0.00     0.074 A 
ATOM     47  C   UNL A   1      37.832  30.604  30.979  1.00  0.00     0.031 C 
ATOM     48  C   UNL A   1      38.018  34.176  36.882  1.00  0.00     0.029 A 
ATOM     49  C   UNL A   1      39.131  33.264  36.652  1.00  0.00     0.049 A 
ATOM     50  H   UNL A   1      39.424  31.997  35.023  1.00  0.00     0.167 HD
ATOM     51  C   UNL A   1      39.993  29.500  31.485  1.00  0.00     0.037 A 
ATOM     52  C   UNL A   1      40.168  33.082  37.489  1.00  0.00     0.037 A 
ATOM     53  C   UNL A   1      41.161  29.270  32.298  1.00  0.00     0.049 A 
ATOM     54  C   UNL A   1      41.247  32.108  37.113  1.00  0.00     0.074 A 
ATOM     55  C   UNL A   1      42.250  28.456  32.035  1.00  0.00     0.029 A 
ATOM     56  N   UNL A   1      41.388  29.846  33.540  1.00  0.00    -0.354 N 
ATOM     57  N   UNL A   1      41.380  31.398  36.018  1.00  0.00    -0.248 NA
ATOM     58  C   UNL A   1      42.321  31.910  38.094  1.00  0.00     0.031 C 
ATOM     59  C   UNL A   1      43.107  28.495  33.141  1.00  0.00     0.029 A 
ATOM     60  C   UNL A   1      42.583  29.381  34.068  1.00  0.00     0.049 A 
ATOM     61  H   UNL A   1      40.789  30.492  33.981  1.00  0.00     0.167 HD
ATOM     62  C   UNL A   1      42.561  30.685  36.172  1.00  0.00     0.074 A 
ATOM     63  C   UNL A   1      43.125  31.081  37.446  1.00  0.00     0.031 C 
ATOM     64  C   UNL A   1      43.127  29.776  35.341  1.00  0.00     0.037 A 
BRANCH  51  65
ATOM     65  C   UNL A   1      39.861  28.717  30.209  1.00  0.00     0.057 A 
ATOM     66  C   UNL A   1      39.180  27.491  30.194  1.00  0.00     0.134 A 
ATOM     67  C   UNL A   1      40.449  29.140  29.010  1.00  0.00     0.134 A 
ATOM     68  F   UNL A   1      38.600  27.022  31.308  1.00  0.00    -0.206 F 
ATOM     69  C   UNL A   1      39.094  26.715  29.037  1.00  0.00     0.040 A 
ATOM     70  C   UNL A   1      40.347  28.385  27.839  1.00  0.00     0.040 A 
ATOM     71  F   UNL A   1      41.108  30.307  28.950  1.00  0.00    -0.206 F 
ATOM     72  C   UNL A   1      39.675  27.165  27.853  1.00  0.00     0.006 A 
ENDBRANCH  51  65
BRANCH  52  73
ATOM     73  C   UNL A   1      40.236  33.819  38.778  1.00  0.00     0.057 A 
ATOM     74  C   UNL A   1      40.955  35.014  38.894  1.00  0.00     0.134 A 
ATOM     75  C   UNL A   1      39.531  33.380  39.905  1.00  0.00     0.134 A 
ATOM     76  F   UNL A   1      41.659  35.485  37.854  1.00  0.00    -0.206 F 
ATOM     77  C   UNL A   1      40.967  35.749  40.079  1.00  0.00     0.040 A 
ATOM     78  C   UNL A   1      39.504  34.124  41.086  1.00  0.00     0.040 A 
ATOM     79  F   UNL A   1      38.807  32.252  39.853  1.00  0.00    -0.206 F 
ATOM     80  C   UNL A   1      40.225  35.314  41.174  1.00  0.00     0.006 A 
ENDBRANCH  52  73
BRANCH  64  81
ATOM     81  C   UNL A   1      44.434  29.181  35.786  1.00  0.00     0.057 A 
ATOM     82  C   UNL A   1      44.461  27.992  36.525  1.00  0.00     0.134 A 
ATOM     83  C   UNL A   1      45.664  29.762  35.452  1.00  0.00     0.134 A 
ATOM     84  F   UNL A   1      43.321  27.388  36.889  1.00  0.00    -0.206 F 
ATOM     85  C   UNL A   1      45.665  27.393  36.899  1.00  0.00     0.040 A 
ATOM     86  C   UNL A   1      46.874  29.154  35.789  1.00  0.00     0.040 A 
ATOM     87  F   UNL A   1      45.710  30.894  34.732  1.00  0.00    -0.206 F 
ATOM     88  C   UNL A   1      46.877  27.966  36.515  1.00  0.00     0.006 A 
ENDBRANCH  64  81
ENDBRANCH  38  39
ENDBRANCH  30  33
ENDBRANCH  28  29
ENDBRANCH  27  28
ENDBRANCH   1  27
TORSDOF 14
ENDMDL
