MODEL 1
REMARK VINA RESULT:     -10.8      0.000      0.000
REMARK SMILES O=C(NCCCCCCNC(=O)c1ccc(Cl)nc1C(F)(F)F)c1ccc(-c2c3nc(c(-c4c(F)cccc4F)c4ccc([nH]4)c(-c4c(F)cccc4F)c4nc(c(-c5c(F)cccc5F)c5ccc2[nH]5)C=C4)C=C3)cc1
REMARK SMILES IDX 6 1 5 2 4 3 3 4 1 5 2 6 24 8 25 9 77 10 26 11 76 12 27 13
REMARK SMILES IDX 28 14 29 15 70 16 30 17 75 18 69 19 71 20 31 21 74 22 68 23
REMARK SMILES IDX 67 24 32 26 58 27 41 28 57 29 42 30 45 31 56 32 72 33 43 34
REMARK SMILES IDX 44 35 55 37 73 38 46 39 33 40 34 41 39 42 35 43 36 44 38 45
REMARK SMILES IDX 40 46 37 47 59 48 60 49 65 50 61 51 62 52 64 53 66 54 63 55
REMARK SMILES IDX 47 56 48 57 53 58 49 59 50 60 52 61 54 62 51 63 7 64 8 65
REMARK SMILES IDX 9 66 10 67 11 68 12 70 13 71 14 72 19 73 15 74 18 75 16 76
REMARK SMILES IDX 17 77 20 78 21 79 22 80 23 81
REMARK H PARENT 3 7 71 25 45 36 10 69
REMARK Flexibility Score: inf
ROOT
ATOM      1  C   UNL A   1      36.828  20.804  24.648  1.00  0.00     0.002 C 
ENDROOT
BRANCH   1   2
ATOM      2  C   UNL A   1      37.901  19.730  24.808  1.00  0.00     0.021 C 
BRANCH   2   3
ATOM      3  C   UNL A   1      38.914  19.999  25.912  1.00  0.00     0.116 C 
BRANCH   3   4
ATOM      4  N   UNL A   1      40.033  19.070  25.889  1.00  0.00    -0.352 N 
ATOM      5  O   UNL A   1      42.205  18.448  25.857  1.00  0.00    -0.269 OA
ATOM      6  C   UNL A   1      41.373  19.326  26.059  1.00  0.00     0.251 C 
ATOM      7  H   UNL A   1      39.798  18.127  25.730  1.00  0.00     0.163 HD
BRANCH   6   8
ATOM      8  C   UNL A   1      41.807  20.679  26.468  1.00  0.00     0.039 A 
ATOM      9  C   UNL A   1      41.960  21.685  25.513  1.00  0.00     0.014 A 
ATOM     10  C   UNL A   1      42.072  20.941  27.815  1.00  0.00     0.014 A 
ATOM     11  C   UNL A   1      42.525  22.900  25.878  1.00  0.00     0.010 A 
ATOM     12  C   UNL A   1      42.538  22.203  28.197  1.00  0.00     0.010 A 
ATOM     13  C   UNL A   1      42.792  23.185  27.228  1.00  0.00    -0.014 A 
BRANCH  13  14
ATOM     14  C   UNL A   1      43.237  24.555  27.592  1.00  0.00     0.031 A 
ATOM     15  C   UNL A   1      44.671  24.981  27.463  1.00  0.00     0.074 A 
ATOM     16  C   UNL A   1      42.303  25.431  28.010  1.00  0.00     0.049 A 
ATOM     17  N   UNL A   1      45.204  26.152  27.709  1.00  0.00    -0.248 NA
ATOM     18  C   UNL A   1      45.636  23.969  27.006  1.00  0.00     0.031 C 
ATOM     19  C   UNL A   1      40.879  25.123  28.190  1.00  0.00     0.029 A 
ATOM     20  N   UNL A   1      42.394  26.759  28.338  1.00  0.00    -0.354 N 
ATOM     21  C   UNL A   1      46.562  26.018  27.449  1.00  0.00     0.074 A 
ATOM     22  C   UNL A   1      46.779  24.643  27.052  1.00  0.00     0.031 C 
ATOM     23  C   UNL A   1      40.226  26.238  28.541  1.00  0.00     0.029 A 
ATOM     24  C   UNL A   1      41.190  27.320  28.687  1.00  0.00     0.049 A 
ATOM     25  H   UNL A   1      43.241  27.261  28.325  1.00  0.00     0.167 HD
ATOM     26  C   UNL A   1      47.533  26.961  27.525  1.00  0.00     0.037 A 
ATOM     27  C   UNL A   1      40.894  28.564  29.105  1.00  0.00     0.037 A 
ATOM     28  C   UNL A   1      47.306  28.330  27.920  1.00  0.00     0.049 A 
ATOM     29  C   UNL A   1      42.000  29.571  29.219  1.00  0.00     0.074 A 
ATOM     30  C   UNL A   1      48.221  29.365  28.005  1.00  0.00     0.029 A 
ATOM     31  N   UNL A   1      46.079  28.852  28.304  1.00  0.00    -0.354 N 
ATOM     32  N   UNL A   1      43.271  29.439  28.930  1.00  0.00    -0.248 NA
ATOM     33  C   UNL A   1      41.629  30.900  29.720  1.00  0.00     0.031 C 
ATOM     34  C   UNL A   1      47.559  30.499  28.490  1.00  0.00     0.029 A 
ATOM     35  C   UNL A   1      46.220  30.187  28.652  1.00  0.00     0.049 A 
ATOM     36  H   UNL A   1      45.233  28.349  28.328  1.00  0.00     0.167 HD
ATOM     37  C   UNL A   1      43.850  30.670  29.197  1.00  0.00     0.074 A 
ATOM     38  C   UNL A   1      42.783  31.545  29.641  1.00  0.00     0.031 C 
ATOM     39  C   UNL A   1      45.148  31.045  29.092  1.00  0.00     0.037 A 
BRANCH  26  40
ATOM     40  C   UNL A   1      48.939  26.552  27.188  1.00  0.00     0.057 A 
ATOM     41  C   UNL A   1      49.801  26.004  28.147  1.00  0.00     0.134 A 
ATOM     42  C   UNL A   1      49.412  26.637  25.872  1.00  0.00     0.134 A 
ATOM     43  F   UNL A   1      49.416  25.902  29.429  1.00  0.00    -0.206 F 
ATOM     44  C   UNL A   1      51.085  25.568  27.812  1.00  0.00     0.040 A 
ATOM     45  C   UNL A   1      50.683  26.181  25.520  1.00  0.00     0.040 A 
ATOM     46  F   UNL A   1      48.637  27.143  24.901  1.00  0.00    -0.206 F 
ATOM     47  C   UNL A   1      51.525  25.647  26.492  1.00  0.00     0.006 A 
ENDBRANCH  26  40
BRANCH  27  48
ATOM     48  C   UNL A   1      39.498  28.914  29.471  1.00  0.00     0.057 A 
ATOM     49  C   UNL A   1      39.012  28.707  30.766  1.00  0.00     0.134 A 
ATOM     50  C   UNL A   1      38.612  29.452  28.528  1.00  0.00     0.134 A 
ATOM     51  F   UNL A   1      39.807  28.182  31.710  1.00  0.00    -0.206 F 
ATOM     52  C   UNL A   1      37.688  28.994  31.104  1.00  0.00     0.040 A 
ATOM     53  C   UNL A   1      37.297  29.776  28.861  1.00  0.00     0.040 A 
ATOM     54  F   UNL A   1      39.019  29.687  27.273  1.00  0.00    -0.206 F 
ATOM     55  C   UNL A   1      36.828  29.534  30.150  1.00  0.00     0.006 A 
ENDBRANCH  27  48
BRANCH  39  56
ATOM     56  C   UNL A   1      45.473  32.470  29.435  1.00  0.00     0.057 A 
ATOM     57  C   UNL A   1      45.862  32.851  30.726  1.00  0.00     0.134 A 
ATOM     58  C   UNL A   1      45.398  33.472  28.461  1.00  0.00     0.134 A 
ATOM     59  F   UNL A   1      45.937  31.941  31.710  1.00  0.00    -0.206 F 
ATOM     60  C   UNL A   1      46.130  34.183  31.044  1.00  0.00     0.040 A 
ATOM     61  C   UNL A   1      45.695  34.803  28.758  1.00  0.00     0.040 A 
ATOM     62  F   UNL A   1      45.039  33.176  27.203  1.00  0.00    -0.206 F 
ATOM     63  C   UNL A   1      46.052  35.162  30.056  1.00  0.00     0.006 A 
ENDBRANCH  39  56
ENDBRANCH  13  14
ENDBRANCH   6   8
ENDBRANCH   3   4
ENDBRANCH   2   3
ENDBRANCH   1   2
BRANCH   1  64
ATOM     64  C   UNL A   1      37.273  22.233  24.973  1.00  0.00     0.002 C 
BRANCH  64  65
ATOM     65  C   UNL A   1      36.831  23.311  23.980  1.00  0.00     0.021 C 
BRANCH  65  66
ATOM     66  C   UNL A   1      35.530  23.019  23.238  1.00  0.00     0.116 C 
BRANCH  66  67
ATOM     67  N   UNL A   1      34.407  23.787  23.751  1.00  0.00    -0.352 N 
ATOM     68  C   UNL A   1      33.271  23.345  24.375  1.00  0.00     0.253 C 
ATOM     69  H   UNL A   1      34.472  24.762  23.633  1.00  0.00     0.163 HD
ATOM     70  O   UNL A   1      32.387  24.117  24.734  1.00  0.00    -0.269 OA
BRANCH  68  71
ATOM     71  C   UNL A   1      33.104  21.911  24.635  1.00  0.00     0.070 A 
ATOM     72  C   UNL A   1      32.693  21.079  23.584  1.00  0.00     0.019 A 
ATOM     73  C   UNL A   1      33.366  21.359  25.889  1.00  0.00     0.158 A 
ATOM     74  C   UNL A   1      32.504  19.723  23.819  1.00  0.00     0.042 A 
ATOM     75  N   UNL A   1      33.186  20.017  26.115  1.00  0.00    -0.231 NA
ATOM     76  C   UNL A   1      32.761  19.250  25.091  1.00  0.00     0.129 A 
ATOM     77  Cl  UNL A   1      32.536  17.597  25.478  1.00  0.00    -0.062 Cl
BRANCH  73  78
ATOM     78  C   UNL A   1      33.874  22.207  27.047  1.00  0.00     0.434 C 
ATOM     79  F   UNL A   1      34.396  21.443  28.056  1.00  0.00    -0.164 F 
ATOM     80  F   UNL A   1      34.874  23.057  26.682  1.00  0.00    -0.164 F 
ATOM     81  F   UNL A   1      32.923  22.965  27.662  1.00  0.00    -0.164 F 
ENDBRANCH  73  78
ENDBRANCH  68  71
ENDBRANCH  66  67
ENDBRANCH  65  66
ENDBRANCH  64  65
ENDBRANCH   1  64
TORSDOF 14
ENDMDL
MODEL 2
REMARK VINA RESULT:     -10.8      5.724     10.400
REMARK SMILES O=C(NCCCCCCNC(=O)c1ccc(Cl)nc1C(F)(F)F)c1ccc(-c2c3nc(c(-c4c(F)cccc4F)c4ccc([nH]4)c(-c4c(F)cccc4F)c4nc(c(-c5c(F)cccc5F)c5ccc2[nH]5)C=C4)C=C3)cc1
REMARK SMILES IDX 6 1 5 2 4 3 3 4 1 5 2 6 24 8 25 9 77 10 26 11 76 12 27 13
REMARK SMILES IDX 28 14 29 15 70 16 30 17 75 18 69 19 71 20 31 21 74 22 68 23
REMARK SMILES IDX 67 24 32 26 58 27 41 28 57 29 42 30 45 31 56 32 72 33 43 34
REMARK SMILES IDX 44 35 55 37 73 38 46 39 33 40 34 41 39 42 35 43 36 44 38 45
REMARK SMILES IDX 40 46 37 47 59 48 60 49 65 50 61 51 62 52 64 53 66 54 63 55
REMARK SMILES IDX 47 56 48 57 53 58 49 59 50 60 52 61 54 62 51 63 7 64 8 65
REMARK SMILES IDX 9 66 10 67 11 68 12 70 13 71 14 72 19 73 15 74 18 75 16 76
REMARK SMILES IDX 17 77 20 78 21 79 22 80 23 81
REMARK H PARENT 3 7 71 25 45 36 10 69
REMARK Flexibility Score: inf
ROOT
ATOM      1  C   UNL A   1      31.349  30.454  25.825  1.00  0.00     0.002 C 
ENDROOT
BRANCH   1   2
ATOM      2  C   UNL A   1      31.213  31.849  26.429  1.00  0.00     0.021 C 
BRANCH   2   3
ATOM      3  C   UNL A   1      32.523  32.482  26.875  1.00  0.00     0.116 C 
BRANCH   3   4
ATOM      4  N   UNL A   1      32.351  33.830  27.394  1.00  0.00    -0.352 N 
ATOM      5  O   UNL A   1      32.667  35.555  28.820  1.00  0.00    -0.269 OA
ATOM      6  C   UNL A   1      33.041  34.465  28.399  1.00  0.00     0.251 C 
ATOM      7  H   UNL A   1      31.641  34.362  26.965  1.00  0.00     0.163 HD
BRANCH   6   8
ATOM      8  C   UNL A   1      34.231  33.812  28.987  1.00  0.00     0.039 A 
ATOM      9  C   UNL A   1      34.082  32.706  29.825  1.00  0.00     0.014 A 
ATOM     10  C   UNL A   1      35.504  34.316  28.707  1.00  0.00     0.014 A 
ATOM     11  C   UNL A   1      35.183  32.203  30.503  1.00  0.00     0.010 A 
ATOM     12  C   UNL A   1      36.626  33.737  29.308  1.00  0.00     0.010 A 
ATOM     13  C   UNL A   1      36.472  32.691  30.230  1.00  0.00    -0.014 A 
BRANCH  13  14
ATOM     14  C   UNL A   1      37.638  32.011  30.851  1.00  0.00     0.031 A 
ATOM     15  C   UNL A   1      38.081  32.323  32.252  1.00  0.00     0.074 A 
ATOM     16  C   UNL A   1      38.274  31.065  30.132  1.00  0.00     0.049 A 
ATOM     17  N   UNL A   1      39.058  31.788  32.941  1.00  0.00    -0.248 NA
ATOM     18  C   UNL A   1      37.343  33.371  32.975  1.00  0.00     0.031 C 
ATOM     19  C   UNL A   1      37.941  30.689  28.754  1.00  0.00     0.029 A 
ATOM     20  N   UNL A   1      39.312  30.232  30.457  1.00  0.00    -0.354 N 
ATOM     21  C   UNL A   1      39.060  32.436  34.170  1.00  0.00     0.074 A 
ATOM     22  C   UNL A   1      38.005  33.426  34.123  1.00  0.00     0.031 C 
ATOM     23  C   UNL A   1      38.719  29.668  28.373  1.00  0.00     0.029 A 
ATOM     24  C   UNL A   1      39.657  29.368  29.447  1.00  0.00     0.049 A 
ATOM     25  H   UNL A   1      39.766  30.251  31.330  1.00  0.00     0.167 HD
ATOM     26  C   UNL A   1      39.864  32.216  35.239  1.00  0.00     0.037 A 
ATOM     27  C   UNL A   1      40.636  28.449  29.378  1.00  0.00     0.037 A 
ATOM     28  C   UNL A   1      40.912  31.225  35.276  1.00  0.00     0.049 A 
ATOM     29  C   UNL A   1      41.536  28.261  30.564  1.00  0.00     0.074 A 
ATOM     30  C   UNL A   1      41.764  30.910  36.321  1.00  0.00     0.029 A 
ATOM     31  N   UNL A   1      41.257  30.395  34.219  1.00  0.00    -0.354 N 
ATOM     32  N   UNL A   1      41.498  28.853  31.732  1.00  0.00    -0.248 NA
ATOM     33  C   UNL A   1      42.615  27.276  30.420  1.00  0.00     0.031 C 
ATOM     34  C   UNL A   1      42.657  29.928  35.880  1.00  0.00     0.029 A 
ATOM     35  C   UNL A   1      42.326  29.588  34.579  1.00  0.00     0.049 A 
ATOM     36  H   UNL A   1      40.810  30.381  33.342  1.00  0.00     0.167 HD
ATOM     37  C   UNL A   1      42.536  28.303  32.469  1.00  0.00     0.074 A 
ATOM     38  C   UNL A   1      43.164  27.306  31.625  1.00  0.00     0.031 C 
ATOM     39  C   UNL A   1      42.940  28.600  33.728  1.00  0.00     0.037 A 
BRANCH  26  40
ATOM     40  C   UNL A   1      39.659  33.066  36.461  1.00  0.00     0.057 A 
ATOM     41  C   UNL A   1      40.342  34.275  36.645  1.00  0.00     0.134 A 
ATOM     42  C   UNL A   1      38.711  32.708  37.429  1.00  0.00     0.134 A 
ATOM     43  F   UNL A   1      41.271  34.674  35.762  1.00  0.00    -0.206 F 
ATOM     44  C   UNL A   1      40.099  35.090  37.754  1.00  0.00     0.040 A 
ATOM     45  C   UNL A   1      38.441  33.527  38.527  1.00  0.00     0.040 A 
ATOM     46  F   UNL A   1      38.014  31.568  37.312  1.00  0.00    -0.206 F 
ATOM     47  C   UNL A   1      39.139  34.721  38.693  1.00  0.00     0.006 A 
ENDBRANCH  26  40
BRANCH  27  48
ATOM     48  C   UNL A   1      40.834  27.661  28.134  1.00  0.00     0.057 A 
ATOM     49  C   UNL A   1      41.619  28.146  27.083  1.00  0.00     0.134 A 
ATOM     50  C   UNL A   1      40.228  26.409  27.963  1.00  0.00     0.134 A 
ATOM     51  F   UNL A   1      42.213  29.344  27.181  1.00  0.00    -0.206 F 
ATOM     52  C   UNL A   1      41.771  27.429  25.895  1.00  0.00     0.040 A 
ATOM     53  C   UNL A   1      40.400  25.667  26.795  1.00  0.00     0.040 A 
ATOM     54  F   UNL A   1      39.473  25.883  28.937  1.00  0.00    -0.206 F 
ATOM     55  C   UNL A   1      41.164  26.183  25.751  1.00  0.00     0.006 A 
ENDBRANCH  27  48
BRANCH  39  56
ATOM     56  C   UNL A   1      44.094  27.810  34.273  1.00  0.00     0.057 A 
ATOM     57  C   UNL A   1      45.416  28.267  34.175  1.00  0.00     0.134 A 
ATOM     58  C   UNL A   1      43.882  26.580  34.907  1.00  0.00     0.134 A 
ATOM     59  F   UNL A   1      45.690  29.431  33.564  1.00  0.00    -0.206 F 
ATOM     60  C   UNL A   1      46.486  27.511  34.654  1.00  0.00     0.040 A 
ATOM     61  C   UNL A   1      44.941  25.830  35.419  1.00  0.00     0.040 A 
ATOM     62  F   UNL A   1      42.642  26.088  35.041  1.00  0.00    -0.206 F 
ATOM     63  C   UNL A   1      46.249  26.292  35.285  1.00  0.00     0.006 A 
ENDBRANCH  39  56
ENDBRANCH  13  14
ENDBRANCH   6   8
ENDBRANCH   3   4
ENDBRANCH   2   3
ENDBRANCH   1   2
BRANCH   1  64
ATOM     64  C   UNL A   1      31.787  29.355  26.798  1.00  0.00     0.002 C 
BRANCH  64  65
ATOM     65  C   UNL A   1      33.111  28.660  26.466  1.00  0.00     0.021 C 
BRANCH  65  66
ATOM     66  C   UNL A   1      33.643  28.910  25.058  1.00  0.00     0.116 C 
BRANCH  66  67
ATOM     67  N   UNL A   1      33.726  27.694  24.265  1.00  0.00    -0.352 N 
ATOM     68  C   UNL A   1      32.793  27.141  23.429  1.00  0.00     0.253 C 
ATOM     69  H   UNL A   1      34.573  27.197  24.340  1.00  0.00     0.163 HD
ATOM     70  O   UNL A   1      32.997  26.084  22.840  1.00  0.00    -0.269 OA
BRANCH  68  71
ATOM     71  C   UNL A   1      31.517  27.831  23.218  1.00  0.00     0.070 A 
ATOM     72  C   UNL A   1      31.487  28.950  22.374  1.00  0.00     0.019 A 
ATOM     73  C   UNL A   1      30.337  27.388  23.816  1.00  0.00     0.158 A 
ATOM     74  C   UNL A   1      30.292  29.632  22.183  1.00  0.00     0.042 A 
ATOM     75  N   UNL A   1      29.156  28.059  23.618  1.00  0.00    -0.231 NA
ATOM     76  C   UNL A   1      29.168  29.149  22.825  1.00  0.00     0.129 A 
ATOM     77  Cl  UNL A   1      27.656  29.937  22.664  1.00  0.00    -0.062 Cl
BRANCH  73  78
ATOM     78  C   UNL A   1      30.302  26.142  24.691  1.00  0.00     0.434 C 
ATOM     79  F   UNL A   1      30.454  24.995  23.961  1.00  0.00    -0.164 F 
ATOM     80  F   UNL A   1      31.302  26.117  25.617  1.00  0.00    -0.164 F 
ATOM     81  F   UNL A   1      29.136  25.953  25.370  1.00  0.00    -0.164 F 
ENDBRANCH  73  78
ENDBRANCH  68  71
ENDBRANCH  66  67
ENDBRANCH  65  66
ENDBRANCH  64  65
ENDBRANCH   1  64
TORSDOF 14
ENDMDL
MODEL 3
REMARK VINA RESULT:     -10.6      5.509     10.168
REMARK SMILES O=C(NCCCCCCNC(=O)c1ccc(Cl)nc1C(F)(F)F)c1ccc(-c2c3nc(c(-c4c(F)cccc4F)c4ccc([nH]4)c(-c4c(F)cccc4F)c4nc(c(-c5c(F)cccc5F)c5ccc2[nH]5)C=C4)C=C3)cc1
REMARK SMILES IDX 6 1 5 2 4 3 3 4 1 5 2 6 24 8 25 9 77 10 26 11 76 12 27 13
REMARK SMILES IDX 28 14 29 15 70 16 30 17 75 18 69 19 71 20 31 21 74 22 68 23
REMARK SMILES IDX 67 24 32 26 58 27 41 28 57 29 42 30 45 31 56 32 72 33 43 34
REMARK SMILES IDX 44 35 55 37 73 38 46 39 33 40 34 41 39 42 35 43 36 44 38 45
REMARK SMILES IDX 40 46 37 47 59 48 60 49 65 50 61 51 62 52 64 53 66 54 63 55
REMARK SMILES IDX 47 56 48 57 53 58 49 59 50 60 52 61 54 62 51 63 7 64 8 65
REMARK SMILES IDX 9 66 10 67 11 68 12 70 13 71 14 72 19 73 15 74 18 75 16 76
REMARK SMILES IDX 17 77 20 78 21 79 22 80 23 81
REMARK H PARENT 3 7 71 25 45 36 10 69
REMARK Flexibility Score: inf
ROOT
ATOM      1  C   UNL A   1      31.528  30.542  26.404  1.00  0.00     0.002 C 
ENDROOT
BRANCH   1   2
ATOM      2  C   UNL A   1      31.344  32.025  26.719  1.00  0.00     0.021 C 
BRANCH   2   3
ATOM      3  C   UNL A   1      32.637  32.799  26.928  1.00  0.00     0.116 C 
BRANCH   3   4
ATOM      4  N   UNL A   1      32.426  34.089  27.566  1.00  0.00    -0.352 N 
ATOM      5  O   UNL A   1      32.672  35.677  29.154  1.00  0.00    -0.269 OA
ATOM      6  C   UNL A   1      33.078  34.638  28.644  1.00  0.00     0.251 C 
ATOM      7  H   UNL A   1      31.717  34.646  27.169  1.00  0.00     0.163 HD
BRANCH   6   8
ATOM      8  C   UNL A   1      34.265  33.953  29.200  1.00  0.00     0.039 A 
ATOM      9  C   UNL A   1      34.110  32.935  30.143  1.00  0.00     0.014 A 
ATOM     10  C   UNL A   1      35.542  34.338  28.784  1.00  0.00     0.014 A 
ATOM     11  C   UNL A   1      35.226  32.413  30.781  1.00  0.00     0.010 A 
ATOM     12  C   UNL A   1      36.668  33.732  29.351  1.00  0.00     0.010 A 
ATOM     13  C   UNL A   1      36.519  32.782  30.372  1.00  0.00    -0.014 A 
BRANCH  13  14
ATOM     14  C   UNL A   1      37.683  32.075  30.966  1.00  0.00     0.031 A 
ATOM     15  C   UNL A   1      38.149  32.355  32.366  1.00  0.00     0.074 A 
ATOM     16  C   UNL A   1      38.295  31.133  30.222  1.00  0.00     0.049 A 
ATOM     17  N   UNL A   1      39.126  31.794  33.033  1.00  0.00    -0.248 NA
ATOM     18  C   UNL A   1      37.436  33.400  33.117  1.00  0.00     0.031 C 
ATOM     19  C   UNL A   1      37.938  30.786  28.842  1.00  0.00     0.029 A 
ATOM     20  N   UNL A   1      39.325  30.279  30.518  1.00  0.00    -0.354 N 
ATOM     21  C   UNL A   1      39.155  32.420  34.273  1.00  0.00     0.074 A 
ATOM     22  C   UNL A   1      38.114  33.426  34.257  1.00  0.00     0.031 C 
ATOM     23  C   UNL A   1      38.697  29.761  28.433  1.00  0.00     0.029 A 
ATOM     24  C   UNL A   1      39.644  29.428  29.488  1.00  0.00     0.049 A 
ATOM     25  H   UNL A   1      39.792  30.276  31.385  1.00  0.00     0.167 HD
ATOM     26  C   UNL A   1      39.970  32.169  35.326  1.00  0.00     0.037 A 
ATOM     27  C   UNL A   1      40.610  28.497  29.390  1.00  0.00     0.037 A 
ATOM     28  C   UNL A   1      41.003  31.163  35.332  1.00  0.00     0.049 A 
ATOM     29  C   UNL A   1      41.522  28.275  30.560  1.00  0.00     0.074 A 
ATOM     30  C   UNL A   1      41.864  30.818  36.359  1.00  0.00     0.029 A 
ATOM     31  N   UNL A   1      41.322  30.347  34.256  1.00  0.00    -0.354 N 
ATOM     32  N   UNL A   1      41.508  28.847  31.738  1.00  0.00    -0.248 NA
ATOM     33  C   UNL A   1      42.585  27.278  30.385  1.00  0.00     0.031 C 
ATOM     34  C   UNL A   1      42.737  29.830  35.889  1.00  0.00     0.029 A 
ATOM     35  C   UNL A   1      42.384  29.519  34.587  1.00  0.00     0.049 A 
ATOM     36  H   UNL A   1      40.864  30.356  33.384  1.00  0.00     0.167 HD
ATOM     37  C   UNL A   1      42.547  28.269  32.452  1.00  0.00     0.074 A 
ATOM     38  C   UNL A   1      43.149  27.278  31.583  1.00  0.00     0.031 C 
ATOM     39  C   UNL A   1      42.972  28.537  33.711  1.00  0.00     0.037 A 
BRANCH  26  40
ATOM     40  C   UNL A   1      39.793  33.000  36.566  1.00  0.00     0.057 A 
ATOM     41  C   UNL A   1      40.538  34.165  36.789  1.00  0.00     0.134 A 
ATOM     42  C   UNL A   1      38.812  32.673  37.512  1.00  0.00     0.134 A 
ATOM     43  F   UNL A   1      41.500  34.533  35.929  1.00  0.00    -0.206 F 
ATOM     44  C   UNL A   1      40.324  34.966  37.914  1.00  0.00     0.040 A 
ATOM     45  C   UNL A   1      38.571  33.479  38.626  1.00  0.00     0.040 A 
ATOM     46  F   UNL A   1      38.055  31.576  37.357  1.00  0.00    -0.206 F 
ATOM     47  C   UNL A   1      39.330  34.629  38.830  1.00  0.00     0.006 A 
ENDBRANCH  26  40
BRANCH  27  48
ATOM     48  C   UNL A   1      40.779  27.729  28.130  1.00  0.00     0.057 A 
ATOM     49  C   UNL A   1      40.155  26.492  27.943  1.00  0.00     0.134 A 
ATOM     50  C   UNL A   1      41.585  28.210  27.088  1.00  0.00     0.134 A 
ATOM     51  F   UNL A   1      39.383  25.971  28.908  1.00  0.00    -0.206 F 
ATOM     52  C   UNL A   1      40.347  25.746  26.779  1.00  0.00     0.040 A 
ATOM     53  C   UNL A   1      41.757  27.491  25.906  1.00  0.00     0.040 A 
ATOM     54  F   UNL A   1      42.201  29.395  27.200  1.00  0.00    -0.206 F 
ATOM     55  C   UNL A   1      41.147  26.248  25.754  1.00  0.00     0.006 A 
ENDBRANCH  27  48
BRANCH  39  56
ATOM     56  C   UNL A   1      44.122  27.722  34.226  1.00  0.00     0.057 A 
ATOM     57  C   UNL A   1      43.930  26.483  34.852  1.00  0.00     0.134 A 
ATOM     58  C   UNL A   1      45.438  28.180  34.091  1.00  0.00     0.134 A 
ATOM     59  F   UNL A   1      42.692  25.994  35.028  1.00  0.00    -0.206 F 
ATOM     60  C   UNL A   1      45.002  25.747  35.358  1.00  0.00     0.040 A 
ATOM     61  C   UNL A   1      46.522  27.439  34.564  1.00  0.00     0.040 A 
ATOM     62  F   UNL A   1      45.694  29.354  33.495  1.00  0.00    -0.206 F 
ATOM     63  C   UNL A   1      46.304  26.223  35.209  1.00  0.00     0.006 A 
ENDBRANCH  39  56
ENDBRANCH  13  14
ENDBRANCH   6   8
ENDBRANCH   3   4
ENDBRANCH   2   3
ENDBRANCH   1   2
BRANCH   1  64
ATOM     64  C   UNL A   1      32.967  30.105  26.113  1.00  0.00     0.002 C 
BRANCH  64  65
ATOM     65  C   UNL A   1      33.121  28.801  25.325  1.00  0.00     0.021 C 
BRANCH  65  66
ATOM     66  C   UNL A   1      33.257  28.964  23.814  1.00  0.00     0.116 C 
BRANCH  66  67
ATOM     67  N   UNL A   1      31.974  29.127  23.150  1.00  0.00    -0.352 N 
ATOM     68  C   UNL A   1      31.166  28.177  22.585  1.00  0.00     0.253 C 
ATOM     69  H   UNL A   1      31.639  30.052  23.099  1.00  0.00     0.163 HD
ATOM     70  O   UNL A   1      30.112  28.470  22.029  1.00  0.00    -0.269 OA
BRANCH  68  71
ATOM     71  C   UNL A   1      31.560  26.766  22.650  1.00  0.00     0.070 A 
ATOM     72  C   UNL A   1      32.520  26.292  21.745  1.00  0.00     0.019 A 
ATOM     73  C   UNL A   1      31.022  25.899  23.601  1.00  0.00     0.158 A 
ATOM     74  C   UNL A   1      32.886  24.952  21.775  1.00  0.00     0.042 A 
ATOM     75  N   UNL A   1      31.392  24.577  23.634  1.00  0.00    -0.231 NA
ATOM     76  C   UNL A   1      32.295  24.146  22.729  1.00  0.00     0.129 A 
ATOM     77  Cl  UNL A   1      32.669  22.478  22.827  1.00  0.00    -0.062 Cl
BRANCH  73  78
ATOM     78  C   UNL A   1      30.023  26.377  24.646  1.00  0.00     0.434 C 
ATOM     79  F   UNL A   1      29.749  25.411  25.576  1.00  0.00    -0.164 F 
ATOM     80  F   UNL A   1      30.474  27.448  25.359  1.00  0.00    -0.164 F 
ATOM     81  F   UNL A   1      28.801  26.723  24.154  1.00  0.00    -0.164 F 
ENDBRANCH  73  78
ENDBRANCH  68  71
ENDBRANCH  66  67
ENDBRANCH  65  66
ENDBRANCH  64  65
ENDBRANCH   1  64
TORSDOF 14
ENDMDL
