MODEL 1
REMARK VINA RESULT:     -12.4      0.000      0.000
REMARK SMILES Cc1ccc2c(c1)c(-c1ccnc3c(C)cccc13)c(C)n2CC(=O)NCCCCCCNC(=O)c1ccc(-c2c3nc(c(-c4c(F)cccc4F)c4ccc([nH]4)c(-c4c(F)cccc4F)c4nc(c(-c5c(F)cccc5F)c5ccc2[nH]5)C=C4)C=C3)cc1
REMARK SMILES IDX 29 1 28 2 27 3 26 4 24 5 25 6 23 8 22 9 1 10 2 11 3 12 7 13
REMARK SMILES IDX 4 14 6 15 5 16 8 17 20 18 21 19 9 20 10 21 19 22 11 23 13 24
REMARK SMILES IDX 18 25 12 26 14 27 17 28 15 29 16 30 30 31 31 32 32 33 33 34
REMARK SMILES IDX 34 35 35 37 36 38 37 39 89 40 38 41 88 42 39 43 40 44 41 45
REMARK SMILES IDX 82 46 42 47 87 48 81 49 83 50 43 51 86 52 80 53 79 54 44 56
REMARK SMILES IDX 70 57 53 58 69 59 54 60 57 61 68 62 84 63 55 64 56 65 67 67
REMARK SMILES IDX 85 68 58 69 45 70 46 71 51 72 47 73 48 74 50 75 52 76 49 77
REMARK SMILES IDX 71 78 72 79 77 80 73 81 74 82 76 83 78 84 75 85 59 86 60 87
REMARK SMILES IDX 65 88 61 89 62 90 64 91 66 92 63 93
REMARK H PARENT 26 7 33 36 83 55 57 66
REMARK Flexibility Score: inf
ROOT
ATOM      1  C   UNL A   1      34.049  33.789  28.476  1.00  0.00     0.002 C 
ENDROOT
BRANCH   1   2
ATOM      2  C   UNL A   1      35.222  32.950  27.956  1.00  0.00     0.021 C 
BRANCH   2   3
ATOM      3  C   UNL A   1      34.881  31.473  27.773  1.00  0.00     0.116 C 
BRANCH   3   4
ATOM      4  N   UNL A   1      33.449  31.257  27.841  1.00  0.00    -0.355 N 
ATOM      5  C   UNL A   1      32.623  30.655  26.937  1.00  0.00     0.239 C 
ATOM      6  O   UNL A   1      31.413  30.652  27.179  1.00  0.00    -0.273 OA
ATOM      7  H   UNL A   1      33.011  31.591  28.656  1.00  0.00     0.163 HD
BRANCH   5   8
ATOM      8  C   UNL A   1      33.182  29.939  25.721  1.00  0.00     0.222 C 
BRANCH   8   9
ATOM      9  N   UNL A   1      32.359  28.832  25.246  1.00  0.00    -0.335 N 
ATOM     10  C   UNL A   1      27.358  28.591  22.611  1.00  0.00     0.044 C 
ATOM     11  C   UNL A   1      28.711  28.736  23.242  1.00  0.00    -0.050 A 
ATOM     12  C   UNL A   1      29.326  29.983  23.346  1.00  0.00     0.005 A 
ATOM     13  C   UNL A   1      29.365  27.601  23.743  1.00  0.00     0.014 A 
ATOM     14  C   UNL A   1      30.575  30.127  23.962  1.00  0.00     0.027 A 
ATOM     15  C   UNL A   1      30.621  27.723  24.377  1.00  0.00     0.008 A 
ATOM     16  C   UNL A   1      31.196  28.987  24.503  1.00  0.00     0.049 A 
ATOM     17  C   UNL A   1      31.521  26.787  24.965  1.00  0.00     0.011 A 
ATOM     18  C   UNL A   1      32.617  27.486  25.451  1.00  0.00     0.024 A 
ATOM     19  C   UNL A   1      33.849  26.968  26.117  1.00  0.00     0.065 C 
BRANCH  17  20
ATOM     20  C   UNL A   1      31.374  25.336  25.023  1.00  0.00    -0.005 A 
ATOM     21  C   UNL A   1      30.726  24.807  26.137  1.00  0.00     0.029 A 
ATOM     22  C   UNL A   1      31.923  24.474  24.041  1.00  0.00     0.008 A 
ATOM     23  C   UNL A   1      30.643  23.438  26.244  1.00  0.00     0.112 A 
ATOM     24  C   UNL A   1      31.788  23.081  24.250  1.00  0.00     0.074 A 
ATOM     25  C   UNL A   1      32.601  24.931  22.887  1.00  0.00     0.011 A 
ATOM     26  N   UNL A   1      31.156  22.586  25.335  1.00  0.00    -0.256 NA
ATOM     27  C   UNL A   1      32.339  22.202  23.304  1.00  0.00    -0.025 A 
ATOM     28  C   UNL A   1      33.136  24.049  21.955  1.00  0.00     0.001 A 
ATOM     29  C   UNL A   1      32.249  20.707  23.470  1.00  0.00     0.047 C 
ATOM     30  C   UNL A   1      33.007  22.687  22.165  1.00  0.00     0.005 A 
ENDBRANCH  17  20
ENDBRANCH   8   9
ENDBRANCH   5   8
ENDBRANCH   3   4
ENDBRANCH   2   3
ENDBRANCH   1   2
BRANCH   1  31
ATOM     31  C   UNL A   1      34.213  35.301  28.282  1.00  0.00     0.002 C 
BRANCH  31  32
ATOM     32  C   UNL A   1      33.086  36.150  28.879  1.00  0.00     0.021 C 
BRANCH  32  33
ATOM     33  C   UNL A   1      33.371  36.658  30.294  1.00  0.00     0.116 C 
BRANCH  33  34
ATOM     34  N   UNL A   1      32.671  35.924  31.328  1.00  0.00    -0.352 N 
ATOM     35  C   UNL A   1      33.046  35.002  32.264  1.00  0.00     0.251 C 
ATOM     36  H   UNL A   1      31.711  36.137  31.366  1.00  0.00     0.163 HD
ATOM     37  O   UNL A   1      32.176  34.639  33.063  1.00  0.00    -0.269 OA
BRANCH  35  38
ATOM     38  C   UNL A   1      34.386  34.360  32.330  1.00  0.00     0.039 A 
ATOM     39  C   UNL A   1      35.596  35.033  32.492  1.00  0.00     0.014 A 
ATOM     40  C   UNL A   1      34.411  32.964  32.150  1.00  0.00     0.014 A 
ATOM     41  C   UNL A   1      36.799  34.365  32.332  1.00  0.00     0.010 A 
ATOM     42  C   UNL A   1      35.613  32.280  32.031  1.00  0.00     0.010 A 
ATOM     43  C   UNL A   1      36.804  32.998  32.060  1.00  0.00    -0.014 A 
BRANCH  43  44
ATOM     44  C   UNL A   1      38.102  32.360  31.899  1.00  0.00     0.031 A 
ATOM     45  C   UNL A   1      38.923  32.287  33.141  1.00  0.00     0.074 A 
ATOM     46  C   UNL A   1      38.500  31.799  30.741  1.00  0.00     0.049 A 
ATOM     47  N   UNL A   1      40.093  32.792  33.365  1.00  0.00    -0.248 NA
ATOM     48  C   UNL A   1      38.304  31.663  34.322  1.00  0.00     0.031 C 
ATOM     49  C   UNL A   1      37.703  31.560  29.536  1.00  0.00     0.029 A 
ATOM     50  N   UNL A   1      39.696  31.224  30.437  1.00  0.00    -0.354 N 
ATOM     51  C   UNL A   1      40.440  32.391  34.655  1.00  0.00     0.074 A 
ATOM     52  C   UNL A   1      39.252  31.830  35.242  1.00  0.00     0.031 C 
ATOM     53  C   UNL A   1      38.359  30.689  28.736  1.00  0.00     0.029 A 
ATOM     54  C   UNL A   1      39.665  30.416  29.310  1.00  0.00     0.049 A 
ATOM     55  H   UNL A   1      40.511  31.369  30.970  1.00  0.00     0.167 HD
ATOM     56  C   UNL A   1      41.739  32.339  35.062  1.00  0.00     0.037 A 
ATOM     57  C   UNL A   1      40.614  29.528  28.925  1.00  0.00     0.037 A 
ATOM     58  C   UNL A   1      42.581  33.178  34.249  1.00  0.00     0.049 A 
ATOM     59  C   UNL A   1      41.873  29.870  29.632  1.00  0.00     0.074 A 
ATOM     60  C   UNL A   1      42.626  34.527  33.954  1.00  0.00     0.029 A 
ATOM     61  N   UNL A   1      43.398  32.575  33.326  1.00  0.00    -0.354 N 
ATOM     62  N   UNL A   1      42.588  30.929  29.377  1.00  0.00    -0.248 NA
ATOM     63  C   UNL A   1      42.111  29.255  30.929  1.00  0.00     0.031 C 
ATOM     64  C   UNL A   1      43.051  34.593  32.594  1.00  0.00     0.029 A 
ATOM     65  C   UNL A   1      43.278  33.287  32.163  1.00  0.00     0.049 A 
ATOM     66  H   UNL A   1      43.963  31.782  33.473  1.00  0.00     0.167 HD
ATOM     67  C   UNL A   1      43.034  31.360  30.618  1.00  0.00     0.074 A 
ATOM     68  C   UNL A   1      42.792  30.239  31.522  1.00  0.00     0.031 C 
ATOM     69  C   UNL A   1      43.293  32.680  30.855  1.00  0.00     0.037 A 
BRANCH  56  70
ATOM     70  C   UNL A   1      42.304  31.225  35.917  1.00  0.00     0.057 A 
ATOM     71  C   UNL A   1      42.299  29.863  35.551  1.00  0.00     0.134 A 
ATOM     72  C   UNL A   1      43.177  31.552  36.973  1.00  0.00     0.134 A 
ATOM     73  F   UNL A   1      41.559  29.388  34.543  1.00  0.00    -0.206 F 
ATOM     74  C   UNL A   1      43.142  28.916  36.137  1.00  0.00     0.040 A 
ATOM     75  C   UNL A   1      44.061  30.621  37.533  1.00  0.00     0.040 A 
ATOM     76  F   UNL A   1      43.270  32.811  37.425  1.00  0.00    -0.206 F 
ATOM     77  C   UNL A   1      44.057  29.301  37.102  1.00  0.00     0.006 A 
ENDBRANCH  56  70
BRANCH  57  78
ATOM     78  C   UNL A   1      40.430  28.245  28.212  1.00  0.00     0.057 A 
ATOM     79  C   UNL A   1      39.932  27.104  28.869  1.00  0.00     0.134 A 
ATOM     80  C   UNL A   1      40.976  28.031  26.939  1.00  0.00     0.134 A 
ATOM     81  F   UNL A   1      39.468  27.175  30.126  1.00  0.00    -0.206 F 
ATOM     82  C   UNL A   1      39.972  25.829  28.297  1.00  0.00     0.040 A 
ATOM     83  C   UNL A   1      41.032  26.757  26.359  1.00  0.00     0.040 A 
ATOM     84  F   UNL A   1      41.520  29.045  26.252  1.00  0.00    -0.206 F 
ATOM     85  C   UNL A   1      40.536  25.649  27.041  1.00  0.00     0.006 A 
ENDBRANCH  57  78
BRANCH  69  86
ATOM     86  C   UNL A   1      43.330  33.605  29.674  1.00  0.00     0.057 A 
ATOM     87  C   UNL A   1      44.552  33.835  29.033  1.00  0.00     0.134 A 
ATOM     88  C   UNL A   1      42.233  34.366  29.244  1.00  0.00     0.134 A 
ATOM     89  F   UNL A   1      45.659  33.190  29.434  1.00  0.00    -0.206 F 
ATOM     90  C   UNL A   1      44.675  34.763  27.996  1.00  0.00     0.040 A 
ATOM     91  C   UNL A   1      42.335  35.272  28.185  1.00  0.00     0.040 A 
ATOM     92  F   UNL A   1      41.052  34.295  29.870  1.00  0.00    -0.206 F 
ATOM     93  C   UNL A   1      43.561  35.475  27.559  1.00  0.00     0.006 A 
ENDBRANCH  69  86
ENDBRANCH  43  44
ENDBRANCH  35  38
ENDBRANCH  33  34
ENDBRANCH  32  33
ENDBRANCH  31  32
ENDBRANCH   1  31
TORSDOF 15
ENDMDL
MODEL 2
REMARK VINA RESULT:     -12.2      4.415      9.723
REMARK SMILES Cc1ccc2c(c1)c(-c1ccnc3c(C)cccc13)c(C)n2CC(=O)NCCCCCCNC(=O)c1ccc(-c2c3nc(c(-c4c(F)cccc4F)c4ccc([nH]4)c(-c4c(F)cccc4F)c4nc(c(-c5c(F)cccc5F)c5ccc2[nH]5)C=C4)C=C3)cc1
REMARK SMILES IDX 29 1 28 2 27 3 26 4 24 5 25 6 23 8 22 9 1 10 2 11 3 12 7 13
REMARK SMILES IDX 4 14 6 15 5 16 8 17 20 18 21 19 9 20 10 21 19 22 11 23 13 24
REMARK SMILES IDX 18 25 12 26 14 27 17 28 15 29 16 30 30 31 31 32 32 33 33 34
REMARK SMILES IDX 34 35 35 37 36 38 37 39 89 40 38 41 88 42 39 43 40 44 41 45
REMARK SMILES IDX 82 46 42 47 87 48 81 49 83 50 43 51 86 52 80 53 79 54 44 56
REMARK SMILES IDX 70 57 53 58 69 59 54 60 57 61 68 62 84 63 55 64 56 65 67 67
REMARK SMILES IDX 85 68 58 69 45 70 46 71 51 72 47 73 48 74 50 75 52 76 49 77
REMARK SMILES IDX 71 78 72 79 77 80 73 81 74 82 76 83 78 84 75 85 59 86 60 87
REMARK SMILES IDX 65 88 61 89 62 90 64 91 66 92 63 93
REMARK H PARENT 26 7 33 36 83 55 57 66
REMARK Flexibility Score: inf
ROOT
ATOM      1  C   UNL A   1      41.231  21.615  27.918  1.00  0.00     0.002 C 
ENDROOT
BRANCH   1   2
ATOM      2  C   UNL A   1      40.720  22.456  26.742  1.00  0.00     0.021 C 
BRANCH   2   3
ATOM      3  C   UNL A   1      39.215  22.712  26.787  1.00  0.00     0.116 C 
BRANCH   3   4
ATOM      4  N   UNL A   1      38.655  22.765  25.451  1.00  0.00    -0.355 N 
ATOM      5  C   UNL A   1      37.669  22.001  24.897  1.00  0.00     0.239 C 
ATOM      6  O   UNL A   1      37.407  22.179  23.705  1.00  0.00    -0.273 OA
ATOM      7  H   UNL A   1      39.041  23.450  24.859  1.00  0.00     0.163 HD
BRANCH   5   8
ATOM      8  C   UNL A   1      36.865  21.028  25.741  1.00  0.00     0.222 C 
BRANCH   8   9
ATOM      9  N   UNL A   1      35.422  21.116  25.544  1.00  0.00    -0.335 N 
ATOM     10  C   UNL A   1      31.664  17.754  22.977  1.00  0.00     0.044 C 
ATOM     11  C   UNL A   1      32.705  18.556  23.702  1.00  0.00    -0.050 A 
ATOM     12  C   UNL A   1      33.987  18.051  23.907  1.00  0.00     0.005 A 
ATOM     13  C   UNL A   1      32.385  19.837  24.173  1.00  0.00     0.014 A 
ATOM     14  C   UNL A   1      34.971  18.808  24.554  1.00  0.00     0.027 A 
ATOM     15  C   UNL A   1      33.363  20.624  24.822  1.00  0.00     0.008 A 
ATOM     16  C   UNL A   1      34.649  20.109  24.979  1.00  0.00     0.049 A 
ATOM     17  C   UNL A   1      33.350  21.923  25.408  1.00  0.00     0.011 A 
ATOM     18  C   UNL A   1      34.620  22.189  25.898  1.00  0.00     0.024 A 
ATOM     19  C   UNL A   1      35.118  23.391  26.631  1.00  0.00     0.065 C 
BRANCH  17  20
ATOM     20  C   UNL A   1      32.210  22.825  25.533  1.00  0.00    -0.005 A 
ATOM     21  C   UNL A   1      31.378  22.649  26.636  1.00  0.00     0.029 A 
ATOM     22  C   UNL A   1      31.894  23.797  24.550  1.00  0.00     0.008 A 
ATOM     23  C   UNL A   1      30.258  23.442  26.732  1.00  0.00     0.112 A 
ATOM     24  C   UNL A   1      30.715  24.556  24.741  1.00  0.00     0.074 A 
ATOM     25  C   UNL A   1      32.682  24.032  23.398  1.00  0.00     0.011 A 
ATOM     26  N   UNL A   1      29.922  24.372  25.817  1.00  0.00    -0.256 NA
ATOM     27  C   UNL A   1      30.367  25.512  23.774  1.00  0.00    -0.025 A 
ATOM     28  C   UNL A   1      32.328  24.987  22.453  1.00  0.00     0.001 A 
ATOM     29  C   UNL A   1      29.117  26.344  23.902  1.00  0.00     0.047 C 
ATOM     30  C   UNL A   1      31.171  25.724  22.639  1.00  0.00     0.005 A 
ENDBRANCH  17  20
ENDBRANCH   8   9
ENDBRANCH   5   8
ENDBRANCH   3   4
ENDBRANCH   2   3
ENDBRANCH   1   2
BRANCH   1  31
ATOM     31  C   UNL A   1      41.525  20.152  27.573  1.00  0.00     0.002 C 
BRANCH  31  32
ATOM     32  C   UNL A   1      41.852  19.894  26.098  1.00  0.00     0.021 C 
BRANCH  32  33
ATOM     33  C   UNL A   1      43.196  19.198  25.870  1.00  0.00     0.116 C 
BRANCH  33  34
ATOM     34  N   UNL A   1      43.962  19.754  24.773  1.00  0.00    -0.352 N 
ATOM     35  C   UNL A   1      44.419  21.005  24.467  1.00  0.00     0.251 C 
ATOM     36  H   UNL A   1      44.207  19.082  24.098  1.00  0.00     0.163 HD
ATOM     37  O   UNL A   1      45.132  21.102  23.463  1.00  0.00    -0.269 OA
BRANCH  35  38
ATOM     38  C   UNL A   1      44.054  22.243  25.205  1.00  0.00     0.039 A 
ATOM     39  C   UNL A   1      43.269  23.280  24.702  1.00  0.00     0.014 A 
ATOM     40  C   UNL A   1      44.610  22.383  26.491  1.00  0.00     0.014 A 
ATOM     41  C   UNL A   1      43.160  24.478  25.391  1.00  0.00     0.010 A 
ATOM     42  C   UNL A   1      44.470  23.565  27.206  1.00  0.00     0.010 A 
ATOM     43  C   UNL A   1      43.796  24.632  26.622  1.00  0.00    -0.014 A 
BRANCH  43  44
ATOM     44  C   UNL A   1      43.645  25.916  27.289  1.00  0.00     0.031 A 
ATOM     45  C   UNL A   1      44.734  26.897  27.015  1.00  0.00     0.074 A 
ATOM     46  C   UNL A   1      42.563  26.231  28.026  1.00  0.00     0.049 A 
ATOM     47  N   UNL A   1      45.541  27.460  27.854  1.00  0.00    -0.248 NA
ATOM     48  C   UNL A   1      45.029  27.200  25.605  1.00  0.00     0.031 C 
ATOM     49  C   UNL A   1      41.312  25.480  28.156  1.00  0.00     0.029 A 
ATOM     50  N   UNL A   1      42.318  27.363  28.743  1.00  0.00    -0.354 N 
ATOM     51  C   UNL A   1      46.327  28.332  27.101  1.00  0.00     0.074 A 
ATOM     52  C   UNL A   1      46.070  28.023  25.719  1.00  0.00     0.031 C 
ATOM     53  C   UNL A   1      40.370  26.280  28.703  1.00  0.00     0.029 A 
ATOM     54  C   UNL A   1      40.984  27.544  29.076  1.00  0.00     0.049 A 
ATOM     55  H   UNL A   1      43.025  27.995  29.003  1.00  0.00     0.167 HD
ATOM     56  C   UNL A   1      46.955  29.398  27.668  1.00  0.00     0.037 A 
ATOM     57  C   UNL A   1      40.415  28.680  29.546  1.00  0.00     0.037 A 
ATOM     58  C   UNL A   1      47.125  29.219  29.087  1.00  0.00     0.049 A 
ATOM     59  C   UNL A   1      41.497  29.548  30.072  1.00  0.00     0.074 A 
ATOM     60  C   UNL A   1      47.767  28.292  29.886  1.00  0.00     0.029 A 
ATOM     61  N   UNL A   1      46.306  29.924  29.932  1.00  0.00    -0.354 N 
ATOM     62  N   UNL A   1      42.175  29.295  31.155  1.00  0.00    -0.248 NA
ATOM     63  C   UNL A   1      42.123  30.484  29.149  1.00  0.00     0.031 C 
ATOM     64  C   UNL A   1      46.938  28.163  31.040  1.00  0.00     0.029 A 
ATOM     65  C   UNL A   1      45.872  29.047  30.889  1.00  0.00     0.049 A 
ATOM     66  H   UNL A   1      46.075  30.879  29.863  1.00  0.00     0.167 HD
ATOM     67  C   UNL A   1      43.473  29.684  30.857  1.00  0.00     0.074 A 
ATOM     68  C   UNL A   1      43.361  30.496  29.649  1.00  0.00     0.031 C 
ATOM     69  C   UNL A   1      44.544  29.079  31.451  1.00  0.00     0.037 A 
BRANCH  56  70
ATOM     70  C   UNL A   1      47.040  30.763  27.018  1.00  0.00     0.057 A 
ATOM     71  C   UNL A   1      45.920  31.551  26.679  1.00  0.00     0.134 A 
ATOM     72  C   UNL A   1      48.266  31.455  27.041  1.00  0.00     0.134 A 
ATOM     73  F   UNL A   1      44.675  31.063  26.649  1.00  0.00    -0.206 F 
ATOM     74  C   UNL A   1      46.000  32.926  26.449  1.00  0.00     0.040 A 
ATOM     75  C   UNL A   1      48.351  32.841  26.861  1.00  0.00     0.040 A 
ATOM     76  F   UNL A   1      49.410  30.820  27.338  1.00  0.00    -0.206 F 
ATOM     77  C   UNL A   1      47.211  33.584  26.582  1.00  0.00     0.006 A 
ENDBRANCH  56  70
BRANCH  57  78
ATOM     78  C   UNL A   1      39.041  29.179  29.314  1.00  0.00     0.057 A 
ATOM     79  C   UNL A   1      38.065  29.139  30.326  1.00  0.00     0.134 A 
ATOM     80  C   UNL A   1      38.577  29.470  28.024  1.00  0.00     0.134 A 
ATOM     81  F   UNL A   1      38.379  28.784  31.581  1.00  0.00    -0.206 F 
ATOM     82  C   UNL A   1      36.710  29.375  30.074  1.00  0.00     0.040 A 
ATOM     83  C   UNL A   1      37.221  29.697  27.755  1.00  0.00     0.040 A 
ATOM     84  F   UNL A   1      39.422  29.483  26.984  1.00  0.00    -0.206 F 
ATOM     85  C   UNL A   1      36.281  29.643  28.780  1.00  0.00     0.006 A 
ENDBRANCH  57  78
BRANCH  69  86
ATOM     86  C   UNL A   1      44.274  28.170  32.614  1.00  0.00     0.057 A 
ATOM     87  C   UNL A   1      44.460  28.657  33.912  1.00  0.00     0.134 A 
ATOM     88  C   UNL A   1      43.969  26.806  32.484  1.00  0.00     0.134 A 
ATOM     89  F   UNL A   1      44.817  29.936  34.109  1.00  0.00    -0.206 F 
ATOM     90  C   UNL A   1      44.327  27.834  35.033  1.00  0.00     0.040 A 
ATOM     91  C   UNL A   1      43.799  25.981  33.598  1.00  0.00     0.040 A 
ATOM     92  F   UNL A   1      43.881  26.227  31.281  1.00  0.00    -0.206 F 
ATOM     93  C   UNL A   1      43.981  26.494  34.879  1.00  0.00     0.006 A 
ENDBRANCH  69  86
ENDBRANCH  43  44
ENDBRANCH  35  38
ENDBRANCH  33  34
ENDBRANCH  32  33
ENDBRANCH  31  32
ENDBRANCH   1  31
TORSDOF 15
ENDMDL
MODEL 3
REMARK VINA RESULT:     -12.1      3.815      9.218
REMARK SMILES Cc1ccc2c(c1)c(-c1ccnc3c(C)cccc13)c(C)n2CC(=O)NCCCCCCNC(=O)c1ccc(-c2c3nc(c(-c4c(F)cccc4F)c4ccc([nH]4)c(-c4c(F)cccc4F)c4nc(c(-c5c(F)cccc5F)c5ccc2[nH]5)C=C4)C=C3)cc1
REMARK SMILES IDX 29 1 28 2 27 3 26 4 24 5 25 6 23 8 22 9 1 10 2 11 3 12 7 13
REMARK SMILES IDX 4 14 6 15 5 16 8 17 20 18 21 19 9 20 10 21 19 22 11 23 13 24
REMARK SMILES IDX 18 25 12 26 14 27 17 28 15 29 16 30 30 31 31 32 32 33 33 34
REMARK SMILES IDX 34 35 35 37 36 38 37 39 89 40 38 41 88 42 39 43 40 44 41 45
REMARK SMILES IDX 82 46 42 47 87 48 81 49 83 50 43 51 86 52 80 53 79 54 44 56
REMARK SMILES IDX 70 57 53 58 69 59 54 60 57 61 68 62 84 63 55 64 56 65 67 67
REMARK SMILES IDX 85 68 58 69 45 70 46 71 51 72 47 73 48 74 50 75 52 76 49 77
REMARK SMILES IDX 71 78 72 79 77 80 73 81 74 82 76 83 78 84 75 85 59 86 60 87
REMARK SMILES IDX 65 88 61 89 62 90 64 91 66 92 63 93
REMARK H PARENT 26 7 33 36 83 55 57 66
REMARK Flexibility Score: inf
ROOT
ATOM      1  C   UNL A   1      39.108  22.365  26.133  1.00  0.00     0.002 C 
ENDROOT
BRANCH   1   2
ATOM      2  C   UNL A   1      38.313  23.674  26.216  1.00  0.00     0.021 C 
BRANCH   2   3
ATOM      3  C   UNL A   1      37.089  23.702  25.303  1.00  0.00     0.116 C 
BRANCH   3   4
ATOM      4  N   UNL A   1      36.478  22.391  25.211  1.00  0.00    -0.355 N 
ATOM      5  C   UNL A   1      35.378  22.000  24.503  1.00  0.00     0.239 C 
ATOM      6  O   UNL A   1      34.995  20.834  24.638  1.00  0.00    -0.273 OA
ATOM      7  H   UNL A   1      36.918  21.683  25.733  1.00  0.00     0.163 HD
BRANCH   5   8
ATOM      8  C   UNL A   1      34.704  22.939  23.520  1.00  0.00     0.222 C 
BRANCH   8   9
ATOM      9  N   UNL A   1      33.659  23.771  24.106  1.00  0.00    -0.335 N 
ATOM     10  C   UNL A   1      29.180  22.619  27.367  1.00  0.00     0.044 C 
ATOM     11  C   UNL A   1      30.427  22.856  26.565  1.00  0.00    -0.050 A 
ATOM     12  C   UNL A   1      31.362  21.841  26.372  1.00  0.00     0.005 A 
ATOM     13  C   UNL A   1      30.650  24.118  25.994  1.00  0.00     0.014 A 
ATOM     14  C   UNL A   1      32.510  22.049  25.598  1.00  0.00     0.027 A 
ATOM     15  C   UNL A   1      31.796  24.349  25.202  1.00  0.00     0.008 A 
ATOM     16  C   UNL A   1      32.696  23.305  24.992  1.00  0.00     0.049 A 
ATOM     17  C   UNL A   1      32.300  25.490  24.511  1.00  0.00     0.011 A 
ATOM     18  C   UNL A   1      33.483  25.127  23.882  1.00  0.00     0.024 A 
ATOM     19  C   UNL A   1      34.415  25.962  23.068  1.00  0.00     0.065 C 
BRANCH  17  20
ATOM     20  C   UNL A   1      31.728  26.832  24.486  1.00  0.00    -0.005 A 
ATOM     21  C   UNL A   1      30.874  27.139  23.429  1.00  0.00     0.029 A 
ATOM     22  C   UNL A   1      32.068  27.825  25.439  1.00  0.00     0.008 A 
ATOM     23  C   UNL A   1      30.384  28.422  23.349  1.00  0.00     0.112 A 
ATOM     24  C   UNL A   1      31.514  29.114  25.261  1.00  0.00     0.074 A 
ATOM     25  C   UNL A   1      32.933  27.596  26.535  1.00  0.00     0.011 A 
ATOM     26  N   UNL A   1      30.688  29.394  24.231  1.00  0.00    -0.256 NA
ATOM     27  C   UNL A   1      31.849  30.123  26.178  1.00  0.00    -0.025 A 
ATOM     28  C   UNL A   1      33.250  28.603  27.439  1.00  0.00     0.001 A 
ATOM     29  C   UNL A   1      31.310  31.523  26.041  1.00  0.00     0.047 C 
ATOM     30  C   UNL A   1      32.711  29.864  27.259  1.00  0.00     0.005 A 
ENDBRANCH  17  20
ENDBRANCH   8   9
ENDBRANCH   5   8
ENDBRANCH   3   4
ENDBRANCH   2   3
ENDBRANCH   1   2
BRANCH   1  31
ATOM     31  C   UNL A   1      40.034  22.107  27.326  1.00  0.00     0.002 C 
BRANCH  31  32
ATOM     32  C   UNL A   1      40.764  20.760  27.292  1.00  0.00     0.021 C 
BRANCH  32  33
ATOM     33  C   UNL A   1      40.913  20.167  25.888  1.00  0.00     0.116 C 
BRANCH  33  34
ATOM     34  N   UNL A   1      42.290  19.990  25.475  1.00  0.00    -0.352 N 
ATOM     35  C   UNL A   1      43.429  20.734  25.606  1.00  0.00     0.251 C 
ATOM     36  H   UNL A   1      42.439  19.145  24.993  1.00  0.00     0.163 HD
ATOM     37  O   UNL A   1      44.475  20.221  25.194  1.00  0.00    -0.269 OA
BRANCH  35  38
ATOM     38  C   UNL A   1      43.475  22.126  26.128  1.00  0.00     0.039 A 
ATOM     39  C   UNL A   1      44.006  22.508  27.359  1.00  0.00     0.014 A 
ATOM     40  C   UNL A   1      42.871  23.109  25.320  1.00  0.00     0.014 A 
ATOM     41  C   UNL A   1      43.814  23.794  27.839  1.00  0.00     0.010 A 
ATOM     42  C   UNL A   1      42.712  24.410  25.777  1.00  0.00     0.010 A 
ATOM     43  C   UNL A   1      43.130  24.730  27.064  1.00  0.00    -0.014 A 
BRANCH  43  44
ATOM     44  C   UNL A   1      42.959  26.060  27.631  1.00  0.00     0.031 A 
ATOM     45  C   UNL A   1      44.032  27.033  27.280  1.00  0.00     0.074 A 
ATOM     46  C   UNL A   1      41.873  26.412  28.345  1.00  0.00     0.049 A 
ATOM     47  N   UNL A   1      44.831  27.672  28.071  1.00  0.00    -0.248 NA
ATOM     48  C   UNL A   1      44.319  27.232  25.850  1.00  0.00     0.031 C 
ATOM     49  C   UNL A   1      40.635  25.654  28.536  1.00  0.00     0.029 A 
ATOM     50  N   UNL A   1      41.611  27.592  28.974  1.00  0.00    -0.354 N 
ATOM     51  C   UNL A   1      45.602  28.496  27.251  1.00  0.00     0.074 A 
ATOM     52  C   UNL A   1      45.347  28.078  25.898  1.00  0.00     0.031 C 
ATOM     53  C   UNL A   1      39.681  26.479  29.023  1.00  0.00     0.029 A 
ATOM     54  C   UNL A   1      40.275  27.777  29.295  1.00  0.00     0.049 A 
ATOM     55  H   UNL A   1      42.309  28.254  29.182  1.00  0.00     0.167 HD
ATOM     56  C   UNL A   1      46.213  29.612  27.733  1.00  0.00     0.037 A 
ATOM     57  C   UNL A   1      39.689  28.937  29.679  1.00  0.00     0.037 A 
ATOM     58  C   UNL A   1      46.389  29.545  29.161  1.00  0.00     0.049 A 
ATOM     59  C   UNL A   1      40.757  29.860  30.134  1.00  0.00     0.074 A 
ATOM     60  C   UNL A   1      47.047  28.693  30.027  1.00  0.00     0.029 A 
ATOM     61  N   UNL A   1      45.560  30.300  29.952  1.00  0.00    -0.354 N 
ATOM     62  N   UNL A   1      41.441  29.701  31.231  1.00  0.00    -0.248 NA
ATOM     63  C   UNL A   1      41.367  30.732  29.140  1.00  0.00     0.031 C 
ATOM     64  C   UNL A   1      46.222  28.639  31.190  1.00  0.00     0.029 A 
ATOM     65  C   UNL A   1      45.141  29.492  30.974  1.00  0.00     0.049 A 
ATOM     66  H   UNL A   1      45.314  31.243  29.810  1.00  0.00     0.167 HD
ATOM     67  C   UNL A   1      42.732  30.086  30.901  1.00  0.00     0.074 A 
ATOM     68  C   UNL A   1      42.605  30.802  29.634  1.00  0.00     0.031 C 
ATOM     69  C   UNL A   1      43.814  29.546  31.536  1.00  0.00     0.037 A 
BRANCH  56  70
ATOM     70  C   UNL A   1      46.275  30.924  26.980  1.00  0.00     0.057 A 
ATOM     71  C   UNL A   1      45.142  31.661  26.576  1.00  0.00     0.134 A 
ATOM     72  C   UNL A   1      47.488  31.640  26.955  1.00  0.00     0.134 A 
ATOM     73  F   UNL A   1      43.908  31.147  26.577  1.00  0.00    -0.206 F 
ATOM     74  C   UNL A   1      45.197  33.016  26.241  1.00  0.00     0.040 A 
ATOM     75  C   UNL A   1      47.546  33.010  26.670  1.00  0.00     0.040 A 
ATOM     76  F   UNL A   1      48.642  31.054  27.306  1.00  0.00    -0.206 F 
ATOM     77  C   UNL A   1      46.394  33.706  26.329  1.00  0.00     0.006 A 
ENDBRANCH  56  70
BRANCH  57  78
ATOM     78  C   UNL A   1      38.307  29.395  29.413  1.00  0.00     0.057 A 
ATOM     79  C   UNL A   1      37.903  29.803  28.129  1.00  0.00     0.134 A 
ATOM     80  C   UNL A   1      37.420  29.687  30.458  1.00  0.00     0.134 A 
ATOM     81  F   UNL A   1      38.710  29.655  27.068  1.00  0.00    -0.206 F 
ATOM     82  C   UNL A   1      36.692  30.461  27.896  1.00  0.00     0.040 A 
ATOM     83  C   UNL A   1      36.208  30.356  30.240  1.00  0.00     0.040 A 
ATOM     84  F   UNL A   1      37.736  29.383  31.725  1.00  0.00    -0.206 F 
ATOM     85  C   UNL A   1      35.843  30.752  28.957  1.00  0.00     0.006 A 
ENDBRANCH  57  78
BRANCH  69  86
ATOM     86  C   UNL A   1      43.560  28.724  32.766  1.00  0.00     0.057 A 
ATOM     87  C   UNL A   1      43.651  29.338  34.020  1.00  0.00     0.134 A 
ATOM     88  C   UNL A   1      43.364  27.335  32.750  1.00  0.00     0.134 A 
ATOM     89  F   UNL A   1      43.902  30.653  34.114  1.00  0.00    -0.206 F 
ATOM     90  C   UNL A   1      43.529  28.609  35.206  1.00  0.00     0.040 A 
ATOM     91  C   UNL A   1      43.206  26.601  33.928  1.00  0.00     0.040 A 
ATOM     92  F   UNL A   1      43.374  26.647  31.602  1.00  0.00    -0.206 F 
ATOM     93  C   UNL A   1      43.292  27.237  35.162  1.00  0.00     0.006 A 
ENDBRANCH  69  86
ENDBRANCH  43  44
ENDBRANCH  35  38
ENDBRANCH  33  34
ENDBRANCH  32  33
ENDBRANCH  31  32
ENDBRANCH   1  31
TORSDOF 15
ENDMDL
