MODEL 1
REMARK VINA RESULT:      -9.6      0.000      0.000
REMARK SMILES CC(C)(C)SSC[C@H]([NH3+])C(=O)NCCCCCCNC(=O)c1ccc(-c2c3nc(c(-c4c(F)cccc4F)c4ccc([nH]4)c(-c4c(F)cccc4F)c4nc(c(-c5c(F)cccc5F)c5ccc2[nH]5)C=C4)C=C3)cc1
REMARK SMILES IDX 14 1 13 2 12 3 10 4 11 5 8 7 7 8 6 9 5 10 2 11 1 12 3 13
REMARK SMILES IDX 4 14 9 15 15 19 16 20 17 21 18 22 19 23 20 24 21 26 22 27
REMARK SMILES IDX 23 28 75 29 24 30 74 31 25 32 26 33 27 34 68 35 28 36 73 37
REMARK SMILES IDX 67 38 69 39 29 40 72 41 66 42 65 43 30 45 56 46 39 47 55 48
REMARK SMILES IDX 40 49 43 50 54 51 70 52 41 53 42 54 53 56 71 57 44 58 31 59
REMARK SMILES IDX 32 60 37 61 33 62 34 63 36 64 38 65 35 66 57 67 58 68 63 69
REMARK SMILES IDX 59 70 60 71 62 72 64 73 61 74 45 75 46 76 51 77 47 78 48 79
REMARK SMILES IDX 50 80 52 81 49 82
REMARK H PARENT 12 6 9 16 9 17 9 18 19 25 69 44 43 55
REMARK Flexibility Score: inf
ROOT
ATOM      1  C   UNL A   1      33.229  29.012  26.660  1.00  0.00     0.021 C 
ENDROOT
BRANCH   1   2
ATOM      2  C   UNL A   1      33.700  28.782  25.225  1.00  0.00     0.116 C 
BRANCH   2   3
ATOM      3  N   UNL A   1      33.911  27.371  24.960  1.00  0.00    -0.351 N 
ATOM      4  C   UNL A   1      33.353  26.575  24.003  1.00  0.00     0.279 C 
ATOM      5  O   UNL A   1      33.624  25.371  24.020  1.00  0.00    -0.268 OA
ATOM      6  H   UNL A   1      34.553  26.922  25.558  1.00  0.00     0.163 HD
BRANCH   4   7
ATOM      7  C   UNL A   1      32.463  27.169  22.900  1.00  0.00     0.281 C 
BRANCH   7   8
ATOM      8  C   UNL A   1      31.122  26.414  22.895  1.00  0.00     0.157 C 
BRANCH   8   9
ATOM      9  S   UNL A   1      29.673  27.377  23.453  1.00  0.00    -0.087 SA
BRANCH   9  10
ATOM     10  S   UNL A   1      29.990  29.220  22.604  1.00  0.00    -0.088 SA
BRANCH  10  11
ATOM     11  C   UNL A   1      28.340  30.053  22.647  1.00  0.00     0.018 C 
ATOM     12  C   UNL A   1      28.067  30.533  21.215  1.00  0.00     0.023 C 
ATOM     13  C   UNL A   1      28.383  31.262  23.591  1.00  0.00     0.023 C 
ATOM     14  C   UNL A   1      27.241  29.072  23.075  1.00  0.00     0.023 C 
ENDBRANCH  10  11
ENDBRANCH   9  10
ENDBRANCH   8   9
ENDBRANCH   7   8
BRANCH   7  15
ATOM     15  N   UNL A   1      33.187  27.206  21.606  1.00  0.00    -0.347 N 
ATOM     16  H   UNL A   1      32.523  27.362  20.848  1.00  0.00     0.345 HD
ATOM     17  H   UNL A   1      33.667  26.318  21.460  1.00  0.00     0.345 HD
ATOM     18  H   UNL A   1      33.870  27.964  21.621  1.00  0.00     0.345 HD
ENDBRANCH   7  15
ENDBRANCH   4   7
ENDBRANCH   2   3
ENDBRANCH   1   2
BRANCH   1  19
ATOM     19  C   UNL A   1      31.770  29.474  26.772  1.00  0.00     0.002 C 
BRANCH  19  20
ATOM     20  C   UNL A   1      31.380  30.627  25.842  1.00  0.00     0.002 C 
BRANCH  20  21
ATOM     21  C   UNL A   1      31.290  31.998  26.515  1.00  0.00     0.021 C 
BRANCH  21  22
ATOM     22  C   UNL A   1      32.634  32.600  26.906  1.00  0.00     0.116 C 
BRANCH  22  23
ATOM     23  N   UNL A   1      32.489  33.896  27.551  1.00  0.00    -0.352 N 
ATOM     24  C   UNL A   1      33.202  34.424  28.597  1.00  0.00     0.251 C 
ATOM     25  H   UNL A   1      31.780  34.473  27.186  1.00  0.00     0.163 HD
ATOM     26  O   UNL A   1      32.833  35.460  29.144  1.00  0.00    -0.269 OA
BRANCH  24  27
ATOM     27  C   UNL A   1      34.410  33.725  29.080  1.00  0.00     0.039 A 
ATOM     28  C   UNL A   1      35.666  34.263  28.793  1.00  0.00     0.014 A 
ATOM     29  C   UNL A   1      34.298  32.550  29.829  1.00  0.00     0.014 A 
ATOM     30  C   UNL A   1      36.811  33.659  29.315  1.00  0.00     0.010 A 
ATOM     31  C   UNL A   1      35.432  31.996  30.413  1.00  0.00     0.010 A 
ATOM     32  C   UNL A   1      36.700  32.543  30.160  1.00  0.00    -0.014 A 
BRANCH  32  33
ATOM     33  C   UNL A   1      37.893  31.929  30.795  1.00  0.00     0.031 A 
ATOM     34  C   UNL A   1      38.654  30.851  30.079  1.00  0.00     0.074 A 
ATOM     35  C   UNL A   1      38.233  32.276  32.051  1.00  0.00     0.049 A 
ATOM     36  N   UNL A   1      39.652  30.119  30.505  1.00  0.00    -0.248 NA
ATOM     37  C   UNL A   1      38.215  30.531  28.712  1.00  0.00     0.031 C 
ATOM     38  C   UNL A   1      37.541  33.270  32.871  1.00  0.00     0.029 A 
ATOM     39  N   UNL A   1      39.234  31.810  32.867  1.00  0.00    -0.354 N 
ATOM     40  C   UNL A   1      39.944  29.241  29.470  1.00  0.00     0.074 A 
ATOM     41  C   UNL A   1      38.984  29.495  28.417  1.00  0.00     0.031 C 
ATOM     42  C   UNL A   1      38.140  33.345  34.070  1.00  0.00     0.029 A 
ATOM     43  C   UNL A   1      39.229  32.374  34.119  1.00  0.00     0.049 A 
ATOM     44  H   UNL A   1      39.893  31.136  32.581  1.00  0.00     0.167 HD
ATOM     45  C   UNL A   1      40.934  28.320  29.394  1.00  0.00     0.037 A 
ATOM     46  C   UNL A   1      40.000  32.124  35.195  1.00  0.00     0.037 A 
ATOM     47  C   UNL A   1      41.896  28.083  30.439  1.00  0.00     0.049 A 
ATOM     48  C   UNL A   1      41.089  31.093  35.095  1.00  0.00     0.074 A 
ATOM     49  C   UNL A   1      42.981  27.227  30.434  1.00  0.00     0.029 A 
ATOM     50  N   UNL A   1      41.878  28.699  31.683  1.00  0.00    -0.354 N 
ATOM     51  N   UNL A   1      41.409  30.325  34.081  1.00  0.00    -0.248 NA
ATOM     52  C   UNL A   1      41.930  30.896  36.285  1.00  0.00     0.031 C 
ATOM     53  C   UNL A   1      43.584  27.277  31.694  1.00  0.00     0.029 A 
ATOM     54  C   UNL A   1      42.913  28.214  32.466  1.00  0.00     0.049 A 
ATOM     55  H   UNL A   1      41.226  29.379  31.968  1.00  0.00     0.167 HD
ATOM     56  C   UNL A   1      42.500  29.574  34.498  1.00  0.00     0.074 A 
ATOM     57  C   UNL A   1      42.793  29.984  35.856  1.00  0.00     0.031 C 
ATOM     58  C   UNL A   1      43.196  28.632  33.816  1.00  0.00     0.037 A 
BRANCH  45  59
ATOM     59  C   UNL A   1      41.013  27.492  28.143  1.00  0.00     0.057 A 
ATOM     60  C   UNL A   1      40.333  26.273  28.012  1.00  0.00     0.134 A 
ATOM     61  C   UNL A   1      41.776  27.923  27.050  1.00  0.00     0.134 A 
ATOM     62  F   UNL A   1      39.592  25.796  29.023  1.00  0.00    -0.206 F 
ATOM     63  C   UNL A   1      40.445  25.494  26.859  1.00  0.00     0.040 A 
ATOM     64  C   UNL A   1      41.867  27.168  25.879  1.00  0.00     0.040 A 
ATOM     65  F   UNL A   1      42.445  29.084  27.101  1.00  0.00    -0.206 F 
ATOM     66  C   UNL A   1      41.211  25.944  25.786  1.00  0.00     0.006 A 
ENDBRANCH  45  59
BRANCH  46  67
ATOM     67  C   UNL A   1      39.764  32.871  36.456  1.00  0.00     0.057 A 
ATOM     68  C   UNL A   1      38.779  32.469  37.365  1.00  0.00     0.134 A 
ATOM     69  C   UNL A   1      40.538  33.989  36.795  1.00  0.00     0.134 A 
ATOM     70  F   UNL A   1      37.996  31.417  37.090  1.00  0.00    -0.206 F 
ATOM     71  C   UNL A   1      38.564  33.157  38.561  1.00  0.00     0.040 A 
ATOM     72  C   UNL A   1      40.351  34.669  37.998  1.00  0.00     0.040 A 
ATOM     73  F   UNL A   1      41.506  34.418  35.971  1.00  0.00    -0.206 F 
ATOM     74  C   UNL A   1      39.358  34.257  38.883  1.00  0.00     0.006 A 
ENDBRANCH  46  67
BRANCH  58  75
ATOM     75  C   UNL A   1      44.367  27.998  34.510  1.00  0.00     0.057 A 
ATOM     76  C   UNL A   1      44.250  26.796  35.218  1.00  0.00     0.134 A 
ATOM     77  C   UNL A   1      45.645  28.566  34.409  1.00  0.00     0.134 A 
ATOM     78  F   UNL A   1      43.054  26.207  35.363  1.00  0.00    -0.206 F 
ATOM     79  C   UNL A   1      45.358  26.189  35.813  1.00  0.00     0.040 A 
ATOM     80  C   UNL A   1      46.764  27.955  34.975  1.00  0.00     0.040 A 
ATOM     81  F   UNL A   1      45.829  29.713  33.736  1.00  0.00    -0.206 F 
ATOM     82  C   UNL A   1      46.621  26.764  35.683  1.00  0.00     0.006 A 
ENDBRANCH  58  75
ENDBRANCH  32  33
ENDBRANCH  24  27
ENDBRANCH  22  23
ENDBRANCH  21  22
ENDBRANCH  20  21
ENDBRANCH  19  20
ENDBRANCH   1  19
TORSDOF 18
ENDMDL
MODEL 2
REMARK VINA RESULT:      -9.5      6.125     10.980
REMARK SMILES CC(C)(C)SSC[C@H]([NH3+])C(=O)NCCCCCCNC(=O)c1ccc(-c2c3nc(c(-c4c(F)cccc4F)c4ccc([nH]4)c(-c4c(F)cccc4F)c4nc(c(-c5c(F)cccc5F)c5ccc2[nH]5)C=C4)C=C3)cc1
REMARK SMILES IDX 14 1 13 2 12 3 10 4 11 5 8 7 7 8 6 9 5 10 2 11 1 12 3 13
REMARK SMILES IDX 4 14 9 15 15 19 16 20 17 21 18 22 19 23 20 24 21 26 22 27
REMARK SMILES IDX 23 28 75 29 24 30 74 31 25 32 26 33 27 34 68 35 28 36 73 37
REMARK SMILES IDX 67 38 69 39 29 40 72 41 66 42 65 43 30 45 56 46 39 47 55 48
REMARK SMILES IDX 40 49 43 50 54 51 70 52 41 53 42 54 53 56 71 57 44 58 31 59
REMARK SMILES IDX 32 60 37 61 33 62 34 63 36 64 38 65 35 66 57 67 58 68 63 69
REMARK SMILES IDX 59 70 60 71 62 72 64 73 61 74 45 75 46 76 51 77 47 78 48 79
REMARK SMILES IDX 50 80 52 81 49 82
REMARK H PARENT 12 6 9 16 9 17 9 18 19 25 69 44 43 55
REMARK Flexibility Score: inf
ROOT
ATOM      1  C   UNL A   1      36.633  23.199  24.073  1.00  0.00     0.021 C 
ENDROOT
BRANCH   1   2
ATOM      2  C   UNL A   1      35.163  23.396  24.434  1.00  0.00     0.116 C 
BRANCH   2   3
ATOM      3  N   UNL A   1      34.298  23.090  23.308  1.00  0.00    -0.351 N 
ATOM      4  C   UNL A   1      33.043  22.554  23.298  1.00  0.00     0.279 C 
ATOM      5  O   UNL A   1      32.529  22.303  22.205  1.00  0.00    -0.268 OA
ATOM      6  H   UNL A   1      34.672  23.300  22.421  1.00  0.00     0.163 HD
BRANCH   4   7
ATOM      7  C   UNL A   1      32.269  22.328  24.606  1.00  0.00     0.281 C 
BRANCH   7   8
ATOM      8  C   UNL A   1      32.011  20.820  24.766  1.00  0.00     0.157 C 
BRANCH   8   9
ATOM      9  S   UNL A   1      33.492  19.753  24.676  1.00  0.00    -0.087 SA
BRANCH   9  10
ATOM     10  S   UNL A   1      32.904  18.061  25.680  1.00  0.00    -0.088 SA
BRANCH  10  11
ATOM     11  C   UNL A   1      33.642  16.661  24.726  1.00  0.00     0.018 C 
ATOM     12  C   UNL A   1      33.444  17.004  23.243  1.00  0.00     0.023 C 
ATOM     13  C   UNL A   1      32.906  15.354  25.051  1.00  0.00     0.023 C 
ATOM     14  C   UNL A   1      35.141  16.524  25.023  1.00  0.00     0.023 C 
ENDBRANCH  10  11
ENDBRANCH   9  10
ENDBRANCH   8   9
ENDBRANCH   7   8
BRANCH   7  15
ATOM     15  N   UNL A   1      31.069  23.197  24.660  1.00  0.00    -0.347 N 
ATOM     16  H   UNL A   1      30.229  22.618  24.657  1.00  0.00     0.345 HD
ATOM     17  H   UNL A   1      31.059  23.815  23.849  1.00  0.00     0.345 HD
ATOM     18  H   UNL A   1      31.092  23.756  25.514  1.00  0.00     0.345 HD
ENDBRANCH   7  15
ENDBRANCH   4   7
ENDBRANCH   2   3
ENDBRANCH   1   2
BRANCH   1  19
ATOM     19  C   UNL A   1      37.394  22.278  25.035  1.00  0.00     0.002 C 
BRANCH  19  20
ATOM     20  C   UNL A   1      36.941  20.814  25.029  1.00  0.00     0.002 C 
BRANCH  20  21
ATOM     21  C   UNL A   1      38.074  19.787  24.994  1.00  0.00     0.021 C 
BRANCH  21  22
ATOM     22  C   UNL A   1      39.328  20.204  25.752  1.00  0.00     0.116 C 
BRANCH  22  23
ATOM     23  N   UNL A   1      40.279  19.110  25.885  1.00  0.00    -0.352 N 
ATOM     24  C   UNL A   1      41.631  19.164  26.114  1.00  0.00     0.251 C 
ATOM     25  H   UNL A   1      39.899  18.206  25.797  1.00  0.00     0.163 HD
ATOM     26  O   UNL A   1      42.320  18.153  26.016  1.00  0.00    -0.269 OA
BRANCH  24  27
ATOM     27  C   UNL A   1      42.258  20.455  26.458  1.00  0.00     0.039 A 
ATOM     28  C   UNL A   1      42.812  21.234  25.439  1.00  0.00     0.014 A 
ATOM     29  C   UNL A   1      42.283  20.902  27.782  1.00  0.00     0.014 A 
ATOM     30  C   UNL A   1      43.331  22.494  25.739  1.00  0.00     0.010 A 
ATOM     31  C   UNL A   1      42.728  22.188  28.067  1.00  0.00     0.010 A 
ATOM     32  C   UNL A   1      43.259  22.997  27.049  1.00  0.00    -0.014 A 
BRANCH  32  33
ATOM     33  C   UNL A   1      43.729  24.364  27.381  1.00  0.00     0.031 A 
ATOM     34  C   UNL A   1      42.741  25.423  27.780  1.00  0.00     0.074 A 
ATOM     35  C   UNL A   1      45.031  24.677  27.234  1.00  0.00     0.049 A 
ATOM     36  N   UNL A   1      42.937  26.698  28.003  1.00  0.00    -0.248 NA
ATOM     37  C   UNL A   1      41.339  24.998  27.914  1.00  0.00     0.031 C 
ATOM     38  C   UNL A   1      46.079  23.753  26.802  1.00  0.00     0.029 A 
ATOM     39  N   UNL A   1      45.689  25.869  27.408  1.00  0.00    -0.354 N 
ATOM     40  C   UNL A   1      41.685  27.228  28.282  1.00  0.00     0.074 A 
ATOM     41  C   UNL A   1      40.730  26.150  28.147  1.00  0.00     0.031 C 
ATOM     42  C   UNL A   1      47.249  24.408  26.750  1.00  0.00     0.029 A 
ATOM     43  C   UNL A   1      47.027  25.807  27.102  1.00  0.00     0.049 A 
ATOM     44  H   UNL A   1      45.245  26.689  27.722  1.00  0.00     0.167 HD
ATOM     45  C   UNL A   1      41.361  28.495  28.638  1.00  0.00     0.037 A 
ATOM     46  C   UNL A   1      47.966  26.772  27.084  1.00  0.00     0.037 A 
ATOM     47  C   UNL A   1      42.320  29.559  28.786  1.00  0.00     0.049 A 
ATOM     48  C   UNL A   1      47.587  28.174  27.474  1.00  0.00     0.074 A 
ATOM     49  C   UNL A   1      42.107  30.857  29.212  1.00  0.00     0.029 A 
ATOM     50  N   UNL A   1      43.673  29.450  28.497  1.00  0.00    -0.354 N 
ATOM     51  N   UNL A   1      46.413  28.647  27.817  1.00  0.00    -0.248 NA
ATOM     52  C   UNL A   1      48.663  29.175  27.483  1.00  0.00     0.031 C 
ATOM     53  C   UNL A   1      43.318  31.551  29.124  1.00  0.00     0.029 A 
ATOM     54  C   UNL A   1      44.301  30.667  28.703  1.00  0.00     0.049 A 
ATOM     55  H   UNL A   1      44.121  28.628  28.191  1.00  0.00     0.167 HD
ATOM     56  C   UNL A   1      46.611  29.991  28.106  1.00  0.00     0.074 A 
ATOM     57  C   UNL A   1      48.021  30.256  27.907  1.00  0.00     0.031 C 
ATOM     58  C   UNL A   1      45.706  30.918  28.503  1.00  0.00     0.037 A 
BRANCH  45  59
ATOM     59  C   UNL A   1      39.909  28.795  28.877  1.00  0.00     0.057 A 
ATOM     60  C   UNL A   1      39.326  28.693  30.147  1.00  0.00     0.134 A 
ATOM     61  C   UNL A   1      39.082  29.199  27.820  1.00  0.00     0.134 A 
ATOM     62  F   UNL A   1      40.058  28.302  31.202  1.00  0.00    -0.206 F 
ATOM     63  C   UNL A   1      37.966  28.937  30.349  1.00  0.00     0.040 A 
ATOM     64  C   UNL A   1      37.729  29.479  28.017  1.00  0.00     0.040 A 
ATOM     65  F   UNL A   1      39.575  29.328  26.579  1.00  0.00    -0.206 F 
ATOM     66  C   UNL A   1      37.164  29.336  29.283  1.00  0.00     0.006 A 
ENDBRANCH  45  59
BRANCH  46  67
ATOM     67  C   UNL A   1      49.355  26.436  26.684  1.00  0.00     0.057 A 
ATOM     68  C   UNL A   1      49.800  26.627  25.371  1.00  0.00     0.134 A 
ATOM     69  C   UNL A   1      50.281  25.943  27.613  1.00  0.00     0.134 A 
ATOM     70  F   UNL A   1      48.956  27.081  24.432  1.00  0.00    -0.206 F 
ATOM     71  C   UNL A   1      51.110  26.329  24.992  1.00  0.00     0.040 A 
ATOM     72  C   UNL A   1      51.600  25.666  27.254  1.00  0.00     0.040 A 
ATOM     73  F   UNL A   1      49.920  25.748  28.890  1.00  0.00    -0.206 F 
ATOM     74  C   UNL A   1      52.017  25.854  25.938  1.00  0.00     0.006 A 
ENDBRANCH  46  67
BRANCH  58  75
ATOM     75  C   UNL A   1      46.212  32.304  28.783  1.00  0.00     0.057 A 
ATOM     76  C   UNL A   1      46.702  32.676  30.040  1.00  0.00     0.134 A 
ATOM     77  C   UNL A   1      46.271  33.259  27.758  1.00  0.00     0.134 A 
ATOM     78  F   UNL A   1      46.664  31.814  31.067  1.00  0.00    -0.206 F 
ATOM     79  C   UNL A   1      47.221  33.952  30.273  1.00  0.00     0.040 A 
ATOM     80  C   UNL A   1      46.811  34.527  27.971  1.00  0.00     0.040 A 
ATOM     81  F   UNL A   1      45.826  32.966  26.527  1.00  0.00    -0.206 F 
ATOM     82  C   UNL A   1      47.285  34.878  29.233  1.00  0.00     0.006 A 
ENDBRANCH  58  75
ENDBRANCH  32  33
ENDBRANCH  24  27
ENDBRANCH  22  23
ENDBRANCH  21  22
ENDBRANCH  20  21
ENDBRANCH  19  20
ENDBRANCH   1  19
TORSDOF 18
ENDMDL
MODEL 3
REMARK VINA RESULT:      -9.5      1.340      2.580
REMARK SMILES CC(C)(C)SSC[C@H]([NH3+])C(=O)NCCCCCCNC(=O)c1ccc(-c2c3nc(c(-c4c(F)cccc4F)c4ccc([nH]4)c(-c4c(F)cccc4F)c4nc(c(-c5c(F)cccc5F)c5ccc2[nH]5)C=C4)C=C3)cc1
REMARK SMILES IDX 14 1 13 2 12 3 10 4 11 5 8 7 7 8 6 9 5 10 2 11 1 12 3 13
REMARK SMILES IDX 4 14 9 15 15 19 16 20 17 21 18 22 19 23 20 24 21 26 22 27
REMARK SMILES IDX 23 28 75 29 24 30 74 31 25 32 26 33 27 34 68 35 28 36 73 37
REMARK SMILES IDX 67 38 69 39 29 40 72 41 66 42 65 43 30 45 56 46 39 47 55 48
REMARK SMILES IDX 40 49 43 50 54 51 70 52 41 53 42 54 53 56 71 57 44 58 31 59
REMARK SMILES IDX 32 60 37 61 33 62 34 63 36 64 38 65 35 66 57 67 58 68 63 69
REMARK SMILES IDX 59 70 60 71 62 72 64 73 61 74 45 75 46 76 51 77 47 78 48 79
REMARK SMILES IDX 50 80 52 81 49 82
REMARK H PARENT 12 6 9 16 9 17 9 18 19 25 69 44 43 55
REMARK Flexibility Score: inf
ROOT
ATOM      1  C   UNL A   1      33.651  29.405  26.450  1.00  0.00     0.021 C 
ENDROOT
BRANCH   1   2
ATOM      2  C   UNL A   1      33.372  28.238  25.506  1.00  0.00     0.116 C 
BRANCH   2   3
ATOM      3  N   UNL A   1      33.992  28.449  24.210  1.00  0.00    -0.351 N 
ATOM      4  C   UNL A   1      33.420  28.498  22.972  1.00  0.00     0.279 C 
ATOM      5  O   UNL A   1      34.164  28.607  21.994  1.00  0.00    -0.268 OA
ATOM      6  H   UNL A   1      34.968  28.574  24.227  1.00  0.00     0.163 HD
BRANCH   4   7
ATOM      7  C   UNL A   1      31.892  28.482  22.805  1.00  0.00     0.281 C 
BRANCH   7   8
ATOM      8  C   UNL A   1      31.483  27.135  22.185  1.00  0.00     0.157 C 
BRANCH   8   9
ATOM      9  S   UNL A   1      31.678  25.677  23.269  1.00  0.00    -0.087 SA
BRANCH   9  10
ATOM     10  S   UNL A   1      33.161  24.605  22.338  1.00  0.00    -0.088 SA
BRANCH  10  11
ATOM     11  C   UNL A   1      33.716  23.369  23.597  1.00  0.00     0.018 C 
ATOM     12  C   UNL A   1      32.870  22.111  23.360  1.00  0.00     0.023 C 
ATOM     13  C   UNL A   1      33.453  23.903  25.011  1.00  0.00     0.023 C 
ATOM     14  C   UNL A   1      35.200  23.029  23.415  1.00  0.00     0.023 C 
ENDBRANCH  10  11
ENDBRANCH   9  10
ENDBRANCH   8   9
ENDBRANCH   7   8
BRANCH   7  15
ATOM     15  N   UNL A   1      31.433  29.692  22.081  1.00  0.00    -0.347 N 
ATOM     16  H   UNL A   1      31.093  29.427  21.157  1.00  0.00     0.345 HD
ATOM     17  H   UNL A   1      32.210  30.345  21.983  1.00  0.00     0.345 HD
ATOM     18  H   UNL A   1      30.678  30.136  22.606  1.00  0.00     0.345 HD
ENDBRANCH   7  15
ENDBRANCH   4   7
ENDBRANCH   2   3
ENDBRANCH   1   2
BRANCH   1  19
ATOM     19  C   UNL A   1      32.401  29.957  27.147  1.00  0.00     0.002 C 
BRANCH  19  20
ATOM     20  C   UNL A   1      31.454  30.757  26.247  1.00  0.00     0.002 C 
BRANCH  20  21
ATOM     21  C   UNL A   1      31.327  32.240  26.599  1.00  0.00     0.021 C 
BRANCH  21  22
ATOM     22  C   UNL A   1      32.650  32.936  26.893  1.00  0.00     0.116 C 
BRANCH  22  23
ATOM     23  N   UNL A   1      32.466  34.178  27.629  1.00  0.00    -0.352 N 
ATOM     24  C   UNL A   1      33.138  34.634  28.735  1.00  0.00     0.251 C 
ATOM     25  H   UNL A   1      31.762  34.773  27.285  1.00  0.00     0.163 HD
ATOM     26  O   UNL A   1      32.737  35.621  29.344  1.00  0.00    -0.269 OA
BRANCH  24  27
ATOM     27  C   UNL A   1      34.339  33.914  29.204  1.00  0.00     0.039 A 
ATOM     28  C   UNL A   1      35.601  34.421  28.889  1.00  0.00     0.014 A 
ATOM     29  C   UNL A   1      34.215  32.750  29.968  1.00  0.00     0.014 A 
ATOM     30  C   UNL A   1      36.741  33.798  29.398  1.00  0.00     0.010 A 
ATOM     31  C   UNL A   1      35.346  32.177  30.538  1.00  0.00     0.010 A 
ATOM     32  C   UNL A   1      36.621  32.694  30.258  1.00  0.00    -0.014 A 
BRANCH  32  33
ATOM     33  C   UNL A   1      37.812  32.061  30.878  1.00  0.00     0.031 A 
ATOM     34  C   UNL A   1      38.551  30.975  30.151  1.00  0.00     0.074 A 
ATOM     35  C   UNL A   1      38.170  32.399  32.132  1.00  0.00     0.049 A 
ATOM     36  N   UNL A   1      39.542  30.228  30.564  1.00  0.00    -0.248 NA
ATOM     37  C   UNL A   1      38.094  30.666  28.787  1.00  0.00     0.031 C 
ATOM     38  C   UNL A   1      37.500  33.400  32.963  1.00  0.00     0.029 A 
ATOM     39  N   UNL A   1      39.172  31.916  32.936  1.00  0.00    -0.354 N 
ATOM     40  C   UNL A   1      39.812  29.349  29.523  1.00  0.00     0.074 A 
ATOM     41  C   UNL A   1      38.845  29.621  28.481  1.00  0.00     0.031 C 
ATOM     42  C   UNL A   1      38.111  33.462  34.156  1.00  0.00     0.029 A 
ATOM     43  C   UNL A   1      39.187  32.476  34.190  1.00  0.00     0.049 A 
ATOM     44  H   UNL A   1      39.818  31.234  32.642  1.00  0.00     0.167 HD
ATOM     45  C   UNL A   1      40.788  28.415  29.434  1.00  0.00     0.037 A 
ATOM     46  C   UNL A   1      39.965  32.211  35.258  1.00  0.00     0.037 A 
ATOM     47  C   UNL A   1      41.757  28.161  30.469  1.00  0.00     0.049 A 
ATOM     48  C   UNL A   1      41.039  31.165  35.143  1.00  0.00     0.074 A 
ATOM     49  C   UNL A   1      42.830  27.289  30.450  1.00  0.00     0.029 A 
ATOM     50  N   UNL A   1      41.760  28.772  31.715  1.00  0.00    -0.354 N 
ATOM     51  N   UNL A   1      41.338  30.396  34.123  1.00  0.00    -0.248 NA
ATOM     52  C   UNL A   1      41.888  30.952  36.324  1.00  0.00     0.031 C 
ATOM     53  C   UNL A   1      43.446  27.327  31.705  1.00  0.00     0.029 A 
ATOM     54  C   UNL A   1      42.796  28.270  32.486  1.00  0.00     0.049 A 
ATOM     55  H   UNL A   1      41.120  29.461  32.009  1.00  0.00     0.167 HD
ATOM     56  C   UNL A   1      42.422  29.628  34.527  1.00  0.00     0.074 A 
ATOM     57  C   UNL A   1      42.734  30.030  35.883  1.00  0.00     0.031 C 
ATOM     58  C   UNL A   1      43.097  28.679  33.835  1.00  0.00     0.037 A 
BRANCH  45  59
ATOM     59  C   UNL A   1      40.843  27.591  28.180  1.00  0.00     0.057 A 
ATOM     60  C   UNL A   1      40.175  26.364  28.064  1.00  0.00     0.134 A 
ATOM     61  C   UNL A   1      41.570  28.033  27.067  1.00  0.00     0.134 A 
ATOM     62  F   UNL A   1      39.468  25.875  29.095  1.00  0.00    -0.206 F 
ATOM     63  C   UNL A   1      40.265  25.588  26.907  1.00  0.00     0.040 A 
ATOM     64  C   UNL A   1      41.639  27.282  25.892  1.00  0.00     0.040 A 
ATOM     65  F   UNL A   1      42.227  29.203  27.103  1.00  0.00    -0.206 F 
ATOM     66  C   UNL A   1      40.995  26.050  25.814  1.00  0.00     0.006 A 
ENDBRANCH  45  59
BRANCH  46  67
ATOM     67  C   UNL A   1      39.752  32.956  36.523  1.00  0.00     0.057 A 
ATOM     68  C   UNL A   1      40.488  34.109  36.821  1.00  0.00     0.134 A 
ATOM     69  C   UNL A   1      38.786  32.550  37.454  1.00  0.00     0.134 A 
ATOM     70  F   UNL A   1      41.437  34.540  35.977  1.00  0.00    -0.206 F 
ATOM     71  C   UNL A   1      40.281  34.824  38.002  1.00  0.00     0.040 A 
ATOM     72  C   UNL A   1      38.551  33.270  38.625  1.00  0.00     0.040 A 
ATOM     73  F   UNL A   1      38.040  31.459  37.223  1.00  0.00    -0.206 F 
ATOM     74  C   UNL A   1      39.303  34.408  38.904  1.00  0.00     0.006 A 
ENDBRANCH  46  67
BRANCH  58  75
ATOM     75  C   UNL A   1      44.267  28.027  34.514  1.00  0.00     0.057 A 
ATOM     76  C   UNL A   1      44.136  26.833  35.234  1.00  0.00     0.134 A 
ATOM     77  C   UNL A   1      45.554  28.568  34.389  1.00  0.00     0.134 A 
ATOM     78  F   UNL A   1      42.931  26.269  35.403  1.00  0.00    -0.206 F 
ATOM     79  C   UNL A   1      45.241  26.207  35.816  1.00  0.00     0.040 A 
ATOM     80  C   UNL A   1      46.669  27.938  34.942  1.00  0.00     0.040 A 
ATOM     81  F   UNL A   1      45.751  29.706  33.705  1.00  0.00    -0.206 F 
ATOM     82  C   UNL A   1      46.514  26.756  35.661  1.00  0.00     0.006 A 
ENDBRANCH  58  75
ENDBRANCH  32  33
ENDBRANCH  24  27
ENDBRANCH  22  23
ENDBRANCH  21  22
ENDBRANCH  20  21
ENDBRANCH  19  20
ENDBRANCH   1  19
TORSDOF 18
ENDMDL
