MODEL 1
REMARK VINA RESULT:     -12.2      0.000      0.000
REMARK SMILES COc1ccc(-c2csc(NC(=O)[C@H](CC(=O)NCCCCCCNC(=O)c3ccc(-c4c5nc(c(-c6c(F)cccc6F)c6ccc([nH]6)c(-c6c(F)cccc6F)c6nc(c(-c7c(F)cccc7F)c7ccc4[nH]7)C=C6)C=C5)cc3)[NH+]3CCCCC3)n2)cc1
REMARK SMILES IDX 20 1 19 2 18 3 16 4 17 5 15 7 14 8 12 9 11 10 13 12 10 13
REMARK SMILES IDX 7 14 8 15 88 16 9 17 6 18 3 19 4 20 90 21 5 22 89 23 2 24
REMARK SMILES IDX 1 25 82 26 83 27 87 28 84 30 86 31 85 32 21 33 22 34 23 35
REMARK SMILES IDX 24 36 25 37 26 38 27 40 28 41 29 42 81 43 30 44 80 45 31 46
REMARK SMILES IDX 32 47 33 48 74 49 34 50 79 51 73 52 75 53 35 54 78 55 72 56
REMARK SMILES IDX 71 57 36 59 62 60 45 61 61 62 46 63 49 64 60 65 76 66 47 67
REMARK SMILES IDX 48 68 59 70 77 71 50 72 37 73 38 74 43 75 39 76 40 77 42 78
REMARK SMILES IDX 44 79 41 80 63 81 64 82 69 83 65 84 66 85 68 86 70 87 67 88
REMARK SMILES IDX 51 89 52 90 57 91 53 92 54 93 56 94 58 95 55 96
REMARK H PARENT 18 6 11 11 82 29 25 39 75 58 49 69
REMARK Flexibility Score: inf
ROOT
ATOM      1  C   UNL A   1      31.549  28.202  27.390  1.00  0.00     0.021 C 
ENDROOT
BRANCH   1   2
ATOM      2  C   UNL A   1      31.884  27.200  26.293  1.00  0.00     0.116 C 
BRANCH   2   3
ATOM      3  N   UNL A   1      31.246  25.914  26.430  1.00  0.00    -0.356 N 
ATOM      4  C   UNL A   1      31.771  24.667  26.493  1.00  0.00     0.226 C 
ATOM      5  O   UNL A   1      31.196  23.877  27.255  1.00  0.00    -0.275 OA
ATOM      6  H   UNL A   1      30.264  25.948  26.487  1.00  0.00     0.163 HD
BRANCH   4   7
ATOM      7  C   UNL A   1      32.984  24.178  25.719  1.00  0.00     0.175 C 
BRANCH   7   8
ATOM      8  C   UNL A   1      33.048  22.849  24.930  1.00  0.00     0.284 C 
BRANCH   8   9
ATOM      9  C   UNL A   1      32.072  22.569  23.731  1.00  0.00     0.285 C 
ATOM     10  N   UNL A   1      31.588  23.478  22.840  1.00  0.00    -0.297 N 
ATOM     11  H   UNL A   1      31.119  23.060  22.082  1.00  0.00     0.172 HD
ATOM     12  O   UNL A   1      31.650  21.420  23.510  1.00  0.00    -0.268 OA
BRANCH  10  13
ATOM     13  C   UNL A   1      31.611  24.836  22.768  1.00  0.00     0.190 A 
ATOM     14  C   UNL A   1      30.863  26.892  22.880  1.00  0.00     0.084 A 
ATOM     15  C   UNL A   1      32.093  27.131  22.294  1.00  0.00     0.097 A 
ATOM     16  N   UNL A   1      30.641  25.579  23.254  1.00  0.00    -0.220 NA
ATOM     17  S   UNL A   1      32.987  25.666  22.210  1.00  0.00    -0.105 S 
BRANCH  14  18
ATOM     18  C   UNL A   1      29.934  27.975  23.156  1.00  0.00     0.001 A 
ATOM     19  C   UNL A   1      28.181  30.152  23.178  1.00  0.00     0.118 A 
ATOM     20  C   UNL A   1      27.672  28.856  23.132  1.00  0.00     0.047 A 
ATOM     21  C   UNL A   1      29.552  30.361  23.339  1.00  0.00     0.047 A 
ATOM     22  C   UNL A   1      28.548  27.765  23.111  1.00  0.00     0.014 A 
ATOM     23  C   UNL A   1      30.427  29.272  23.334  1.00  0.00     0.014 A 
BRANCH  19  24
ATOM     24  O   UNL A   1      27.287  31.184  23.071  1.00  0.00    -0.497 OA
ATOM     25  C   UNL A   1      27.942  32.429  22.808  1.00  0.00     0.278 C 
ENDBRANCH  19  24
ENDBRANCH  14  18
ENDBRANCH  10  13
ENDBRANCH   8   9
BRANCH   8  26
ATOM     26  N   UNL A   1      34.509  22.473  24.699  1.00  0.00    -0.324 N 
ATOM     27  C   UNL A   1      35.423  23.536  24.251  1.00  0.00     0.262 C 
ATOM     28  C   UNL A   1      35.174  21.639  25.699  1.00  0.00     0.262 C 
ATOM     29  H   UNL A   1      34.328  21.872  23.894  1.00  0.00     0.348 HD
ATOM     30  C   UNL A   1      36.721  22.951  23.663  1.00  0.00     0.062 C 
ATOM     31  C   UNL A   1      36.395  20.939  25.103  1.00  0.00     0.062 C 
ATOM     32  C   UNL A   1      37.400  21.959  24.606  1.00  0.00     0.012 C 
ENDBRANCH   8  26
ENDBRANCH   7   8
ENDBRANCH   4   7
ENDBRANCH   2   3
ENDBRANCH   1   2
BRANCH   1  33
ATOM     33  C   UNL A   1      32.247  29.556  27.255  1.00  0.00     0.002 C 
BRANCH  33  34
ATOM     34  C   UNL A   1      31.545  30.535  26.311  1.00  0.00     0.002 C 
BRANCH  34  35
ATOM     35  C   UNL A   1      31.402  31.960  26.854  1.00  0.00     0.021 C 
BRANCH  35  36
ATOM     36  C   UNL A   1      32.701  32.761  26.872  1.00  0.00     0.116 C 
BRANCH  36  37
ATOM     37  N   UNL A   1      32.523  34.049  27.520  1.00  0.00    -0.352 N 
ATOM     38  C   UNL A   1      33.125  34.529  28.651  1.00  0.00     0.251 C 
ATOM     39  H   UNL A   1      31.883  34.659  27.088  1.00  0.00     0.163 HD
ATOM     40  O   UNL A   1      32.686  35.541  29.208  1.00  0.00    -0.269 OA
BRANCH  38  41
ATOM     41  C   UNL A   1      34.295  33.831  29.219  1.00  0.00     0.039 A 
ATOM     42  C   UNL A   1      35.576  34.302  28.923  1.00  0.00     0.014 A 
ATOM     43  C   UNL A   1      34.129  32.705  30.032  1.00  0.00     0.014 A 
ATOM     44  C   UNL A   1      36.690  33.676  29.485  1.00  0.00     0.010 A 
ATOM     45  C   UNL A   1      35.234  32.123  30.645  1.00  0.00     0.010 A 
ATOM     46  C   UNL A   1      36.527  32.598  30.372  1.00  0.00    -0.014 A 
BRANCH  46  47
ATOM     47  C   UNL A   1      37.697  31.954  31.021  1.00  0.00     0.031 A 
ATOM     48  C   UNL A   1      38.474  30.890  30.297  1.00  0.00     0.074 A 
ATOM     49  C   UNL A   1      38.025  32.286  32.286  1.00  0.00     0.049 A 
ATOM     50  N   UNL A   1      39.482  30.170  30.720  1.00  0.00    -0.248 NA
ATOM     51  C   UNL A   1      38.045  30.575  28.925  1.00  0.00     0.031 C 
ATOM     52  C   UNL A   1      37.324  33.271  33.110  1.00  0.00     0.029 A 
ATOM     53  N   UNL A   1      39.026  31.821  33.101  1.00  0.00    -0.354 N 
ATOM     54  C   UNL A   1      39.798  29.311  29.675  1.00  0.00     0.074 A 
ATOM     55  C   UNL A   1      38.843  29.563  28.618  1.00  0.00     0.031 C 
ATOM     56  C   UNL A   1      37.928  33.352  34.306  1.00  0.00     0.029 A 
ATOM     57  C   UNL A   1      39.034  32.400  34.347  1.00  0.00     0.049 A 
ATOM     58  H   UNL A   1      39.676  31.137  32.820  1.00  0.00     0.167 HD
ATOM     59  C   UNL A   1      40.805  28.409  29.595  1.00  0.00     0.037 A 
ATOM     60  C   UNL A   1      39.839  32.183  35.404  1.00  0.00     0.037 A 
ATOM     61  C   UNL A   1      41.769  28.175  30.638  1.00  0.00     0.049 A 
ATOM     62  C   UNL A   1      40.945  31.172  35.292  1.00  0.00     0.074 A 
ATOM     63  C   UNL A   1      42.860  27.324  30.630  1.00  0.00     0.029 A 
ATOM     64  N   UNL A   1      41.754  28.795  31.879  1.00  0.00    -0.354 N 
ATOM     65  N   UNL A   1      41.273  30.414  34.274  1.00  0.00    -0.248 NA
ATOM     66  C   UNL A   1      41.800  30.991  36.474  1.00  0.00     0.031 C 
ATOM     67  C   UNL A   1      43.482  27.397  31.880  1.00  0.00     0.029 A 
ATOM     68  C   UNL A   1      42.805  28.329  32.652  1.00  0.00     0.049 A 
ATOM     69  H   UNL A   1      41.094  29.465  32.168  1.00  0.00     0.167 HD
ATOM     70  C   UNL A   1      42.385  29.689  34.681  1.00  0.00     0.074 A 
ATOM     71  C   UNL A   1      42.685  30.108  36.035  1.00  0.00     0.031 C 
ATOM     72  C   UNL A   1      43.096  28.761  33.995  1.00  0.00     0.037 A 
BRANCH  59  73
ATOM     73  C   UNL A   1      40.918  27.609  28.330  1.00  0.00     0.057 A 
ATOM     74  C   UNL A   1      40.213  26.410  28.149  1.00  0.00     0.134 A 
ATOM     75  C   UNL A   1      41.710  28.058  27.266  1.00  0.00     0.134 A 
ATOM     76  F   UNL A   1      39.444  25.919  29.132  1.00  0.00    -0.206 F 
ATOM     77  C   UNL A   1      40.315  25.675  26.966  1.00  0.00     0.040 A 
ATOM     78  C   UNL A   1      41.799  27.344  26.069  1.00  0.00     0.040 A 
ATOM     79  F   UNL A   1      42.404  29.201  27.369  1.00  0.00    -0.206 F 
ATOM     80  C   UNL A   1      41.105  26.145  25.920  1.00  0.00     0.006 A 
ENDBRANCH  59  73
BRANCH  60  81
ATOM     81  C   UNL A   1      39.642  32.956  36.657  1.00  0.00     0.057 A 
ATOM     82  C   UNL A   1      38.704  32.550  37.613  1.00  0.00     0.134 A 
ATOM     83  C   UNL A   1      40.375  34.117  36.924  1.00  0.00     0.134 A 
ATOM     84  F   UNL A   1      37.958  31.455  37.405  1.00  0.00    -0.206 F 
ATOM     85  C   UNL A   1      38.489  33.281  38.783  1.00  0.00     0.040 A 
ATOM     86  C   UNL A   1      40.189  34.844  38.101  1.00  0.00     0.040 A 
ATOM     87  F   UNL A   1      41.294  34.555  36.051  1.00  0.00    -0.206 F 
ATOM     88  C   UNL A   1      39.237  34.429  39.030  1.00  0.00     0.006 A 
ENDBRANCH  60  81
BRANCH  72  89
ATOM     89  C   UNL A   1      44.288  28.162  34.682  1.00  0.00     0.057 A 
ATOM     90  C   UNL A   1      44.199  26.972  35.414  1.00  0.00     0.134 A 
ATOM     91  C   UNL A   1      45.548  28.765  34.575  1.00  0.00     0.134 A 
ATOM     92  F   UNL A   1      43.020  26.352  35.566  1.00  0.00    -0.206 F 
ATOM     93  C   UNL A   1      45.318  26.414  36.034  1.00  0.00     0.040 A 
ATOM     94  C   UNL A   1      46.678  28.203  35.168  1.00  0.00     0.040 A 
ATOM     95  F   UNL A   1      45.702  29.902  33.881  1.00  0.00    -0.206 F 
ATOM     96  C   UNL A   1      46.564  27.026  35.906  1.00  0.00     0.006 A 
ENDBRANCH  72  89
ENDBRANCH  46  47
ENDBRANCH  38  41
ENDBRANCH  36  37
ENDBRANCH  35  36
ENDBRANCH  34  35
ENDBRANCH  33  34
ENDBRANCH   1  33
TORSDOF 19
ENDMDL
MODEL 2
REMARK VINA RESULT:     -12.1      0.475      5.926
REMARK SMILES COc1ccc(-c2csc(NC(=O)[C@H](CC(=O)NCCCCCCNC(=O)c3ccc(-c4c5nc(c(-c6c(F)cccc6F)c6ccc([nH]6)c(-c6c(F)cccc6F)c6nc(c(-c7c(F)cccc7F)c7ccc4[nH]7)C=C6)C=C5)cc3)[NH+]3CCCCC3)n2)cc1
REMARK SMILES IDX 20 1 19 2 18 3 16 4 17 5 15 7 14 8 12 9 11 10 13 12 10 13
REMARK SMILES IDX 7 14 8 15 88 16 9 17 6 18 3 19 4 20 90 21 5 22 89 23 2 24
REMARK SMILES IDX 1 25 82 26 83 27 87 28 84 30 86 31 85 32 21 33 22 34 23 35
REMARK SMILES IDX 24 36 25 37 26 38 27 40 28 41 29 42 81 43 30 44 80 45 31 46
REMARK SMILES IDX 32 47 33 48 74 49 34 50 79 51 73 52 75 53 35 54 78 55 72 56
REMARK SMILES IDX 71 57 36 59 62 60 45 61 61 62 46 63 49 64 60 65 76 66 47 67
REMARK SMILES IDX 48 68 59 70 77 71 50 72 37 73 38 74 43 75 39 76 40 77 42 78
REMARK SMILES IDX 44 79 41 80 63 81 64 82 69 83 65 84 66 85 68 86 70 87 67 88
REMARK SMILES IDX 51 89 52 90 57 91 53 92 54 93 56 94 58 95 55 96
REMARK H PARENT 18 6 11 11 82 29 25 39 75 58 49 69
REMARK Flexibility Score: inf
ROOT
ATOM      1  C   UNL A   1      31.640  28.380  27.414  1.00  0.00     0.021 C 
ENDROOT
BRANCH   1   2
ATOM      2  C   UNL A   1      32.047  27.334  26.385  1.00  0.00     0.116 C 
BRANCH   2   3
ATOM      3  N   UNL A   1      31.355  26.073  26.495  1.00  0.00    -0.356 N 
ATOM      4  C   UNL A   1      31.829  24.807  26.571  1.00  0.00     0.226 C 
ATOM      5  O   UNL A   1      31.198  24.038  27.309  1.00  0.00    -0.275 OA
ATOM      6  H   UNL A   1      30.373  26.145  26.518  1.00  0.00     0.163 HD
BRANCH   4   7
ATOM      7  C   UNL A   1      33.048  24.273  25.838  1.00  0.00     0.175 C 
BRANCH   7   8
ATOM      8  C   UNL A   1      33.110  22.910  25.108  1.00  0.00     0.284 C 
BRANCH   8   9
ATOM      9  C   UNL A   1      32.104  22.561  23.953  1.00  0.00     0.285 C 
ATOM     10  N   UNL A   1      31.581  23.420  23.036  1.00  0.00    -0.297 N 
ATOM     11  H   UNL A   1      31.097  22.960  22.312  1.00  0.00     0.172 HD
ATOM     12  O   UNL A   1      31.693  21.397  23.799  1.00  0.00    -0.268 OA
BRANCH  10  13
ATOM     13  C   UNL A   1      31.582  24.774  22.898  1.00  0.00     0.190 A 
ATOM     14  C   UNL A   1      30.811  26.824  22.944  1.00  0.00     0.084 A 
ATOM     15  C   UNL A   1      32.014  27.049  22.298  1.00  0.00     0.097 A 
ATOM     16  N   UNL A   1      30.622  25.527  23.388  1.00  0.00    -0.220 NA
ATOM     17  S   UNL A   1      32.924  25.593  22.248  1.00  0.00    -0.105 S 
BRANCH  14  18
ATOM     18  C   UNL A   1      29.879  27.907  23.206  1.00  0.00     0.001 A 
ATOM     19  C   UNL A   1      28.116  30.076  23.199  1.00  0.00     0.118 A 
ATOM     20  C   UNL A   1      27.613  28.777  23.180  1.00  0.00     0.047 A 
ATOM     21  C   UNL A   1      29.487  30.294  23.348  1.00  0.00     0.047 A 
ATOM     22  C   UNL A   1      28.494  27.690  23.173  1.00  0.00     0.014 A 
ATOM     23  C   UNL A   1      30.366  29.209  23.357  1.00  0.00     0.014 A 
BRANCH  19  24
ATOM     24  O   UNL A   1      27.217  31.102  23.078  1.00  0.00    -0.497 OA
ATOM     25  C   UNL A   1      27.860  32.335  22.743  1.00  0.00     0.278 C 
ENDBRANCH  19  24
ENDBRANCH  14  18
ENDBRANCH  10  13
ENDBRANCH   8   9
BRANCH   8  26
ATOM     26  N   UNL A   1      34.570  22.547  24.850  1.00  0.00    -0.324 N 
ATOM     27  C   UNL A   1      35.428  23.569  24.229  1.00  0.00     0.262 C 
ATOM     28  C   UNL A   1      35.308  21.860  25.909  1.00  0.00     0.262 C 
ATOM     29  H   UNL A   1      34.370  21.846  24.135  1.00  0.00     0.348 HD
ATOM     30  C   UNL A   1      36.713  22.949  23.651  1.00  0.00     0.062 C 
ATOM     31  C   UNL A   1      36.520  21.123  25.341  1.00  0.00     0.062 C 
ATOM     32  C   UNL A   1      37.468  22.099  24.672  1.00  0.00     0.012 C 
ENDBRANCH   8  26
ENDBRANCH   7   8
ENDBRANCH   4   7
ENDBRANCH   2   3
ENDBRANCH   1   2
BRANCH   1  33
ATOM     33  C   UNL A   1      32.316  29.741  27.245  1.00  0.00     0.002 C 
BRANCH  33  34
ATOM     34  C   UNL A   1      31.551  30.717  26.347  1.00  0.00     0.002 C 
BRANCH  34  35
ATOM     35  C   UNL A   1      31.416  32.135  26.910  1.00  0.00     0.021 C 
BRANCH  35  36
ATOM     36  C   UNL A   1      32.702  32.955  26.868  1.00  0.00     0.116 C 
BRANCH  36  37
ATOM     37  N   UNL A   1      32.570  34.192  27.619  1.00  0.00    -0.352 N 
ATOM     38  C   UNL A   1      33.213  34.570  28.766  1.00  0.00     0.251 C 
ATOM     39  H   UNL A   1      31.932  34.846  27.254  1.00  0.00     0.163 HD
ATOM     40  O   UNL A   1      32.811  35.545  29.413  1.00  0.00    -0.269 OA
BRANCH  38  41
ATOM     41  C   UNL A   1      34.383  33.809  29.244  1.00  0.00     0.039 A 
ATOM     42  C   UNL A   1      35.663  34.230  28.879  1.00  0.00     0.014 A 
ATOM     43  C   UNL A   1      34.216  32.671  30.041  1.00  0.00     0.014 A 
ATOM     44  C   UNL A   1      36.780  33.541  29.357  1.00  0.00     0.010 A 
ATOM     45  C   UNL A   1      35.330  32.026  30.570  1.00  0.00     0.010 A 
ATOM     46  C   UNL A   1      36.623  32.450  30.228  1.00  0.00    -0.014 A 
BRANCH  46  47
ATOM     47  C   UNL A   1      37.800  31.740  30.788  1.00  0.00     0.031 A 
ATOM     48  C   UNL A   1      38.331  32.107  32.146  1.00  0.00     0.074 A 
ATOM     49  C   UNL A   1      38.427  30.802  30.050  1.00  0.00     0.049 A 
ATOM     50  N   UNL A   1      39.383  31.646  32.775  1.00  0.00    -0.248 NA
ATOM     51  C   UNL A   1      37.599  33.149  32.883  1.00  0.00     0.031 C 
ATOM     52  C   UNL A   1      38.036  30.387  28.702  1.00  0.00     0.029 A 
ATOM     53  N   UNL A   1      39.534  30.039  30.326  1.00  0.00    -0.354 N 
ATOM     54  C   UNL A   1      39.445  32.349  33.972  1.00  0.00     0.074 A 
ATOM     55  C   UNL A   1      38.357  33.302  33.959  1.00  0.00     0.031 C 
ATOM     56  C   UNL A   1      38.876  29.429  28.277  1.00  0.00     0.029 A 
ATOM     57  C   UNL A   1      39.886  29.190  29.305  1.00  0.00     0.049 A 
ATOM     58  H   UNL A   1      40.028  30.094  31.176  1.00  0.00     0.167 HD
ATOM     59  C   UNL A   1      40.316  32.199  34.998  1.00  0.00     0.037 A 
ATOM     60  C   UNL A   1      40.909  28.322  29.206  1.00  0.00     0.037 A 
ATOM     61  C   UNL A   1      41.385  31.234  35.019  1.00  0.00     0.049 A 
ATOM     62  C   UNL A   1      41.867  28.179  30.356  1.00  0.00     0.074 A 
ATOM     63  C   UNL A   1      42.285  30.966  36.036  1.00  0.00     0.029 A 
ATOM     64  N   UNL A   1      41.698  30.380  33.972  1.00  0.00    -0.354 N 
ATOM     65  N   UNL A   1      41.874  28.803  31.508  1.00  0.00    -0.248 NA
ATOM     66  C   UNL A   1      42.955  27.203  30.195  1.00  0.00     0.031 C 
ATOM     67  C   UNL A   1      43.169  29.979  35.589  1.00  0.00     0.029 A 
ATOM     68  C   UNL A   1      42.790  29.599  34.311  1.00  0.00     0.049 A 
ATOM     69  H   UNL A   1      41.216  30.336  33.115  1.00  0.00     0.167 HD
ATOM     70  C   UNL A   1      42.946  28.278  32.219  1.00  0.00     0.074 A 
ATOM     71  C   UNL A   1      43.558  27.274  31.373  1.00  0.00     0.031 C 
ATOM     72  C   UNL A   1      43.383  28.598  33.461  1.00  0.00     0.037 A 
BRANCH  59  73
ATOM     73  C   UNL A   1      40.147  33.100  36.187  1.00  0.00     0.057 A 
ATOM     74  C   UNL A   1      40.869  34.294  36.318  1.00  0.00     0.134 A 
ATOM     75  C   UNL A   1      39.226  32.789  37.195  1.00  0.00     0.134 A 
ATOM     76  F   UNL A   1      41.774  34.646  35.393  1.00  0.00    -0.206 F 
ATOM     77  C   UNL A   1      40.700  35.132  37.421  1.00  0.00     0.040 A 
ATOM     78  C   UNL A   1      39.030  33.633  38.290  1.00  0.00     0.040 A 
ATOM     79  F   UNL A   1      38.496  31.666  37.129  1.00  0.00    -0.206 F 
ATOM     80  C   UNL A   1      39.774  34.805  38.408  1.00  0.00     0.006 A 
ENDBRANCH  59  73
BRANCH  60  81
ATOM     81  C   UNL A   1      41.071  27.502  27.978  1.00  0.00     0.057 A 
ATOM     82  C   UNL A   1      41.816  27.973  26.891  1.00  0.00     0.134 A 
ATOM     83  C   UNL A   1      40.481  26.239  27.859  1.00  0.00     0.134 A 
ATOM     84  F   UNL A   1      42.389  29.184  26.939  1.00  0.00    -0.206 F 
ATOM     85  C   UNL A   1      41.953  27.225  25.720  1.00  0.00     0.040 A 
ATOM     86  C   UNL A   1      40.631  25.469  26.704  1.00  0.00     0.040 A 
ATOM     87  F   UNL A   1      39.760  25.728  28.868  1.00  0.00    -0.206 F 
ATOM     88  C   UNL A   1      41.363  25.966  25.628  1.00  0.00     0.006 A 
ENDBRANCH  60  81
BRANCH  72  89
ATOM     89  C   UNL A   1      44.556  27.830  33.996  1.00  0.00     0.057 A 
ATOM     90  C   UNL A   1      44.398  26.613  34.671  1.00  0.00     0.134 A 
ATOM     91  C   UNL A   1      45.862  28.296  33.798  1.00  0.00     0.134 A 
ATOM     92  F   UNL A   1      43.173  26.119  34.905  1.00  0.00    -0.206 F 
ATOM     93  C   UNL A   1      45.497  25.897  35.149  1.00  0.00     0.040 A 
ATOM     94  C   UNL A   1      46.969  27.577  34.248  1.00  0.00     0.040 A 
ATOM     95  F   UNL A   1      46.082  29.450  33.152  1.00  0.00    -0.206 F 
ATOM     96  C   UNL A   1      46.788  26.375  34.931  1.00  0.00     0.006 A 
ENDBRANCH  72  89
ENDBRANCH  46  47
ENDBRANCH  38  41
ENDBRANCH  36  37
ENDBRANCH  35  36
ENDBRANCH  34  35
ENDBRANCH  33  34
ENDBRANCH   1  33
TORSDOF 19
ENDMDL
MODEL 3
REMARK VINA RESULT:     -11.9      1.578      2.341
REMARK SMILES COc1ccc(-c2csc(NC(=O)[C@H](CC(=O)NCCCCCCNC(=O)c3ccc(-c4c5nc(c(-c6c(F)cccc6F)c6ccc([nH]6)c(-c6c(F)cccc6F)c6nc(c(-c7c(F)cccc7F)c7ccc4[nH]7)C=C6)C=C5)cc3)[NH+]3CCCCC3)n2)cc1
REMARK SMILES IDX 20 1 19 2 18 3 16 4 17 5 15 7 14 8 12 9 11 10 13 12 10 13
REMARK SMILES IDX 7 14 8 15 88 16 9 17 6 18 3 19 4 20 90 21 5 22 89 23 2 24
REMARK SMILES IDX 1 25 82 26 83 27 87 28 84 30 86 31 85 32 21 33 22 34 23 35
REMARK SMILES IDX 24 36 25 37 26 38 27 40 28 41 29 42 81 43 30 44 80 45 31 46
REMARK SMILES IDX 32 47 33 48 74 49 34 50 79 51 73 52 75 53 35 54 78 55 72 56
REMARK SMILES IDX 71 57 36 59 62 60 45 61 61 62 46 63 49 64 60 65 76 66 47 67
REMARK SMILES IDX 48 68 59 70 77 71 50 72 37 73 38 74 43 75 39 76 40 77 42 78
REMARK SMILES IDX 44 79 41 80 63 81 64 82 69 83 65 84 66 85 68 86 70 87 67 88
REMARK SMILES IDX 51 89 52 90 57 91 53 92 54 93 56 94 58 95 55 96
REMARK H PARENT 18 6 11 11 82 29 25 39 75 58 49 69
REMARK Flexibility Score: inf
ROOT
ATOM      1  C   UNL A   1      31.268  27.605  26.898  1.00  0.00     0.021 C 
ENDROOT
BRANCH   1   2
ATOM      2  C   UNL A   1      32.026  26.354  26.473  1.00  0.00     0.116 C 
BRANCH   2   3
ATOM      3  N   UNL A   1      31.240  25.145  26.456  1.00  0.00    -0.356 N 
ATOM      4  C   UNL A   1      31.507  23.910  26.943  1.00  0.00     0.226 C 
ATOM      5  O   UNL A   1      30.542  23.300  27.426  1.00  0.00    -0.275 OA
ATOM      6  H   UNL A   1      30.363  25.232  26.018  1.00  0.00     0.163 HD
BRANCH   4   7
ATOM      7  C   UNL A   1      32.867  23.233  26.942  1.00  0.00     0.175 C 
BRANCH   7   8
ATOM      8  C   UNL A   1      33.268  22.063  26.013  1.00  0.00     0.284 C 
BRANCH   8   9
ATOM      9  C   UNL A   1      32.288  21.532  24.906  1.00  0.00     0.285 C 
ATOM     10  N   UNL A   1      31.940  22.163  23.752  1.00  0.00    -0.297 N 
ATOM     11  H   UNL A   1      31.437  21.584  23.134  1.00  0.00     0.172 HD
ATOM     12  O   UNL A   1      31.731  20.427  25.028  1.00  0.00    -0.268 OA
BRANCH  10  13
ATOM     13  C   UNL A   1      32.134  23.418  23.263  1.00  0.00     0.190 A 
ATOM     14  C   UNL A   1      31.672  25.500  22.761  1.00  0.00     0.084 A 
ATOM     15  C   UNL A   1      32.874  25.367  22.089  1.00  0.00     0.097 A 
ATOM     16  N   UNL A   1      31.310  24.408  23.529  1.00  0.00    -0.220 NA
ATOM     17  S   UNL A   1      33.560  23.829  22.432  1.00  0.00    -0.105 S 
BRANCH  14  18
ATOM     18  C   UNL A   1      30.917  26.741  22.721  1.00  0.00     0.001 A 
ATOM     19  C   UNL A   1      29.642  29.195  23.129  1.00  0.00     0.118 A 
ATOM     20  C   UNL A   1      30.857  29.152  22.448  1.00  0.00     0.047 A 
ATOM     21  C   UNL A   1      29.002  28.009  23.495  1.00  0.00     0.047 A 
ATOM     22  C   UNL A   1      31.502  27.926  22.252  1.00  0.00     0.014 A 
ATOM     23  C   UNL A   1      29.638  26.783  23.286  1.00  0.00     0.014 A 
BRANCH  19  24
ATOM     24  O   UNL A   1      29.116  30.429  23.403  1.00  0.00    -0.497 OA
ATOM     25  C   UNL A   1      27.686  30.421  23.351  1.00  0.00     0.278 C 
ENDBRANCH  19  24
ENDBRANCH  14  18
ENDBRANCH  10  13
ENDBRANCH   8   9
BRANCH   8  26
ATOM     26  N   UNL A   1      34.723  22.240  25.585  1.00  0.00    -0.324 N 
ATOM     27  C   UNL A   1      35.440  23.426  26.080  1.00  0.00     0.262 C 
ATOM     28  C   UNL A   1      35.604  21.074  25.635  1.00  0.00     0.262 C 
ATOM     29  H   UNL A   1      34.514  22.403  24.599  1.00  0.00     0.348 HD
ATOM     30  C   UNL A   1      36.712  23.698  25.256  1.00  0.00     0.062 C 
ATOM     31  C   UNL A   1      36.814  21.263  24.720  1.00  0.00     0.062 C 
ATOM     32  C   UNL A   1      37.619  22.474  25.150  1.00  0.00     0.012 C 
ENDBRANCH   8  26
ENDBRANCH   7   8
ENDBRANCH   4   7
ENDBRANCH   2   3
ENDBRANCH   1   2
BRANCH   1  33
ATOM     33  C   UNL A   1      31.751  28.899  26.243  1.00  0.00     0.002 C 
BRANCH  33  34
ATOM     34  C   UNL A   1      32.233  29.964  27.231  1.00  0.00     0.002 C 
BRANCH  34  35
ATOM     35  C   UNL A   1      31.776  31.391  26.911  1.00  0.00     0.021 C 
BRANCH  35  36
ATOM     36  C   UNL A   1      32.907  32.412  26.829  1.00  0.00     0.116 C 
BRANCH  36  37
ATOM     37  N   UNL A   1      32.544  33.662  27.476  1.00  0.00    -0.352 N 
ATOM     38  C   UNL A   1      33.119  34.260  28.564  1.00  0.00     0.251 C 
ATOM     39  H   UNL A   1      31.783  34.141  27.080  1.00  0.00     0.163 HD
ATOM     40  O   UNL A   1      32.543  35.191  29.139  1.00  0.00    -0.269 OA
BRANCH  38  41
ATOM     41  C   UNL A   1      34.425  33.790  29.064  1.00  0.00     0.039 A 
ATOM     42  C   UNL A   1      34.461  32.923  30.158  1.00  0.00     0.014 A 
ATOM     43  C   UNL A   1      35.614  34.215  28.462  1.00  0.00     0.014 A 
ATOM     44  C   UNL A   1      35.688  32.439  30.617  1.00  0.00     0.010 A 
ATOM     45  C   UNL A   1      36.830  33.680  28.878  1.00  0.00     0.010 A 
ATOM     46  C   UNL A   1      36.880  32.792  29.963  1.00  0.00    -0.014 A 
BRANCH  46  47
ATOM     47  C   UNL A   1      38.188  32.245  30.404  1.00  0.00     0.031 A 
ATOM     48  C   UNL A   1      38.708  30.962  29.819  1.00  0.00     0.074 A 
ATOM     49  C   UNL A   1      38.882  32.874  31.374  1.00  0.00     0.049 A 
ATOM     50  N   UNL A   1      39.794  30.295  30.121  1.00  0.00    -0.248 NA
ATOM     51  C   UNL A   1      37.886  30.329  28.776  1.00  0.00     0.031 C 
ATOM     52  C   UNL A   1      38.464  34.103  32.051  1.00  0.00     0.029 A 
ATOM     53  N   UNL A   1      40.079  32.558  31.965  1.00  0.00    -0.354 N 
ATOM     54  C   UNL A   1      39.778  29.163  29.316  1.00  0.00     0.074 A 
ATOM     55  C   UNL A   1      38.551  29.205  28.551  1.00  0.00     0.031 C 
ATOM     56  C   UNL A   1      39.400  34.448  32.950  1.00  0.00     0.029 A 
ATOM     57  C   UNL A   1      40.464  33.447  32.939  1.00  0.00     0.049 A 
ATOM     58  H   UNL A   1      40.612  31.770  31.715  1.00  0.00     0.167 HD
ATOM     59  C   UNL A   1      40.711  28.187  29.209  1.00  0.00     0.037 A 
ATOM     60  C   UNL A   1      41.547  33.453  33.737  1.00  0.00     0.037 A 
ATOM     61  C   UNL A   1      41.942  28.158  29.955  1.00  0.00     0.049 A 
ATOM     62  C   UNL A   1      42.565  32.354  33.603  1.00  0.00     0.074 A 
ATOM     63  C   UNL A   1      42.978  27.243  29.874  1.00  0.00     0.029 A 
ATOM     64  N   UNL A   1      42.303  29.086  30.920  1.00  0.00    -0.354 N 
ATOM     65  N   UNL A   1      42.569  31.325  32.792  1.00  0.00    -0.248 NA
ATOM     66  C   UNL A   1      43.734  32.423  34.492  1.00  0.00     0.031 C 
ATOM     67  C   UNL A   1      43.946  27.593  30.820  1.00  0.00     0.029 A 
ATOM     68  C   UNL A   1      43.536  28.754  31.457  1.00  0.00     0.049 A 
ATOM     69  H   UNL A   1      41.763  29.865  31.184  1.00  0.00     0.167 HD
ATOM     70  C   UNL A   1      43.749  30.641  33.050  1.00  0.00     0.074 A 
ATOM     71  C   UNL A   1      44.443  31.379  34.085  1.00  0.00     0.031 C 
ATOM     72  C   UNL A   1      44.218  29.503  32.481  1.00  0.00     0.037 A 
BRANCH  59  73
ATOM     73  C   UNL A   1      40.436  27.070  28.245  1.00  0.00     0.057 A 
ATOM     74  C   UNL A   1      41.027  27.027  26.975  1.00  0.00     0.134 A 
ATOM     75  C   UNL A   1      39.598  26.006  28.603  1.00  0.00     0.134 A 
ATOM     76  F   UNL A   1      41.831  28.019  26.566  1.00  0.00    -0.206 F 
ATOM     77  C   UNL A   1      40.774  25.981  26.086  1.00  0.00     0.040 A 
ATOM     78  C   UNL A   1      39.358  24.941  27.732  1.00  0.00     0.040 A 
ATOM     79  F   UNL A   1      39.006  25.979  29.806  1.00  0.00    -0.206 F 
ATOM     80  C   UNL A   1      39.942  24.930  26.467  1.00  0.00     0.006 A 
ENDBRANCH  59  73
BRANCH  60  81
ATOM     81  C   UNL A   1      41.738  34.547  34.722  1.00  0.00     0.057 A 
ATOM     82  C   UNL A   1      41.245  34.436  36.027  1.00  0.00     0.134 A 
ATOM     83  C   UNL A   1      42.407  35.729  34.383  1.00  0.00     0.134 A 
ATOM     84  F   UNL A   1      40.578  33.335  36.405  1.00  0.00    -0.206 F 
ATOM     85  C   UNL A   1      41.393  35.468  36.955  1.00  0.00     0.040 A 
ATOM     86  C   UNL A   1      42.585  36.759  35.309  1.00  0.00     0.040 A 
ATOM     87  F   UNL A   1      42.909  35.894  33.151  1.00  0.00    -0.206 F 
ATOM     88  C   UNL A   1      42.070  36.631  36.597  1.00  0.00     0.006 A 
ENDBRANCH  60  81
BRANCH  72  89
ATOM     89  C   UNL A   1      45.559  29.008  32.937  1.00  0.00     0.057 A 
ATOM     90  C   UNL A   1      46.749  29.436  32.336  1.00  0.00     0.134 A 
ATOM     91  C   UNL A   1      45.661  28.122  34.016  1.00  0.00     0.134 A 
ATOM     92  F   UNL A   1      46.720  30.273  31.288  1.00  0.00    -0.206 F 
ATOM     93  C   UNL A   1      47.992  28.982  32.779  1.00  0.00     0.040 A 
ATOM     94  C   UNL A   1      46.898  27.682  34.485  1.00  0.00     0.040 A 
ATOM     95  F   UNL A   1      44.559  27.680  34.641  1.00  0.00    -0.206 F 
ATOM     96  C   UNL A   1      48.070  28.108  33.862  1.00  0.00     0.006 A 
ENDBRANCH  72  89
ENDBRANCH  46  47
ENDBRANCH  38  41
ENDBRANCH  36  37
ENDBRANCH  35  36
ENDBRANCH  34  35
ENDBRANCH  33  34
ENDBRANCH   1  33
TORSDOF 19
ENDMDL
