MODEL 1
REMARK VINA RESULT:     -12.6      0.000      0.000
REMARK SMILES Cc1ccnc(C(=O)c2[nH]c3cc(Cl)c(F)cc3c2CC(=O)NCCCCCCNC(=O)c2ccc(-c3c4nc(c(-c5c(F)cccc5F)c5ccc([nH]5)c(-c5c(F)cccc5F)c5nc(c(-c6c(F)cccc6F)c6ccc3[nH]6)C=C5)C=C4)cc2)c1
REMARK SMILES IDX 26 1 25 2 24 3 23 4 21 5 22 6 20 8 19 9 9 10 10 11 11 12
REMARK SMILES IDX 18 14 12 15 17 16 13 17 15 18 14 19 16 20 7 21 8 22 6 23
REMARK SMILES IDX 1 24 2 25 3 26 87 27 4 28 5 29 27 30 28 31 29 32 30 33 31 34
REMARK SMILES IDX 32 36 33 37 34 38 86 39 35 40 85 41 36 42 37 43 38 44 79 45
REMARK SMILES IDX 39 46 84 47 78 48 80 49 40 50 83 51 77 52 76 53 41 55 67 56
REMARK SMILES IDX 50 57 66 58 51 59 54 60 65 61 81 62 52 63 53 64 64 66 82 67
REMARK SMILES IDX 55 68 42 69 43 70 48 71 44 72 45 73 47 74 49 75 46 76 68 77
REMARK SMILES IDX 69 78 74 79 70 80 71 81 73 82 75 83 72 84 56 85 57 86 62 87
REMARK SMILES IDX 58 88 59 89 61 90 63 91 60 92
REMARK H PARENT 23 7 10 13 30 35 80 54 54 65
REMARK Flexibility Score: inf
ROOT
ATOM      1  C   UNL A   1      40.604  21.750  27.331  1.00  0.00     0.002 C 
ENDROOT
BRANCH   1   2
ATOM      2  C   UNL A   1      39.573  21.721  26.199  1.00  0.00     0.021 C 
BRANCH   2   3
ATOM      3  C   UNL A   1      38.554  22.864  26.200  1.00  0.00     0.116 C 
BRANCH   3   4
ATOM      4  N   UNL A   1      37.792  22.972  24.974  1.00  0.00    -0.356 N 
ATOM      5  C   UNL A   1      36.463  23.175  24.753  1.00  0.00     0.224 C 
ATOM      6  O   UNL A   1      36.120  23.361  23.581  1.00  0.00    -0.275 OA
ATOM      7  H   UNL A   1      38.330  22.881  24.154  1.00  0.00     0.163 HD
BRANCH   5   8
ATOM      8  C   UNL A   1      35.436  23.255  25.867  1.00  0.00     0.138 C 
BRANCH   8   9
ATOM      9  C   UNL A   1      34.162  22.478  25.689  1.00  0.00    -0.002 A 
ATOM     10  C   UNL A   1      32.838  22.867  25.915  1.00  0.00     0.093 A 
ATOM     11  N   UNL A   1      32.057  21.741  25.725  1.00  0.00    -0.351 N 
ATOM     12  C   UNL A   1      32.799  20.670  25.306  1.00  0.00     0.048 A 
ATOM     13  H   UNL A   1      31.084  21.714  25.874  1.00  0.00     0.167 HD
ATOM     14  C   UNL A   1      34.130  21.069  25.347  1.00  0.00     0.007 A 
ATOM     15  C   UNL A   1      32.392  19.383  24.927  1.00  0.00     0.050 A 
ATOM     16  C   UNL A   1      35.119  20.106  25.047  1.00  0.00     0.051 A 
ATOM     17  C   UNL A   1      33.390  18.469  24.574  1.00  0.00     0.078 A 
ATOM     18  C   UNL A   1      34.731  18.826  24.645  1.00  0.00     0.142 A 
ATOM     19  Cl  UNL A   1      32.932  16.896  24.042  1.00  0.00    -0.081 Cl
ATOM     20  F   UNL A   1      35.690  17.950  24.308  1.00  0.00    -0.205 F 
BRANCH  10  21
ATOM     21  C   UNL A   1      32.171  24.080  26.386  1.00  0.00     0.227 C 
ATOM     22  O   UNL A   1      31.338  23.987  27.288  1.00  0.00    -0.285 OA
BRANCH  21  23
ATOM     23  C   UNL A   1      32.340  25.416  25.722  1.00  0.00     0.113 A 
ATOM     24  C   UNL A   1      34.094  28.760  26.136  1.00  0.00     0.044 C 
ATOM     25  C   UNL A   1      33.298  27.622  25.569  1.00  0.00    -0.047 A 
ATOM     26  C   UNL A   1      32.706  27.746  24.315  1.00  0.00     0.023 A 
ATOM     27  C   UNL A   1      33.153  26.408  26.258  1.00  0.00     0.036 A 
ATOM     28  C   UNL A   1      31.959  26.688  23.828  1.00  0.00     0.112 A 
ATOM     29  N   UNL A   1      31.756  25.537  24.501  1.00  0.00    -0.253 NA
ENDBRANCH  21  23
ENDBRANCH  10  21
ENDBRANCH   8   9
ENDBRANCH   5   8
ENDBRANCH   3   4
ENDBRANCH   2   3
ENDBRANCH   1   2
BRANCH   1  30
ATOM     30  C   UNL A   1      41.445  20.489  27.485  1.00  0.00     0.002 C 
BRANCH  30  31
ATOM     31  C   UNL A   1      41.737  19.763  26.171  1.00  0.00     0.021 C 
BRANCH  31  32
ATOM     32  C   UNL A   1      42.986  18.875  26.213  1.00  0.00     0.116 C 
BRANCH  32  33
ATOM     33  N   UNL A   1      43.928  19.179  25.156  1.00  0.00    -0.352 N 
ATOM     34  C   UNL A   1      44.570  20.318  24.749  1.00  0.00     0.251 C 
ATOM     35  H   UNL A   1      44.160  18.393  24.610  1.00  0.00     0.163 HD
ATOM     36  O   UNL A   1      45.348  20.197  23.799  1.00  0.00    -0.269 OA
BRANCH  34  37
ATOM     37  C   UNL A   1      44.375  21.673  25.347  1.00  0.00     0.039 A 
ATOM     38  C   UNL A   1      44.977  22.136  26.515  1.00  0.00     0.014 A 
ATOM     39  C   UNL A   1      43.484  22.535  24.678  1.00  0.00     0.014 A 
ATOM     40  C   UNL A   1      44.657  23.382  27.039  1.00  0.00     0.010 A 
ATOM     41  C   UNL A   1      43.182  23.802  25.184  1.00  0.00     0.010 A 
ATOM     42  C   UNL A   1      43.747  24.215  26.388  1.00  0.00    -0.014 A 
BRANCH  42  43
ATOM     43  C   UNL A   1      43.470  25.498  27.031  1.00  0.00     0.031 A 
ATOM     44  C   UNL A   1      44.469  26.590  26.834  1.00  0.00     0.074 A 
ATOM     45  C   UNL A   1      42.360  25.769  27.742  1.00  0.00     0.049 A 
ATOM     46  N   UNL A   1      45.164  27.221  27.729  1.00  0.00    -0.248 NA
ATOM     47  C   UNL A   1      44.735  27.019  25.453  1.00  0.00     0.031 C 
ATOM     48  C   UNL A   1      41.121  24.996  27.821  1.00  0.00     0.029 A 
ATOM     49  N   UNL A   1      42.094  26.877  28.496  1.00  0.00    -0.354 N 
ATOM     50  C   UNL A   1      45.848  28.226  27.049  1.00  0.00     0.074 A 
ATOM     51  C   UNL A   1      45.602  28.014  25.643  1.00  0.00     0.031 C 
ATOM     52  C   UNL A   1      40.167  25.754  28.405  1.00  0.00     0.029 A 
ATOM     53  C   UNL A   1      40.769  26.995  28.867  1.00  0.00     0.049 A 
ATOM     54  H   UNL A   1      42.784  27.533  28.752  1.00  0.00     0.167 HD
ATOM     55  C   UNL A   1      46.460  29.265  27.680  1.00  0.00     0.037 A 
ATOM     56  C   UNL A   1      40.189  28.062  29.458  1.00  0.00     0.037 A 
ATOM     57  C   UNL A   1      46.664  29.028  29.079  1.00  0.00     0.049 A 
ATOM     58  C   UNL A   1      41.233  28.867  30.131  1.00  0.00     0.074 A 
ATOM     59  C   UNL A   1      47.432  28.171  29.838  1.00  0.00     0.029 A 
ATOM     60  N   UNL A   1      45.798  29.636  29.948  1.00  0.00    -0.354 N 
ATOM     61  N   UNL A   1      41.897  28.490  31.187  1.00  0.00    -0.248 NA
ATOM     62  C   UNL A   1      41.743  30.060  29.470  1.00  0.00     0.031 C 
ATOM     63  C   UNL A   1      46.729  28.012  31.068  1.00  0.00     0.029 A 
ATOM     64  C   UNL A   1      45.557  28.763  30.977  1.00  0.00     0.049 A 
ATOM     65  H   UNL A   1      45.417  30.538  29.852  1.00  0.00     0.167 HD
ATOM     66  C   UNL A   1      43.111  29.148  31.094  1.00  0.00     0.074 A 
ATOM     67  C   UNL A   1      42.891  30.215  30.133  1.00  0.00     0.031 C 
ATOM     68  C   UNL A   1      44.255  28.587  31.581  1.00  0.00     0.037 A 
BRANCH  55  69
ATOM     69  C   UNL A   1      46.634  30.635  27.082  1.00  0.00     0.057 A 
ATOM     70  C   UNL A   1      47.901  31.246  27.059  1.00  0.00     0.134 A 
ATOM     71  C   UNL A   1      45.550  31.481  26.778  1.00  0.00     0.134 A 
ATOM     72  F   UNL A   1      49.004  30.552  27.380  1.00  0.00    -0.206 F 
ATOM     73  C   UNL A   1      48.073  32.606  26.772  1.00  0.00     0.040 A 
ATOM     74  C   UNL A   1      45.713  32.829  26.445  1.00  0.00     0.040 A 
ATOM     75  F   UNL A   1      44.282  31.060  26.880  1.00  0.00    -0.206 F 
ATOM     76  C   UNL A   1      46.977  33.402  26.461  1.00  0.00     0.006 A 
ENDBRANCH  55  69
BRANCH  56  77
ATOM     77  C   UNL A   1      38.809  28.553  29.270  1.00  0.00     0.057 A 
ATOM     78  C   UNL A   1      37.910  28.622  30.341  1.00  0.00     0.134 A 
ATOM     79  C   UNL A   1      38.423  29.214  28.090  1.00  0.00     0.134 A 
ATOM     80  F   UNL A   1      38.211  28.061  31.521  1.00  0.00    -0.206 F 
ATOM     81  C   UNL A   1      36.703  29.325  30.251  1.00  0.00     0.040 A 
ATOM     82  C   UNL A   1      37.216  29.908  27.982  1.00  0.00     0.040 A 
ATOM     83  F   UNL A   1      39.244  29.282  27.032  1.00  0.00    -0.206 F 
ATOM     84  C   UNL A   1      36.357  29.977  29.071  1.00  0.00     0.006 A 
ENDBRANCH  56  77
BRANCH  68  85
ATOM     85  C   UNL A   1      44.110  27.488  32.591  1.00  0.00     0.057 A 
ATOM     86  C   UNL A   1      44.113  26.126  32.266  1.00  0.00     0.134 A 
ATOM     87  C   UNL A   1      44.081  27.818  33.951  1.00  0.00     0.134 A 
ATOM     88  F   UNL A   1      44.242  25.719  30.995  1.00  0.00    -0.206 F 
ATOM     89  C   UNL A   1      44.033  25.135  33.249  1.00  0.00     0.040 A 
ATOM     90  C   UNL A   1      44.036  26.839  34.946  1.00  0.00     0.040 A 
ATOM     91  F   UNL A   1      44.140  29.102  34.338  1.00  0.00    -0.206 F 
ATOM     92  C   UNL A   1      43.998  25.491  34.595  1.00  0.00     0.006 A 
ENDBRANCH  68  85
ENDBRANCH  42  43
ENDBRANCH  34  37
ENDBRANCH  32  33
ENDBRANCH  31  32
ENDBRANCH  30  31
ENDBRANCH   1  30
TORSDOF 16
ENDMDL
MODEL 2
REMARK VINA RESULT:     -12.5      2.922      8.173
REMARK SMILES Cc1ccnc(C(=O)c2[nH]c3cc(Cl)c(F)cc3c2CC(=O)NCCCCCCNC(=O)c2ccc(-c3c4nc(c(-c5c(F)cccc5F)c5ccc([nH]5)c(-c5c(F)cccc5F)c5nc(c(-c6c(F)cccc6F)c6ccc3[nH]6)C=C5)C=C4)cc2)c1
REMARK SMILES IDX 26 1 25 2 24 3 23 4 21 5 22 6 20 8 19 9 9 10 10 11 11 12
REMARK SMILES IDX 18 14 12 15 17 16 13 17 15 18 14 19 16 20 7 21 8 22 6 23
REMARK SMILES IDX 1 24 2 25 3 26 87 27 4 28 5 29 27 30 28 31 29 32 30 33 31 34
REMARK SMILES IDX 32 36 33 37 34 38 86 39 35 40 85 41 36 42 37 43 38 44 79 45
REMARK SMILES IDX 39 46 84 47 78 48 80 49 40 50 83 51 77 52 76 53 41 55 67 56
REMARK SMILES IDX 50 57 66 58 51 59 54 60 65 61 81 62 52 63 53 64 64 66 82 67
REMARK SMILES IDX 55 68 42 69 43 70 48 71 44 72 45 73 47 74 49 75 46 76 68 77
REMARK SMILES IDX 69 78 74 79 70 80 71 81 73 82 75 83 72 84 56 85 57 86 62 87
REMARK SMILES IDX 58 88 59 89 61 90 63 91 60 92
REMARK H PARENT 23 7 10 13 30 35 80 54 54 65
REMARK Flexibility Score: inf
ROOT
ATOM      1  C   UNL A   1      31.051  29.125  24.757  1.00  0.00     0.002 C 
ENDROOT
BRANCH   1   2
ATOM      2  C   UNL A   1      31.136  28.894  23.246  1.00  0.00     0.021 C 
BRANCH   2   3
ATOM      3  C   UNL A   1      30.890  27.457  22.780  1.00  0.00     0.116 C 
BRANCH   3   4
ATOM      4  N   UNL A   1      31.934  26.928  21.928  1.00  0.00    -0.356 N 
ATOM      5  C   UNL A   1      33.143  26.372  22.221  1.00  0.00     0.224 C 
ATOM      6  O   UNL A   1      33.769  25.881  21.276  1.00  0.00    -0.275 OA
ATOM      7  H   UNL A   1      31.736  26.982  20.965  1.00  0.00     0.163 HD
BRANCH   5   8
ATOM      8  C   UNL A   1      33.692  26.270  23.632  1.00  0.00     0.138 C 
BRANCH   8   9
ATOM      9  C   UNL A   1      33.509  24.962  24.351  1.00  0.00    -0.002 A 
ATOM     10  C   UNL A   1      34.348  23.846  24.403  1.00  0.00     0.093 A 
ATOM     11  N   UNL A   1      33.658  22.863  25.088  1.00  0.00    -0.351 N 
ATOM     12  C   UNL A   1      32.453  23.316  25.553  1.00  0.00     0.048 A 
ATOM     13  H   UNL A   1      33.992  21.947  25.225  1.00  0.00     0.167 HD
ATOM     14  C   UNL A   1      32.289  24.600  25.045  1.00  0.00     0.007 A 
ATOM     15  C   UNL A   1      31.496  22.677  26.354  1.00  0.00     0.050 A 
ATOM     16  C   UNL A   1      31.069  25.263  25.304  1.00  0.00     0.051 A 
ATOM     17  C   UNL A   1      30.325  23.382  26.646  1.00  0.00     0.078 A 
ATOM     18  C   UNL A   1      30.114  24.650  26.119  1.00  0.00     0.142 A 
ATOM     19  Cl  UNL A   1      29.148  22.660  27.677  1.00  0.00    -0.081 Cl
ATOM     20  F   UNL A   1      28.990  25.329  26.398  1.00  0.00    -0.205 F 
BRANCH  10  21
ATOM     21  C   UNL A   1      35.645  23.485  23.831  1.00  0.00     0.227 C 
ATOM     22  O   UNL A   1      35.737  23.337  22.613  1.00  0.00    -0.285 OA
BRANCH  21  23
ATOM     23  C   UNL A   1      36.840  23.138  24.672  1.00  0.00     0.113 A 
ATOM     24  C   UNL A   1      39.082  24.535  27.402  1.00  0.00     0.044 C 
ATOM     25  C   UNL A   1      38.442  23.610  26.410  1.00  0.00    -0.047 A 
ATOM     26  C   UNL A   1      38.917  22.310  26.267  1.00  0.00     0.023 A 
ATOM     27  C   UNL A   1      37.345  24.009  25.632  1.00  0.00     0.036 A 
ATOM     28  C   UNL A   1      38.321  21.486  25.328  1.00  0.00     0.112 A 
ATOM     29  N   UNL A   1      37.307  21.870  24.526  1.00  0.00    -0.253 NA
ENDBRANCH  21  23
ENDBRANCH  10  21
ENDBRANCH   8   9
ENDBRANCH   5   8
ENDBRANCH   3   4
ENDBRANCH   2   3
ENDBRANCH   1   2
BRANCH   1  30
ATOM     30  C   UNL A   1      32.113  30.050  25.340  1.00  0.00     0.002 C 
BRANCH  30  31
ATOM     31  C   UNL A   1      33.159  29.343  26.201  1.00  0.00     0.021 C 
BRANCH  31  32
ATOM     32  C   UNL A   1      33.290  29.912  27.618  1.00  0.00     0.116 C 
BRANCH  32  33
ATOM     33  N   UNL A   1      33.794  31.270  27.635  1.00  0.00    -0.352 N 
ATOM     34  C   UNL A   1      35.037  31.825  27.784  1.00  0.00     0.251 C 
ATOM     35  H   UNL A   1      33.087  31.943  27.511  1.00  0.00     0.163 HD
ATOM     36  O   UNL A   1      35.098  33.055  27.716  1.00  0.00    -0.269 OA
BRANCH  34  37
ATOM     37  C   UNL A   1      36.292  31.058  28.046  1.00  0.00     0.039 A 
ATOM     38  C   UNL A   1      36.532  29.742  27.657  1.00  0.00     0.014 A 
ATOM     39  C   UNL A   1      37.300  31.725  28.770  1.00  0.00     0.014 A 
ATOM     40  C   UNL A   1      37.698  29.086  28.031  1.00  0.00     0.010 A 
ATOM     41  C   UNL A   1      38.489  31.081  29.122  1.00  0.00     0.010 A 
ATOM     42  C   UNL A   1      38.675  29.745  28.777  1.00  0.00    -0.014 A 
BRANCH  42  43
ATOM     43  C   UNL A   1      39.858  28.960  29.130  1.00  0.00     0.031 A 
ATOM     44  C   UNL A   1      40.144  28.773  30.583  1.00  0.00     0.074 A 
ATOM     45  C   UNL A   1      40.669  28.363  28.237  1.00  0.00     0.049 A 
ATOM     46  N   UNL A   1      41.193  29.136  31.253  1.00  0.00    -0.248 NA
ATOM     47  C   UNL A   1      39.113  28.107  31.392  1.00  0.00     0.031 C 
ATOM     48  C   UNL A   1      40.439  28.139  26.809  1.00  0.00     0.029 A 
ATOM     49  N   UNL A   1      41.866  27.747  28.469  1.00  0.00    -0.354 N 
ATOM     50  C   UNL A   1      41.029  28.619  32.537  1.00  0.00     0.074 A 
ATOM     51  C   UNL A   1      39.703  28.055  32.587  1.00  0.00     0.031 C 
ATOM     52  C   UNL A   1      41.359  27.261  26.350  1.00  0.00     0.029 A 
ATOM     53  C   UNL A   1      42.316  26.984  27.409  1.00  0.00     0.049 A 
ATOM     54  H   UNL A   1      42.363  27.838  29.315  1.00  0.00     0.167 HD
ATOM     55  C   UNL A   1      42.041  28.552  33.444  1.00  0.00     0.037 A 
ATOM     56  C   UNL A   1      43.367  26.136  27.415  1.00  0.00     0.037 A 
ATOM     57  C   UNL A   1      43.154  29.389  33.106  1.00  0.00     0.049 A 
ATOM     58  C   UNL A   1      44.284  26.512  28.514  1.00  0.00     0.074 A 
ATOM     59  C   UNL A   1      43.383  30.745  33.017  1.00  0.00     0.029 A 
ATOM     60  N   UNL A   1      44.249  28.780  32.554  1.00  0.00    -0.354 N 
ATOM     61  N   UNL A   1      45.006  27.597  28.543  1.00  0.00    -0.248 NA
ATOM     62  C   UNL A   1      44.233  25.767  29.766  1.00  0.00     0.031 C 
ATOM     63  C   UNL A   1      44.429  30.897  32.060  1.00  0.00     0.029 A 
ATOM     64  C   UNL A   1      44.761  29.622  31.601  1.00  0.00     0.049 A 
ATOM     65  H   UNL A   1      44.607  27.896  32.800  1.00  0.00     0.167 HD
ATOM     66  C   UNL A   1      45.169  27.878  29.888  1.00  0.00     0.074 A 
ATOM     67  C   UNL A   1      44.832  26.643  30.576  1.00  0.00     0.031 C 
ATOM     68  C   UNL A   1      45.278  29.163  30.331  1.00  0.00     0.037 A 
BRANCH  55  69
ATOM     69  C   UNL A   1      42.146  27.502  34.518  1.00  0.00     0.057 A 
ATOM     70  C   UNL A   1      41.810  27.811  35.849  1.00  0.00     0.134 A 
ATOM     71  C   UNL A   1      42.825  26.283  34.334  1.00  0.00     0.134 A 
ATOM     72  F   UNL A   1      41.204  28.969  36.154  1.00  0.00    -0.206 F 
ATOM     73  C   UNL A   1      42.144  26.973  36.920  1.00  0.00     0.040 A 
ATOM     74  C   UNL A   1      43.124  25.416  35.389  1.00  0.00     0.040 A 
ATOM     75  F   UNL A   1      43.309  25.923  33.137  1.00  0.00    -0.206 F 
ATOM     76  C   UNL A   1      42.800  25.769  36.692  1.00  0.00     0.006 A 
ENDBRANCH  55  69
BRANCH  56  77
ATOM     77  C   UNL A   1      43.501  24.867  26.671  1.00  0.00     0.057 A 
ATOM     78  C   UNL A   1      42.768  23.731  27.035  1.00  0.00     0.134 A 
ATOM     79  C   UNL A   1      44.154  24.815  25.427  1.00  0.00     0.134 A 
ATOM     80  F   UNL A   1      42.075  23.705  28.182  1.00  0.00    -0.206 F 
ATOM     81  C   UNL A   1      42.673  22.613  26.199  1.00  0.00     0.040 A 
ATOM     82  C   UNL A   1      44.078  23.701  24.589  1.00  0.00     0.040 A 
ATOM     83  F   UNL A   1      44.815  25.877  24.944  1.00  0.00    -0.206 F 
ATOM     84  C   UNL A   1      43.323  22.598  24.968  1.00  0.00     0.006 A 
ENDBRANCH  56  77
BRANCH  68  85
ATOM     85  C   UNL A   1      45.662  30.210  29.328  1.00  0.00     0.057 A 
ATOM     86  C   UNL A   1      44.741  30.886  28.517  1.00  0.00     0.134 A 
ATOM     87  C   UNL A   1      46.997  30.627  29.263  1.00  0.00     0.134 A 
ATOM     88  F   UNL A   1      43.430  30.621  28.591  1.00  0.00    -0.206 F 
ATOM     89  C   UNL A   1      45.141  31.896  27.638  1.00  0.00     0.040 A 
ATOM     90  C   UNL A   1      47.404  31.658  28.414  1.00  0.00     0.040 A 
ATOM     91  F   UNL A   1      47.922  30.066  30.057  1.00  0.00    -0.206 F 
ATOM     92  C   UNL A   1      46.477  32.287  27.586  1.00  0.00     0.006 A 
ENDBRANCH  68  85
ENDBRANCH  42  43
ENDBRANCH  34  37
ENDBRANCH  32  33
ENDBRANCH  31  32
ENDBRANCH  30  31
ENDBRANCH   1  30
TORSDOF 16
ENDMDL
MODEL 3
REMARK VINA RESULT:     -12.4      2.802      7.579
REMARK SMILES Cc1ccnc(C(=O)c2[nH]c3cc(Cl)c(F)cc3c2CC(=O)NCCCCCCNC(=O)c2ccc(-c3c4nc(c(-c5c(F)cccc5F)c5ccc([nH]5)c(-c5c(F)cccc5F)c5nc(c(-c6c(F)cccc6F)c6ccc3[nH]6)C=C5)C=C4)cc2)c1
REMARK SMILES IDX 26 1 25 2 24 3 23 4 21 5 22 6 20 8 19 9 9 10 10 11 11 12
REMARK SMILES IDX 18 14 12 15 17 16 13 17 15 18 14 19 16 20 7 21 8 22 6 23
REMARK SMILES IDX 1 24 2 25 3 26 87 27 4 28 5 29 27 30 28 31 29 32 30 33 31 34
REMARK SMILES IDX 32 36 33 37 34 38 86 39 35 40 85 41 36 42 37 43 38 44 79 45
REMARK SMILES IDX 39 46 84 47 78 48 80 49 40 50 83 51 77 52 76 53 41 55 67 56
REMARK SMILES IDX 50 57 66 58 51 59 54 60 65 61 81 62 52 63 53 64 64 66 82 67
REMARK SMILES IDX 55 68 42 69 43 70 48 71 44 72 45 73 47 74 49 75 46 76 68 77
REMARK SMILES IDX 69 78 74 79 70 80 71 81 73 82 75 83 72 84 56 85 57 86 62 87
REMARK SMILES IDX 58 88 59 89 61 90 63 91 60 92
REMARK H PARENT 23 7 10 13 30 35 80 54 54 65
REMARK Flexibility Score: inf
ROOT
ATOM      1  C   UNL A   1      31.478  28.864  25.267  1.00  0.00     0.002 C 
ENDROOT
BRANCH   1   2
ATOM      2  C   UNL A   1      31.720  28.929  23.756  1.00  0.00     0.021 C 
BRANCH   2   3
ATOM      3  C   UNL A   1      31.167  27.754  22.945  1.00  0.00     0.116 C 
BRANCH   3   4
ATOM      4  N   UNL A   1      32.150  27.114  22.096  1.00  0.00    -0.356 N 
ATOM      5  C   UNL A   1      33.285  26.423  22.392  1.00  0.00     0.224 C 
ATOM      6  O   UNL A   1      33.856  25.868  21.448  1.00  0.00    -0.275 OA
ATOM      7  H   UNL A   1      31.964  27.194  21.132  1.00  0.00     0.163 HD
BRANCH   5   8
ATOM      8  C   UNL A   1      33.812  26.252  23.805  1.00  0.00     0.138 C 
BRANCH   8   9
ATOM      9  C   UNL A   1      33.592  24.921  24.467  1.00  0.00    -0.002 A 
ATOM     10  C   UNL A   1      34.412  23.789  24.492  1.00  0.00     0.093 A 
ATOM     11  N   UNL A   1      33.692  22.791  25.124  1.00  0.00    -0.351 N 
ATOM     12  C   UNL A   1      32.485  23.246  25.581  1.00  0.00     0.048 A 
ATOM     13  H   UNL A   1      34.008  21.865  25.230  1.00  0.00     0.167 HD
ATOM     14  C   UNL A   1      32.352  24.552  25.122  1.00  0.00     0.007 A 
ATOM     15  C   UNL A   1      31.501  22.592  26.336  1.00  0.00     0.050 A 
ATOM     16  C   UNL A   1      31.138  25.225  25.382  1.00  0.00     0.051 A 
ATOM     17  C   UNL A   1      30.335  23.305  26.633  1.00  0.00     0.078 A 
ATOM     18  C   UNL A   1      30.156  24.597  26.152  1.00  0.00     0.142 A 
ATOM     19  Cl  UNL A   1      29.126  22.563  27.610  1.00  0.00    -0.081 Cl
ATOM     20  F   UNL A   1      29.038  25.282  26.435  1.00  0.00    -0.205 F 
BRANCH  10  21
ATOM     21  C   UNL A   1      35.715  23.429  23.933  1.00  0.00     0.227 C 
ATOM     22  O   UNL A   1      35.811  23.249  22.719  1.00  0.00    -0.285 OA
BRANCH  21  23
ATOM     23  C   UNL A   1      36.912  23.120  24.785  1.00  0.00     0.113 A 
ATOM     24  C   UNL A   1      39.013  24.537  27.615  1.00  0.00     0.044 C 
ATOM     25  C   UNL A   1      38.448  23.616  26.575  1.00  0.00    -0.047 A 
ATOM     26  C   UNL A   1      39.004  22.353  26.391  1.00  0.00     0.023 A 
ATOM     27  C   UNL A   1      37.345  23.980  25.789  1.00  0.00     0.036 A 
ATOM     28  C   UNL A   1      38.477  21.534  25.408  1.00  0.00     0.112 A 
ATOM     29  N   UNL A   1      37.457  21.889  24.600  1.00  0.00    -0.253 NA
ENDBRANCH  21  23
ENDBRANCH  10  21
ENDBRANCH   8   9
ENDBRANCH   5   8
ENDBRANCH   3   4
ENDBRANCH   2   3
ENDBRANCH   1   2
BRANCH   1  30
ATOM     30  C   UNL A   1      32.538  29.538  26.131  1.00  0.00     0.002 C 
BRANCH  30  31
ATOM     31  C   UNL A   1      33.972  29.123  25.804  1.00  0.00     0.021 C 
BRANCH  31  32
ATOM     32  C   UNL A   1      34.746  28.556  27.000  1.00  0.00     0.116 C 
BRANCH  32  33
ATOM     33  N   UNL A   1      34.881  29.506  28.085  1.00  0.00    -0.352 N 
ATOM     34  C   UNL A   1      35.936  29.951  28.837  1.00  0.00     0.251 C 
ATOM     35  H   UNL A   1      34.028  29.926  28.337  1.00  0.00     0.163 HD
ATOM     36  O   UNL A   1      35.680  30.812  29.682  1.00  0.00    -0.269 OA
BRANCH  34  37
ATOM     37  C   UNL A   1      37.340  29.455  28.723  1.00  0.00     0.039 A 
ATOM     38  C   UNL A   1      38.011  28.699  29.683  1.00  0.00     0.014 A 
ATOM     39  C   UNL A   1      38.043  29.809  27.555  1.00  0.00     0.014 A 
ATOM     40  C   UNL A   1      39.350  28.364  29.522  1.00  0.00     0.010 A 
ATOM     41  C   UNL A   1      39.381  29.448  27.374  1.00  0.00     0.010 A 
ATOM     42  C   UNL A   1      40.046  28.749  28.377  1.00  0.00    -0.014 A 
BRANCH  42  43
ATOM     43  C   UNL A   1      41.453  28.358  28.314  1.00  0.00     0.031 A 
ATOM     44  C   UNL A   1      41.775  27.074  27.623  1.00  0.00     0.074 A 
ATOM     45  C   UNL A   1      42.471  29.098  28.792  1.00  0.00     0.049 A 
ATOM     46  N   UNL A   1      42.350  26.018  28.108  1.00  0.00    -0.248 NA
ATOM     47  C   UNL A   1      41.386  26.953  26.211  1.00  0.00     0.031 C 
ATOM     48  C   UNL A   1      42.453  30.497  29.221  1.00  0.00     0.029 A 
ATOM     49  N   UNL A   1      43.785  28.744  28.910  1.00  0.00    -0.354 N 
ATOM     50  C   UNL A   1      42.533  25.150  27.034  1.00  0.00     0.074 A 
ATOM     51  C   UNL A   1      41.860  25.744  25.905  1.00  0.00     0.031 C 
ATOM     52  C   UNL A   1      43.726  30.931  29.353  1.00  0.00     0.029 A 
ATOM     53  C   UNL A   1      44.630  29.808  29.162  1.00  0.00     0.049 A 
ATOM     54  H   UNL A   1      44.102  27.815  28.824  1.00  0.00     0.167 HD
ATOM     55  C   UNL A   1      43.348  24.061  27.089  1.00  0.00     0.037 A 
ATOM     56  C   UNL A   1      45.980  29.784  29.155  1.00  0.00     0.037 A 
ATOM     57  C   UNL A   1      43.686  23.683  28.430  1.00  0.00     0.049 A 
ATOM     58  C   UNL A   1      46.439  28.393  29.365  1.00  0.00     0.074 A 
ATOM     59  C   UNL A   1      43.009  23.176  29.518  1.00  0.00     0.029 A 
ATOM     60  N   UNL A   1      44.927  24.039  28.885  1.00  0.00    -0.354 N 
ATOM     61  N   UNL A   1      46.313  27.727  30.479  1.00  0.00    -0.248 NA
ATOM     62  C   UNL A   1      46.853  27.602  28.214  1.00  0.00     0.031 C 
ATOM     63  C   UNL A   1      43.736  23.615  30.663  1.00  0.00     0.029 A 
ATOM     64  C   UNL A   1      44.805  24.386  30.206  1.00  0.00     0.049 A 
ATOM     65  H   UNL A   1      45.759  24.044  28.359  1.00  0.00     0.167 HD
ATOM     66  C   UNL A   1      46.245  26.401  30.093  1.00  0.00     0.074 A 
ATOM     67  C   UNL A   1      46.755  26.376  28.732  1.00  0.00     0.031 C 
ATOM     68  C   UNL A   1      45.511  25.497  30.804  1.00  0.00     0.037 A 
BRANCH  55  69
ATOM     69  C   UNL A   1      44.078  23.490  25.904  1.00  0.00     0.057 A 
ATOM     70  C   UNL A   1      43.852  22.160  25.504  1.00  0.00     0.134 A 
ATOM     71  C   UNL A   1      45.193  24.117  25.316  1.00  0.00     0.134 A 
ATOM     72  F   UNL A   1      42.848  21.445  26.033  1.00  0.00    -0.206 F 
ATOM     73  C   UNL A   1      44.689  21.498  24.597  1.00  0.00     0.040 A 
ATOM     74  C   UNL A   1      46.009  23.481  24.375  1.00  0.00     0.040 A 
ATOM     75  F   UNL A   1      45.593  25.338  25.696  1.00  0.00    -0.206 F 
ATOM     76  C   UNL A   1      45.770  22.159  24.026  1.00  0.00     0.006 A 
ENDBRANCH  55  69
BRANCH  56  77
ATOM     77  C   UNL A   1      46.895  30.865  28.736  1.00  0.00     0.057 A 
ATOM     78  C   UNL A   1      47.749  31.490  29.653  1.00  0.00     0.134 A 
ATOM     79  C   UNL A   1      47.142  31.128  27.377  1.00  0.00     0.134 A 
ATOM     80  F   UNL A   1      47.620  31.263  30.968  1.00  0.00    -0.206 F 
ATOM     81  C   UNL A   1      48.802  32.315  29.242  1.00  0.00     0.040 A 
ATOM     82  C   UNL A   1      48.181  31.959  26.953  1.00  0.00     0.040 A 
ATOM     83  F   UNL A   1      46.438  30.517  26.413  1.00  0.00    -0.206 F 
ATOM     84  C   UNL A   1      49.025  32.545  27.887  1.00  0.00     0.006 A 
ENDBRANCH  56  77
BRANCH  68  85
ATOM     85  C   UNL A   1      45.161  25.851  32.219  1.00  0.00     0.057 A 
ATOM     86  C   UNL A   1      44.013  26.566  32.581  1.00  0.00     0.134 A 
ATOM     87  C   UNL A   1      45.956  25.352  33.258  1.00  0.00     0.134 A 
ATOM     88  F   UNL A   1      43.143  26.992  31.654  1.00  0.00    -0.206 F 
ATOM     89  C   UNL A   1      43.699  26.822  33.918  1.00  0.00     0.040 A 
ATOM     90  C   UNL A   1      45.635  25.571  34.600  1.00  0.00     0.040 A 
ATOM     91  F   UNL A   1      47.037  24.604  32.986  1.00  0.00    -0.206 F 
ATOM     92  C   UNL A   1      44.510  26.321  34.934  1.00  0.00     0.006 A 
ENDBRANCH  68  85
ENDBRANCH  42  43
ENDBRANCH  34  37
ENDBRANCH  32  33
ENDBRANCH  31  32
ENDBRANCH  30  31
ENDBRANCH   1  30
TORSDOF 16
ENDMDL
