MODEL 1
REMARK VINA RESULT:     -13.9      0.000      0.000
REMARK SMILES Cc1coc2cc3c(cc12)[C@@H](C)[C@H](CCC(=O)N[C@@H](Cc1c[nH]c2ccccc12)C(=O)NCCCCCCNC(=O)c1ccc(-c2c4nc(c(-c5c(F)cccc5F)c5ccc([nH]5)c(-c5c(F)cccc5F)c5nc(c(-c6c(F)cccc6F)c6ccc2[nH]6)C=C5)C=C4)cc1)C(=O)O3
REMARK SMILES IDX 34 1 33 2 32 3 30 4 31 5 19 7 18 8 16 9 17 10 15 12 14 13
REMARK SMILES IDX 13 14 1 15 2 16 3 17 10 18 4 19 5 20 9 21 6 22 8 23 7 24
REMARK SMILES IDX 11 25 98 26 12 27 96 28 97 29 20 30 21 31 22 32 29 33 23 34
REMARK SMILES IDX 24 35 28 36 25 38 27 39 26 40 35 41 36 42 37 43 38 44 39 45
REMARK SMILES IDX 40 46 41 48 42 49 43 50 95 51 44 52 94 53 45 54 46 55 47 56
REMARK SMILES IDX 88 57 48 58 93 59 87 60 89 61 49 62 92 63 86 64 85 65 50 67
REMARK SMILES IDX 76 68 59 69 75 70 60 71 63 72 74 73 90 74 61 75 62 76 73 78
REMARK SMILES IDX 91 79 64 80 51 81 52 82 57 83 53 84 54 85 56 86 58 87 55 88
REMARK SMILES IDX 77 89 78 90 83 91 79 92 80 93 82 94 84 95 81 96 65 97 66 98
REMARK SMILES IDX 71 99 67 100 68 101 70 102 72 103 69 104
REMARK H PARENT 32 6 18 11 23 37 39 47 89 66 63 77
REMARK Flexibility Score: inf
ROOT
ATOM      1  C   UNL A   1      38.931  21.507  26.140  1.00  0.00     0.021 C 
ENDROOT
BRANCH   1   2
ATOM      2  C   UNL A   1      37.943  22.607  25.863  1.00  0.00     0.116 C 
BRANCH   2   3
ATOM      3  N   UNL A   1      37.788  22.985  24.494  1.00  0.00    -0.354 N 
ATOM      4  C   UNL A   1      36.623  22.888  23.782  1.00  0.00     0.242 C 
ATOM      5  O   UNL A   1      36.646  23.212  22.592  1.00  0.00    -0.273 OA
ATOM      6  H   UNL A   1      38.578  23.341  24.027  1.00  0.00     0.163 HD
BRANCH   4   7
ATOM      7  C   UNL A   1      35.317  22.362  24.461  1.00  0.00     0.175 C 
BRANCH   7   8
ATOM      8  N   UNL A   1      34.072  23.010  23.942  1.00  0.00    -0.344 N 
ATOM      9  C   UNL A   1      33.503  24.265  23.943  1.00  0.00     0.220 C 
ATOM     10  O   UNL A   1      32.385  24.330  23.411  1.00  0.00    -0.275 OA
ATOM     11  H   UNL A   1      33.501  22.361  23.469  1.00  0.00     0.164 HD
BRANCH   9  12
ATOM     12  C   UNL A   1      34.123  25.585  24.522  1.00  0.00     0.101 C 
BRANCH  12  13
ATOM     13  C   UNL A   1      33.404  27.021  24.314  1.00  0.00     0.026 C 
BRANCH  13  14
ATOM     14  C   UNL A   1      32.959  27.788  25.630  1.00  0.00     0.107 C 
ATOM     15  C   UNL A   1      28.266  32.694  23.153  1.00  0.00     0.048 C 
ATOM     16  C   UNL A   1      28.618  31.330  22.708  1.00  0.00    -0.005 A 
ATOM     17  C   UNL A   1      28.046  30.624  21.667  1.00  0.00     0.199 A 
ATOM     18  C   UNL A   1      29.582  30.456  23.294  1.00  0.00     0.024 A 
ATOM     19  O   UNL A   1      28.559  29.372  21.589  1.00  0.00    -0.464 OA
ATOM     20  C   UNL A   1      29.436  29.249  22.617  1.00  0.00     0.137 A 
ATOM     21  C   UNL A   1      30.540  30.534  24.334  1.00  0.00     0.020 A 
ATOM     22  C   UNL A   1      30.040  28.069  23.009  1.00  0.00     0.095 A 
ATOM     23  C   UNL A   1      31.172  29.353  24.735  1.00  0.00    -0.001 A 
ATOM     24  C   UNL A   1      30.712  28.162  24.214  1.00  0.00     0.138 A 
ATOM     25  C   UNL A   1      32.276  29.215  25.753  1.00  0.00     0.034 C 
ATOM     26  O   UNL A   1      30.827  27.032  25.063  1.00  0.00    -0.426 OA
ATOM     27  C   UNL A   1      31.618  29.403  27.156  1.00  0.00     0.014 C 
ATOM     28  C   UNL A   1      31.836  26.968  26.037  1.00  0.00     0.314 C 
ATOM     29  O   UNL A   1      31.863  26.255  27.043  1.00  0.00    -0.251 OA
ENDBRANCH  13  14
ENDBRANCH  12  13
ENDBRANCH   9  12
ENDBRANCH   7   8
BRANCH   7  30
ATOM     30  C   UNL A   1      35.435  20.787  24.660  1.00  0.00     0.072 C 
BRANCH  30  31
ATOM     31  C   UNL A   1      34.370  19.753  25.060  1.00  0.00    -0.020 A 
ATOM     32  C   UNL A   1      33.457  20.075  26.062  1.00  0.00     0.087 A 
ATOM     33  C   UNL A   1      34.032  18.396  24.679  1.00  0.00     0.003 A 
ATOM     34  N   UNL A   1      32.680  18.993  26.349  1.00  0.00    -0.361 N 
ATOM     35  C   UNL A   1      33.035  17.939  25.549  1.00  0.00     0.046 A 
ATOM     36  C   UNL A   1      34.517  17.448  23.751  1.00  0.00     0.010 A 
ATOM     37  H   UNL A   1      31.968  18.973  27.029  1.00  0.00     0.166 HD
ATOM     38  C   UNL A   1      32.560  16.617  25.564  1.00  0.00     0.026 A 
ATOM     39  C   UNL A   1      34.048  16.130  23.732  1.00  0.00     0.001 A 
ATOM     40  C   UNL A   1      33.095  15.715  24.646  1.00  0.00     0.002 A 
ENDBRANCH  30  31
ENDBRANCH   7  30
ENDBRANCH   4   7
ENDBRANCH   2   3
ENDBRANCH   1   2
BRANCH   1  41
ATOM     41  C   UNL A   1      40.325  22.018  26.453  1.00  0.00     0.002 C 
BRANCH  41  42
ATOM     42  C   UNL A   1      41.043  21.340  27.630  1.00  0.00     0.002 C 
BRANCH  42  43
ATOM     43  C   UNL A   1      42.088  20.269  27.288  1.00  0.00     0.021 C 
BRANCH  43  44
ATOM     44  C   UNL A   1      42.049  19.727  25.861  1.00  0.00     0.116 C 
BRANCH  44  45
ATOM     45  N   UNL A   1      43.300  19.874  25.153  1.00  0.00    -0.352 N 
ATOM     46  C   UNL A   1      44.235  20.853  25.027  1.00  0.00     0.251 C 
ATOM     47  H   UNL A   1      43.531  19.070  24.635  1.00  0.00     0.163 HD
ATOM     48  O   UNL A   1      45.180  20.609  24.274  1.00  0.00    -0.269 OA
BRANCH  46  49
ATOM     49  C   UNL A   1      44.158  22.186  25.670  1.00  0.00     0.039 A 
ATOM     50  C   UNL A   1      44.775  22.554  26.867  1.00  0.00     0.014 A 
ATOM     51  C   UNL A   1      43.367  23.131  24.994  1.00  0.00     0.014 A 
ATOM     52  C   UNL A   1      44.500  23.786  27.442  1.00  0.00     0.010 A 
ATOM     53  C   UNL A   1      43.120  24.375  25.542  1.00  0.00     0.010 A 
ATOM     54  C   UNL A   1      43.635  24.673  26.798  1.00  0.00    -0.014 A 
BRANCH  54  55
ATOM     55  C   UNL A   1      43.374  25.961  27.421  1.00  0.00     0.031 A 
ATOM     56  C   UNL A   1      44.373  27.016  27.094  1.00  0.00     0.074 A 
ATOM     57  C   UNL A   1      42.258  26.202  28.137  1.00  0.00     0.049 A 
ATOM     58  N   UNL A   1      45.150  27.650  27.909  1.00  0.00    -0.248 NA
ATOM     59  C   UNL A   1      44.639  27.304  25.674  1.00  0.00     0.031 C 
ATOM     60  C   UNL A   1      41.095  25.331  28.335  1.00  0.00     0.029 A 
ATOM     61  N   UNL A   1      41.885  27.343  28.775  1.00  0.00    -0.354 N 
ATOM     62  C   UNL A   1      45.874  28.552  27.132  1.00  0.00     0.074 A 
ATOM     63  C   UNL A   1      45.627  28.195  25.760  1.00  0.00     0.031 C 
ATOM     64  C   UNL A   1      40.068  26.059  28.826  1.00  0.00     0.029 A 
ATOM     65  C   UNL A   1      40.537  27.405  29.106  1.00  0.00     0.049 A 
ATOM     66  H   UNL A   1      42.520  28.068  28.984  1.00  0.00     0.167 HD
ATOM     67  C   UNL A   1      46.459  29.653  27.679  1.00  0.00     0.037 A 
ATOM     68  C   UNL A   1      39.861  28.509  29.512  1.00  0.00     0.037 A 
ATOM     69  C   UNL A   1      46.599  29.516  29.105  1.00  0.00     0.049 A 
ATOM     70  C   UNL A   1      40.868  29.479  30.015  1.00  0.00     0.074 A 
ATOM     71  C   UNL A   1      47.273  28.635  29.927  1.00  0.00     0.029 A 
ATOM     72  N   UNL A   1      45.679  30.148  29.905  1.00  0.00    -0.354 N 
ATOM     73  N   UNL A   1      41.562  29.292  31.104  1.00  0.00    -0.248 NA
ATOM     74  C   UNL A   1      41.451  30.404  29.052  1.00  0.00     0.031 C 
ATOM     75  C   UNL A   1      46.394  28.419  31.027  1.00  0.00     0.029 A 
ATOM     76  C   UNL A   1      45.277  29.236  30.847  1.00  0.00     0.049 A 
ATOM     77  H   UNL A   1      45.368  31.079  29.819  1.00  0.00     0.167 HD
ATOM     78  C   UNL A   1      42.842  29.717  30.782  1.00  0.00     0.074 A 
ATOM     79  C   UNL A   1      42.699  30.454  29.526  1.00  0.00     0.031 C 
ATOM     80  C   UNL A   1      43.942  29.184  31.392  1.00  0.00     0.037 A 
BRANCH  67  81
ATOM     81  C   UNL A   1      46.576  30.986  26.988  1.00  0.00     0.057 A 
ATOM     82  C   UNL A   1      47.819  31.644  26.963  1.00  0.00     0.134 A 
ATOM     83  C   UNL A   1      45.470  31.778  26.622  1.00  0.00     0.134 A 
ATOM     84  F   UNL A   1      48.947  31.001  27.304  1.00  0.00    -0.206 F 
ATOM     85  C   UNL A   1      47.940  33.009  26.672  1.00  0.00     0.040 A 
ATOM     86  C   UNL A   1      45.585  33.128  26.281  1.00  0.00     0.040 A 
ATOM     87  F   UNL A   1      44.213  31.321  26.673  1.00  0.00    -0.206 F 
ATOM     88  C   UNL A   1      46.818  33.757  26.337  1.00  0.00     0.006 A 
ENDBRANCH  67  81
BRANCH  68  89
ATOM     89  C   UNL A   1      38.469  28.903  29.183  1.00  0.00     0.057 A 
ATOM     90  C   UNL A   1      37.482  28.997  30.178  1.00  0.00     0.134 A 
ATOM     91  C   UNL A   1      38.132  29.460  27.936  1.00  0.00     0.134 A 
ATOM     92  F   UNL A   1      37.717  28.536  31.415  1.00  0.00    -0.206 F 
ATOM     93  C   UNL A   1      36.249  29.627  29.951  1.00  0.00     0.040 A 
ATOM     94  C   UNL A   1      36.904  30.084  27.695  1.00  0.00     0.040 A 
ATOM     95  F   UNL A   1      39.018  29.498  26.930  1.00  0.00    -0.206 F 
ATOM     96  C   UNL A   1      35.961  30.183  28.710  1.00  0.00     0.006 A 
ENDBRANCH  68  89
BRANCH  80  97
ATOM     97  C   UNL A   1      43.739  28.264  32.563  1.00  0.00     0.057 A 
ATOM     98  C   UNL A   1      43.674  26.866  32.458  1.00  0.00     0.134 A 
ATOM     99  C   UNL A   1      43.824  28.794  33.855  1.00  0.00     0.134 A 
ATOM    100  F   UNL A   1      43.693  26.259  31.264  1.00  0.00    -0.206 F 
ATOM    101  C   UNL A   1      43.666  26.038  33.584  1.00  0.00     0.040 A 
ATOM    102  C   UNL A   1      43.851  27.977  34.988  1.00  0.00     0.040 A 
ATOM    103  F   UNL A   1      43.949  30.119  34.033  1.00  0.00    -0.206 F 
ATOM    104  C   UNL A   1      43.766  26.594  34.855  1.00  0.00     0.006 A 
ENDBRANCH  80  97
ENDBRANCH  54  55
ENDBRANCH  46  49
ENDBRANCH  44  45
ENDBRANCH  43  44
ENDBRANCH  42  43
ENDBRANCH  41  42
ENDBRANCH   1  41
TORSDOF 19
ENDMDL
MODEL 2
REMARK VINA RESULT:     -13.8      1.705      2.395
REMARK SMILES Cc1coc2cc3c(cc12)[C@@H](C)[C@H](CCC(=O)N[C@@H](Cc1c[nH]c2ccccc12)C(=O)NCCCCCCNC(=O)c1ccc(-c2c4nc(c(-c5c(F)cccc5F)c5ccc([nH]5)c(-c5c(F)cccc5F)c5nc(c(-c6c(F)cccc6F)c6ccc2[nH]6)C=C5)C=C4)cc1)C(=O)O3
REMARK SMILES IDX 34 1 33 2 32 3 30 4 31 5 19 7 18 8 16 9 17 10 15 12 14 13
REMARK SMILES IDX 13 14 1 15 2 16 3 17 10 18 4 19 5 20 9 21 6 22 8 23 7 24
REMARK SMILES IDX 11 25 98 26 12 27 96 28 97 29 20 30 21 31 22 32 29 33 23 34
REMARK SMILES IDX 24 35 28 36 25 38 27 39 26 40 35 41 36 42 37 43 38 44 39 45
REMARK SMILES IDX 40 46 41 48 42 49 43 50 95 51 44 52 94 53 45 54 46 55 47 56
REMARK SMILES IDX 88 57 48 58 93 59 87 60 89 61 49 62 92 63 86 64 85 65 50 67
REMARK SMILES IDX 76 68 59 69 75 70 60 71 63 72 74 73 90 74 61 75 62 76 73 78
REMARK SMILES IDX 91 79 64 80 51 81 52 82 57 83 53 84 54 85 56 86 58 87 55 88
REMARK SMILES IDX 77 89 78 90 83 91 79 92 80 93 82 94 84 95 81 96 65 97 66 98
REMARK SMILES IDX 71 99 67 100 68 101 70 102 72 103 69 104
REMARK H PARENT 32 6 18 11 23 37 39 47 89 66 63 77
REMARK Flexibility Score: inf
ROOT
ATOM      1  C   UNL A   1      40.070  21.687  26.229  1.00  0.00     0.021 C 
ENDROOT
BRANCH   1   2
ATOM      2  C   UNL A   1      38.958  22.676  26.448  1.00  0.00     0.116 C 
BRANCH   2   3
ATOM      3  N   UNL A   1      38.223  23.063  25.286  1.00  0.00    -0.354 N 
ATOM      4  C   UNL A   1      37.050  22.490  24.874  1.00  0.00     0.242 C 
ATOM      5  O   UNL A   1      36.546  22.898  23.825  1.00  0.00    -0.273 OA
ATOM      6  H   UNL A   1      38.586  23.797  24.740  1.00  0.00     0.163 HD
BRANCH   4   7
ATOM      7  C   UNL A   1      36.392  21.341  25.704  1.00  0.00     0.175 C 
BRANCH   7   8
ATOM      8  N   UNL A   1      35.488  21.831  26.791  1.00  0.00    -0.344 N 
ATOM      9  C   UNL A   1      34.377  22.637  26.902  1.00  0.00     0.220 C 
ATOM     10  O   UNL A   1      33.973  22.811  28.062  1.00  0.00    -0.275 OA
ATOM     11  H   UNL A   1      35.764  21.481  27.670  1.00  0.00     0.164 HD
BRANCH   9  12
ATOM     12  C   UNL A   1      33.585  23.324  25.735  1.00  0.00     0.101 C 
BRANCH  12  13
ATOM     13  C   UNL A   1      32.900  24.780  25.918  1.00  0.00     0.026 C 
BRANCH  13  14
ATOM     14  C   UNL A   1      32.152  25.376  24.652  1.00  0.00     0.107 C 
ATOM     15  C   UNL A   1      31.164  32.306  26.446  1.00  0.00     0.048 C 
ATOM     16  C   UNL A   1      32.221  31.327  26.775  1.00  0.00    -0.005 A 
ATOM     17  C   UNL A   1      33.363  31.557  27.518  1.00  0.00     0.199 A 
ATOM     18  C   UNL A   1      32.294  29.966  26.351  1.00  0.00     0.024 A 
ATOM     19  O   UNL A   1      34.149  30.453  27.555  1.00  0.00    -0.464 OA
ATOM     20  C   UNL A   1      33.535  29.515  26.790  1.00  0.00     0.137 A 
ATOM     21  C   UNL A   1      31.470  29.072  25.625  1.00  0.00     0.020 A 
ATOM     22  C   UNL A   1      34.093  28.308  26.413  1.00  0.00     0.095 A 
ATOM     23  C   UNL A   1      32.013  27.840  25.247  1.00  0.00    -0.001 A 
ATOM     24  C   UNL A   1      33.360  27.632  25.456  1.00  0.00     0.138 A 
ATOM     25  C   UNL A   1      31.298  26.709  24.550  1.00  0.00     0.034 C 
ATOM     26  O   UNL A   1      34.006  26.786  24.520  1.00  0.00    -0.426 OA
ATOM     27  C   UNL A   1      31.111  27.145  23.063  1.00  0.00     0.014 C 
ATOM     28  C   UNL A   1      33.290  25.780  23.850  1.00  0.00     0.314 C 
ATOM     29  O   UNL A   1      33.598  25.214  22.798  1.00  0.00    -0.251 OA
ENDBRANCH  13  14
ENDBRANCH  12  13
ENDBRANCH   9  12
ENDBRANCH   7   8
BRANCH   7  30
ATOM     30  C   UNL A   1      35.971  20.164  24.716  1.00  0.00     0.072 C 
BRANCH  30  31
ATOM     31  C   UNL A   1      34.692  19.313  24.672  1.00  0.00    -0.020 A 
ATOM     32  C   UNL A   1      33.462  19.949  24.507  1.00  0.00     0.087 A 
ATOM     33  C   UNL A   1      34.363  17.907  24.799  1.00  0.00     0.003 A 
ATOM     34  N   UNL A   1      32.452  19.040  24.612  1.00  0.00    -0.361 N 
ATOM     35  C   UNL A   1      32.968  17.791  24.832  1.00  0.00     0.046 A 
ATOM     36  C   UNL A   1      35.084  16.707  24.986  1.00  0.00     0.010 A 
ATOM     37  H   UNL A   1      31.493  19.251  24.540  1.00  0.00     0.166 HD
ATOM     38  C   UNL A   1      32.293  16.585  25.086  1.00  0.00     0.026 A 
ATOM     39  C   UNL A   1      34.435  15.489  25.222  1.00  0.00     0.001 A 
ATOM     40  C   UNL A   1      33.054  15.435  25.293  1.00  0.00     0.002 A 
ENDBRANCH  30  31
ENDBRANCH   7  30
ENDBRANCH   4   7
ENDBRANCH   2   3
ENDBRANCH   1   2
BRANCH   1  41
ATOM     41  C   UNL A   1      40.769  21.277  27.513  1.00  0.00     0.002 C 
BRANCH  41  42
ATOM     42  C   UNL A   1      41.960  20.320  27.357  1.00  0.00     0.002 C 
BRANCH  42  43
ATOM     43  C   UNL A   1      41.978  19.423  26.111  1.00  0.00     0.021 C 
BRANCH  43  44
ATOM     44  C   UNL A   1      43.291  18.699  25.827  1.00  0.00     0.116 C 
BRANCH  44  45
ATOM     45  N   UNL A   1      43.931  19.124  24.603  1.00  0.00    -0.352 N 
ATOM     46  C   UNL A   1      44.464  20.285  24.138  1.00  0.00     0.251 C 
ATOM     47  H   UNL A   1      43.998  18.394  23.946  1.00  0.00     0.163 HD
ATOM     48  O   UNL A   1      44.898  20.261  22.984  1.00  0.00    -0.269 OA
BRANCH  46  49
ATOM     49  C   UNL A   1      44.496  21.562  24.888  1.00  0.00     0.039 A 
ATOM     50  C   UNL A   1      45.346  21.866  25.953  1.00  0.00     0.014 A 
ATOM     51  C   UNL A   1      43.557  22.523  24.473  1.00  0.00     0.014 A 
ATOM     52  C   UNL A   1      45.172  23.040  26.671  1.00  0.00     0.010 A 
ATOM     53  C   UNL A   1      43.404  23.713  25.159  1.00  0.00     0.010 A 
ATOM     54  C   UNL A   1      44.169  23.937  26.298  1.00  0.00    -0.014 A 
BRANCH  54  55
ATOM     55  C   UNL A   1      44.018  25.164  27.064  1.00  0.00     0.031 A 
ATOM     56  C   UNL A   1      45.102  26.162  26.847  1.00  0.00     0.074 A 
ATOM     57  C   UNL A   1      42.925  25.416  27.812  1.00  0.00     0.049 A 
ATOM     58  N   UNL A   1      45.929  26.633  27.721  1.00  0.00    -0.248 NA
ATOM     59  C   UNL A   1      45.392  26.584  25.466  1.00  0.00     0.031 C 
ATOM     60  C   UNL A   1      41.694  24.629  27.923  1.00  0.00     0.029 A 
ATOM     61  N   UNL A   1      42.651  26.506  28.578  1.00  0.00    -0.354 N 
ATOM     62  C   UNL A   1      46.727  27.553  27.042  1.00  0.00     0.074 A 
ATOM     63  C   UNL A   1      46.451  27.374  25.641  1.00  0.00     0.031 C 
ATOM     64  C   UNL A   1      40.732  25.381  28.502  1.00  0.00     0.029 A 
ATOM     65  C   UNL A   1      41.313  26.642  28.926  1.00  0.00     0.049 A 
ATOM     66  H   UNL A   1      43.344  27.146  28.861  1.00  0.00     0.167 HD
ATOM     67  C   UNL A   1      47.403  28.532  27.704  1.00  0.00     0.037 A 
ATOM     68  C   UNL A   1      40.732  27.746  29.459  1.00  0.00     0.037 A 
ATOM     69  C   UNL A   1      47.531  28.225  29.103  1.00  0.00     0.049 A 
ATOM     70  C   UNL A   1      41.817  28.566  30.058  1.00  0.00     0.074 A 
ATOM     71  C   UNL A   1      48.129  27.204  29.816  1.00  0.00     0.029 A 
ATOM     72  N   UNL A   1      46.667  28.838  29.978  1.00  0.00    -0.354 N 
ATOM     73  N   UNL A   1      42.493  28.200  31.113  1.00  0.00    -0.248 NA
ATOM     74  C   UNL A   1      42.476  29.542  29.199  1.00  0.00     0.031 C 
ATOM     75  C   UNL A   1      47.234  26.940  30.892  1.00  0.00     0.029 A 
ATOM     76  C   UNL A   1      46.190  27.863  30.816  1.00  0.00     0.049 A 
ATOM     77  H   UNL A   1      46.436  29.796  30.000  1.00  0.00     0.167 HD
ATOM     78  C   UNL A   1      43.805  28.550  30.828  1.00  0.00     0.074 A 
ATOM     79  C   UNL A   1      43.724  29.433  29.664  1.00  0.00     0.031 C 
ATOM     80  C   UNL A   1      44.856  27.862  31.364  1.00  0.00     0.037 A 
BRANCH  67  81
ATOM     81  C   UNL A   1      47.632  29.920  27.165  1.00  0.00     0.057 A 
ATOM     82  C   UNL A   1      48.924  30.474  27.210  1.00  0.00     0.134 A 
ATOM     83  C   UNL A   1      46.596  30.835  26.892  1.00  0.00     0.134 A 
ATOM     84  F   UNL A   1      49.994  29.708  27.474  1.00  0.00    -0.206 F 
ATOM     85  C   UNL A   1      49.157  31.848  27.072  1.00  0.00     0.040 A 
ATOM     86  C   UNL A   1      46.822  32.200  26.703  1.00  0.00     0.040 A 
ATOM     87  F   UNL A   1      45.306  30.479  26.896  1.00  0.00    -0.206 F 
ATOM     88  C   UNL A   1      48.101  32.717  26.826  1.00  0.00     0.006 A 
ENDBRANCH  67  81
BRANCH  68  89
ATOM     89  C   UNL A   1      39.378  28.290  29.191  1.00  0.00     0.057 A 
ATOM     90  C   UNL A   1      38.423  28.412  30.213  1.00  0.00     0.134 A 
ATOM     91  C   UNL A   1      39.073  28.956  27.989  1.00  0.00     0.134 A 
ATOM     92  F   UNL A   1      38.636  27.852  31.412  1.00  0.00    -0.206 F 
ATOM     93  C   UNL A   1      37.252  29.168  30.056  1.00  0.00     0.040 A 
ATOM     94  C   UNL A   1      37.906  29.707  27.817  1.00  0.00     0.040 A 
ATOM     95  F   UNL A   1      39.940  28.975  26.966  1.00  0.00    -0.206 F 
ATOM     96  C   UNL A   1      36.996  29.829  28.859  1.00  0.00     0.006 A 
ENDBRANCH  68  89
BRANCH  80  97
ATOM     97  C   UNL A   1      44.575  26.836  32.427  1.00  0.00     0.057 A 
ATOM     98  C   UNL A   1      44.366  25.474  32.164  1.00  0.00     0.134 A 
ATOM     99  C   UNL A   1      44.733  27.201  33.769  1.00  0.00     0.134 A 
ATOM    100  F   UNL A   1      44.305  25.011  30.909  1.00  0.00    -0.206 F 
ATOM    101  C   UNL A   1      44.289  24.525  33.187  1.00  0.00     0.040 A 
ATOM    102  C   UNL A   1      44.692  26.259  34.799  1.00  0.00     0.040 A 
ATOM    103  F   UNL A   1      44.996  28.476  34.094  1.00  0.00    -0.206 F 
ATOM    104  C   UNL A   1      44.464  24.916  34.511  1.00  0.00     0.006 A 
ENDBRANCH  80  97
ENDBRANCH  54  55
ENDBRANCH  46  49
ENDBRANCH  44  45
ENDBRANCH  43  44
ENDBRANCH  42  43
ENDBRANCH  41  42
ENDBRANCH   1  41
TORSDOF 19
ENDMDL
MODEL 3
REMARK VINA RESULT:     -12.8      2.531      9.038
REMARK SMILES Cc1coc2cc3c(cc12)[C@@H](C)[C@H](CCC(=O)N[C@@H](Cc1c[nH]c2ccccc12)C(=O)NCCCCCCNC(=O)c1ccc(-c2c4nc(c(-c5c(F)cccc5F)c5ccc([nH]5)c(-c5c(F)cccc5F)c5nc(c(-c6c(F)cccc6F)c6ccc2[nH]6)C=C5)C=C4)cc1)C(=O)O3
REMARK SMILES IDX 34 1 33 2 32 3 30 4 31 5 19 7 18 8 16 9 17 10 15 12 14 13
REMARK SMILES IDX 13 14 1 15 2 16 3 17 10 18 4 19 5 20 9 21 6 22 8 23 7 24
REMARK SMILES IDX 11 25 98 26 12 27 96 28 97 29 20 30 21 31 22 32 29 33 23 34
REMARK SMILES IDX 24 35 28 36 25 38 27 39 26 40 35 41 36 42 37 43 38 44 39 45
REMARK SMILES IDX 40 46 41 48 42 49 43 50 95 51 44 52 94 53 45 54 46 55 47 56
REMARK SMILES IDX 88 57 48 58 93 59 87 60 89 61 49 62 92 63 86 64 85 65 50 67
REMARK SMILES IDX 76 68 59 69 75 70 60 71 63 72 74 73 90 74 61 75 62 76 73 78
REMARK SMILES IDX 91 79 64 80 51 81 52 82 57 83 53 84 54 85 56 86 58 87 55 88
REMARK SMILES IDX 77 89 78 90 83 91 79 92 80 93 82 94 84 95 81 96 65 97 66 98
REMARK SMILES IDX 71 99 67 100 68 101 70 102 72 103 69 104
REMARK H PARENT 32 6 18 11 23 37 39 47 89 66 63 77
REMARK Flexibility Score: inf
ROOT
ATOM      1  C   UNL A   1      33.166  27.519  26.053  1.00  0.00     0.021 C 
ENDROOT
BRANCH   1   2
ATOM      2  C   UNL A   1      32.835  26.066  26.258  1.00  0.00     0.116 C 
BRANCH   2   3
ATOM      3  N   UNL A   1      31.513  25.781  26.720  1.00  0.00    -0.354 N 
ATOM      4  C   UNL A   1      30.395  25.761  25.930  1.00  0.00     0.242 C 
ATOM      5  O   UNL A   1      29.309  25.541  26.473  1.00  0.00    -0.273 OA
ATOM      6  H   UNL A   1      31.397  25.584  27.677  1.00  0.00     0.163 HD
BRANCH   4   7
ATOM      7  C   UNL A   1      30.500  26.031  24.394  1.00  0.00     0.175 C 
BRANCH   7   8
ATOM      8  N   UNL A   1      30.741  24.795  23.586  1.00  0.00    -0.344 N 
ATOM      9  C   UNL A   1      31.796  24.200  22.930  1.00  0.00     0.220 C 
ATOM     10  O   UNL A   1      31.510  23.157  22.323  1.00  0.00    -0.275 OA
ATOM     11  H   UNL A   1      29.919  24.259  23.498  1.00  0.00     0.164 HD
BRANCH   9  12
ATOM     12  C   UNL A   1      33.285  24.691  22.890  1.00  0.00     0.101 C 
BRANCH  12  13
ATOM     13  C   UNL A   1      34.464  23.886  23.655  1.00  0.00     0.026 C 
BRANCH  13  14
ATOM     14  C   UNL A   1      34.137  22.396  24.091  1.00  0.00     0.107 C 
ATOM     15  C   UNL A   1      40.553  19.887  26.275  1.00  0.00     0.048 C 
ATOM     16  C   UNL A   1      39.940  21.231  26.305  1.00  0.00    -0.005 A 
ATOM     17  C   UNL A   1      40.487  22.380  26.843  1.00  0.00     0.199 A 
ATOM     18  C   UNL A   1      38.645  21.596  25.828  1.00  0.00     0.024 A 
ATOM     19  O   UNL A   1      39.615  23.415  26.765  1.00  0.00    -0.464 OA
ATOM     20  C   UNL A   1      38.476  22.922  26.216  1.00  0.00     0.137 A 
ATOM     21  C   UNL A   1      37.585  20.955  25.142  1.00  0.00     0.020 A 
ATOM     22  C   UNL A   1      37.276  23.602  26.131  1.00  0.00     0.095 A 
ATOM     23  C   UNL A   1      36.368  21.633  25.033  1.00  0.00    -0.001 A 
ATOM     24  C   UNL A   1      36.214  22.809  25.737  1.00  0.00     0.138 A 
ATOM     25  C   UNL A   1      35.143  21.182  24.278  1.00  0.00     0.034 C 
ATOM     26  O   UNL A   1      34.899  23.094  26.182  1.00  0.00    -0.426 OA
ATOM     27  C   UNL A   1      34.493  20.039  25.118  1.00  0.00     0.014 C 
ATOM     28  C   UNL A   1      33.784  22.608  25.481  1.00  0.00     0.314 C 
ATOM     29  O   UNL A   1      32.633  22.470  25.903  1.00  0.00    -0.251 OA
ENDBRANCH  13  14
ENDBRANCH  12  13
ENDBRANCH   9  12
ENDBRANCH   7   8
BRANCH   7  30
ATOM     30  C   UNL A   1      29.410  27.116  23.983  1.00  0.00     0.072 C 
BRANCH  30  31
ATOM     31  C   UNL A   1      29.548  28.395  23.142  1.00  0.00    -0.020 A 
ATOM     32  C   UNL A   1      30.637  28.524  22.282  1.00  0.00     0.087 A 
ATOM     33  C   UNL A   1      28.819  29.640  23.000  1.00  0.00     0.003 A 
ATOM     34  N   UNL A   1      30.641  29.767  21.721  1.00  0.00    -0.361 N 
ATOM     35  C   UNL A   1      29.567  30.486  22.173  1.00  0.00     0.046 A 
ATOM     36  C   UNL A   1      27.645  30.200  23.550  1.00  0.00     0.010 A 
ATOM     37  H   UNL A   1      31.317  30.097  21.086  1.00  0.00     0.166 HD
ATOM     38  C   UNL A   1      29.232  31.828  21.925  1.00  0.00     0.026 A 
ATOM     39  C   UNL A   1      27.279  31.529  23.305  1.00  0.00     0.001 A 
ATOM     40  C   UNL A   1      28.079  32.339  22.518  1.00  0.00     0.002 A 
ENDBRANCH  30  31
ENDBRANCH   7  30
ENDBRANCH   4   7
ENDBRANCH   2   3
ENDBRANCH   1   2
BRANCH   1  41
ATOM     41  C   UNL A   1      32.892  28.375  27.277  1.00  0.00     0.002 C 
BRANCH  41  42
ATOM     42  C   UNL A   1      32.941  29.895  27.062  1.00  0.00     0.002 C 
BRANCH  42  43
ATOM     43  C   UNL A   1      34.300  30.584  27.246  1.00  0.00     0.021 C 
BRANCH  43  44
ATOM     44  C   UNL A   1      35.402  29.734  27.875  1.00  0.00     0.116 C 
BRANCH  44  45
ATOM     45  N   UNL A   1      35.489  29.872  29.310  1.00  0.00    -0.352 N 
ATOM     46  C   UNL A   1      36.451  29.673  30.249  1.00  0.00     0.251 C 
ATOM     47  H   UNL A   1      34.644  30.188  29.705  1.00  0.00     0.163 HD
ATOM     48  O   UNL A   1      36.120  29.870  31.420  1.00  0.00    -0.269 OA
BRANCH  46  49
ATOM     49  C   UNL A   1      37.821  29.183  29.966  1.00  0.00     0.039 A 
ATOM     50  C   UNL A   1      38.432  28.073  30.554  1.00  0.00     0.014 A 
ATOM     51  C   UNL A   1      38.546  29.941  29.030  1.00  0.00     0.014 A 
ATOM     52  C   UNL A   1      39.773  27.810  30.318  1.00  0.00     0.010 A 
ATOM     53  C   UNL A   1      39.872  29.660  28.760  1.00  0.00     0.010 A 
ATOM     54  C   UNL A   1      40.499  28.635  29.457  1.00  0.00    -0.014 A 
BRANCH  54  55
ATOM     55  C   UNL A   1      41.901  28.326  29.222  1.00  0.00     0.031 A 
ATOM     56  C   UNL A   1      42.134  27.088  28.428  1.00  0.00     0.074 A 
ATOM     57  C   UNL A   1      42.894  29.158  29.593  1.00  0.00     0.049 A 
ATOM     58  N   UNL A   1      42.760  26.019  28.795  1.00  0.00    -0.248 NA
ATOM     59  C   UNL A   1      41.471  26.968  27.118  1.00  0.00     0.031 C 
ATOM     60  C   UNL A   1      42.790  30.504  30.165  1.00  0.00     0.029 A 
ATOM     61  N   UNL A   1      44.236  29.001  29.445  1.00  0.00    -0.354 N 
ATOM     62  C   UNL A   1      42.735  25.159  27.698  1.00  0.00     0.074 A 
ATOM     63  C   UNL A   1      41.811  25.731  26.755  1.00  0.00     0.031 C 
ATOM     64  C   UNL A   1      43.990  31.119  30.083  1.00  0.00     0.029 A 
ATOM     65  C   UNL A   1      44.972  30.172  29.586  1.00  0.00     0.049 A 
ATOM     66  H   UNL A   1      44.653  28.129  29.253  1.00  0.00     0.167 HD
ATOM     67  C   UNL A   1      43.637  24.147  27.567  1.00  0.00     0.037 A 
ATOM     68  C   UNL A   1      46.274  30.346  29.246  1.00  0.00     0.037 A 
ATOM     69  C   UNL A   1      44.262  23.838  28.825  1.00  0.00     0.049 A 
ATOM     70  C   UNL A   1      46.894  28.998  29.183  1.00  0.00     0.074 A 
ATOM     71  C   UNL A   1      43.800  23.391  30.048  1.00  0.00     0.029 A 
ATOM     72  N   UNL A   1      45.519  24.339  29.059  1.00  0.00    -0.354 N 
ATOM     73  N   UNL A   1      47.089  28.248  30.233  1.00  0.00    -0.248 NA
ATOM     74  C   UNL A   1      46.838  28.290  27.910  1.00  0.00     0.031 C 
ATOM     75  C   UNL A   1      44.572  24.104  31.010  1.00  0.00     0.029 A 
ATOM     76  C   UNL A   1      45.505  24.878  30.320  1.00  0.00     0.049 A 
ATOM     77  H   UNL A   1      46.285  24.315  28.440  1.00  0.00     0.167 HD
ATOM     78  C   UNL A   1      46.747  26.969  29.820  1.00  0.00     0.074 A 
ATOM     79  C   UNL A   1      46.664  27.044  28.361  1.00  0.00     0.031 C 
ATOM     80  C   UNL A   1      46.268  26.042  30.701  1.00  0.00     0.037 A 
BRANCH  67  81
ATOM     81  C   UNL A   1      44.210  23.684  26.254  1.00  0.00     0.057 A 
ATOM     82  C   UNL A   1      44.202  22.312  25.941  1.00  0.00     0.134 A 
ATOM     83  C   UNL A   1      45.034  24.481  25.434  1.00  0.00     0.134 A 
ATOM     84  F   UNL A   1      43.467  21.447  26.658  1.00  0.00    -0.206 F 
ATOM     85  C   UNL A   1      45.013  21.766  24.940  1.00  0.00     0.040 A 
ATOM     86  C   UNL A   1      45.810  23.953  24.400  1.00  0.00     0.040 A 
ATOM     87  F   UNL A   1      45.212  25.789  25.653  1.00  0.00    -0.206 F 
ATOM     88  C   UNL A   1      45.828  22.587  24.170  1.00  0.00     0.006 A 
ENDBRANCH  67  81
BRANCH  68  89
ATOM     89  C   UNL A   1      46.913  31.547  28.653  1.00  0.00     0.057 A 
ATOM     90  C   UNL A   1      48.127  32.047  29.149  1.00  0.00     0.134 A 
ATOM     91  C   UNL A   1      46.496  32.073  27.417  1.00  0.00     0.134 A 
ATOM     92  F   UNL A   1      48.637  31.581  30.298  1.00  0.00    -0.206 F 
ATOM     93  C   UNL A   1      48.889  32.994  28.447  1.00  0.00     0.040 A 
ATOM     94  C   UNL A   1      47.242  33.022  26.710  1.00  0.00     0.040 A 
ATOM     95  F   UNL A   1      45.392  31.620  26.806  1.00  0.00    -0.206 F 
ATOM     96  C   UNL A   1      48.453  33.476  27.217  1.00  0.00     0.006 A 
ENDBRANCH  68  89
BRANCH  80  97
ATOM     97  C   UNL A   1      46.298  26.364  32.170  1.00  0.00     0.057 A 
ATOM     98  C   UNL A   1      45.224  26.939  32.867  1.00  0.00     0.134 A 
ATOM     99  C   UNL A   1      47.363  25.884  32.939  1.00  0.00     0.134 A 
ATOM    100  F   UNL A   1      44.115  27.335  32.229  1.00  0.00    -0.206 F 
ATOM    101  C   UNL A   1      45.224  27.056  34.260  1.00  0.00     0.040 A 
ATOM    102  C   UNL A   1      47.361  25.963  34.334  1.00  0.00     0.040 A 
ATOM    103  F   UNL A   1      48.398  25.267  32.348  1.00  0.00    -0.206 F 
ATOM    104  C   UNL A   1      46.291  26.556  34.999  1.00  0.00     0.006 A 
ENDBRANCH  80  97
ENDBRANCH  54  55
ENDBRANCH  46  49
ENDBRANCH  44  45
ENDBRANCH  43  44
ENDBRANCH  42  43
ENDBRANCH  41  42
ENDBRANCH   1  41
TORSDOF 19
ENDMDL
