MODEL 1
REMARK VINA RESULT:     -11.4      0.000      0.000
REMARK SMILES Cc1ccccc1-c1nc(CC(=O)NCCCCCCNC(=O)c2ccc(-c3c4nc(c(-c5c(F)cccc5F)c5ccc([nH]5)c(-c5c(F)cccc5F)c5nc(c(-c6c(F)cccc6F)c6ccc3[nH]6)C=C5)C=C4)cc2)cs1
REMARK SMILES IDX 17 1 16 2 15 3 14 4 12 5 13 6 11 8 10 9 8 10 9 11 79 12
REMARK SMILES IDX 78 13 7 14 1 15 2 16 3 17 4 18 6 19 5 20 18 21 19 22 20 23
REMARK SMILES IDX 21 24 22 25 23 27 24 28 25 29 77 30 26 31 76 32 27 33 28 34
REMARK SMILES IDX 29 35 70 36 30 37 75 38 69 39 71 40 31 41 74 42 68 43 67 44
REMARK SMILES IDX 32 46 58 47 41 48 57 49 42 50 45 51 56 52 72 53 43 54 44 55
REMARK SMILES IDX 55 57 73 58 46 59 33 60 34 61 39 62 35 63 36 64 38 65 40 66
REMARK SMILES IDX 37 67 59 68 60 69 65 70 61 71 62 72 64 73 66 74 63 75 47 76
REMARK SMILES IDX 48 77 53 78 49 79 50 80 52 81 54 82 51 83
REMARK H PARENT 14 7 21 26 71 45 45 56
REMARK Flexibility Score: inf
ROOT
ATOM      1  C   UNL A   1      32.664  27.816  26.520  1.00  0.00     0.002 C 
ENDROOT
BRANCH   1   2
ATOM      2  C   UNL A   1      31.566  27.921  25.450  1.00  0.00     0.021 C 
BRANCH   2   3
ATOM      3  C   UNL A   1      30.755  26.643  25.221  1.00  0.00     0.116 C 
BRANCH   3   4
ATOM      4  N   UNL A   1      30.846  25.737  26.350  1.00  0.00    -0.356 N 
ATOM      5  C   UNL A   1      30.751  24.375  26.362  1.00  0.00     0.226 C 
ATOM      6  O   UNL A   1      30.796  23.795  27.450  1.00  0.00    -0.275 OA
ATOM      7  H   UNL A   1      30.998  26.161  27.225  1.00  0.00     0.163 HD
BRANCH   5   8
ATOM      8  C   UNL A   1      30.637  23.601  25.064  1.00  0.00     0.157 C 
BRANCH   8   9
ATOM      9  C   UNL A   1      31.940  23.497  24.345  1.00  0.00     0.061 A 
ATOM     10  C   UNL A   1      34.133  23.127  24.308  1.00  0.00     0.123 A 
ATOM     11  N   UNL A   1      33.064  23.140  25.078  1.00  0.00    -0.241 NA
ATOM     12  S   UNL A   1      33.840  23.503  22.654  1.00  0.00    -0.122 S 
ATOM     13  C   UNL A   1      32.176  23.717  23.002  1.00  0.00     0.091 A 
BRANCH  10  14
ATOM     14  C   UNL A   1      35.488  22.811  24.776  1.00  0.00     0.013 A 
ATOM     15  C   UNL A   1      35.011  20.288  24.802  1.00  0.00     0.045 C 
ATOM     16  C   UNL A   1      35.900  21.483  25.022  1.00  0.00    -0.041 A 
ATOM     17  C   UNL A   1      37.192  21.248  25.528  1.00  0.00     0.004 A 
ATOM     18  C   UNL A   1      38.070  22.303  25.774  1.00  0.00     0.000 A 
ATOM     19  C   UNL A   1      36.389  23.862  25.033  1.00  0.00     0.011 A 
ATOM     20  C   UNL A   1      37.670  23.611  25.525  1.00  0.00     0.001 A 
ENDBRANCH  10  14
ENDBRANCH   8   9
ENDBRANCH   5   8
ENDBRANCH   3   4
ENDBRANCH   2   3
ENDBRANCH   1   2
BRANCH   1  21
ATOM     21  C   UNL A   1      33.974  28.569  26.238  1.00  0.00     0.002 C 
BRANCH  21  22
ATOM     22  C   UNL A   1      33.943  30.079  26.477  1.00  0.00     0.021 C 
BRANCH  22  23
ATOM     23  C   UNL A   1      33.590  30.485  27.902  1.00  0.00     0.116 C 
BRANCH  23  24
ATOM     24  N   UNL A   1      34.426  31.550  28.438  1.00  0.00    -0.352 N 
ATOM     25  C   UNL A   1      35.723  31.512  28.932  1.00  0.00     0.251 C 
ATOM     26  H   UNL A   1      34.003  32.439  28.453  1.00  0.00     0.163 HD
ATOM     27  O   UNL A   1      36.226  32.516  29.386  1.00  0.00    -0.269 OA
BRANCH  25  28
ATOM     28  C   UNL A   1      36.541  30.278  28.761  1.00  0.00     0.039 A 
ATOM     29  C   UNL A   1      36.657  29.431  29.873  1.00  0.00     0.014 A 
ATOM     30  C   UNL A   1      37.336  30.065  27.642  1.00  0.00     0.014 A 
ATOM     31  C   UNL A   1      37.747  28.572  29.966  1.00  0.00     0.010 A 
ATOM     32  C   UNL A   1      38.469  29.287  27.768  1.00  0.00     0.010 A 
ATOM     33  C   UNL A   1      38.715  28.612  28.967  1.00  0.00    -0.014 A 
BRANCH  33  34
ATOM     34  C   UNL A   1      40.081  28.148  29.168  1.00  0.00     0.031 A 
ATOM     35  C   UNL A   1      40.510  26.814  28.710  1.00  0.00     0.074 A 
ATOM     36  C   UNL A   1      40.986  29.018  29.673  1.00  0.00     0.049 A 
ATOM     37  N   UNL A   1      41.594  26.236  29.104  1.00  0.00    -0.248 NA
ATOM     38  C   UNL A   1      39.705  25.975  27.828  1.00  0.00     0.031 C 
ATOM     39  C   UNL A   1      42.441  28.913  29.637  1.00  0.00     0.029 A 
ATOM     40  N   UNL A   1      40.737  30.099  30.532  1.00  0.00    -0.354 N 
ATOM     41  C   UNL A   1      41.793  25.138  28.302  1.00  0.00     0.074 A 
ATOM     42  C   UNL A   1      40.524  24.932  27.653  1.00  0.00     0.031 C 
ATOM     43  C   UNL A   1      42.956  29.672  30.617  1.00  0.00     0.029 A 
ATOM     44  C   UNL A   1      41.840  30.157  31.410  1.00  0.00     0.049 A 
ATOM     45  H   UNL A   1      39.953  30.695  30.524  1.00  0.00     0.167 HD
ATOM     46  C   UNL A   1      43.060  24.651  28.173  1.00  0.00     0.037 A 
ATOM     47  C   UNL A   1      41.696  29.951  32.752  1.00  0.00     0.037 A 
ATOM     48  C   UNL A   1      43.938  25.207  29.208  1.00  0.00     0.049 A 
ATOM     49  C   UNL A   1      42.508  28.798  33.291  1.00  0.00     0.074 A 
ATOM     50  C   UNL A   1      44.965  26.136  29.189  1.00  0.00     0.029 A 
ATOM     51  N   UNL A   1      43.636  24.983  30.550  1.00  0.00    -0.354 N 
ATOM     52  N   UNL A   1      43.015  27.855  32.546  1.00  0.00    -0.248 NA
ATOM     53  C   UNL A   1      42.789  28.595  34.711  1.00  0.00     0.031 C 
ATOM     54  C   UNL A   1      45.218  26.534  30.530  1.00  0.00     0.029 A 
ATOM     55  C   UNL A   1      44.374  25.820  31.363  1.00  0.00     0.049 A 
ATOM     56  H   UNL A   1      42.985  24.320  30.874  1.00  0.00     0.167 HD
ATOM     57  C   UNL A   1      43.636  26.924  33.338  1.00  0.00     0.074 A 
ATOM     58  C   UNL A   1      43.491  27.448  34.684  1.00  0.00     0.031 C 
ATOM     59  C   UNL A   1      44.199  25.797  32.811  1.00  0.00     0.037 A 
BRANCH  46  60
ATOM     60  C   UNL A   1      43.587  23.864  26.979  1.00  0.00     0.057 A 
ATOM     61  C   UNL A   1      44.179  24.544  25.892  1.00  0.00     0.134 A 
ATOM     62  C   UNL A   1      43.428  22.480  26.757  1.00  0.00     0.134 A 
ATOM     63  F   UNL A   1      44.429  25.860  25.939  1.00  0.00    -0.206 F 
ATOM     64  C   UNL A   1      44.529  23.914  24.686  1.00  0.00     0.040 A 
ATOM     65  C   UNL A   1      43.809  21.834  25.572  1.00  0.00     0.040 A 
ATOM     66  F   UNL A   1      42.859  21.663  27.644  1.00  0.00    -0.206 F 
ATOM     67  C   UNL A   1      44.344  22.552  24.520  1.00  0.00     0.006 A 
ENDBRANCH  46  60
BRANCH  47  68
ATOM     68  C   UNL A   1      40.377  30.384  33.278  1.00  0.00     0.057 A 
ATOM     69  C   UNL A   1      40.158  31.755  33.503  1.00  0.00     0.134 A 
ATOM     70  C   UNL A   1      39.248  29.563  33.203  1.00  0.00     0.134 A 
ATOM     71  F   UNL A   1      41.202  32.597  33.584  1.00  0.00    -0.206 F 
ATOM     72  C   UNL A   1      38.875  32.303  33.539  1.00  0.00     0.040 A 
ATOM     73  C   UNL A   1      37.955  30.100  33.249  1.00  0.00     0.040 A 
ATOM     74  F   UNL A   1      39.373  28.250  32.965  1.00  0.00    -0.206 F 
ATOM     75  C   UNL A   1      37.767  31.477  33.378  1.00  0.00     0.006 A 
ENDBRANCH  47  68
BRANCH  59  76
ATOM     76  C   UNL A   1      44.699  24.603  33.592  1.00  0.00     0.057 A 
ATOM     77  C   UNL A   1      46.050  24.245  33.721  1.00  0.00     0.134 A 
ATOM     78  C   UNL A   1      43.806  23.843  34.381  1.00  0.00     0.134 A 
ATOM     79  F   UNL A   1      47.023  24.946  33.125  1.00  0.00    -0.206 F 
ATOM     80  C   UNL A   1      46.474  23.177  34.525  1.00  0.00     0.040 A 
ATOM     81  C   UNL A   1      44.224  22.811  35.228  1.00  0.00     0.040 A 
ATOM     82  F   UNL A   1      42.487  24.085  34.384  1.00  0.00    -0.206 F 
ATOM     83  C   UNL A   1      45.562  22.463  35.292  1.00  0.00     0.006 A 
ENDBRANCH  59  76
ENDBRANCH  33  34
ENDBRANCH  25  28
ENDBRANCH  23  24
ENDBRANCH  22  23
ENDBRANCH  21  22
ENDBRANCH   1  21
TORSDOF 15
ENDMDL
MODEL 2
REMARK VINA RESULT:     -11.2      2.756      5.056
REMARK SMILES Cc1ccccc1-c1nc(CC(=O)NCCCCCCNC(=O)c2ccc(-c3c4nc(c(-c5c(F)cccc5F)c5ccc([nH]5)c(-c5c(F)cccc5F)c5nc(c(-c6c(F)cccc6F)c6ccc3[nH]6)C=C5)C=C4)cc2)cs1
REMARK SMILES IDX 17 1 16 2 15 3 14 4 12 5 13 6 11 8 10 9 8 10 9 11 79 12
REMARK SMILES IDX 78 13 7 14 1 15 2 16 3 17 4 18 6 19 5 20 18 21 19 22 20 23
REMARK SMILES IDX 21 24 22 25 23 27 24 28 25 29 77 30 26 31 76 32 27 33 28 34
REMARK SMILES IDX 29 35 70 36 30 37 75 38 69 39 71 40 31 41 74 42 68 43 67 44
REMARK SMILES IDX 32 46 58 47 41 48 57 49 42 50 45 51 56 52 72 53 43 54 44 55
REMARK SMILES IDX 55 57 73 58 46 59 33 60 34 61 39 62 35 63 36 64 38 65 40 66
REMARK SMILES IDX 37 67 59 68 60 69 65 70 61 71 62 72 64 73 66 74 63 75 47 76
REMARK SMILES IDX 48 77 53 78 49 79 50 80 52 81 54 82 51 83
REMARK H PARENT 14 7 21 26 71 45 45 56
REMARK Flexibility Score: inf
ROOT
ATOM      1  C   UNL A   1      33.963  28.174  26.262  1.00  0.00     0.002 C 
ENDROOT
BRANCH   1   2
ATOM      2  C   UNL A   1      33.076  26.936  26.056  1.00  0.00     0.021 C 
BRANCH   2   3
ATOM      3  C   UNL A   1      33.657  25.865  25.130  1.00  0.00     0.116 C 
BRANCH   3   4
ATOM      4  N   UNL A   1      34.013  26.409  23.833  1.00  0.00    -0.356 N 
ATOM      5  C   UNL A   1      33.470  26.130  22.611  1.00  0.00     0.226 C 
ATOM      6  O   UNL A   1      33.966  26.663  21.616  1.00  0.00    -0.275 OA
ATOM      7  H   UNL A   1      34.744  27.068  23.833  1.00  0.00     0.163 HD
BRANCH   5   8
ATOM      8  C   UNL A   1      32.262  25.224  22.497  1.00  0.00     0.157 C 
BRANCH   8   9
ATOM      9  C   UNL A   1      31.010  25.874  22.983  1.00  0.00     0.061 A 
ATOM     10  C   UNL A   1      29.704  27.655  23.247  1.00  0.00     0.123 A 
ATOM     11  N   UNL A   1      30.835  27.228  22.725  1.00  0.00    -0.241 NA
ATOM     12  S   UNL A   1      28.769  26.448  24.041  1.00  0.00    -0.122 S 
ATOM     13  C   UNL A   1      29.973  25.283  23.677  1.00  0.00     0.091 A 
BRANCH  10  14
ATOM     14  C   UNL A   1      29.228  29.042  23.172  1.00  0.00     0.013 A 
ATOM     15  C   UNL A   1      31.064  29.875  24.763  1.00  0.00     0.045 C 
ATOM     16  C   UNL A   1      29.854  30.083  23.891  1.00  0.00    -0.041 A 
ATOM     17  C   UNL A   1      29.314  31.381  23.827  1.00  0.00     0.004 A 
ATOM     18  C   UNL A   1      28.186  31.653  23.055  1.00  0.00     0.000 A 
ATOM     19  C   UNL A   1      28.088  29.336  22.399  1.00  0.00     0.011 A 
ATOM     20  C   UNL A   1      27.572  30.632  22.339  1.00  0.00     0.001 A 
ENDBRANCH  10  14
ENDBRANCH   8   9
ENDBRANCH   5   8
ENDBRANCH   3   4
ENDBRANCH   2   3
ENDBRANCH   1   2
BRANCH   1  21
ATOM     21  C   UNL A   1      33.667  29.034  27.501  1.00  0.00     0.002 C 
BRANCH  21  22
ATOM     22  C   UNL A   1      34.850  29.819  28.070  1.00  0.00     0.021 C 
BRANCH  22  23
ATOM     23  C   UNL A   1      35.067  31.184  27.429  1.00  0.00     0.116 C 
BRANCH  23  24
ATOM     24  N   UNL A   1      34.178  32.222  27.932  1.00  0.00    -0.352 N 
ATOM     25  C   UNL A   1      34.304  33.053  29.037  1.00  0.00     0.251 C 
ATOM     26  H   UNL A   1      33.358  32.355  27.403  1.00  0.00     0.163 HD
ATOM     27  O   UNL A   1      33.414  33.827  29.314  1.00  0.00    -0.269 OA
BRANCH  25  28
ATOM     28  C   UNL A   1      35.592  33.099  29.783  1.00  0.00     0.039 A 
ATOM     29  C   UNL A   1      36.665  33.757  29.164  1.00  0.00     0.014 A 
ATOM     30  C   UNL A   1      35.809  32.348  30.933  1.00  0.00     0.014 A 
ATOM     31  C   UNL A   1      37.968  33.432  29.529  1.00  0.00     0.010 A 
ATOM     32  C   UNL A   1      37.096  31.950  31.235  1.00  0.00     0.010 A 
ATOM     33  C   UNL A   1      38.165  32.427  30.471  1.00  0.00    -0.014 A 
BRANCH  33  34
ATOM     34  C   UNL A   1      39.411  31.681  30.585  1.00  0.00     0.031 A 
ATOM     35  C   UNL A   1      39.605  30.404  29.874  1.00  0.00     0.074 A 
ATOM     36  C   UNL A   1      40.438  32.247  31.260  1.00  0.00     0.049 A 
ATOM     37  N   UNL A   1      40.545  29.565  30.153  1.00  0.00    -0.248 NA
ATOM     38  C   UNL A   1      38.699  29.921  28.837  1.00  0.00     0.031 C 
ATOM     39  C   UNL A   1      41.848  31.876  31.213  1.00  0.00     0.029 A 
ATOM     40  N   UNL A   1      40.356  33.169  32.314  1.00  0.00    -0.354 N 
ATOM     41  C   UNL A   1      40.572  28.626  29.150  1.00  0.00     0.074 A 
ATOM     42  C   UNL A   1      39.318  28.795  28.464  1.00  0.00     0.031 C 
ATOM     43  C   UNL A   1      42.451  32.319  32.328  1.00  0.00     0.029 A 
ATOM     44  C   UNL A   1      41.410  32.844  33.194  1.00  0.00     0.049 A 
ATOM     45  H   UNL A   1      39.697  33.893  32.420  1.00  0.00     0.167 HD
ATOM     46  C   UNL A   1      41.732  27.941  28.936  1.00  0.00     0.037 A 
ATOM     47  C   UNL A   1      41.171  32.414  34.467  1.00  0.00     0.037 A 
ATOM     48  C   UNL A   1      42.650  28.108  30.067  1.00  0.00     0.049 A 
ATOM     49  C   UNL A   1      41.730  31.044  34.772  1.00  0.00     0.074 A 
ATOM     50  C   UNL A   1      43.831  28.810  30.240  1.00  0.00     0.029 A 
ATOM     51  N   UNL A   1      42.252  27.690  31.336  1.00  0.00    -0.354 N 
ATOM     52  N   UNL A   1      42.086  30.185  33.858  1.00  0.00    -0.248 NA
ATOM     53  C   UNL A   1      41.904  30.521  36.125  1.00  0.00     0.031 C 
ATOM     54  C   UNL A   1      44.094  28.884  31.635  1.00  0.00     0.029 A 
ATOM     55  C   UNL A   1      43.096  28.197  32.304  1.00  0.00     0.049 A 
ATOM     56  H   UNL A   1      41.475  27.113  31.517  1.00  0.00     0.167 HD
ATOM     57  C   UNL A   1      42.488  29.017  34.454  1.00  0.00     0.074 A 
ATOM     58  C   UNL A   1      42.382  29.288  35.876  1.00  0.00     0.031 C 
ATOM     59  C   UNL A   1      42.854  27.927  33.717  1.00  0.00     0.037 A 
BRANCH  46  60
ATOM     60  C   UNL A   1      42.156  27.314  27.614  1.00  0.00     0.057 A 
ATOM     61  C   UNL A   1      42.624  25.981  27.582  1.00  0.00     0.134 A 
ATOM     62  C   UNL A   1      42.268  27.977  26.374  1.00  0.00     0.134 A 
ATOM     63  F   UNL A   1      42.570  25.193  28.665  1.00  0.00    -0.206 F 
ATOM     64  C   UNL A   1      43.194  25.389  26.444  1.00  0.00     0.040 A 
ATOM     65  C   UNL A   1      42.801  27.384  25.220  1.00  0.00     0.040 A 
ATOM     66  F   UNL A   1      41.915  29.251  26.197  1.00  0.00    -0.206 F 
ATOM     67  C   UNL A   1      43.287  26.091  25.254  1.00  0.00     0.006 A 
ENDBRANCH  46  60
BRANCH  47  68
ATOM     68  C   UNL A   1      39.932  32.980  35.059  1.00  0.00     0.057 A 
ATOM     69  C   UNL A   1      38.752  32.219  35.008  1.00  0.00     0.134 A 
ATOM     70  C   UNL A   1      39.969  34.037  35.974  1.00  0.00     0.134 A 
ATOM     71  F   UNL A   1      38.653  31.188  34.152  1.00  0.00    -0.206 F 
ATOM     72  C   UNL A   1      37.699  32.425  35.902  1.00  0.00     0.040 A 
ATOM     73  C   UNL A   1      38.915  34.260  36.868  1.00  0.00     0.040 A 
ATOM     74  F   UNL A   1      41.069  34.793  36.100  1.00  0.00    -0.206 F 
ATOM     75  C   UNL A   1      37.794  33.430  36.859  1.00  0.00     0.006 A 
ENDBRANCH  47  68
BRANCH  59  76
ATOM     76  C   UNL A   1      43.089  26.532  34.248  1.00  0.00     0.057 A 
ATOM     77  C   UNL A   1      42.111  25.740  34.868  1.00  0.00     0.134 A 
ATOM     78  C   UNL A   1      44.318  25.875  34.005  1.00  0.00     0.134 A 
ATOM     79  F   UNL A   1      40.862  26.186  35.059  1.00  0.00    -0.206 F 
ATOM     80  C   UNL A   1      42.352  24.418  35.270  1.00  0.00     0.040 A 
ATOM     81  C   UNL A   1      44.551  24.540  34.353  1.00  0.00     0.040 A 
ATOM     82  F   UNL A   1      45.340  26.494  33.397  1.00  0.00    -0.206 F 
ATOM     83  C   UNL A   1      43.572  23.809  35.003  1.00  0.00     0.006 A 
ENDBRANCH  59  76
ENDBRANCH  33  34
ENDBRANCH  25  28
ENDBRANCH  23  24
ENDBRANCH  22  23
ENDBRANCH  21  22
ENDBRANCH   1  21
TORSDOF 15
ENDMDL
MODEL 3
REMARK VINA RESULT:     -11.2      2.432      3.934
REMARK SMILES Cc1ccccc1-c1nc(CC(=O)NCCCCCCNC(=O)c2ccc(-c3c4nc(c(-c5c(F)cccc5F)c5ccc([nH]5)c(-c5c(F)cccc5F)c5nc(c(-c6c(F)cccc6F)c6ccc3[nH]6)C=C5)C=C4)cc2)cs1
REMARK SMILES IDX 17 1 16 2 15 3 14 4 12 5 13 6 11 8 10 9 8 10 9 11 79 12
REMARK SMILES IDX 78 13 7 14 1 15 2 16 3 17 4 18 6 19 5 20 18 21 19 22 20 23
REMARK SMILES IDX 21 24 22 25 23 27 24 28 25 29 77 30 26 31 76 32 27 33 28 34
REMARK SMILES IDX 29 35 70 36 30 37 75 38 69 39 71 40 31 41 74 42 68 43 67 44
REMARK SMILES IDX 32 46 58 47 41 48 57 49 42 50 45 51 56 52 72 53 43 54 44 55
REMARK SMILES IDX 55 57 73 58 46 59 33 60 34 61 39 62 35 63 36 64 38 65 40 66
REMARK SMILES IDX 37 67 59 68 60 69 65 70 61 71 62 72 64 73 66 74 63 75 47 76
REMARK SMILES IDX 48 77 53 78 49 79 50 80 52 81 54 82 51 83
REMARK H PARENT 14 7 21 26 71 45 45 56
REMARK Flexibility Score: inf
ROOT
ATOM      1  C   UNL A   1      33.066  28.331  27.148  1.00  0.00     0.002 C 
ENDROOT
BRANCH   1   2
ATOM      2  C   UNL A   1      31.962  29.302  26.700  1.00  0.00     0.021 C 
BRANCH   2   3
ATOM      3  C   UNL A   1      32.218  30.008  25.366  1.00  0.00     0.116 C 
BRANCH   3   4
ATOM      4  N   UNL A   1      31.281  29.583  24.343  1.00  0.00    -0.356 N 
ATOM      5  C   UNL A   1      31.534  28.923  23.175  1.00  0.00     0.226 C 
ATOM      6  O   UNL A   1      30.591  28.709  22.408  1.00  0.00    -0.275 OA
ATOM      7  H   UNL A   1      30.337  29.799  24.515  1.00  0.00     0.163 HD
BRANCH   5   8
ATOM      8  C   UNL A   1      32.932  28.432  22.857  1.00  0.00     0.157 C 
BRANCH   8   9
ATOM      9  C   UNL A   1      33.069  26.955  23.017  1.00  0.00     0.061 A 
ATOM     10  C   UNL A   1      33.189  25.124  24.273  1.00  0.00     0.123 A 
ATOM     11  N   UNL A   1      33.018  26.430  24.301  1.00  0.00    -0.241 NA
ATOM     12  S   UNL A   1      33.380  24.450  22.701  1.00  0.00    -0.122 S 
ATOM     13  C   UNL A   1      33.245  26.016  22.019  1.00  0.00     0.091 A 
BRANCH  10  14
ATOM     14  C   UNL A   1      33.210  24.265  25.464  1.00  0.00     0.013 A 
ATOM     15  C   UNL A   1      35.775  24.157  25.478  1.00  0.00     0.045 C 
ATOM     16  C   UNL A   1      34.419  23.799  26.024  1.00  0.00    -0.041 A 
ATOM     17  C   UNL A   1      34.371  22.928  27.129  1.00  0.00     0.004 A 
ATOM     18  C   UNL A   1      33.154  22.536  27.683  1.00  0.00     0.000 A 
ATOM     19  C   UNL A   1      31.990  23.855  26.037  1.00  0.00     0.011 A 
ATOM     20  C   UNL A   1      31.962  23.000  27.139  1.00  0.00     0.001 A 
ENDBRANCH  10  14
ENDBRANCH   8   9
ENDBRANCH   5   8
ENDBRANCH   3   4
ENDBRANCH   2   3
ENDBRANCH   1   2
BRANCH   1  21
ATOM     21  C   UNL A   1      34.486  28.907  27.260  1.00  0.00     0.002 C 
BRANCH  21  22
ATOM     22  C   UNL A   1      34.664  30.065  28.243  1.00  0.00     0.021 C 
BRANCH  22  23
ATOM     23  C   UNL A   1      34.922  31.415  27.586  1.00  0.00     0.116 C 
BRANCH  23  24
ATOM     24  N   UNL A   1      34.081  32.490  28.093  1.00  0.00    -0.352 N 
ATOM     25  C   UNL A   1      34.254  33.325  29.189  1.00  0.00     0.251 C 
ATOM     26  H   UNL A   1      33.257  32.650  27.576  1.00  0.00     0.163 HD
ATOM     27  O   UNL A   1      33.398  34.135  29.473  1.00  0.00    -0.269 OA
BRANCH  25  28
ATOM     28  C   UNL A   1      35.555  33.329  29.915  1.00  0.00     0.039 A 
ATOM     29  C   UNL A   1      36.629  33.986  29.297  1.00  0.00     0.014 A 
ATOM     30  C   UNL A   1      35.777  32.544  31.040  1.00  0.00     0.014 A 
ATOM     31  C   UNL A   1      37.931  33.629  29.631  1.00  0.00     0.010 A 
ATOM     32  C   UNL A   1      37.061  32.116  31.311  1.00  0.00     0.010 A 
ATOM     33  C   UNL A   1      38.127  32.595  30.543  1.00  0.00    -0.014 A 
BRANCH  33  34
ATOM     34  C   UNL A   1      39.361  31.825  30.616  1.00  0.00     0.031 A 
ATOM     35  C   UNL A   1      39.506  30.543  29.903  1.00  0.00     0.074 A 
ATOM     36  C   UNL A   1      40.421  32.373  31.254  1.00  0.00     0.049 A 
ATOM     37  N   UNL A   1      40.438  29.686  30.151  1.00  0.00    -0.248 NA
ATOM     38  C   UNL A   1      38.555  30.075  28.899  1.00  0.00     0.031 C 
ATOM     39  C   UNL A   1      41.821  31.974  31.161  1.00  0.00     0.029 A 
ATOM     40  N   UNL A   1      40.393  33.298  32.309  1.00  0.00    -0.354 N 
ATOM     41  C   UNL A   1      40.413  28.745  29.151  1.00  0.00     0.074 A 
ATOM     42  C   UNL A   1      39.139  28.938  28.508  1.00  0.00     0.031 C 
ATOM     43  C   UNL A   1      42.470  32.407  32.253  1.00  0.00     0.029 A 
ATOM     44  C   UNL A   1      41.470  32.955  33.153  1.00  0.00     0.049 A 
ATOM     45  H   UNL A   1      39.752  34.035  32.434  1.00  0.00     0.167 HD
ATOM     46  C   UNL A   1      41.551  28.037  28.899  1.00  0.00     0.037 A 
ATOM     47  C   UNL A   1      41.265  32.531  34.434  1.00  0.00     0.037 A 
ATOM     48  C   UNL A   1      42.510  28.189  29.998  1.00  0.00     0.049 A 
ATOM     49  C   UNL A   1      41.808  31.152  34.724  1.00  0.00     0.074 A 
ATOM     50  C   UNL A   1      43.710  28.868  30.129  1.00  0.00     0.029 A 
ATOM     51  N   UNL A   1      42.148  27.781  31.281  1.00  0.00    -0.354 N 
ATOM     52  N   UNL A   1      42.116  30.284  33.801  1.00  0.00    -0.248 NA
ATOM     53  C   UNL A   1      42.018  30.628  36.072  1.00  0.00     0.031 C 
ATOM     54  C   UNL A   1      44.021  28.940  31.514  1.00  0.00     0.029 A 
ATOM     55  C   UNL A   1      43.034  28.274  32.219  1.00  0.00     0.049 A 
ATOM     56  H   UNL A   1      41.367  27.220  31.490  1.00  0.00     0.167 HD
ATOM     57  C   UNL A   1      42.515  29.110  34.386  1.00  0.00     0.074 A 
ATOM     58  C   UNL A   1      42.463  29.385  35.810  1.00  0.00     0.031 C 
ATOM     59  C   UNL A   1      42.835  28.012  33.640  1.00  0.00     0.037 A 
BRANCH  46  60
ATOM     60  C   UNL A   1      41.918  27.400  27.565  1.00  0.00     0.057 A 
ATOM     61  C   UNL A   1      42.073  25.998  27.471  1.00  0.00     0.134 A 
ATOM     62  C   UNL A   1      42.268  28.083  26.382  1.00  0.00     0.134 A 
ATOM     63  F   UNL A   1      41.763  25.188  28.494  1.00  0.00    -0.206 F 
ATOM     64  C   UNL A   1      42.576  25.351  26.331  1.00  0.00     0.040 A 
ATOM     65  C   UNL A   1      42.735  27.444  25.224  1.00  0.00     0.040 A 
ATOM     66  F   UNL A   1      42.226  29.411  26.271  1.00  0.00    -0.206 F 
ATOM     67  C   UNL A   1      42.912  26.074  25.199  1.00  0.00     0.006 A 
ENDBRANCH  46  60
BRANCH  47  68
ATOM     68  C   UNL A   1      40.059  33.123  35.067  1.00  0.00     0.057 A 
ATOM     69  C   UNL A   1      38.862  32.386  35.054  1.00  0.00     0.134 A 
ATOM     70  C   UNL A   1      40.148  34.178  35.980  1.00  0.00     0.134 A 
ATOM     71  F   UNL A   1      38.714  31.358  34.202  1.00  0.00    -0.206 F 
ATOM     72  C   UNL A   1      37.844  32.613  35.982  1.00  0.00     0.040 A 
ATOM     73  C   UNL A   1      39.128  34.423  36.908  1.00  0.00     0.040 A 
ATOM     74  F   UNL A   1      41.266  34.911  36.070  1.00  0.00    -0.206 F 
ATOM     75  C   UNL A   1      37.990  33.615  36.936  1.00  0.00     0.006 A 
ENDBRANCH  47  68
BRANCH  59  76
ATOM     76  C   UNL A   1      43.061  26.613  34.166  1.00  0.00     0.057 A 
ATOM     77  C   UNL A   1      42.082  25.832  34.799  1.00  0.00     0.134 A 
ATOM     78  C   UNL A   1      44.278  25.942  33.906  1.00  0.00     0.134 A 
ATOM     79  F   UNL A   1      40.842  26.293  35.007  1.00  0.00    -0.206 F 
ATOM     80  C   UNL A   1      42.314  24.507  35.196  1.00  0.00     0.040 A 
ATOM     81  C   UNL A   1      44.501  24.604  34.249  1.00  0.00     0.040 A 
ATOM     82  F   UNL A   1      45.299  26.550  33.284  1.00  0.00    -0.206 F 
ATOM     83  C   UNL A   1      43.522  23.884  34.911  1.00  0.00     0.006 A 
ENDBRANCH  59  76
ENDBRANCH  33  34
ENDBRANCH  25  28
ENDBRANCH  23  24
ENDBRANCH  22  23
ENDBRANCH  21  22
ENDBRANCH   1  21
TORSDOF 15
ENDMDL
