MODEL 1
REMARK VINA RESULT:     -11.1      0.000      0.000
REMARK SMILES C[NH2+][C@@]1(C(=O)NCCCCCCNC(=O)c2ccc(-c3c4nc(c(-c5c(F)cccc5F)c5ccc([nH]5)c(-c5c(F)cccc5F)c5nc(c(-c6c(F)cccc6F)c6ccc3[nH]6)C=C5)C=C4)cc2)CCC[C@H]1CCSc1nccc(=O)[nH]1
REMARK SMILES IDX 8 1 7 2 6 3 4 4 5 5 3 7 70 8 73 9 71 10 72 11 2 12 1 13
REMARK SMILES IDX 74 16 75 17 76 18 77 19 78 20 83 21 79 22 81 23 80 25 82 26
REMARK SMILES IDX 9 27 10 28 11 29 12 30 13 31 14 32 15 34 16 35 17 36 69 37
REMARK SMILES IDX 18 38 68 39 19 40 20 41 21 42 62 43 22 44 67 45 61 46 63 47
REMARK SMILES IDX 23 48 66 49 60 50 59 51 24 53 50 54 33 55 49 56 34 57 37 58
REMARK SMILES IDX 48 59 64 60 35 61 36 62 47 64 65 65 38 66 25 67 26 68 31 69
REMARK SMILES IDX 27 70 28 71 30 72 32 73 29 74 51 75 52 76 57 77 53 78 54 79
REMARK SMILES IDX 56 80 58 81 55 82 39 83 40 84 45 85 41 86 42 87 44 88 46 89
REMARK SMILES IDX 43 90
REMARK H PARENT 6 6 2 14 2 15 83 24 13 33 63 52 37 63
REMARK Flexibility Score: inf
ROOT
ATOM      1  C   UNL A   1      32.829  28.882  26.550  1.00  0.00     0.021 C 
ENDROOT
BRANCH   1   2
ATOM      2  C   UNL A   1      32.673  27.469  27.088  1.00  0.00     0.116 C 
BRANCH   2   3
ATOM      3  N   UNL A   1      31.412  26.839  26.793  1.00  0.00    -0.351 N 
ATOM      4  C   UNL A   1      31.112  25.717  26.084  1.00  0.00     0.281 C 
ATOM      5  O   UNL A   1      30.084  25.151  26.492  1.00  0.00    -0.268 OA
ATOM      6  H   UNL A   1      30.629  27.303  27.169  1.00  0.00     0.163 HD
BRANCH   4   7
ATOM      7  C   UNL A   1      31.972  25.077  24.897  1.00  0.00     0.178 C 
ATOM      8  C   UNL A   1      32.538  23.729  25.430  1.00  0.00     0.079 C 
ATOM      9  C   UNL A   1      33.264  25.839  24.418  1.00  0.00     0.061 C 
ATOM     10  C   UNL A   1      33.900  24.018  26.015  1.00  0.00     0.008 C 
ATOM     11  C   UNL A   1      34.462  25.115  25.130  1.00  0.00     0.011 C 
BRANCH   7  12
ATOM     12  N   UNL A   1      31.037  24.631  23.805  1.00  0.00    -0.336 N 
ATOM     13  C   UNL A   1      31.094  23.240  23.366  1.00  0.00     0.331 C 
ATOM     14  H   UNL A   1      30.087  24.805  24.132  1.00  0.00     0.346 HD
ATOM     15  H   UNL A   1      31.335  25.164  22.987  1.00  0.00     0.346 HD
ENDBRANCH   7  12
BRANCH   9  16
ATOM     16  C   UNL A   1      33.656  25.825  22.916  1.00  0.00     0.022 C 
BRANCH  16  17
ATOM     17  C   UNL A   1      33.395  27.018  21.998  1.00  0.00     0.079 C 
BRANCH  17  18
ATOM     18  S   UNL A   1      32.993  28.585  22.818  1.00  0.00    -0.088 SA
BRANCH  18  19
ATOM     19  C   UNL A   1      31.268  28.695  22.754  1.00  0.00     0.168 A 
ATOM     20  N   UNL A   1      30.452  27.886  23.333  1.00  0.00    -0.233 NA
ATOM     21  N   UNL A   1      30.872  29.765  22.013  1.00  0.00    -0.301 N 
ATOM     22  C   UNL A   1      29.113  28.150  23.190  1.00  0.00     0.120 A 
ATOM     23  C   UNL A   1      29.563  30.098  21.870  1.00  0.00     0.251 A 
ATOM     24  H   UNL A   1      31.556  30.314  21.567  1.00  0.00     0.172 HD
ATOM     25  C   UNL A   1      28.609  29.190  22.520  1.00  0.00     0.091 A 
ATOM     26  O   UNL A   1      29.185  31.097  21.265  1.00  0.00    -0.269 OA
ENDBRANCH  18  19
ENDBRANCH  17  18
ENDBRANCH  16  17
ENDBRANCH   9  16
ENDBRANCH   4   7
ENDBRANCH   2   3
ENDBRANCH   1   2
BRANCH   1  27
ATOM     27  C   UNL A   1      31.773  29.884  27.014  1.00  0.00     0.002 C 
BRANCH  27  28
ATOM     28  C   UNL A   1      31.374  30.949  25.987  1.00  0.00     0.002 C 
BRANCH  28  29
ATOM     29  C   UNL A   1      31.354  32.394  26.495  1.00  0.00     0.021 C 
BRANCH  29  30
ATOM     30  C   UNL A   1      32.645  32.868  27.152  1.00  0.00     0.116 C 
BRANCH  30  31
ATOM     31  N   UNL A   1      32.525  34.213  27.687  1.00  0.00    -0.352 N 
ATOM     32  C   UNL A   1      33.176  34.796  28.743  1.00  0.00     0.251 C 
ATOM     33  H   UNL A   1      31.878  34.792  27.221  1.00  0.00     0.163 HD
ATOM     34  O   UNL A   1      32.788  35.874  29.185  1.00  0.00    -0.269 OA
BRANCH  32  35
ATOM     35  C   UNL A   1      34.337  34.123  29.363  1.00  0.00     0.039 A 
ATOM     36  C   UNL A   1      34.114  33.197  30.385  1.00  0.00     0.014 A 
ATOM     37  C   UNL A   1      35.642  34.418  28.956  1.00  0.00     0.014 A 
ATOM     38  C   UNL A   1      35.194  32.527  30.962  1.00  0.00     0.010 A 
ATOM     39  C   UNL A   1      36.711  33.694  29.478  1.00  0.00     0.010 A 
ATOM     40  C   UNL A   1      36.498  32.747  30.491  1.00  0.00    -0.014 A 
BRANCH  40  41
ATOM     41  C   UNL A   1      37.652  31.996  31.048  1.00  0.00     0.031 A 
ATOM     42  C   UNL A   1      38.190  32.334  32.411  1.00  0.00     0.074 A 
ATOM     43  C   UNL A   1      38.254  31.051  30.300  1.00  0.00     0.049 A 
ATOM     44  N   UNL A   1      39.223  31.832  33.039  1.00  0.00    -0.248 NA
ATOM     45  C   UNL A   1      37.491  33.393  33.155  1.00  0.00     0.031 C 
ATOM     46  C   UNL A   1      37.856  30.665  28.944  1.00  0.00     0.029 A 
ATOM     47  N   UNL A   1      39.334  30.249  30.569  1.00  0.00    -0.354 N 
ATOM     48  C   UNL A   1      39.304  32.522  34.243  1.00  0.00     0.074 A 
ATOM     49  C   UNL A   1      38.252  33.515  34.233  1.00  0.00     0.031 C 
ATOM     50  C   UNL A   1      38.666  29.687  28.510  1.00  0.00     0.029 A 
ATOM     51  C   UNL A   1      39.666  29.407  29.536  1.00  0.00     0.049 A 
ATOM     52  H   UNL A   1      39.826  30.276  31.422  1.00  0.00     0.167 HD
ATOM     53  C   UNL A   1      40.162  32.330  35.274  1.00  0.00     0.037 A 
ATOM     54  C   UNL A   1      40.668  28.515  29.423  1.00  0.00     0.037 A 
ATOM     55  C   UNL A   1      41.197  31.328  35.286  1.00  0.00     0.049 A 
ATOM     56  C   UNL A   1      41.617  28.330  30.575  1.00  0.00     0.074 A 
ATOM     57  C   UNL A   1      42.079  31.013  36.305  1.00  0.00     0.029 A 
ATOM     58  N   UNL A   1      41.493  30.484  34.226  1.00  0.00    -0.354 N 
ATOM     59  N   UNL A   1      41.637  28.937  31.737  1.00  0.00    -0.248 NA
ATOM     60  C   UNL A   1      42.679  27.329  30.403  1.00  0.00     0.031 C 
ATOM     61  C   UNL A   1      42.944  30.017  35.841  1.00  0.00     0.029 A 
ATOM     62  C   UNL A   1      42.563  29.669  34.555  1.00  0.00     0.049 A 
ATOM     63  H   UNL A   1      41.013  30.468  33.366  1.00  0.00     0.167 HD
ATOM     64  C   UNL A   1      42.692  28.374  32.443  1.00  0.00     0.074 A 
ATOM     65  C   UNL A   1      43.277  27.366  31.586  1.00  0.00     0.031 C 
ATOM     66  C   UNL A   1      43.134  28.666  33.692  1.00  0.00     0.037 A 
BRANCH  53  67
ATOM     67  C   UNL A   1      40.020  33.225  36.471  1.00  0.00     0.057 A 
ATOM     68  C   UNL A   1      40.780  34.393  36.620  1.00  0.00     0.134 A 
ATOM     69  C   UNL A   1      39.087  32.932  37.475  1.00  0.00     0.134 A 
ATOM     70  F   UNL A   1      41.698  34.728  35.701  1.00  0.00    -0.206 F 
ATOM     71  C   UNL A   1      40.641  35.219  37.736  1.00  0.00     0.040 A 
ATOM     72  C   UNL A   1      38.917  33.768  38.582  1.00  0.00     0.040 A 
ATOM     73  F   UNL A   1      38.320  31.835  37.395  1.00  0.00    -0.206 F 
ATOM     74  C   UNL A   1      39.702  34.911  38.719  1.00  0.00     0.006 A 
ENDBRANCH  53  67
BRANCH  54  75
ATOM     75  C   UNL A   1      40.818  27.718  28.179  1.00  0.00     0.057 A 
ATOM     76  C   UNL A   1      41.561  28.199  27.095  1.00  0.00     0.134 A 
ATOM     77  C   UNL A   1      40.219  26.460  28.041  1.00  0.00     0.134 A 
ATOM     78  F   UNL A   1      42.145  29.404  27.161  1.00  0.00    -0.206 F 
ATOM     79  C   UNL A   1      41.685  27.469  25.912  1.00  0.00     0.040 A 
ATOM     80  C   UNL A   1      40.357  25.706  26.874  1.00  0.00     0.040 A 
ATOM     81  F   UNL A   1      39.500  25.936  29.046  1.00  0.00    -0.206 F 
ATOM     82  C   UNL A   1      41.087  26.216  25.802  1.00  0.00     0.006 A 
ENDBRANCH  54  75
BRANCH  66  83
ATOM     83  C   UNL A   1      44.286  27.859  34.219  1.00  0.00     0.057 A 
ATOM     84  C   UNL A   1      44.100  26.623  34.850  1.00  0.00     0.134 A 
ATOM     85  C   UNL A   1      45.602  28.310  34.057  1.00  0.00     0.134 A 
ATOM     86  F   UNL A   1      42.864  26.140  35.049  1.00  0.00    -0.206 F 
ATOM     87  C   UNL A   1      45.181  25.876  35.323  1.00  0.00     0.040 A 
ATOM     88  C   UNL A   1      46.692  27.558  34.498  1.00  0.00     0.040 A 
ATOM     89  F   UNL A   1      45.852  29.481  33.452  1.00  0.00    -0.206 F 
ATOM     90  C   UNL A   1      46.481  26.340  35.140  1.00  0.00     0.006 A 
ENDBRANCH  66  83
ENDBRANCH  40  41
ENDBRANCH  32  35
ENDBRANCH  30  31
ENDBRANCH  29  30
ENDBRANCH  28  29
ENDBRANCH  27  28
ENDBRANCH   1  27
TORSDOF 18
ENDMDL
MODEL 2
REMARK VINA RESULT:     -11.0      1.108      6.214
REMARK SMILES C[NH2+][C@@]1(C(=O)NCCCCCCNC(=O)c2ccc(-c3c4nc(c(-c5c(F)cccc5F)c5ccc([nH]5)c(-c5c(F)cccc5F)c5nc(c(-c6c(F)cccc6F)c6ccc3[nH]6)C=C5)C=C4)cc2)CCC[C@H]1CCSc1nccc(=O)[nH]1
REMARK SMILES IDX 8 1 7 2 6 3 4 4 5 5 3 7 70 8 73 9 71 10 72 11 2 12 1 13
REMARK SMILES IDX 74 16 75 17 76 18 77 19 78 20 83 21 79 22 81 23 80 25 82 26
REMARK SMILES IDX 9 27 10 28 11 29 12 30 13 31 14 32 15 34 16 35 17 36 69 37
REMARK SMILES IDX 18 38 68 39 19 40 20 41 21 42 62 43 22 44 67 45 61 46 63 47
REMARK SMILES IDX 23 48 66 49 60 50 59 51 24 53 50 54 33 55 49 56 34 57 37 58
REMARK SMILES IDX 48 59 64 60 35 61 36 62 47 64 65 65 38 66 25 67 26 68 31 69
REMARK SMILES IDX 27 70 28 71 30 72 32 73 29 74 51 75 52 76 57 77 53 78 54 79
REMARK SMILES IDX 56 80 58 81 55 82 39 83 40 84 45 85 41 86 42 87 44 88 46 89
REMARK SMILES IDX 43 90
REMARK H PARENT 6 6 2 14 2 15 83 24 13 33 63 52 37 63
REMARK Flexibility Score: inf
ROOT
ATOM      1  C   UNL A   1      31.783  28.137  27.599  1.00  0.00     0.021 C 
ENDROOT
BRANCH   1   2
ATOM      2  C   UNL A   1      32.087  26.999  26.637  1.00  0.00     0.116 C 
BRANCH   2   3
ATOM      3  N   UNL A   1      31.261  25.830  26.794  1.00  0.00    -0.351 N 
ATOM      4  C   UNL A   1      31.495  24.520  26.513  1.00  0.00     0.281 C 
ATOM      5  O   UNL A   1      30.873  23.749  27.264  1.00  0.00    -0.268 OA
ATOM      6  H   UNL A   1      30.369  26.012  27.170  1.00  0.00     0.163 HD
BRANCH   4   7
ATOM      7  C   UNL A   1      32.502  23.943  25.413  1.00  0.00     0.178 C 
ATOM      8  C   UNL A   1      33.128  22.651  26.012  1.00  0.00     0.079 C 
ATOM      9  C   UNL A   1      33.764  24.804  25.032  1.00  0.00     0.061 C 
ATOM     10  C   UNL A   1      34.408  23.056  26.706  1.00  0.00     0.008 C 
ATOM     11  C   UNL A   1      34.952  24.188  25.854  1.00  0.00     0.011 C 
BRANCH   7  12
ATOM     12  N   UNL A   1      31.702  23.412  24.253  1.00  0.00    -0.336 N 
ATOM     13  C   UNL A   1      31.961  22.050  23.796  1.00  0.00     0.331 C 
ATOM     14  H   UNL A   1      30.719  23.459  24.518  1.00  0.00     0.346 HD
ATOM     15  H   UNL A   1      31.984  23.998  23.466  1.00  0.00     0.346 HD
ENDBRANCH   7  12
BRANCH   9  16
ATOM     16  C   UNL A   1      34.282  24.810  23.569  1.00  0.00     0.022 C 
BRANCH  16  17
ATOM     17  C   UNL A   1      33.946  25.936  22.593  1.00  0.00     0.079 C 
BRANCH  17  18
ATOM     18  S   UNL A   1      32.470  25.691  21.568  1.00  0.00    -0.088 SA
BRANCH  18  19
ATOM     19  C   UNL A   1      31.218  26.581  22.365  1.00  0.00     0.168 A 
ATOM     20  N   UNL A   1      30.503  26.143  23.340  1.00  0.00    -0.233 NA
ATOM     21  N   UNL A   1      31.088  27.826  21.832  1.00  0.00    -0.301 N 
ATOM     22  C   UNL A   1      29.575  27.007  23.863  1.00  0.00     0.120 A 
ATOM     23  C   UNL A   1      30.214  28.737  22.334  1.00  0.00     0.251 A 
ATOM     24  H   UNL A   1      31.644  28.074  21.059  1.00  0.00     0.172 HD
ATOM     25  C   UNL A   1      29.383  28.262  23.449  1.00  0.00     0.091 A 
ATOM     26  O   UNL A   1      30.127  29.887  21.916  1.00  0.00    -0.269 OA
ENDBRANCH  18  19
ENDBRANCH  17  18
ENDBRANCH  16  17
ENDBRANCH   9  16
ENDBRANCH   4   7
ENDBRANCH   2   3
ENDBRANCH   1   2
BRANCH   1  27
ATOM     27  C   UNL A   1      32.374  29.494  27.221  1.00  0.00     0.002 C 
BRANCH  27  28
ATOM     28  C   UNL A   1      31.540  30.330  26.244  1.00  0.00     0.002 C 
BRANCH  28  29
ATOM     29  C   UNL A   1      31.395  31.816  26.589  1.00  0.00     0.021 C 
BRANCH  29  30
ATOM     30  C   UNL A   1      32.673  32.499  27.060  1.00  0.00     0.116 C 
BRANCH  30  31
ATOM     31  N   UNL A   1      32.434  33.864  27.498  1.00  0.00    -0.352 N 
ATOM     32  C   UNL A   1      33.059  34.590  28.479  1.00  0.00     0.251 C 
ATOM     33  H   UNL A   1      31.715  34.337  27.019  1.00  0.00     0.163 HD
ATOM     34  O   UNL A   1      32.578  35.654  28.855  1.00  0.00    -0.269 OA
BRANCH  32  35
ATOM     35  C   UNL A   1      34.305  34.087  29.095  1.00  0.00     0.039 A 
ATOM     36  C   UNL A   1      34.220  33.311  30.254  1.00  0.00     0.014 A 
ATOM     37  C   UNL A   1      35.554  34.396  28.548  1.00  0.00     0.014 A 
ATOM     38  C   UNL A   1      35.382  32.801  30.833  1.00  0.00     0.010 A 
ATOM     39  C   UNL A   1      36.706  33.824  29.082  1.00  0.00     0.010 A 
ATOM     40  C   UNL A   1      36.632  33.027  30.234  1.00  0.00    -0.014 A 
BRANCH  40  41
ATOM     41  C   UNL A   1      37.872  32.437  30.800  1.00  0.00     0.031 A 
ATOM     42  C   UNL A   1      38.468  31.197  30.193  1.00  0.00     0.074 A 
ATOM     43  C   UNL A   1      38.426  32.984  31.900  1.00  0.00     0.049 A 
ATOM     44  N   UNL A   1      39.507  30.504  30.582  1.00  0.00    -0.248 NA
ATOM     45  C   UNL A   1      37.791  30.649  29.008  1.00  0.00     0.031 C 
ATOM     46  C   UNL A   1      37.915  34.159  32.609  1.00  0.00     0.029 A 
ATOM     47  N   UNL A   1      39.535  32.619  32.620  1.00  0.00    -0.354 N 
ATOM     48  C   UNL A   1      39.601  29.435  29.700  1.00  0.00     0.074 A 
ATOM     49  C   UNL A   1      38.480  29.538  28.791  1.00  0.00     0.031 C 
ATOM     50  C   UNL A   1      38.720  34.430  33.648  1.00  0.00     0.029 A 
ATOM     51  C   UNL A   1      39.778  33.426  33.705  1.00  0.00     0.049 A 
ATOM     52  H   UNL A   1      40.103  31.851  32.381  1.00  0.00     0.167 HD
ATOM     53  C   UNL A   1      40.547  28.467  29.638  1.00  0.00     0.037 A 
ATOM     54  C   UNL A   1      40.739  33.359  34.645  1.00  0.00     0.037 A 
ATOM     55  C   UNL A   1      41.670  28.378  30.535  1.00  0.00     0.049 A 
ATOM     56  C   UNL A   1      41.770  32.267  34.563  1.00  0.00     0.074 A 
ATOM     57  C   UNL A   1      42.716  27.472  30.519  1.00  0.00     0.029 A 
ATOM     58  N   UNL A   1      41.890  29.222  31.614  1.00  0.00    -0.354 N 
ATOM     59  N   UNL A   1      41.889  31.305  33.680  1.00  0.00    -0.248 NA
ATOM     60  C   UNL A   1      42.805  32.255  35.606  1.00  0.00     0.031 C 
ATOM     61  C   UNL A   1      43.538  27.734  31.620  1.00  0.00     0.029 A 
ATOM     62  C   UNL A   1      43.038  28.841  32.287  1.00  0.00     0.049 A 
ATOM     63  H   UNL A   1      41.313  29.981  31.863  1.00  0.00     0.167 HD
ATOM     64  C   UNL A   1      43.025  30.593  34.042  1.00  0.00     0.074 A 
ATOM     65  C   UNL A   1      43.568  31.243  35.216  1.00  0.00     0.031 C 
ATOM     66  C   UNL A   1      43.569  29.500  33.453  1.00  0.00     0.037 A 
BRANCH  53  67
ATOM     67  C   UNL A   1      40.404  27.425  28.566  1.00  0.00     0.057 A 
ATOM     68  C   UNL A   1      39.614  26.281  28.743  1.00  0.00     0.134 A 
ATOM     69  C   UNL A   1      41.040  27.582  27.327  1.00  0.00     0.134 A 
ATOM     70  F   UNL A   1      38.985  26.063  29.908  1.00  0.00    -0.206 F 
ATOM     71  C   UNL A   1      39.487  25.317  27.742  1.00  0.00     0.040 A 
ATOM     72  C   UNL A   1      40.896  26.640  26.307  1.00  0.00     0.040 A 
ATOM     73  F   UNL A   1      41.806  28.656  27.085  1.00  0.00    -0.206 F 
ATOM     74  C   UNL A   1      40.124  25.499  26.515  1.00  0.00     0.006 A 
ENDBRANCH  53  67
BRANCH  54  75
ATOM     75  C   UNL A   1      40.782  34.364  35.737  1.00  0.00     0.057 A 
ATOM     76  C   UNL A   1      40.165  34.122  36.970  1.00  0.00     0.134 A 
ATOM     77  C   UNL A   1      41.434  35.593  35.575  1.00  0.00     0.134 A 
ATOM     78  F   UNL A   1      39.510  32.971  37.181  1.00  0.00    -0.206 F 
ATOM     79  C   UNL A   1      40.176  35.071  37.993  1.00  0.00     0.040 A 
ATOM     80  C   UNL A   1      41.477  36.540  36.599  1.00  0.00     0.040 A 
ATOM     81  F   UNL A   1      42.054  35.884  34.421  1.00  0.00    -0.206 F 
ATOM     82  C   UNL A   1      40.839  36.283  37.810  1.00  0.00     0.006 A 
ENDBRANCH  54  75
BRANCH  66  83
ATOM     83  C   UNL A   1      44.838  28.958  34.049  1.00  0.00     0.057 A 
ATOM     84  C   UNL A   1      44.831  27.949  35.020  1.00  0.00     0.134 A 
ATOM     85  C   UNL A   1      46.083  29.429  33.615  1.00  0.00     0.134 A 
ATOM     86  F   UNL A   1      43.671  27.464  35.488  1.00  0.00    -0.206 F 
ATOM     87  C   UNL A   1      46.018  27.445  35.555  1.00  0.00     0.040 A 
ATOM     88  C   UNL A   1      47.277  28.912  34.121  1.00  0.00     0.040 A 
ATOM     89  F   UNL A   1      46.163  30.389  32.681  1.00  0.00    -0.206 F 
ATOM     90  C   UNL A   1      47.245  27.921  35.100  1.00  0.00     0.006 A 
ENDBRANCH  66  83
ENDBRANCH  40  41
ENDBRANCH  32  35
ENDBRANCH  30  31
ENDBRANCH  29  30
ENDBRANCH  28  29
ENDBRANCH  27  28
ENDBRANCH   1  27
TORSDOF 18
ENDMDL
MODEL 3
REMARK VINA RESULT:     -10.8      1.740      6.376
REMARK SMILES C[NH2+][C@@]1(C(=O)NCCCCCCNC(=O)c2ccc(-c3c4nc(c(-c5c(F)cccc5F)c5ccc([nH]5)c(-c5c(F)cccc5F)c5nc(c(-c6c(F)cccc6F)c6ccc3[nH]6)C=C5)C=C4)cc2)CCC[C@H]1CCSc1nccc(=O)[nH]1
REMARK SMILES IDX 8 1 7 2 6 3 4 4 5 5 3 7 70 8 73 9 71 10 72 11 2 12 1 13
REMARK SMILES IDX 74 16 75 17 76 18 77 19 78 20 83 21 79 22 81 23 80 25 82 26
REMARK SMILES IDX 9 27 10 28 11 29 12 30 13 31 14 32 15 34 16 35 17 36 69 37
REMARK SMILES IDX 18 38 68 39 19 40 20 41 21 42 62 43 22 44 67 45 61 46 63 47
REMARK SMILES IDX 23 48 66 49 60 50 59 51 24 53 50 54 33 55 49 56 34 57 37 58
REMARK SMILES IDX 48 59 64 60 35 61 36 62 47 64 65 65 38 66 25 67 26 68 31 69
REMARK SMILES IDX 27 70 28 71 30 72 32 73 29 74 51 75 52 76 57 77 53 78 54 79
REMARK SMILES IDX 56 80 58 81 55 82 39 83 40 84 45 85 41 86 42 87 44 88 46 89
REMARK SMILES IDX 43 90
REMARK H PARENT 6 6 2 14 2 15 83 24 13 33 63 52 37 63
REMARK Flexibility Score: inf
ROOT
ATOM      1  C   UNL A   1      33.604  28.748  25.559  1.00  0.00     0.021 C 
ENDROOT
BRANCH   1   2
ATOM      2  C   UNL A   1      33.920  27.481  24.780  1.00  0.00     0.116 C 
BRANCH   2   3
ATOM      3  N   UNL A   1      34.023  26.285  25.575  1.00  0.00    -0.351 N 
ATOM      4  C   UNL A   1      33.259  25.160  25.610  1.00  0.00     0.281 C 
ATOM      5  O   UNL A   1      33.905  24.149  25.932  1.00  0.00    -0.268 OA
ATOM      6  H   UNL A   1      34.780  26.281  26.205  1.00  0.00     0.163 HD
BRANCH   4   7
ATOM      7  C   UNL A   1      31.713  25.042  25.217  1.00  0.00     0.178 C 
ATOM      8  C   UNL A   1      31.509  23.619  24.623  1.00  0.00     0.079 C 
ATOM      9  C   UNL A   1      31.157  25.982  24.082  1.00  0.00     0.061 C 
ATOM     10  C   UNL A   1      31.691  23.730  23.128  1.00  0.00     0.008 C 
ATOM     11  C   UNL A   1      31.136  25.099  22.784  1.00  0.00     0.011 C 
BRANCH   7  12
ATOM     12  N   UNL A   1      30.894  24.992  26.479  1.00  0.00    -0.336 N 
ATOM     13  C   UNL A   1      30.065  23.814  26.723  1.00  0.00     0.331 C 
ATOM     14  H   UNL A   1      31.541  25.072  27.262  1.00  0.00     0.346 HD
ATOM     15  H   UNL A   1      30.221  25.752  26.371  1.00  0.00     0.346 HD
ENDBRANCH   7  12
BRANCH   9  16
ATOM     16  C   UNL A   1      29.713  26.542  24.181  1.00  0.00     0.022 C 
BRANCH  16  17
ATOM     17  C   UNL A   1      29.223  27.685  23.294  1.00  0.00     0.079 C 
BRANCH  17  18
ATOM     18  S   UNL A   1      30.200  29.213  23.347  1.00  0.00    -0.088 SA
BRANCH  18  19
ATOM     19  C   UNL A   1      29.307  30.348  22.393  1.00  0.00     0.168 A 
ATOM     20  N   UNL A   1      28.671  30.067  21.310  1.00  0.00    -0.233 NA
ATOM     21  N   UNL A   1      29.353  31.591  22.941  1.00  0.00    -0.301 N 
ATOM     22  C   UNL A   1      27.997  31.096  20.705  1.00  0.00     0.120 A 
ATOM     23  C   UNL A   1      28.673  32.640  22.408  1.00  0.00     0.251 A 
ATOM     24  H   UNL A   1      29.895  31.736  23.750  1.00  0.00     0.172 HD
ATOM     25  C   UNL A   1      27.939  32.348  21.170  1.00  0.00     0.091 A 
ATOM     26  O   UNL A   1      28.643  33.754  22.922  1.00  0.00    -0.269 OA
ENDBRANCH  18  19
ENDBRANCH  17  18
ENDBRANCH  16  17
ENDBRANCH   9  16
ENDBRANCH   4   7
ENDBRANCH   2   3
ENDBRANCH   1   2
BRANCH   1  27
ATOM     27  C   UNL A   1      32.186  28.838  26.121  1.00  0.00     0.002 C 
BRANCH  27  28
ATOM     28  C   UNL A   1      31.997  29.816  27.286  1.00  0.00     0.002 C 
BRANCH  28  29
ATOM     29  C   UNL A   1      31.632  31.253  26.903  1.00  0.00     0.021 C 
BRANCH  29  30
ATOM     30  C   UNL A   1      32.810  32.216  26.804  1.00  0.00     0.116 C 
BRANCH  30  31
ATOM     31  N   UNL A   1      32.503  33.516  27.377  1.00  0.00    -0.352 N 
ATOM     32  C   UNL A   1      33.124  34.193  28.394  1.00  0.00     0.251 C 
ATOM     33  H   UNL A   1      31.733  33.979  26.974  1.00  0.00     0.163 HD
ATOM     34  O   UNL A   1      32.594  35.183  28.887  1.00  0.00    -0.269 OA
BRANCH  32  35
ATOM     35  C   UNL A   1      34.428  33.724  28.909  1.00  0.00     0.039 A 
ATOM     36  C   UNL A   1      34.450  32.875  30.019  1.00  0.00     0.014 A 
ATOM     37  C   UNL A   1      35.627  34.135  28.318  1.00  0.00     0.014 A 
ATOM     38  C   UNL A   1      35.669  32.397  30.502  1.00  0.00     0.010 A 
ATOM     39  C   UNL A   1      36.835  33.597  28.752  1.00  0.00     0.010 A 
ATOM     40  C   UNL A   1      36.869  32.728  29.853  1.00  0.00    -0.014 A 
BRANCH  40  41
ATOM     41  C   UNL A   1      38.168  32.176  30.313  1.00  0.00     0.031 A 
ATOM     42  C   UNL A   1      38.679  30.876  29.757  1.00  0.00     0.074 A 
ATOM     43  C   UNL A   1      38.857  32.815  31.278  1.00  0.00     0.049 A 
ATOM     44  N   UNL A   1      39.757  30.207  30.078  1.00  0.00    -0.248 NA
ATOM     45  C   UNL A   1      37.857  30.229  28.723  1.00  0.00     0.031 C 
ATOM     46  C   UNL A   1      38.443  34.059  31.931  1.00  0.00     0.029 A 
ATOM     47  N   UNL A   1      40.047  32.502  31.886  1.00  0.00    -0.354 N 
ATOM     48  C   UNL A   1      39.736  29.058  29.296  1.00  0.00     0.074 A 
ATOM     49  C   UNL A   1      38.510  29.092  28.528  1.00  0.00     0.031 C 
ATOM     50  C   UNL A   1      39.374  34.413  32.831  1.00  0.00     0.029 A 
ATOM     51  C   UNL A   1      40.427  33.403  32.851  1.00  0.00     0.049 A 
ATOM     52  H   UNL A   1      40.578  31.706  31.652  1.00  0.00     0.167 HD
ATOM     53  C   UNL A   1      40.664  28.074  29.209  1.00  0.00     0.037 A 
ATOM     54  C   UNL A   1      41.498  33.411  33.666  1.00  0.00     0.037 A 
ATOM     55  C   UNL A   1      41.890  28.053  29.963  1.00  0.00     0.049 A 
ATOM     56  C   UNL A   1      42.507  32.301  33.560  1.00  0.00     0.074 A 
ATOM     57  C   UNL A   1      42.923  27.133  29.903  1.00  0.00     0.029 A 
ATOM     58  N   UNL A   1      42.246  28.991  30.921  1.00  0.00    -0.354 N 
ATOM     59  N   UNL A   1      42.511  31.258  32.764  1.00  0.00    -0.248 NA
ATOM     60  C   UNL A   1      43.665  32.371  34.462  1.00  0.00     0.031 C 
ATOM     61  C   UNL A   1      43.877  27.485  30.863  1.00  0.00     0.029 A 
ATOM     62  C   UNL A   1      43.468  28.657  31.479  1.00  0.00     0.049 A 
ATOM     63  H   UNL A   1      41.708  29.779  31.167  1.00  0.00     0.167 HD
ATOM     64  C   UNL A   1      43.681  30.567  33.048  1.00  0.00     0.074 A 
ATOM     65  C   UNL A   1      44.370  31.315  34.078  1.00  0.00     0.031 C 
ATOM     66  C   UNL A   1      44.144  29.414  32.502  1.00  0.00     0.037 A 
BRANCH  53  67
ATOM     67  C   UNL A   1      40.384  26.939  28.266  1.00  0.00     0.057 A 
ATOM     68  C   UNL A   1      39.524  25.886  28.607  1.00  0.00     0.134 A 
ATOM     69  C   UNL A   1      40.957  26.913  26.988  1.00  0.00     0.134 A 
ATOM     70  F   UNL A   1      38.949  25.842  29.819  1.00  0.00    -0.206 F 
ATOM     71  C   UNL A   1      39.271  24.834  27.726  1.00  0.00     0.040 A 
ATOM     72  C   UNL A   1      40.687  25.882  26.086  1.00  0.00     0.040 A 
ATOM     73  F   UNL A   1      41.784  27.892  26.591  1.00  0.00    -0.206 F 
ATOM     74  C   UNL A   1      39.847  24.834  26.457  1.00  0.00     0.006 A 
ENDBRANCH  53  67
BRANCH  54  75
ATOM     75  C   UNL A   1      41.681  34.513  34.644  1.00  0.00     0.057 A 
ATOM     76  C   UNL A   1      42.324  35.703  34.283  1.00  0.00     0.134 A 
ATOM     77  C   UNL A   1      41.223  34.403  35.963  1.00  0.00     0.134 A 
ATOM     78  F   UNL A   1      42.799  35.862  33.040  1.00  0.00    -0.206 F 
ATOM     79  C   UNL A   1      42.525  36.734  35.203  1.00  0.00     0.040 A 
ATOM     80  C   UNL A   1      41.392  35.437  36.886  1.00  0.00     0.040 A 
ATOM     81  F   UNL A   1      40.590  33.293  36.371  1.00  0.00    -0.206 F 
ATOM     82  C   UNL A   1      42.053  36.604  36.507  1.00  0.00     0.006 A 
ENDBRANCH  54  75
BRANCH  66  83
ATOM     83  C   UNL A   1      45.476  28.912  32.984  1.00  0.00     0.057 A 
ATOM     84  C   UNL A   1      46.679  29.308  32.386  1.00  0.00     0.134 A 
ATOM     85  C   UNL A   1      45.554  28.051  34.085  1.00  0.00     0.134 A 
ATOM     86  F   UNL A   1      46.673  30.121  31.318  1.00  0.00    -0.206 F 
ATOM     87  C   UNL A   1      47.911  28.845  32.852  1.00  0.00     0.040 A 
ATOM     88  C   UNL A   1      46.781  27.606  34.579  1.00  0.00     0.040 A 
ATOM     89  F   UNL A   1      44.441  27.640  34.711  1.00  0.00    -0.206 F 
ATOM     90  C   UNL A   1      47.964  27.998  33.957  1.00  0.00     0.006 A 
ENDBRANCH  66  83
ENDBRANCH  40  41
ENDBRANCH  32  35
ENDBRANCH  30  31
ENDBRANCH  29  30
ENDBRANCH  28  29
ENDBRANCH  27  28
ENDBRANCH   1  27
TORSDOF 18
ENDMDL
