MODEL 1
REMARK VINA RESULT:     -11.4      0.000      0.000
REMARK SMILES C[C@H](Oc1ccc(/C=C2\SC(=S)N(N)C2=O)cc1)C(=O)NCCCCCCNC(=O)c1ccc(-c2c3nc(c(-c4c(F)cccc4F)c4ccc([nH]4)c(-c4c(F)cccc4F)c4nc(c(-c5c(F)cccc5F)c5ccc2[nH]5)C=C4)C=C3)cc1
REMARK SMILES IDX 23 1 22 2 21 3 19 4 20 5 2 7 1 8 3 9 4 10 5 11 18 12 6 13
REMARK SMILES IDX 17 14 7 15 8 16 9 17 10 18 15 19 11 20 13 21 16 22 12 23
REMARK SMILES IDX 14 24 24 27 25 28 26 29 27 30 28 31 29 32 30 34 31 35 32 36
REMARK SMILES IDX 84 37 33 38 83 39 34 40 35 41 36 42 77 43 37 44 82 45 76 46
REMARK SMILES IDX 78 47 38 48 81 49 75 50 74 51 39 53 65 54 48 55 64 56 49 57
REMARK SMILES IDX 52 58 63 59 79 60 50 61 51 62 62 64 80 65 53 66 40 67 41 68
REMARK SMILES IDX 46 69 42 70 43 71 45 72 47 73 44 74 66 75 67 76 72 77 68 78
REMARK SMILES IDX 69 79 71 80 73 81 70 82 54 83 55 84 60 85 56 86 57 87 59 88
REMARK SMILES IDX 61 89 58 90
REMARK H PARENT 21 6 14 25 14 26 28 33 78 52 52 63
REMARK Flexibility Score: inf
ROOT
ATOM      1  C   UNL A   1      37.281  23.056  25.222  1.00  0.00     0.021 C 
ENDROOT
BRANCH   1   2
ATOM      2  C   UNL A   1      35.953  23.795  25.331  1.00  0.00     0.116 C 
BRANCH   2   3
ATOM      3  N   UNL A   1      35.387  24.054  24.019  1.00  0.00    -0.353 N 
ATOM      4  C   UNL A   1      34.073  24.036  23.633  1.00  0.00     0.260 C 
ATOM      5  O   UNL A   1      33.808  24.243  22.447  1.00  0.00    -0.271 OA
ATOM      6  H   UNL A   1      36.036  24.275  23.312  1.00  0.00     0.163 HD
BRANCH   4   7
ATOM      7  C   UNL A   1      32.974  23.853  24.689  1.00  0.00     0.258 C 
ATOM      8  C   UNL A   1      31.629  23.921  23.946  1.00  0.00     0.064 C 
BRANCH   7   9
ATOM      9  O   UNL A   1      33.255  24.807  25.725  1.00  0.00    -0.481 OA
BRANCH   9  10
ATOM     10  C   UNL A   1      32.832  26.097  25.636  1.00  0.00     0.120 A 
ATOM     11  C   UNL A   1      33.370  27.066  24.805  1.00  0.00     0.047 A 
ATOM     12  C   UNL A   1      31.788  26.446  26.498  1.00  0.00     0.047 A 
ATOM     13  C   UNL A   1      32.998  28.404  24.961  1.00  0.00     0.012 A 
ATOM     14  C   UNL A   1      31.403  27.784  26.646  1.00  0.00     0.012 A 
ATOM     15  C   UNL A   1      32.067  28.786  25.932  1.00  0.00    -0.024 A 
BRANCH  15  16
ATOM     16  C   UNL A   1      31.753  30.204  26.178  1.00  0.00     0.029 C 
ATOM     17  C   UNL A   1      32.518  31.089  26.840  1.00  0.00     0.082 C 
ATOM     18  S   UNL A   1      34.033  30.811  27.626  1.00  0.00    -0.053 SA
ATOM     19  C   UNL A   1      32.121  32.519  26.988  1.00  0.00     0.280 C 
ATOM     20  C   UNL A   1      34.212  32.485  28.127  1.00  0.00     0.162 C 
ATOM     21  N   UNL A   1      33.100  33.197  27.712  1.00  0.00    -0.226 N 
ATOM     22  O   UNL A   1      31.114  33.012  26.501  1.00  0.00    -0.267 OA
ATOM     23  S   UNL A   1      35.551  33.062  28.937  1.00  0.00    -0.050 S 
BRANCH  21  24
ATOM     24  N   UNL A   1      32.926  34.579  28.002  1.00  0.00    -0.239 NA
ATOM     25  H   UNL A   1      33.695  34.902  28.589  1.00  0.00     0.144 HD
ATOM     26  H   UNL A   1      32.042  34.715  28.492  1.00  0.00     0.144 HD
ENDBRANCH  21  24
ENDBRANCH  15  16
ENDBRANCH   9  10
ENDBRANCH   7   9
ENDBRANCH   4   7
ENDBRANCH   2   3
ENDBRANCH   1   2
BRANCH   1  27
ATOM     27  C   UNL A   1      37.228  21.842  24.291  1.00  0.00     0.002 C 
BRANCH  27  28
ATOM     28  C   UNL A   1      36.915  20.514  24.990  1.00  0.00     0.002 C 
BRANCH  28  29
ATOM     29  C   UNL A   1      38.075  19.517  25.026  1.00  0.00     0.021 C 
BRANCH  29  30
ATOM     30  C   UNL A   1      39.326  20.031  25.729  1.00  0.00     0.116 C 
BRANCH  30  31
ATOM     31  N   UNL A   1      40.328  18.989  25.888  1.00  0.00    -0.352 N 
ATOM     32  C   UNL A   1      41.679  19.104  26.096  1.00  0.00     0.251 C 
ATOM     33  H   UNL A   1      39.987  18.068  25.839  1.00  0.00     0.163 HD
ATOM     34  O   UNL A   1      42.403  18.117  26.005  1.00  0.00    -0.269 OA
BRANCH  32  35
ATOM     35  C   UNL A   1      42.264  20.423  26.410  1.00  0.00     0.039 A 
ATOM     36  C   UNL A   1      42.844  21.162  25.377  1.00  0.00     0.014 A 
ATOM     37  C   UNL A   1      42.243  20.928  27.713  1.00  0.00     0.014 A 
ATOM     38  C   UNL A   1      43.351  22.435  25.641  1.00  0.00     0.010 A 
ATOM     39  C   UNL A   1      42.676  22.228  27.958  1.00  0.00     0.010 A 
ATOM     40  C   UNL A   1      43.236  22.994  26.925  1.00  0.00    -0.014 A 
BRANCH  40  41
ATOM     41  C   UNL A   1      43.680  24.384  27.191  1.00  0.00     0.031 A 
ATOM     42  C   UNL A   1      42.692  25.438  27.608  1.00  0.00     0.074 A 
ATOM     43  C   UNL A   1      44.973  24.711  27.005  1.00  0.00     0.049 A 
ATOM     44  N   UNL A   1      42.893  26.705  27.864  1.00  0.00    -0.248 NA
ATOM     45  C   UNL A   1      41.287  25.017  27.727  1.00  0.00     0.031 C 
ATOM     46  C   UNL A   1      46.019  23.791  26.552  1.00  0.00     0.029 A 
ATOM     47  N   UNL A   1      45.629  25.904  27.173  1.00  0.00    -0.354 N 
ATOM     48  C   UNL A   1      41.646  27.233  28.169  1.00  0.00     0.074 A 
ATOM     49  C   UNL A   1      40.685  26.165  28.005  1.00  0.00     0.031 C 
ATOM     50  C   UNL A   1      47.191  24.444  26.514  1.00  0.00     0.029 A 
ATOM     51  C   UNL A   1      46.974  25.836  26.897  1.00  0.00     0.049 A 
ATOM     52  H   UNL A   1      45.181  26.729  27.464  1.00  0.00     0.167 HD
ATOM     53  C   UNL A   1      41.332  28.489  28.570  1.00  0.00     0.037 A 
ATOM     54  C   UNL A   1      47.924  26.787  26.942  1.00  0.00     0.037 A 
ATOM     55  C   UNL A   1      42.296  29.547  28.740  1.00  0.00     0.049 A 
ATOM     56  C   UNL A   1      47.548  28.178  27.369  1.00  0.00     0.074 A 
ATOM     57  C   UNL A   1      42.088  30.836  29.200  1.00  0.00     0.029 A 
ATOM     58  N   UNL A   1      43.646  29.443  28.442  1.00  0.00    -0.354 N 
ATOM     59  N   UNL A   1      46.378  28.645  27.732  1.00  0.00    -0.248 NA
ATOM     60  C   UNL A   1      48.628  29.173  27.399  1.00  0.00     0.031 C 
ATOM     61  C   UNL A   1      43.301  31.529  29.123  1.00  0.00     0.029 A 
ATOM     62  C   UNL A   1      44.278  30.653  28.675  1.00  0.00     0.049 A 
ATOM     63  H   UNL A   1      44.091  28.628  28.113  1.00  0.00     0.167 HD
ATOM     64  C   UNL A   1      46.583  29.980  28.057  1.00  0.00     0.074 A 
ATOM     65  C   UNL A   1      47.995  30.241  27.866  1.00  0.00     0.031 C 
ATOM     66  C   UNL A   1      45.684  30.904  28.476  1.00  0.00     0.037 A 
BRANCH  53  67
ATOM     67  C   UNL A   1      39.884  28.785  28.846  1.00  0.00     0.057 A 
ATOM     68  C   UNL A   1      39.005  29.199  27.835  1.00  0.00     0.134 A 
ATOM     69  C   UNL A   1      39.357  28.636  30.135  1.00  0.00     0.134 A 
ATOM     70  F   UNL A   1      39.446  29.372  26.580  1.00  0.00    -0.206 F 
ATOM     71  C   UNL A   1      37.667  29.488  28.102  1.00  0.00     0.040 A 
ATOM     72  C   UNL A   1      38.011  28.891  30.409  1.00  0.00     0.040 A 
ATOM     73  F   UNL A   1      40.137  28.236  31.150  1.00  0.00    -0.206 F 
ATOM     74  C   UNL A   1      37.165  29.328  29.393  1.00  0.00     0.006 A 
ENDBRANCH  53  67
BRANCH  54  75
ATOM     75  C   UNL A   1      49.329  26.447  26.600  1.00  0.00     0.057 A 
ATOM     76  C   UNL A   1      50.189  25.891  27.553  1.00  0.00     0.134 A 
ATOM     77  C   UNL A   1      49.842  26.664  25.315  1.00  0.00     0.134 A 
ATOM     78  F   UNL A   1      49.760  25.677  28.805  1.00  0.00    -0.206 F 
ATOM     79  C   UNL A   1      51.514  25.577  27.246  1.00  0.00     0.040 A 
ATOM     80  C   UNL A   1      51.157  26.329  24.987  1.00  0.00     0.040 A 
ATOM     81  F   UNL A   1      49.065  27.186  24.354  1.00  0.00    -0.206 F 
ATOM     82  C   UNL A   1      51.999  25.790  25.958  1.00  0.00     0.006 A 
ENDBRANCH  54  75
BRANCH  66  83
ATOM     83  C   UNL A   1      46.208  32.278  28.784  1.00  0.00     0.057 A 
ATOM     84  C   UNL A   1      46.686  32.624  30.054  1.00  0.00     0.134 A 
ATOM     85  C   UNL A   1      46.259  33.260  27.787  1.00  0.00     0.134 A 
ATOM     86  F   UNL A   1      46.654  31.735  31.058  1.00  0.00    -0.206 F 
ATOM     87  C   UNL A   1      47.168  33.905  30.329  1.00  0.00     0.040 A 
ATOM     88  C   UNL A   1      46.769  34.535  28.041  1.00  0.00     0.040 A 
ATOM     89  F   UNL A   1      45.827  32.995  26.545  1.00  0.00    -0.206 F 
ATOM     90  C   UNL A   1      47.216  34.863  29.318  1.00  0.00     0.006 A 
ENDBRANCH  66  83
ENDBRANCH  40  41
ENDBRANCH  32  35
ENDBRANCH  30  31
ENDBRANCH  29  30
ENDBRANCH  28  29
ENDBRANCH  27  28
ENDBRANCH   1  27
TORSDOF 17
ENDMDL
MODEL 2
REMARK VINA RESULT:     -11.4      5.322      7.891
REMARK SMILES C[C@H](Oc1ccc(/C=C2\SC(=S)N(N)C2=O)cc1)C(=O)NCCCCCCNC(=O)c1ccc(-c2c3nc(c(-c4c(F)cccc4F)c4ccc([nH]4)c(-c4c(F)cccc4F)c4nc(c(-c5c(F)cccc5F)c5ccc2[nH]5)C=C4)C=C3)cc1
REMARK SMILES IDX 23 1 22 2 21 3 19 4 20 5 2 7 1 8 3 9 4 10 5 11 18 12 6 13
REMARK SMILES IDX 17 14 7 15 8 16 9 17 10 18 15 19 11 20 13 21 16 22 12 23
REMARK SMILES IDX 14 24 24 27 25 28 26 29 27 30 28 31 29 32 30 34 31 35 32 36
REMARK SMILES IDX 84 37 33 38 83 39 34 40 35 41 36 42 77 43 37 44 82 45 76 46
REMARK SMILES IDX 78 47 38 48 81 49 75 50 74 51 39 53 65 54 48 55 64 56 49 57
REMARK SMILES IDX 52 58 63 59 79 60 50 61 51 62 62 64 80 65 53 66 40 67 41 68
REMARK SMILES IDX 46 69 42 70 43 71 45 72 47 73 44 74 66 75 67 76 72 77 68 78
REMARK SMILES IDX 69 79 71 80 73 81 70 82 54 83 55 84 60 85 56 86 57 87 59 88
REMARK SMILES IDX 61 89 58 90
REMARK H PARENT 21 6 14 25 14 26 28 33 78 52 52 63
REMARK Flexibility Score: inf
ROOT
ATOM      1  C   UNL A   1      36.420  22.310  25.056  1.00  0.00     0.021 C 
ENDROOT
BRANCH   1   2
ATOM      2  C   UNL A   1      35.509  21.265  25.689  1.00  0.00     0.116 C 
BRANCH   2   3
ATOM      3  N   UNL A   1      35.622  19.988  25.007  1.00  0.00    -0.353 N 
ATOM      4  C   UNL A   1      34.660  19.032  24.812  1.00  0.00     0.260 C 
ATOM      5  O   UNL A   1      34.980  17.988  24.240  1.00  0.00    -0.271 OA
ATOM      6  H   UNL A   1      36.510  19.782  24.634  1.00  0.00     0.163 HD
BRANCH   4   7
ATOM      7  C   UNL A   1      33.208  19.321  25.220  1.00  0.00     0.258 C 
ATOM      8  C   UNL A   1      32.620  17.995  25.732  1.00  0.00     0.064 C 
BRANCH   7   9
ATOM      9  O   UNL A   1      32.600  19.972  24.094  1.00  0.00    -0.481 OA
BRANCH   9  10
ATOM     10  C   UNL A   1      32.241  21.283  24.140  1.00  0.00     0.120 A 
ATOM     11  C   UNL A   1      31.543  21.892  25.170  1.00  0.00     0.047 A 
ATOM     12  C   UNL A   1      32.591  22.040  23.018  1.00  0.00     0.047 A 
ATOM     13  C   UNL A   1      31.042  23.186  25.005  1.00  0.00     0.012 A 
ATOM     14  C   UNL A   1      32.104  23.343  22.856  1.00  0.00     0.012 A 
ATOM     15  C   UNL A   1      31.254  23.897  23.818  1.00  0.00    -0.024 A 
BRANCH  15  16
ATOM     16  C   UNL A   1      30.636  25.214  23.593  1.00  0.00     0.029 C 
ATOM     17  C   UNL A   1      31.071  26.393  24.070  1.00  0.00     0.082 C 
ATOM     18  S   UNL A   1      32.418  26.690  25.112  1.00  0.00    -0.053 SA
ATOM     19  C   UNL A   1      30.390  27.678  23.737  1.00  0.00     0.280 C 
ATOM     20  C   UNL A   1      32.173  28.430  25.123  1.00  0.00     0.162 C 
ATOM     21  N   UNL A   1      31.056  28.729  24.364  1.00  0.00    -0.226 N 
ATOM     22  O   UNL A   1      29.428  27.778  22.988  1.00  0.00    -0.267 OA
ATOM     23  S   UNL A   1      33.187  29.493  25.913  1.00  0.00    -0.050 S 
BRANCH  21  24
ATOM     24  N   UNL A   1      30.570  30.057  24.210  1.00  0.00    -0.239 NA
ATOM     25  H   UNL A   1      31.331  30.717  24.370  1.00  0.00     0.144 HD
ATOM     26  H   UNL A   1      29.824  30.226  24.885  1.00  0.00     0.144 HD
ENDBRANCH  21  24
ENDBRANCH  15  16
ENDBRANCH   9  10
ENDBRANCH   7   9
ENDBRANCH   4   7
ENDBRANCH   2   3
ENDBRANCH   1   2
BRANCH   1  27
ATOM     27  C   UNL A   1      37.649  22.640  25.906  1.00  0.00     0.002 C 
BRANCH  27  28
ATOM     28  C   UNL A   1      38.816  21.659  25.751  1.00  0.00     0.002 C 
BRANCH  28  29
ATOM     29  C   UNL A   1      39.924  21.807  26.796  1.00  0.00     0.021 C 
BRANCH  29  30
ATOM     30  C   UNL A   1      40.219  23.246  27.202  1.00  0.00     0.116 C 
BRANCH  30  31
ATOM     31  N   UNL A   1      40.862  23.993  26.132  1.00  0.00    -0.352 N 
ATOM     32  C   UNL A   1      41.176  25.326  26.067  1.00  0.00     0.251 C 
ATOM     33  H   UNL A   1      41.106  23.463  25.339  1.00  0.00     0.163 HD
ATOM     34  O   UNL A   1      41.534  25.824  25.004  1.00  0.00    -0.269 OA
BRANCH  32  35
ATOM     35  C   UNL A   1      41.062  26.167  27.275  1.00  0.00     0.039 A 
ATOM     36  C   UNL A   1      41.998  27.184  27.475  1.00  0.00     0.014 A 
ATOM     37  C   UNL A   1      40.042  25.954  28.206  1.00  0.00     0.014 A 
ATOM     38  C   UNL A   1      41.873  28.027  28.581  1.00  0.00     0.010 A 
ATOM     39  C   UNL A   1      39.873  26.843  29.264  1.00  0.00     0.010 A 
ATOM     40  C   UNL A   1      40.788  27.887  29.462  1.00  0.00    -0.014 A 
BRANCH  40  41
ATOM     41  C   UNL A   1      40.593  28.841  30.582  1.00  0.00     0.031 A 
ATOM     42  C   UNL A   1      39.526  29.898  30.510  1.00  0.00     0.074 A 
ATOM     43  C   UNL A   1      41.415  28.787  31.647  1.00  0.00     0.049 A 
ATOM     44  N   UNL A   1      39.221  30.826  31.382  1.00  0.00    -0.248 NA
ATOM     45  C   UNL A   1      38.709  29.933  29.287  1.00  0.00     0.031 C 
ATOM     46  C   UNL A   1      42.522  27.841  31.811  1.00  0.00     0.029 A 
ATOM     47  N   UNL A   1      41.451  29.541  32.792  1.00  0.00    -0.354 N 
ATOM     48  C   UNL A   1      38.187  31.556  30.812  1.00  0.00     0.074 A 
ATOM     49  C   UNL A   1      37.957  31.003  29.495  1.00  0.00     0.031 C 
ATOM     50  C   UNL A   1      43.102  28.049  33.003  1.00  0.00     0.029 A 
ATOM     51  C   UNL A   1      42.441  29.166  33.667  1.00  0.00     0.049 A 
ATOM     52  H   UNL A   1      40.826  30.281  32.969  1.00  0.00     0.167 HD
ATOM     53  C   UNL A   1      37.477  32.579  31.346  1.00  0.00     0.037 A 
ATOM     54  C   UNL A   1      42.780  29.668  34.869  1.00  0.00     0.037 A 
ATOM     55  C   UNL A   1      37.706  33.120  32.663  1.00  0.00     0.049 A 
ATOM     56  C   UNL A   1      41.993  30.818  35.432  1.00  0.00     0.074 A 
ATOM     57  C   UNL A   1      37.004  34.115  33.320  1.00  0.00     0.029 A 
ATOM     58  N   UNL A   1      38.723  32.720  33.517  1.00  0.00    -0.354 N 
ATOM     59  N   UNL A   1      40.965  31.448  34.917  1.00  0.00    -0.248 NA
ATOM     60  C   UNL A   1      42.411  31.323  36.746  1.00  0.00     0.031 C 
ATOM     61  C   UNL A   1      37.632  34.359  34.545  1.00  0.00     0.029 A 
ATOM     62  C   UNL A   1      38.689  33.472  34.680  1.00  0.00     0.049 A 
ATOM     63  H   UNL A   1      39.375  32.007  33.325  1.00  0.00     0.167 HD
ATOM     64  C   UNL A   1      40.596  32.405  35.853  1.00  0.00     0.074 A 
ATOM     65  C   UNL A   1      41.500  32.259  36.975  1.00  0.00     0.031 C 
ATOM     66  C   UNL A   1      39.598  33.321  35.789  1.00  0.00     0.037 A 
BRANCH  53  67
ATOM     67  C   UNL A   1      36.393  33.185  30.501  1.00  0.00     0.057 A 
ATOM     68  C   UNL A   1      35.038  32.890  30.707  1.00  0.00     0.134 A 
ATOM     69  C   UNL A   1      36.705  34.090  29.478  1.00  0.00     0.134 A 
ATOM     70  F   UNL A   1      34.668  32.023  31.662  1.00  0.00    -0.206 F 
ATOM     71  C   UNL A   1      34.038  33.444  29.906  1.00  0.00     0.040 A 
ATOM     72  C   UNL A   1      35.711  34.676  28.691  1.00  0.00     0.040 A 
ATOM     73  F   UNL A   1      37.979  34.425  29.228  1.00  0.00    -0.206 F 
ATOM     74  C   UNL A   1      34.374  34.345  28.898  1.00  0.00     0.006 A 
ENDBRANCH  53  67
BRANCH  54  75
ATOM     75  C   UNL A   1      43.902  29.065  35.633  1.00  0.00     0.057 A 
ATOM     76  C   UNL A   1      45.216  29.516  35.463  1.00  0.00     0.134 A 
ATOM     77  C   UNL A   1      43.689  28.031  36.552  1.00  0.00     0.134 A 
ATOM     78  F   UNL A   1      45.485  30.492  34.584  1.00  0.00    -0.206 F 
ATOM     79  C   UNL A   1      46.279  28.952  36.168  1.00  0.00     0.040 A 
ATOM     80  C   UNL A   1      44.740  27.475  37.284  1.00  0.00     0.040 A 
ATOM     81  F   UNL A   1      42.452  27.559  36.767  1.00  0.00    -0.206 F 
ATOM     82  C   UNL A   1      46.042  27.931  37.086  1.00  0.00     0.006 A 
ENDBRANCH  54  75
BRANCH  66  83
ATOM     83  C   UNL A   1      39.416  34.220  36.980  1.00  0.00     0.057 A 
ATOM     84  C   UNL A   1      38.732  33.801  38.128  1.00  0.00     0.134 A 
ATOM     85  C   UNL A   1      39.957  35.511  36.987  1.00  0.00     0.134 A 
ATOM     86  F   UNL A   1      38.177  32.580  38.183  1.00  0.00    -0.206 F 
ATOM     87  C   UNL A   1      38.566  34.645  39.228  1.00  0.00     0.040 A 
ATOM     88  C   UNL A   1      39.826  36.353  38.093  1.00  0.00     0.040 A 
ATOM     89  F   UNL A   1      40.633  35.974  35.925  1.00  0.00    -0.206 F 
ATOM     90  C   UNL A   1      39.120  35.924  39.214  1.00  0.00     0.006 A 
ENDBRANCH  66  83
ENDBRANCH  40  41
ENDBRANCH  32  35
ENDBRANCH  30  31
ENDBRANCH  29  30
ENDBRANCH  28  29
ENDBRANCH  27  28
ENDBRANCH   1  27
TORSDOF 17
ENDMDL
MODEL 3
REMARK VINA RESULT:     -11.2      4.645      8.386
REMARK SMILES C[C@H](Oc1ccc(/C=C2\SC(=S)N(N)C2=O)cc1)C(=O)NCCCCCCNC(=O)c1ccc(-c2c3nc(c(-c4c(F)cccc4F)c4ccc([nH]4)c(-c4c(F)cccc4F)c4nc(c(-c5c(F)cccc5F)c5ccc2[nH]5)C=C4)C=C3)cc1
REMARK SMILES IDX 23 1 22 2 21 3 19 4 20 5 2 7 1 8 3 9 4 10 5 11 18 12 6 13
REMARK SMILES IDX 17 14 7 15 8 16 9 17 10 18 15 19 11 20 13 21 16 22 12 23
REMARK SMILES IDX 14 24 24 27 25 28 26 29 27 30 28 31 29 32 30 34 31 35 32 36
REMARK SMILES IDX 84 37 33 38 83 39 34 40 35 41 36 42 77 43 37 44 82 45 76 46
REMARK SMILES IDX 78 47 38 48 81 49 75 50 74 51 39 53 65 54 48 55 64 56 49 57
REMARK SMILES IDX 52 58 63 59 79 60 50 61 51 62 62 64 80 65 53 66 40 67 41 68
REMARK SMILES IDX 46 69 42 70 43 71 45 72 47 73 44 74 66 75 67 76 72 77 68 78
REMARK SMILES IDX 69 79 71 80 73 81 70 82 54 83 55 84 60 85 56 86 57 87 59 88
REMARK SMILES IDX 61 89 58 90
REMARK H PARENT 21 6 14 25 14 26 28 33 78 52 52 63
REMARK Flexibility Score: inf
ROOT
ATOM      1  C   UNL A   1      39.395  23.872  26.661  1.00  0.00     0.021 C 
ENDROOT
BRANCH   1   2
ATOM      2  C   UNL A   1      37.928  23.694  26.293  1.00  0.00     0.116 C 
BRANCH   2   3
ATOM      3  N   UNL A   1      37.764  23.498  24.863  1.00  0.00    -0.353 N 
ATOM      4  C   UNL A   1      36.947  22.618  24.205  1.00  0.00     0.260 C 
ATOM      5  O   UNL A   1      36.994  22.582  22.975  1.00  0.00    -0.271 OA
ATOM      6  H   UNL A   1      38.315  24.079  24.289  1.00  0.00     0.163 HD
BRANCH   4   7
ATOM      7  C   UNL A   1      35.939  21.777  25.003  1.00  0.00     0.258 C 
ATOM      8  C   UNL A   1      36.467  20.332  24.999  1.00  0.00     0.064 C 
BRANCH   7   9
ATOM      9  O   UNL A   1      34.650  22.056  24.434  1.00  0.00    -0.481 OA
BRANCH   9  10
ATOM     10  C   UNL A   1      34.095  23.296  24.508  1.00  0.00     0.120 A 
ATOM     11  C   UNL A   1      33.916  24.164  23.443  1.00  0.00     0.047 A 
ATOM     12  C   UNL A   1      33.719  23.708  25.790  1.00  0.00     0.047 A 
ATOM     13  C   UNL A   1      33.540  25.488  23.679  1.00  0.00     0.012 A 
ATOM     14  C   UNL A   1      33.326  25.031  26.027  1.00  0.00     0.012 A 
ATOM     15  C   UNL A   1      33.312  25.956  24.978  1.00  0.00    -0.024 A 
BRANCH  15  16
ATOM     16  C   UNL A   1      33.025  27.375  25.244  1.00  0.00     0.029 C 
ATOM     17  C   UNL A   1      32.009  28.093  24.736  1.00  0.00     0.082 C 
ATOM     18  S   UNL A   1      30.805  27.586  23.604  1.00  0.00    -0.053 SA
ATOM     19  C   UNL A   1      31.785  29.519  25.114  1.00  0.00     0.280 C 
ATOM     20  C   UNL A   1      29.981  29.138  23.607  1.00  0.00     0.162 C 
ATOM     21  N   UNL A   1      30.665  30.004  24.441  1.00  0.00    -0.226 N 
ATOM     22  O   UNL A   1      32.460  30.134  25.927  1.00  0.00    -0.267 OA
ATOM     23  S   UNL A   1      28.583  29.435  22.748  1.00  0.00    -0.050 S 
BRANCH  21  24
ATOM     24  N   UNL A   1      30.269  31.358  24.626  1.00  0.00    -0.239 NA
ATOM     25  H   UNL A   1      29.251  31.413  24.649  1.00  0.00     0.144 HD
ATOM     26  H   UNL A   1      30.624  31.924  23.856  1.00  0.00     0.144 HD
ENDBRANCH  21  24
ENDBRANCH  15  16
ENDBRANCH   9  10
ENDBRANCH   7   9
ENDBRANCH   4   7
ENDBRANCH   2   3
ENDBRANCH   1   2
BRANCH   1  27
ATOM     27  C   UNL A   1      40.040  22.603  27.225  1.00  0.00     0.002 C 
BRANCH  27  28
ATOM     28  C   UNL A   1      40.610  21.651  26.168  1.00  0.00     0.002 C 
BRANCH  28  29
ATOM     29  C   UNL A   1      42.118  21.775  25.937  1.00  0.00     0.021 C 
BRANCH  29  30
ATOM     30  C   UNL A   1      42.527  22.959  25.069  1.00  0.00     0.116 C 
BRANCH  30  31
ATOM     31  N   UNL A   1      43.962  23.190  25.104  1.00  0.00    -0.352 N 
ATOM     32  C   UNL A   1      44.673  24.163  25.757  1.00  0.00     0.251 C 
ATOM     33  H   UNL A   1      44.502  22.554  24.582  1.00  0.00     0.163 HD
ATOM     34  O   UNL A   1      45.864  24.328  25.511  1.00  0.00    -0.269 OA
BRANCH  32  35
ATOM     35  C   UNL A   1      43.997  25.029  26.744  1.00  0.00     0.039 A 
ATOM     36  C   UNL A   1      43.206  24.434  27.728  1.00  0.00     0.014 A 
ATOM     37  C   UNL A   1      44.139  26.420  26.698  1.00  0.00     0.014 A 
ATOM     38  C   UNL A   1      42.605  25.231  28.704  1.00  0.00     0.010 A 
ATOM     39  C   UNL A   1      43.605  27.203  27.717  1.00  0.00     0.010 A 
ATOM     40  C   UNL A   1      42.831  26.617  28.729  1.00  0.00    -0.014 A 
BRANCH  40  41
ATOM     41  C   UNL A   1      42.279  27.457  29.820  1.00  0.00     0.031 A 
ATOM     42  C   UNL A   1      42.911  27.453  31.184  1.00  0.00     0.074 A 
ATOM     43  C   UNL A   1      41.171  28.189  29.595  1.00  0.00     0.049 A 
ATOM     44  N   UNL A   1      42.557  28.107  32.262  1.00  0.00    -0.248 NA
ATOM     45  C   UNL A   1      44.081  26.579  31.370  1.00  0.00     0.031 C 
ATOM     46  C   UNL A   1      40.435  28.236  28.329  1.00  0.00     0.029 A 
ATOM     47  N   UNL A   1      40.469  29.031  30.419  1.00  0.00    -0.354 N 
ATOM     48  C   UNL A   1      43.452  27.721  33.250  1.00  0.00     0.074 A 
ATOM     49  C   UNL A   1      44.327  26.730  32.663  1.00  0.00     0.031 C 
ATOM     50  C   UNL A   1      39.408  29.092  28.451  1.00  0.00     0.029 A 
ATOM     51  C   UNL A   1      39.387  29.619  29.811  1.00  0.00     0.049 A 
ATOM     52  H   UNL A   1      40.718  29.198  31.356  1.00  0.00     0.167 HD
ATOM     53  C   UNL A   1      43.551  28.168  34.525  1.00  0.00     0.037 A 
ATOM     54  C   UNL A   1      38.476  30.483  30.296  1.00  0.00     0.037 A 
ATOM     55  C   UNL A   1      42.681  29.162  35.102  1.00  0.00     0.049 A 
ATOM     56  C   UNL A   1      38.593  30.948  31.720  1.00  0.00     0.074 A 
ATOM     57  C   UNL A   1      42.735  29.726  36.365  1.00  0.00     0.029 A 
ATOM     58  N   UNL A   1      41.590  29.728  34.459  1.00  0.00    -0.354 N 
ATOM     59  N   UNL A   1      39.492  30.637  32.622  1.00  0.00    -0.248 NA
ATOM     60  C   UNL A   1      37.570  31.891  32.192  1.00  0.00     0.031 C 
ATOM     61  C   UNL A   1      41.643  30.588  36.507  1.00  0.00     0.029 A 
ATOM     62  C   UNL A   1      40.943  30.610  35.310  1.00  0.00     0.049 A 
ATOM     63  H   UNL A   1      41.316  29.533  33.534  1.00  0.00     0.167 HD
ATOM     64  C   UNL A   1      39.160  31.362  33.759  1.00  0.00     0.074 A 
ATOM     65  C   UNL A   1      37.987  32.144  33.425  1.00  0.00     0.031 C 
ATOM     66  C   UNL A   1      39.772  31.380  34.969  1.00  0.00     0.037 A 
BRANCH  53  67
ATOM     67  C   UNL A   1      44.634  27.577  35.384  1.00  0.00     0.057 A 
ATOM     68  C   UNL A   1      45.918  28.135  35.448  1.00  0.00     0.134 A 
ATOM     69  C   UNL A   1      44.385  26.447  36.172  1.00  0.00     0.134 A 
ATOM     70  F   UNL A   1      46.230  29.212  34.711  1.00  0.00    -0.206 F 
ATOM     71  C   UNL A   1      46.923  27.571  36.235  1.00  0.00     0.040 A 
ATOM     72  C   UNL A   1      45.372  25.892  36.989  1.00  0.00     0.040 A 
ATOM     73  F   UNL A   1      43.176  25.864  36.167  1.00  0.00    -0.206 F 
ATOM     74  C   UNL A   1      46.649  26.448  37.014  1.00  0.00     0.006 A 
ENDBRANCH  53  67
BRANCH  54  75
ATOM     75  C   UNL A   1      37.391  30.987  29.415  1.00  0.00     0.057 A 
ATOM     76  C   UNL A   1      36.274  30.197  29.123  1.00  0.00     0.134 A 
ATOM     77  C   UNL A   1      37.442  32.267  28.851  1.00  0.00     0.134 A 
ATOM     78  F   UNL A   1      36.177  28.956  29.620  1.00  0.00    -0.206 F 
ATOM     79  C   UNL A   1      35.253  30.655  28.290  1.00  0.00     0.040 A 
ATOM     80  C   UNL A   1      36.415  32.749  28.038  1.00  0.00     0.040 A 
ATOM     81  F   UNL A   1      38.482  33.077  29.100  1.00  0.00    -0.206 F 
ATOM     82  C   UNL A   1      35.319  31.938  27.749  1.00  0.00     0.006 A 
ENDBRANCH  54  75
BRANCH  66  83
ATOM     83  C   UNL A   1      39.199  32.295  36.013  1.00  0.00     0.057 A 
ATOM     84  C   UNL A   1      38.244  31.857  36.941  1.00  0.00     0.134 A 
ATOM     85  C   UNL A   1      39.628  33.624  36.110  1.00  0.00     0.134 A 
ATOM     86  F   UNL A   1      37.779  30.599  36.896  1.00  0.00    -0.206 F 
ATOM     87  C   UNL A   1      37.716  32.716  37.906  1.00  0.00     0.040 A 
ATOM     88  C   UNL A   1      39.131  34.484  37.091  1.00  0.00     0.040 A 
ATOM     89  F   UNL A   1      40.547  34.107  35.261  1.00  0.00    -0.206 F 
ATOM     90  C   UNL A   1      38.165  34.033  37.986  1.00  0.00     0.006 A 
ENDBRANCH  66  83
ENDBRANCH  40  41
ENDBRANCH  32  35
ENDBRANCH  30  31
ENDBRANCH  29  30
ENDBRANCH  28  29
ENDBRANCH  27  28
ENDBRANCH   1  27
TORSDOF 17
ENDMDL
