MODEL 1
REMARK VINA RESULT:     -10.5      0.000      0.000
REMARK SMILES [NH3+]CCOCC(=O)N[C@H](C(=O)NCCCCCCNC(=O)c1ccc(-c2c3nc(c(-c4c(F)cccc4F)c4ccc([nH]4)c(-c4c(F)cccc4F)c4nc(c(-c5c(F)cccc5F)c5ccc2[nH]5)C=C4)C=C3)cc1)c1ccccc1
REMARK SMILES IDX 13 1 12 2 10 3 11 4 9 6 8 7 6 8 7 9 5 11 4 12 3 13 2 14 1 15
REMARK SMILES IDX 76 19 77 20 81 21 78 22 80 23 79 24 14 25 15 26 16 27 17 28
REMARK SMILES IDX 18 29 19 30 20 31 21 33 22 34 23 35 75 36 24 37 74 38 25 39
REMARK SMILES IDX 26 40 27 41 68 42 28 43 73 44 67 45 69 46 29 47 72 48 66 49
REMARK SMILES IDX 65 50 30 52 56 53 39 54 55 55 40 56 43 57 54 58 70 59 41 60
REMARK SMILES IDX 42 61 53 63 71 64 44 65 31 66 32 67 37 68 33 69 34 70 36 71
REMARK SMILES IDX 38 72 35 73 57 74 58 75 63 76 59 77 60 78 62 79 64 80 61 81
REMARK SMILES IDX 45 82 46 83 51 84 47 85 48 86 50 87 52 88 49 89
REMARK H PARENT 12 5 8 10 1 16 1 17 1 18 19 32 69 51 43 62
REMARK Flexibility Score: inf
ROOT
ATOM      1  C   UNL A   1      32.103  22.536  24.081  1.00  0.00     0.116 C 
ENDROOT
BRANCH   1   2
ATOM      2  N   UNL A   1      31.369  22.719  25.346  1.00  0.00    -0.354 N 
ATOM      3  C   UNL A   1      31.089  23.823  26.133  1.00  0.00     0.247 C 
ATOM      4  O   UNL A   1      30.731  23.641  27.297  1.00  0.00    -0.272 OA
ATOM      5  H   UNL A   1      31.002  21.881  25.708  1.00  0.00     0.163 HD
BRANCH   3   6
ATOM      6  C   UNL A   1      31.198  25.191  25.496  1.00  0.00     0.202 C 
BRANCH   6   7
ATOM      7  N   UNL A   1      29.885  25.582  24.993  1.00  0.00    -0.339 N 
ATOM      8  C   UNL A   1      29.457  26.304  23.915  1.00  0.00     0.246 C 
ATOM      9  O   UNL A   1      28.223  26.340  23.801  1.00  0.00    -0.272 OA
ATOM     10  H   UNL A   1      29.146  25.255  25.555  1.00  0.00     0.164 HD
BRANCH   8  11
ATOM     11  C   UNL A   1      30.371  27.106  22.876  1.00  0.00     0.260 C 
BRANCH  11  12
ATOM     12  O   UNL A   1      29.889  28.310  22.260  1.00  0.00    -0.366 OA
BRANCH  12  13
ATOM     13  C   UNL A   1      30.000  29.590  22.892  1.00  0.00     0.222 C 
BRANCH  13  14
ATOM     14  C   UNL A   1      30.898  29.537  24.183  1.00  0.00     0.287 C 
BRANCH  14  15
ATOM     15  N   UNL A   1      31.051  30.758  24.996  1.00  0.00    -0.356 N 
ATOM     16  H   UNL A   1      32.033  31.031  25.021  1.00  0.00     0.344 HD
ATOM     17  H   UNL A   1      30.724  30.577  25.945  1.00  0.00     0.344 HD
ATOM     18  H   UNL A   1      30.499  31.511  24.585  1.00  0.00     0.344 HD
ENDBRANCH  14  15
ENDBRANCH  13  14
ENDBRANCH  12  13
ENDBRANCH  11  12
ENDBRANCH   8  11
ENDBRANCH   6   7
BRANCH   6  19
ATOM     19  C   UNL A   1      31.924  26.340  26.199  1.00  0.00    -0.016 A 
ATOM     20  C   UNL A   1      33.263  26.640  25.850  1.00  0.00     0.006 A 
ATOM     21  C   UNL A   1      31.288  27.208  27.098  1.00  0.00     0.006 A 
ATOM     22  C   UNL A   1      33.917  27.780  26.339  1.00  0.00     0.000 A 
ATOM     23  C   UNL A   1      31.944  28.351  27.587  1.00  0.00     0.000 A 
ATOM     24  C   UNL A   1      33.252  28.645  27.199  1.00  0.00     0.000 A 
ENDBRANCH   6  19
ENDBRANCH   3   6
ENDBRANCH   1   2
BRANCH   1  25
ATOM     25  C   UNL A   1      33.531  21.902  23.880  1.00  0.00     0.021 C 
BRANCH  25  26
ATOM     26  C   UNL A   1      34.840  22.714  23.872  1.00  0.00     0.002 C 
BRANCH  26  27
ATOM     27  C   UNL A   1      35.215  23.498  25.145  1.00  0.00     0.002 C 
BRANCH  27  28
ATOM     28  C   UNL A   1      36.466  23.031  25.865  1.00  0.00     0.021 C 
BRANCH  28  29
ATOM     29  C   UNL A   1      37.575  24.066  25.955  1.00  0.00     0.116 C 
BRANCH  29  30
ATOM     30  N   UNL A   1      38.926  23.525  25.947  1.00  0.00    -0.352 N 
ATOM     31  C   UNL A   1      40.048  24.050  26.572  1.00  0.00     0.251 C 
ATOM     32  H   UNL A   1      39.059  22.690  25.442  1.00  0.00     0.163 HD
ATOM     33  O   UNL A   1      41.138  23.548  26.458  1.00  0.00    -0.269 OA
BRANCH  31  34
ATOM     34  C   UNL A   1      39.872  25.305  27.347  1.00  0.00     0.039 A 
ATOM     35  C   UNL A   1      39.201  25.243  28.567  1.00  0.00     0.014 A 
ATOM     36  C   UNL A   1      40.479  26.492  26.926  1.00  0.00     0.014 A 
ATOM     37  C   UNL A   1      39.210  26.358  29.405  1.00  0.00     0.010 A 
ATOM     38  C   UNL A   1      40.570  27.566  27.805  1.00  0.00     0.010 A 
ATOM     39  C   UNL A   1      39.935  27.512  29.054  1.00  0.00    -0.014 A 
BRANCH  39  40
ATOM     40  C   UNL A   1      40.030  28.646  30.007  1.00  0.00     0.031 A 
ATOM     41  C   UNL A   1      39.039  29.774  29.954  1.00  0.00     0.074 A 
ATOM     42  C   UNL A   1      41.010  28.653  30.932  1.00  0.00     0.049 A 
ATOM     43  N   UNL A   1      38.886  30.775  30.786  1.00  0.00    -0.248 NA
ATOM     44  C   UNL A   1      38.116  29.801  28.810  1.00  0.00     0.031 C 
ATOM     45  C   UNL A   1      42.084  27.661  31.035  1.00  0.00     0.029 A 
ATOM     46  N   UNL A   1      41.251  29.509  31.977  1.00  0.00    -0.354 N 
ATOM     47  C   UNL A   1      37.844  31.536  30.272  1.00  0.00     0.074 A 
ATOM     48  C   UNL A   1      37.454  30.929  29.018  1.00  0.00     0.031 C 
ATOM     49  C   UNL A   1      42.830  27.930  32.117  1.00  0.00     0.029 A 
ATOM     50  C   UNL A   1      42.305  29.124  32.772  1.00  0.00     0.049 A 
ATOM     51  H   UNL A   1      40.721  30.321  32.142  1.00  0.00     0.167 HD
ATOM     52  C   UNL A   1      37.243  32.622  30.810  1.00  0.00     0.037 A 
ATOM     53  C   UNL A   1      42.777  29.658  33.914  1.00  0.00     0.037 A 
ATOM     54  C   UNL A   1      37.629  33.221  32.061  1.00  0.00     0.049 A 
ATOM     55  C   UNL A   1      42.083  30.857  34.501  1.00  0.00     0.074 A 
ATOM     56  C   UNL A   1      37.049  34.288  32.724  1.00  0.00     0.029 A 
ATOM     57  N   UNL A   1      38.704  32.807  32.835  1.00  0.00    -0.354 N 
ATOM     58  N   UNL A   1      41.032  31.505  34.059  1.00  0.00    -0.248 NA
ATOM     59  C   UNL A   1      42.632  31.387  35.757  1.00  0.00     0.031 C 
ATOM     60  C   UNL A   1      37.806  34.555  33.870  1.00  0.00     0.029 A 
ATOM     61  C   UNL A   1      38.823  33.617  33.953  1.00  0.00     0.049 A 
ATOM     62  H   UNL A   1      39.296  32.050  32.620  1.00  0.00     0.167 HD
ATOM     63  C   UNL A   1      40.783  32.505  34.989  1.00  0.00     0.074 A 
ATOM     64  C   UNL A   1      41.773  32.356  36.036  1.00  0.00     0.031 C 
ATOM     65  C   UNL A   1      39.824  33.465  34.978  1.00  0.00     0.037 A 
BRANCH  52  66
ATOM     66  C   UNL A   1      36.098  33.227  30.049  1.00  0.00     0.057 A 
ATOM     67  C   UNL A   1      36.304  34.049  28.933  1.00  0.00     0.134 A 
ATOM     68  C   UNL A   1      34.773  32.965  30.419  1.00  0.00     0.134 A 
ATOM     69  F   UNL A   1      37.548  34.353  28.532  1.00  0.00    -0.206 F 
ATOM     70  C   UNL A   1      35.236  34.611  28.229  1.00  0.00     0.040 A 
ATOM     71  C   UNL A   1      33.697  33.496  29.706  1.00  0.00     0.040 A 
ATOM     72  F   UNL A   1      34.502  32.184  31.476  1.00  0.00    -0.206 F 
ATOM     73  C   UNL A   1      33.927  34.327  28.612  1.00  0.00     0.006 A 
ENDBRANCH  52  66
BRANCH  53  74
ATOM     74  C   UNL A   1      43.942  29.042  34.602  1.00  0.00     0.057 A 
ATOM     75  C   UNL A   1      43.771  28.042  35.567  1.00  0.00     0.134 A 
ATOM     76  C   UNL A   1      45.252  29.448  34.322  1.00  0.00     0.134 A 
ATOM     77  F   UNL A   1      42.540  27.621  35.893  1.00  0.00    -0.206 F 
ATOM     78  C   UNL A   1      44.857  27.485  36.244  1.00  0.00     0.040 A 
ATOM     79  C   UNL A   1      46.349  28.881  34.972  1.00  0.00     0.040 A 
ATOM     80  F   UNL A   1      45.485  30.397  33.403  1.00  0.00    -0.206 F 
ATOM     81  C   UNL A   1      46.152  27.902  35.944  1.00  0.00     0.006 A 
ENDBRANCH  53  74
BRANCH  65  82
ATOM     82  C   UNL A   1      39.801  34.415  36.142  1.00  0.00     0.057 A 
ATOM     83  C   UNL A   1      40.513  35.622  36.126  1.00  0.00     0.134 A 
ATOM     84  C   UNL A   1      39.056  34.121  37.291  1.00  0.00     0.134 A 
ATOM     85  F   UNL A   1      41.255  35.960  35.060  1.00  0.00    -0.206 F 
ATOM     86  C   UNL A   1      40.522  36.479  37.228  1.00  0.00     0.040 A 
ATOM     87  C   UNL A   1      39.030  34.985  38.385  1.00  0.00     0.040 A 
ATOM     88  F   UNL A   1      38.341  32.989  37.369  1.00  0.00    -0.206 F 
ATOM     89  C   UNL A   1      39.775  36.163  38.361  1.00  0.00     0.006 A 
ENDBRANCH  65  82
ENDBRANCH  39  40
ENDBRANCH  31  34
ENDBRANCH  29  30
ENDBRANCH  28  29
ENDBRANCH  27  28
ENDBRANCH  26  27
ENDBRANCH  25  26
ENDBRANCH   1  25
TORSDOF 20
ENDMDL
MODEL 2
REMARK VINA RESULT:     -10.2      4.553      8.410
REMARK SMILES [NH3+]CCOCC(=O)N[C@H](C(=O)NCCCCCCNC(=O)c1ccc(-c2c3nc(c(-c4c(F)cccc4F)c4ccc([nH]4)c(-c4c(F)cccc4F)c4nc(c(-c5c(F)cccc5F)c5ccc2[nH]5)C=C4)C=C3)cc1)c1ccccc1
REMARK SMILES IDX 13 1 12 2 10 3 11 4 9 6 8 7 6 8 7 9 5 11 4 12 3 13 2 14 1 15
REMARK SMILES IDX 76 19 77 20 81 21 78 22 80 23 79 24 14 25 15 26 16 27 17 28
REMARK SMILES IDX 18 29 19 30 20 31 21 33 22 34 23 35 75 36 24 37 74 38 25 39
REMARK SMILES IDX 26 40 27 41 68 42 28 43 73 44 67 45 69 46 29 47 72 48 66 49
REMARK SMILES IDX 65 50 30 52 56 53 39 54 55 55 40 56 43 57 54 58 70 59 41 60
REMARK SMILES IDX 42 61 53 63 71 64 44 65 31 66 32 67 37 68 33 69 34 70 36 71
REMARK SMILES IDX 38 72 35 73 57 74 58 75 63 76 59 77 60 78 62 79 64 80 61 81
REMARK SMILES IDX 45 82 46 83 51 84 47 85 48 86 50 87 52 88 49 89
REMARK H PARENT 12 5 8 10 1 16 1 17 1 18 19 32 69 51 43 62
REMARK Flexibility Score: inf
ROOT
ATOM      1  C   UNL A   1      34.363  24.256  25.709  1.00  0.00     0.116 C 
ENDROOT
BRANCH   1   2
ATOM      2  N   UNL A   1      33.049  23.877  26.258  1.00  0.00    -0.354 N 
ATOM      3  C   UNL A   1      31.884  24.581  26.513  1.00  0.00     0.247 C 
ATOM      4  O   UNL A   1      31.047  24.081  27.267  1.00  0.00    -0.272 OA
ATOM      5  H   UNL A   1      32.986  22.923  26.493  1.00  0.00     0.163 HD
BRANCH   3   6
ATOM      6  C   UNL A   1      31.690  25.905  25.809  1.00  0.00     0.202 C 
BRANCH   6   7
ATOM      7  N   UNL A   1      30.289  26.035  25.425  1.00  0.00    -0.339 N 
ATOM      8  C   UNL A   1      29.648  26.482  24.304  1.00  0.00     0.246 C 
ATOM      9  O   UNL A   1      28.416  26.349  24.351  1.00  0.00    -0.272 OA
ATOM     10  H   UNL A   1      29.668  25.736  26.129  1.00  0.00     0.164 HD
BRANCH   8  11
ATOM     11  C   UNL A   1      30.320  27.174  23.029  1.00  0.00     0.260 C 
BRANCH  11  12
ATOM     12  O   UNL A   1      31.621  26.764  22.579  1.00  0.00    -0.366 OA
BRANCH  12  13
ATOM     13  C   UNL A   1      31.867  25.462  22.036  1.00  0.00     0.222 C 
BRANCH  13  14
ATOM     14  C   UNL A   1      32.714  25.522  20.711  1.00  0.00     0.287 C 
BRANCH  14  15
ATOM     15  N   UNL A   1      32.010  25.553  19.416  1.00  0.00    -0.356 N 
ATOM     16  H   UNL A   1      31.880  26.522  19.122  1.00  0.00     0.344 HD
ATOM     17  H   UNL A   1      31.100  25.102  19.512  1.00  0.00     0.344 HD
ATOM     18  H   UNL A   1      32.562  25.056  18.717  1.00  0.00     0.344 HD
ENDBRANCH  14  15
ENDBRANCH  13  14
ENDBRANCH  12  13
ENDBRANCH  11  12
ENDBRANCH   8  11
ENDBRANCH   6   7
BRANCH   6  19
ATOM     19  C   UNL A   1      32.264  27.202  26.384  1.00  0.00    -0.016 A 
ATOM     20  C   UNL A   1      33.634  27.505  26.195  1.00  0.00     0.006 A 
ATOM     21  C   UNL A   1      31.470  28.185  26.992  1.00  0.00     0.006 A 
ATOM     22  C   UNL A   1      34.172  28.750  26.554  1.00  0.00     0.000 A 
ATOM     23  C   UNL A   1      32.010  29.433  27.350  1.00  0.00     0.000 A 
ATOM     24  C   UNL A   1      33.355  29.721  27.120  1.00  0.00     0.000 A 
ENDBRANCH   6  19
ENDBRANCH   3   6
ENDBRANCH   1   2
BRANCH   1  25
ATOM     25  C   UNL A   1      35.671  23.380  25.653  1.00  0.00     0.021 C 
BRANCH  25  26
ATOM     26  C   UNL A   1      35.928  22.283  24.603  1.00  0.00     0.002 C 
BRANCH  26  27
ATOM     27  C   UNL A   1      37.383  21.833  24.365  1.00  0.00     0.002 C 
BRANCH  27  28
ATOM     28  C   UNL A   1      37.799  20.547  25.052  1.00  0.00     0.021 C 
BRANCH  28  29
ATOM     29  C   UNL A   1      39.101  20.630  25.831  1.00  0.00     0.116 C 
BRANCH  29  30
ATOM     30  N   UNL A   1      39.955  19.455  25.735  1.00  0.00    -0.352 N 
ATOM     31  C   UNL A   1      41.307  19.370  26.032  1.00  0.00     0.251 C 
ATOM     32  H   UNL A   1      39.523  18.626  25.425  1.00  0.00     0.163 HD
ATOM     33  O   UNL A   1      41.936  18.354  25.866  1.00  0.00    -0.269 OA
BRANCH  31  34
ATOM     34  C   UNL A   1      41.981  20.605  26.508  1.00  0.00     0.039 A 
ATOM     35  C   UNL A   1      42.291  21.594  25.577  1.00  0.00     0.014 A 
ATOM     36  C   UNL A   1      42.177  20.825  27.875  1.00  0.00     0.014 A 
ATOM     37  C   UNL A   1      42.725  22.840  26.027  1.00  0.00     0.010 A 
ATOM     38  C   UNL A   1      42.515  22.097  28.324  1.00  0.00     0.010 A 
ATOM     39  C   UNL A   1      42.795  23.119  27.405  1.00  0.00    -0.014 A 
BRANCH  39  40
ATOM     40  C   UNL A   1      43.148  24.485  27.867  1.00  0.00     0.031 A 
ATOM     41  C   UNL A   1      44.581  24.936  27.895  1.00  0.00     0.074 A 
ATOM     42  C   UNL A   1      42.169  25.326  28.256  1.00  0.00     0.049 A 
ATOM     43  N   UNL A   1      45.064  26.129  28.139  1.00  0.00    -0.248 NA
ATOM     44  C   UNL A   1      45.609  23.916  27.640  1.00  0.00     0.031 C 
ATOM     45  C   UNL A   1      40.748  24.982  28.356  1.00  0.00     0.029 A 
ATOM     46  N   UNL A   1      42.214  26.649  28.617  1.00  0.00    -0.354 N 
ATOM     47  C   UNL A   1      46.444  26.002  28.053  1.00  0.00     0.074 A 
ATOM     48  C   UNL A   1      46.727  24.604  27.813  1.00  0.00     0.031 C 
ATOM     49  C   UNL A   1      40.053  26.079  28.692  1.00  0.00     0.029 A 
ATOM     50  C   UNL A   1      40.976  27.198  28.854  1.00  0.00     0.049 A 
ATOM     51  H   UNL A   1      43.054  27.157  28.698  1.00  0.00     0.167 HD
ATOM     52  C   UNL A   1      47.390  26.967  28.132  1.00  0.00     0.037 A 
ATOM     53  C   UNL A   1      40.624  28.464  29.144  1.00  0.00     0.037 A 
ATOM     54  C   UNL A   1      47.105  28.358  28.366  1.00  0.00     0.049 A 
ATOM     55  C   UNL A   1      41.692  29.522  29.212  1.00  0.00     0.074 A 
ATOM     56  C   UNL A   1      47.986  29.425  28.407  1.00  0.00     0.029 A 
ATOM     57  N   UNL A   1      45.840  28.875  28.607  1.00  0.00    -0.354 N 
ATOM     58  N   UNL A   1      42.985  29.407  29.025  1.00  0.00    -0.248 NA
ATOM     59  C   UNL A   1      41.247  30.889  29.516  1.00  0.00     0.031 C 
ATOM     60  C   UNL A   1      47.261  30.578  28.728  1.00  0.00     0.029 A 
ATOM     61  C   UNL A   1      45.920  30.240  28.828  1.00  0.00     0.049 A 
ATOM     62  H   UNL A   1      45.008  28.349  28.620  1.00  0.00     0.167 HD
ATOM     63  C   UNL A   1      43.504  30.687  29.168  1.00  0.00     0.074 A 
ATOM     64  C   UNL A   1      42.382  31.565  29.426  1.00  0.00     0.031 C 
ATOM     65  C   UNL A   1      44.795  31.099  29.099  1.00  0.00     0.037 A 
BRANCH  52  66
ATOM     66  C   UNL A   1      48.822  26.547  27.957  1.00  0.00     0.057 A 
ATOM     67  C   UNL A   1      49.421  26.475  26.692  1.00  0.00     0.134 A 
ATOM     68  C   UNL A   1      49.617  26.233  29.066  1.00  0.00     0.134 A 
ATOM     69  F   UNL A   1      48.712  26.747  25.585  1.00  0.00    -0.206 F 
ATOM     70  C   UNL A   1      50.752  26.081  26.534  1.00  0.00     0.040 A 
ATOM     71  C   UNL A   1      50.957  25.868  28.922  1.00  0.00     0.040 A 
ATOM     72  F   UNL A   1      49.108  26.284  30.306  1.00  0.00    -0.206 F 
ATOM     73  C   UNL A   1      51.526  25.785  27.654  1.00  0.00     0.006 A 
ENDBRANCH  52  66
BRANCH  53  74
ATOM     74  C   UNL A   1      39.194  28.814  29.350  1.00  0.00     0.057 A 
ATOM     75  C   UNL A   1      38.404  29.293  28.299  1.00  0.00     0.134 A 
ATOM     76  C   UNL A   1      38.588  28.690  30.606  1.00  0.00     0.134 A 
ATOM     77  F   UNL A   1      38.930  29.451  27.075  1.00  0.00    -0.206 F 
ATOM     78  C   UNL A   1      37.070  29.659  28.493  1.00  0.00     0.040 A 
ATOM     79  C   UNL A   1      37.248  29.027  30.809  1.00  0.00     0.040 A 
ATOM     80  F   UNL A   1      39.287  28.230  31.653  1.00  0.00    -0.206 F 
ATOM     81  C   UNL A   1      36.488  29.522  29.751  1.00  0.00     0.006 A 
ENDBRANCH  53  74
BRANCH  65  82
ATOM     82  C   UNL A   1      45.050  32.567  29.293  1.00  0.00     0.057 A 
ATOM     83  C   UNL A   1      45.339  33.107  30.553  1.00  0.00     0.134 A 
ATOM     84  C   UNL A   1      45.008  33.450  28.207  1.00  0.00     0.134 A 
ATOM     85  F   UNL A   1      45.386  32.318  31.638  1.00  0.00    -0.206 F 
ATOM     86  C   UNL A   1      45.533  34.478  30.733  1.00  0.00     0.040 A 
ATOM     87  C   UNL A   1      45.232  34.817  28.369  1.00  0.00     0.040 A 
ATOM     88  F   UNL A   1      44.749  33.000  26.970  1.00  0.00    -0.206 F 
ATOM     89  C   UNL A   1      45.483  35.337  29.637  1.00  0.00     0.006 A 
ENDBRANCH  65  82
ENDBRANCH  39  40
ENDBRANCH  31  34
ENDBRANCH  29  30
ENDBRANCH  28  29
ENDBRANCH  27  28
ENDBRANCH  26  27
ENDBRANCH  25  26
ENDBRANCH   1  25
TORSDOF 20
ENDMDL
MODEL 3
REMARK VINA RESULT:     -10.2      2.169      7.426
REMARK SMILES [NH3+]CCOCC(=O)N[C@H](C(=O)NCCCCCCNC(=O)c1ccc(-c2c3nc(c(-c4c(F)cccc4F)c4ccc([nH]4)c(-c4c(F)cccc4F)c4nc(c(-c5c(F)cccc5F)c5ccc2[nH]5)C=C4)C=C3)cc1)c1ccccc1
REMARK SMILES IDX 13 1 12 2 10 3 11 4 9 6 8 7 6 8 7 9 5 11 4 12 3 13 2 14 1 15
REMARK SMILES IDX 76 19 77 20 81 21 78 22 80 23 79 24 14 25 15 26 16 27 17 28
REMARK SMILES IDX 18 29 19 30 20 31 21 33 22 34 23 35 75 36 24 37 74 38 25 39
REMARK SMILES IDX 26 40 27 41 68 42 28 43 73 44 67 45 69 46 29 47 72 48 66 49
REMARK SMILES IDX 65 50 30 52 56 53 39 54 55 55 40 56 43 57 54 58 70 59 41 60
REMARK SMILES IDX 42 61 53 63 71 64 44 65 31 66 32 67 37 68 33 69 34 70 36 71
REMARK SMILES IDX 38 72 35 73 57 74 58 75 63 76 59 77 60 78 62 79 64 80 61 81
REMARK SMILES IDX 45 82 46 83 51 84 47 85 48 86 50 87 52 88 49 89
REMARK H PARENT 12 5 8 10 1 16 1 17 1 18 19 32 69 51 43 62
REMARK Flexibility Score: inf
ROOT
ATOM      1  C   UNL A   1      31.062  27.117  26.362  1.00  0.00     0.116 C 
ENDROOT
BRANCH   1   2
ATOM      2  N   UNL A   1      30.862  25.993  25.430  1.00  0.00    -0.354 N 
ATOM      3  C   UNL A   1      30.611  25.917  24.070  1.00  0.00     0.247 C 
ATOM      4  O   UNL A   1      30.174  24.861  23.610  1.00  0.00    -0.272 OA
ATOM      5  H   UNL A   1      30.919  25.112  25.865  1.00  0.00     0.163 HD
BRANCH   3   6
ATOM      6  C   UNL A   1      30.934  27.127  23.223  1.00  0.00     0.202 C 
BRANCH   6   7
ATOM      7  N   UNL A   1      31.660  26.691  22.035  1.00  0.00    -0.339 N 
ATOM      8  C   UNL A   1      32.896  26.149  21.822  1.00  0.00     0.246 C 
ATOM      9  O   UNL A   1      33.105  25.841  20.639  1.00  0.00    -0.272 OA
ATOM     10  H   UNL A   1      31.147  26.816  21.204  1.00  0.00     0.164 HD
BRANCH   8  11
ATOM     11  C   UNL A   1      34.051  25.942  22.909  1.00  0.00     0.260 C 
BRANCH  11  12
ATOM     12  O   UNL A   1      34.118  24.733  23.680  1.00  0.00    -0.366 OA
BRANCH  12  13
ATOM     13  C   UNL A   1      34.280  23.447  23.072  1.00  0.00     0.222 C 
BRANCH  13  14
ATOM     14  C   UNL A   1      33.012  22.535  23.264  1.00  0.00     0.287 C 
BRANCH  14  15
ATOM     15  N   UNL A   1      31.839  22.755  22.400  1.00  0.00    -0.356 N 
ATOM     16  H   UNL A   1      32.120  22.694  21.421  1.00  0.00     0.344 HD
ATOM     17  H   UNL A   1      31.448  23.679  22.585  1.00  0.00     0.344 HD
ATOM     18  H   UNL A   1      31.134  22.044  22.596  1.00  0.00     0.344 HD
ENDBRANCH  14  15
ENDBRANCH  13  14
ENDBRANCH  12  13
ENDBRANCH  11  12
ENDBRANCH   8  11
ENDBRANCH   6   7
BRANCH   6  19
ATOM     19  C   UNL A   1      29.873  28.184  22.908  1.00  0.00    -0.016 A 
ATOM     20  C   UNL A   1      28.507  27.897  23.147  1.00  0.00     0.006 A 
ATOM     21  C   UNL A   1      30.190  29.489  22.505  1.00  0.00     0.006 A 
ATOM     22  C   UNL A   1      27.514  28.881  23.034  1.00  0.00     0.000 A 
ATOM     23  C   UNL A   1      29.194  30.475  22.394  1.00  0.00     0.000 A 
ATOM     24  C   UNL A   1      27.860  30.176  22.670  1.00  0.00     0.000 A 
ENDBRANCH   6  19
ENDBRANCH   3   6
ENDBRANCH   1   2
BRANCH   1  25
ATOM     25  C   UNL A   1      32.416  27.837  26.726  1.00  0.00     0.021 C 
BRANCH  25  26
ATOM     26  C   UNL A   1      32.507  29.272  27.278  1.00  0.00     0.002 C 
BRANCH  26  27
ATOM     27  C   UNL A   1      32.265  30.441  26.302  1.00  0.00     0.002 C 
BRANCH  27  28
ATOM     28  C   UNL A   1      31.741  31.722  26.921  1.00  0.00     0.021 C 
BRANCH  28  29
ATOM     29  C   UNL A   1      32.811  32.660  27.453  1.00  0.00     0.116 C 
BRANCH  29  30
ATOM     30  N   UNL A   1      32.390  34.043  27.625  1.00  0.00    -0.352 N 
ATOM     31  C   UNL A   1      32.933  34.988  28.483  1.00  0.00     0.251 C 
ATOM     32  H   UNL A   1      31.635  34.341  27.068  1.00  0.00     0.163 HD
ATOM     33  O   UNL A   1      32.472  36.098  28.586  1.00  0.00    -0.269 OA
BRANCH  31  34
ATOM     34  C   UNL A   1      34.078  34.564  29.328  1.00  0.00     0.039 A 
ATOM     35  C   UNL A   1      33.811  34.022  30.584  1.00  0.00     0.014 A 
ATOM     36  C   UNL A   1      35.381  34.587  28.823  1.00  0.00     0.014 A 
ATOM     37  C   UNL A   1      34.848  33.426  31.301  1.00  0.00     0.010 A 
ATOM     38  C   UNL A   1      36.391  33.906  29.496  1.00  0.00     0.010 A 
ATOM     39  C   UNL A   1      36.136  33.319  30.744  1.00  0.00    -0.014 A 
BRANCH  39  40
ATOM     40  C   UNL A   1      37.199  32.581  31.471  1.00  0.00     0.031 A 
ATOM     41  C   UNL A   1      37.883  31.403  30.838  1.00  0.00     0.074 A 
ATOM     42  C   UNL A   1      37.556  32.983  32.707  1.00  0.00     0.049 A 
ATOM     43  N   UNL A   1      38.918  30.724  31.265  1.00  0.00    -0.248 NA
ATOM     44  C   UNL A   1      37.321  30.903  29.574  1.00  0.00     0.031 C 
ATOM     45  C   UNL A   1      36.911  34.058  33.467  1.00  0.00     0.029 A 
ATOM     46  N   UNL A   1      38.561  32.551  33.535  1.00  0.00    -0.354 N 
ATOM     47  C   UNL A   1      39.136  29.732  30.318  1.00  0.00     0.074 A 
ATOM     48  C   UNL A   1      38.081  29.845  29.335  1.00  0.00     0.031 C 
ATOM     49  C   UNL A   1      37.575  34.241  34.618  1.00  0.00     0.029 A 
ATOM     50  C   UNL A   1      38.674  33.284  34.693  1.00  0.00     0.049 A 
ATOM     51  H   UNL A   1      39.145  31.788  33.321  1.00  0.00     0.167 HD
ATOM     52  C   UNL A   1      40.142  28.829  30.253  1.00  0.00     0.037 A 
ATOM     53  C   UNL A   1      39.578  33.210  35.688  1.00  0.00     0.037 A 
ATOM     54  C   UNL A   1      41.194  28.722  31.230  1.00  0.00     0.049 A 
ATOM     55  C   UNL A   1      40.696  32.208  35.586  1.00  0.00     0.074 A 
ATOM     56  C   UNL A   1      42.292  27.881  31.227  1.00  0.00     0.029 A 
ATOM     57  N   UNL A   1      41.272  29.478  32.391  1.00  0.00    -0.354 N 
ATOM     58  N   UNL A   1      40.951  31.345  34.632  1.00  0.00    -0.248 NA
ATOM     59  C   UNL A   1      41.662  32.184  36.693  1.00  0.00     0.031 C 
ATOM     60  C   UNL A   1      43.005  28.088  32.414  1.00  0.00     0.029 A 
ATOM     61  C   UNL A   1      42.383  29.101  33.127  1.00  0.00     0.049 A 
ATOM     62  H   UNL A   1      40.631  30.178  32.653  1.00  0.00     0.167 HD
ATOM     63  C   UNL A   1      42.114  30.690  35.013  1.00  0.00     0.074 A 
ATOM     64  C   UNL A   1      42.531  31.279  36.269  1.00  0.00     0.031 C 
ATOM     65  C   UNL A   1      42.776  29.686  34.385  1.00  0.00     0.037 A 
BRANCH  52  66
ATOM     66  C   UNL A   1      40.154  27.892  29.079  1.00  0.00     0.057 A 
ATOM     67  C   UNL A   1      39.457  26.676  29.097  1.00  0.00     0.134 A 
ATOM     68  C   UNL A   1      40.851  28.218  27.909  1.00  0.00     0.134 A 
ATOM     69  F   UNL A   1      38.781  26.295  30.192  1.00  0.00    -0.206 F 
ATOM     70  C   UNL A   1      39.473  25.807  28.004  1.00  0.00     0.040 A 
ATOM     71  C   UNL A   1      40.849  27.370  26.799  1.00  0.00     0.040 A 
ATOM     72  F   UNL A   1      41.538  29.367  27.822  1.00  0.00    -0.206 F 
ATOM     73  C   UNL A   1      40.165  26.159  26.848  1.00  0.00     0.006 A 
ENDBRANCH  52  66
BRANCH  53  74
ATOM     74  C   UNL A   1      39.491  34.136  36.847  1.00  0.00     0.057 A 
ATOM     75  C   UNL A   1      40.048  35.419  36.796  1.00  0.00     0.134 A 
ATOM     76  C   UNL A   1      38.862  33.755  38.038  1.00  0.00     0.134 A 
ATOM     77  F   UNL A   1      40.681  35.838  35.690  1.00  0.00    -0.206 F 
ATOM     78  C   UNL A   1      40.004  36.281  37.893  1.00  0.00     0.040 A 
ATOM     79  C   UNL A   1      38.786  34.617  39.134  1.00  0.00     0.040 A 
ATOM     80  F   UNL A   1      38.301  32.542  38.150  1.00  0.00    -0.206 F 
ATOM     81  C   UNL A   1      39.367  35.881  39.066  1.00  0.00     0.006 A 
ENDBRANCH  53  74
BRANCH  65  82
ATOM     82  C   UNL A   1      44.026  29.178  35.046  1.00  0.00     0.057 A 
ATOM     83  C   UNL A   1      45.283  29.737  34.781  1.00  0.00     0.134 A 
ATOM     84  C   UNL A   1      43.971  28.118  35.960  1.00  0.00     0.134 A 
ATOM     85  F   UNL A   1      45.408  30.748  33.908  1.00  0.00    -0.206 F 
ATOM     86  C   UNL A   1      46.445  29.232  35.367  1.00  0.00     0.040 A 
ATOM     87  C   UNL A   1      45.121  27.626  36.577  1.00  0.00     0.040 A 
ATOM     88  F   UNL A   1      42.799  27.544  36.270  1.00  0.00    -0.206 F 
ATOM     89  C   UNL A   1      46.365  28.175  36.271  1.00  0.00     0.006 A 
ENDBRANCH  65  82
ENDBRANCH  39  40
ENDBRANCH  31  34
ENDBRANCH  29  30
ENDBRANCH  28  29
ENDBRANCH  27  28
ENDBRANCH  26  27
ENDBRANCH  25  26
ENDBRANCH   1  25
TORSDOF 20
ENDMDL
