MODEL 1
REMARK VINA RESULT:     -10.4      0.000      0.000
REMARK SMILES O=C(CC1(C[S@](=O)C[C@H]2Cc3ccccc3S2)CC1)NCCCCCCNC(=O)c1ccc(-c2c3nc(c(-c4c(F)cccc4F)c4ccc([nH]4)c(-c4c(F)cccc4F)c4nc(c(-c5c(F)cccc5F)c5ccc2[nH]5)C=C4)C=C3)cc1
REMARK SMILES IDX 22 1 21 2 20 3 1 4 2 5 3 7 4 8 18 9 19 10 5 11 6 12 7 13
REMARK SMILES IDX 8 14 9 15 10 16 17 17 11 18 16 19 12 20 15 21 13 22 14 23
REMARK SMILES IDX 23 24 24 25 25 26 26 27 27 28 28 29 29 31 30 32 31 33 83 34
REMARK SMILES IDX 32 35 82 36 33 37 34 38 35 39 76 40 36 41 81 42 75 43 77 44
REMARK SMILES IDX 37 45 80 46 74 47 73 48 38 50 64 51 47 52 63 53 48 54 51 55
REMARK SMILES IDX 62 56 78 57 49 58 50 59 61 61 79 62 52 63 39 64 40 65 45 66
REMARK SMILES IDX 41 67 42 68 44 69 46 70 43 71 65 72 66 73 71 74 67 75 68 76
REMARK SMILES IDX 70 77 72 78 69 79 53 80 54 81 59 82 55 83 56 84 58 85 60 86
REMARK SMILES IDX 57 87
REMARK H PARENT 20 6 27 30 77 49 51 60
REMARK Flexibility Score: inf
ROOT
ATOM      1  C   UNL A   1      35.686  31.259  27.944  1.00  0.00     0.021 C 
ENDROOT
BRANCH   1   2
ATOM      2  C   UNL A   1      34.379  30.536  27.589  1.00  0.00     0.116 C 
BRANCH   2   3
ATOM      3  N   UNL A   1      34.507  29.419  26.668  1.00  0.00    -0.356 N 
ATOM      4  O   UNL A   1      32.695  28.276  27.442  1.00  0.00    -0.275 OA
ATOM      5  C   UNL A   1      33.600  28.386  26.615  1.00  0.00     0.220 C 
ATOM      6  H   UNL A   1      35.277  29.401  26.056  1.00  0.00     0.163 HD
BRANCH   5   7
ATOM      7  C   UNL A   1      33.889  27.256  25.632  1.00  0.00     0.108 C 
BRANCH   7   8
ATOM      8  C   UNL A   1      33.065  26.962  24.357  1.00  0.00    -0.009 C 
ATOM      9  C   UNL A   1      33.551  27.883  23.217  1.00  0.00     0.009 C 
ATOM     10  C   UNL A   1      33.701  26.416  23.078  1.00  0.00     0.009 C 
BRANCH   8  11
ATOM     11  C   UNL A   1      31.555  26.966  24.437  1.00  0.00     0.112 C 
BRANCH  11  12
ATOM     12  S   UNL A   1      30.514  25.766  25.167  1.00  0.00     0.023 S 
ATOM     13  O   UNL A   1      30.323  25.942  26.626  1.00  0.00    -0.260 OA
BRANCH  12  14
ATOM     14  C   UNL A   1      30.792  24.117  24.587  1.00  0.00     0.120 C 
BRANCH  14  15
ATOM     15  C   UNL A   1      31.976  23.209  24.924  1.00  0.00     0.068 C 
ATOM     16  C   UNL A   1      32.878  22.791  23.757  1.00  0.00     0.052 C 
ATOM     17  S   UNL A   1      33.024  23.617  26.347  1.00  0.00    -0.121 SA
ATOM     18  C   UNL A   1      34.308  23.058  24.118  1.00  0.00    -0.033 A 
ATOM     19  C   UNL A   1      34.523  23.467  25.431  1.00  0.00     0.011 A 
ATOM     20  C   UNL A   1      35.386  22.914  23.249  1.00  0.00     0.005 A 
ATOM     21  C   UNL A   1      35.801  23.755  25.891  1.00  0.00     0.015 A 
ATOM     22  C   UNL A   1      36.669  23.251  23.686  1.00  0.00     0.000 A 
ATOM     23  C   UNL A   1      36.876  23.668  25.003  1.00  0.00     0.001 A 
ENDBRANCH  14  15
ENDBRANCH  12  14
ENDBRANCH  11  12
ENDBRANCH   8  11
ENDBRANCH   7   8
ENDBRANCH   5   7
ENDBRANCH   2   3
ENDBRANCH   1   2
BRANCH   1  24
ATOM     24  C   UNL A   1      35.695  32.794  27.991  1.00  0.00     0.002 C 
BRANCH  24  25
ATOM     25  C   UNL A   1      35.213  33.462  29.283  1.00  0.00     0.002 C 
BRANCH  25  26
ATOM     26  C   UNL A   1      33.834  34.106  29.243  1.00  0.00     0.021 C 
BRANCH  26  27
ATOM     27  C   UNL A   1      33.785  35.564  29.674  1.00  0.00     0.116 C 
BRANCH  27  28
ATOM     28  N   UNL A   1      32.681  35.894  30.571  1.00  0.00    -0.352 N 
ATOM     29  C   UNL A   1      32.592  35.700  31.933  1.00  0.00     0.251 C 
ATOM     30  H   UNL A   1      31.895  36.309  30.146  1.00  0.00     0.163 HD
ATOM     31  O   UNL A   1      31.566  35.976  32.546  1.00  0.00    -0.269 OA
BRANCH  29  32
ATOM     32  C   UNL A   1      33.739  35.093  32.640  1.00  0.00     0.039 A 
ATOM     33  C   UNL A   1      34.929  35.805  32.784  1.00  0.00     0.014 A 
ATOM     34  C   UNL A   1      33.658  33.762  33.058  1.00  0.00     0.014 A 
ATOM     35  C   UNL A   1      36.091  35.127  33.125  1.00  0.00     0.010 A 
ATOM     36  C   UNL A   1      34.810  33.108  33.504  1.00  0.00     0.010 A 
ATOM     37  C   UNL A   1      36.050  33.766  33.471  1.00  0.00    -0.014 A 
BRANCH  37  38
ATOM     38  C   UNL A   1      37.323  33.048  33.752  1.00  0.00     0.031 A 
ATOM     39  C   UNL A   1      38.067  33.272  35.044  1.00  0.00     0.074 A 
ATOM     40  C   UNL A   1      37.772  32.134  32.871  1.00  0.00     0.049 A 
ATOM     41  N   UNL A   1      39.195  32.743  35.450  1.00  0.00    -0.248 NA
ATOM     42  C   UNL A   1      37.473  34.215  36.005  1.00  0.00     0.031 C 
ATOM     43  C   UNL A   1      37.130  31.804  31.597  1.00  0.00     0.029 A 
ATOM     44  N   UNL A   1      38.855  31.296  32.923  1.00  0.00    -0.354 N 
ATOM     45  C   UNL A   1      39.460  33.310  36.692  1.00  0.00     0.074 A 
ATOM     46  C   UNL A   1      38.386  34.240  36.967  1.00  0.00     0.031 C 
ATOM     47  C   UNL A   1      37.796  30.795  31.017  1.00  0.00     0.029 A 
ATOM     48  C   UNL A   1      38.955  30.461  31.836  1.00  0.00     0.049 A 
ATOM     49  H   UNL A   1      39.501  31.293  33.667  1.00  0.00     0.167 HD
ATOM     50  C   UNL A   1      40.497  33.071  37.532  1.00  0.00     0.037 A 
ATOM     51  C   UNL A   1      39.887  29.545  31.522  1.00  0.00     0.037 A 
ATOM     52  C   UNL A   1      41.547  32.118  37.275  1.00  0.00     0.049 A 
ATOM     53  C   UNL A   1      41.052  29.340  32.443  1.00  0.00     0.074 A 
ATOM     54  C   UNL A   1      42.624  31.781  38.078  1.00  0.00     0.029 A 
ATOM     55  N   UNL A   1      41.648  31.346  36.128  1.00  0.00    -0.354 N 
ATOM     56  N   UNL A   1      41.293  29.892  33.607  1.00  0.00    -0.248 NA
ATOM     57  C   UNL A   1      42.086  28.397  31.995  1.00  0.00     0.031 C 
ATOM     58  C   UNL A   1      43.399  30.834  37.398  1.00  0.00     0.029 A 
ATOM     59  C   UNL A   1      42.783  30.553  36.190  1.00  0.00     0.049 A 
ATOM     60  H   UNL A   1      41.009  31.358  35.380  1.00  0.00     0.167 HD
ATOM     61  C   UNL A   1      42.502  29.362  34.034  1.00  0.00     0.074 A 
ATOM     62  C   UNL A   1      42.930  28.424  33.016  1.00  0.00     0.031 C 
ATOM     63  C   UNL A   1      43.200  29.633  35.163  1.00  0.00     0.037 A 
BRANCH  50  64
ATOM     64  C   UNL A   1      40.563  33.870  38.801  1.00  0.00     0.057 A 
ATOM     65  C   UNL A   1      39.854  33.459  39.937  1.00  0.00     0.134 A 
ATOM     66  C   UNL A   1      41.295  35.061  38.893  1.00  0.00     0.134 A 
ATOM     67  F   UNL A   1      39.126  32.332  39.915  1.00  0.00    -0.206 F 
ATOM     68  C   UNL A   1      39.868  34.205  41.118  1.00  0.00     0.040 A 
ATOM     69  C   UNL A   1      41.335  35.803  40.076  1.00  0.00     0.040 A 
ATOM     70  F   UNL A   1      42.006  35.505  37.847  1.00  0.00    -0.206 F 
ATOM     71  C   UNL A   1      40.615  35.377  41.192  1.00  0.00     0.006 A 
ENDBRANCH  50  64
BRANCH  51  72
ATOM     72  C   UNL A   1      39.772  28.778  30.257  1.00  0.00     0.057 A 
ATOM     73  C   UNL A   1      40.302  29.267  29.057  1.00  0.00     0.134 A 
ATOM     74  C   UNL A   1      39.131  27.534  30.223  1.00  0.00     0.134 A 
ATOM     75  F   UNL A   1      40.924  30.454  29.025  1.00  0.00    -0.206 F 
ATOM     76  C   UNL A   1      40.186  28.555  27.864  1.00  0.00     0.040 A 
ATOM     77  C   UNL A   1      39.031  26.798  29.041  1.00  0.00     0.040 A 
ATOM     78  F   UNL A   1      38.623  27.005  31.345  1.00  0.00    -0.206 F 
ATOM     79  C   UNL A   1      39.555  27.312  27.856  1.00  0.00     0.006 A 
ENDBRANCH  51  72
BRANCH  63  80
ATOM     80  C   UNL A   1      44.491  28.895  35.350  1.00  0.00     0.057 A 
ATOM     81  C   UNL A   1      44.518  27.650  35.988  1.00  0.00     0.134 A 
ATOM     82  C   UNL A   1      45.708  29.420  34.898  1.00  0.00     0.134 A 
ATOM     83  F   UNL A   1      43.388  27.093  36.447  1.00  0.00    -0.206 F 
ATOM     84  C   UNL A   1      45.712  26.950  36.167  1.00  0.00     0.040 A 
ATOM     85  C   UNL A   1      46.905  28.719  35.050  1.00  0.00     0.040 A 
ATOM     86  F   UNL A   1      45.744  30.602  34.261  1.00  0.00    -0.206 F 
ATOM     87  C   UNL A   1      46.909  27.482  35.691  1.00  0.00     0.006 A 
ENDBRANCH  63  80
ENDBRANCH  37  38
ENDBRANCH  29  32
ENDBRANCH  27  28
ENDBRANCH  26  27
ENDBRANCH  25  26
ENDBRANCH  24  25
ENDBRANCH   1  24
TORSDOF 18
ENDMDL
MODEL 2
REMARK VINA RESULT:     -10.2      1.095      2.404
REMARK SMILES O=C(CC1(C[S@](=O)C[C@H]2Cc3ccccc3S2)CC1)NCCCCCCNC(=O)c1ccc(-c2c3nc(c(-c4c(F)cccc4F)c4ccc([nH]4)c(-c4c(F)cccc4F)c4nc(c(-c5c(F)cccc5F)c5ccc2[nH]5)C=C4)C=C3)cc1
REMARK SMILES IDX 22 1 21 2 20 3 1 4 2 5 3 7 4 8 18 9 19 10 5 11 6 12 7 13
REMARK SMILES IDX 8 14 9 15 10 16 17 17 11 18 16 19 12 20 15 21 13 22 14 23
REMARK SMILES IDX 23 24 24 25 25 26 26 27 27 28 28 29 29 31 30 32 31 33 83 34
REMARK SMILES IDX 32 35 82 36 33 37 34 38 35 39 76 40 36 41 81 42 75 43 77 44
REMARK SMILES IDX 37 45 80 46 74 47 73 48 38 50 64 51 47 52 63 53 48 54 51 55
REMARK SMILES IDX 62 56 78 57 49 58 50 59 61 61 79 62 52 63 39 64 40 65 45 66
REMARK SMILES IDX 41 67 42 68 44 69 46 70 43 71 65 72 66 73 71 74 67 75 68 76
REMARK SMILES IDX 70 77 72 78 69 79 53 80 54 81 59 82 55 83 56 84 58 85 60 86
REMARK SMILES IDX 57 87
REMARK H PARENT 20 6 27 30 77 49 51 60
REMARK Flexibility Score: inf
ROOT
ATOM      1  C   UNL A   1      34.614  30.456  27.796  1.00  0.00     0.021 C 
ENDROOT
BRANCH   1   2
ATOM      2  C   UNL A   1      33.196  30.223  27.257  1.00  0.00     0.116 C 
BRANCH   2   3
ATOM      3  N   UNL A   1      32.985  28.961  26.565  1.00  0.00    -0.356 N 
ATOM      4  O   UNL A   1      31.368  28.195  27.976  1.00  0.00    -0.275 OA
ATOM      5  C   UNL A   1      32.021  28.054  26.942  1.00  0.00     0.220 C 
ATOM      6  H   UNL A   1      33.557  28.747  25.794  1.00  0.00     0.163 HD
BRANCH   5   7
ATOM      7  C   UNL A   1      31.947  26.750  26.154  1.00  0.00     0.108 C 
BRANCH   7   8
ATOM      8  C   UNL A   1      30.660  26.174  25.519  1.00  0.00    -0.009 C 
ATOM      9  C   UNL A   1      30.725  24.631  25.557  1.00  0.00     0.009 C 
ATOM     10  C   UNL A   1      29.662  25.331  26.314  1.00  0.00     0.009 C 
BRANCH   8  11
ATOM     11  C   UNL A   1      30.232  26.656  24.152  1.00  0.00     0.112 C 
BRANCH  11  12
ATOM     12  S   UNL A   1      30.592  28.187  23.390  1.00  0.00     0.023 S 
ATOM     13  O   UNL A   1      29.501  28.702  22.529  1.00  0.00    -0.260 OA
BRANCH  12  14
ATOM     14  C   UNL A   1      32.241  28.309  22.756  1.00  0.00     0.120 C 
BRANCH  14  15
ATOM     15  C   UNL A   1      33.179  27.156  22.399  1.00  0.00     0.068 C 
ATOM     16  C   UNL A   1      34.005  26.558  23.544  1.00  0.00     0.052 C 
ATOM     17  S   UNL A   1      32.557  25.800  21.367  1.00  0.00    -0.121 SA
ATOM     18  C   UNL A   1      33.846  25.068  23.542  1.00  0.00    -0.033 A 
ATOM     19  C   UNL A   1      33.140  24.546  22.461  1.00  0.00     0.011 A 
ATOM     20  C   UNL A   1      34.355  24.214  24.517  1.00  0.00     0.005 A 
ATOM     21  C   UNL A   1      32.916  23.181  22.345  1.00  0.00     0.015 A 
ATOM     22  C   UNL A   1      34.090  22.845  24.436  1.00  0.00     0.000 A 
ATOM     23  C   UNL A   1      33.375  22.330  23.353  1.00  0.00     0.001 A 
ENDBRANCH  14  15
ENDBRANCH  12  14
ENDBRANCH  11  12
ENDBRANCH   8  11
ENDBRANCH   7   8
ENDBRANCH   5   7
ENDBRANCH   2   3
ENDBRANCH   1   2
BRANCH   1  24
ATOM     24  C   UNL A   1      35.110  31.898  27.974  1.00  0.00     0.002 C 
BRANCH  24  25
ATOM     25  C   UNL A   1      34.507  32.714  29.123  1.00  0.00     0.002 C 
BRANCH  25  26
ATOM     26  C   UNL A   1      33.579  33.856  28.732  1.00  0.00     0.021 C 
BRANCH  26  27
ATOM     27  C   UNL A   1      33.871  35.190  29.404  1.00  0.00     0.116 C 
BRANCH  27  28
ATOM     28  N   UNL A   1      32.820  35.659  30.302  1.00  0.00    -0.352 N 
ATOM     29  C   UNL A   1      32.774  35.600  31.678  1.00  0.00     0.251 C 
ATOM     30  H   UNL A   1      32.039  36.072  29.865  1.00  0.00     0.163 HD
ATOM     31  O   UNL A   1      31.787  35.985  32.297  1.00  0.00    -0.269 OA
BRANCH  29  32
ATOM     32  C   UNL A   1      33.918  35.004  32.402  1.00  0.00     0.039 A 
ATOM     33  C   UNL A   1      35.118  35.705  32.510  1.00  0.00     0.014 A 
ATOM     34  C   UNL A   1      33.821  33.692  32.871  1.00  0.00     0.014 A 
ATOM     35  C   UNL A   1      36.273  35.024  32.870  1.00  0.00     0.010 A 
ATOM     36  C   UNL A   1      34.967  33.040  33.335  1.00  0.00     0.010 A 
ATOM     37  C   UNL A   1      36.216  33.678  33.269  1.00  0.00    -0.014 A 
BRANCH  37  38
ATOM     38  C   UNL A   1      37.480  32.954  33.570  1.00  0.00     0.031 A 
ATOM     39  C   UNL A   1      38.203  33.171  34.875  1.00  0.00     0.074 A 
ATOM     40  C   UNL A   1      37.940  32.040  32.694  1.00  0.00     0.049 A 
ATOM     41  N   UNL A   1      39.322  32.637  35.299  1.00  0.00    -0.248 NA
ATOM     42  C   UNL A   1      37.597  34.115  35.828  1.00  0.00     0.031 C 
ATOM     43  C   UNL A   1      37.318  31.716  31.408  1.00  0.00     0.029 A 
ATOM     44  N   UNL A   1      39.019  31.197  32.762  1.00  0.00    -0.354 N 
ATOM     45  C   UNL A   1      39.568  33.199  36.546  1.00  0.00     0.074 A 
ATOM     46  C   UNL A   1      38.494  34.134  36.805  1.00  0.00     0.031 C 
ATOM     47  C   UNL A   1      37.989  30.706  30.838  1.00  0.00     0.029 A 
ATOM     48  C   UNL A   1      39.132  30.364  31.676  1.00  0.00     0.049 A 
ATOM     49  H   UNL A   1      39.651  31.190  33.517  1.00  0.00     0.167 HD
ATOM     50  C   UNL A   1      40.590  32.954  37.403  1.00  0.00     0.037 A 
ATOM     51  C   UNL A   1      40.066  29.444  31.375  1.00  0.00     0.037 A 
ATOM     52  C   UNL A   1      41.640  31.997  37.162  1.00  0.00     0.049 A 
ATOM     53  C   UNL A   1      41.214  29.232  32.315  1.00  0.00     0.074 A 
ATOM     54  C   UNL A   1      42.702  31.653  37.982  1.00  0.00     0.029 A 
ATOM     55  N   UNL A   1      41.757  31.227  36.015  1.00  0.00    -0.354 N 
ATOM     56  N   UNL A   1      41.437  29.780  33.485  1.00  0.00    -0.248 NA
ATOM     57  C   UNL A   1      42.252  28.286  31.883  1.00  0.00     0.031 C 
ATOM     58  C   UNL A   1      43.484  30.704  37.313  1.00  0.00     0.029 A 
ATOM     59  C   UNL A   1      42.887  30.428  36.094  1.00  0.00     0.049 A 
ATOM     60  H   UNL A   1      41.130  31.244  35.256  1.00  0.00     0.167 HD
ATOM     61  C   UNL A   1      42.637  29.244  33.930  1.00  0.00     0.074 A 
ATOM     62  C   UNL A   1      43.078  28.306  32.918  1.00  0.00     0.031 C 
ATOM     63  C   UNL A   1      43.317  29.509  35.072  1.00  0.00     0.037 A 
BRANCH  50  64
ATOM     64  C   UNL A   1      40.638  33.749  38.675  1.00  0.00     0.057 A 
ATOM     65  C   UNL A   1      41.479  34.864  38.785  1.00  0.00     0.134 A 
ATOM     66  C   UNL A   1      39.885  33.396  39.802  1.00  0.00     0.134 A 
ATOM     67  F   UNL A   1      42.235  35.253  37.747  1.00  0.00    -0.206 F 
ATOM     68  C   UNL A   1      41.571  35.597  39.970  1.00  0.00     0.040 A 
ATOM     69  C   UNL A   1      39.951  34.135  40.985  1.00  0.00     0.040 A 
ATOM     70  F   UNL A   1      39.051  32.346  39.760  1.00  0.00    -0.206 F 
ATOM     71  C   UNL A   1      40.800  35.237  41.073  1.00  0.00     0.006 A 
ENDBRANCH  50  64
BRANCH  51  72
ATOM     72  C   UNL A   1      39.969  28.681  30.107  1.00  0.00     0.057 A 
ATOM     73  C   UNL A   1      39.250  27.482  30.031  1.00  0.00     0.134 A 
ATOM     74  C   UNL A   1      40.592  29.136  28.940  1.00  0.00     0.134 A 
ATOM     75  F   UNL A   1      38.634  26.991  31.117  1.00  0.00    -0.206 F 
ATOM     76  C   UNL A   1      39.166  26.754  28.845  1.00  0.00     0.040 A 
ATOM     77  C   UNL A   1      40.493  28.432  27.738  1.00  0.00     0.040 A 
ATOM     78  F   UNL A   1      41.277  30.289  28.946  1.00  0.00    -0.206 F 
ATOM     79  C   UNL A   1      39.783  27.234  27.691  1.00  0.00     0.006 A 
ENDBRANCH  51  72
BRANCH  63  80
ATOM     80  C   UNL A   1      44.601  28.765  35.279  1.00  0.00     0.057 A 
ATOM     81  C   UNL A   1      45.824  29.322  34.886  1.00  0.00     0.134 A 
ATOM     82  C   UNL A   1      44.626  27.494  35.867  1.00  0.00     0.134 A 
ATOM     83  F   UNL A   1      45.868  30.534  34.313  1.00  0.00    -0.206 F 
ATOM     84  C   UNL A   1      47.027  28.643  35.074  1.00  0.00     0.040 A 
ATOM     85  C   UNL A   1      45.826  26.814  36.082  1.00  0.00     0.040 A 
ATOM     86  F   UNL A   1      43.488  26.915  36.282  1.00  0.00    -0.206 F 
ATOM     87  C   UNL A   1      47.031  27.387  35.680  1.00  0.00     0.006 A 
ENDBRANCH  63  80
ENDBRANCH  37  38
ENDBRANCH  29  32
ENDBRANCH  27  28
ENDBRANCH  26  27
ENDBRANCH  25  26
ENDBRANCH  24  25
ENDBRANCH   1  24
TORSDOF 18
ENDMDL
MODEL 3
REMARK VINA RESULT:      -9.9      3.440      9.409
REMARK SMILES O=C(CC1(C[S@](=O)C[C@H]2Cc3ccccc3S2)CC1)NCCCCCCNC(=O)c1ccc(-c2c3nc(c(-c4c(F)cccc4F)c4ccc([nH]4)c(-c4c(F)cccc4F)c4nc(c(-c5c(F)cccc5F)c5ccc2[nH]5)C=C4)C=C3)cc1
REMARK SMILES IDX 22 1 21 2 20 3 1 4 2 5 3 7 4 8 18 9 19 10 5 11 6 12 7 13
REMARK SMILES IDX 8 14 9 15 10 16 17 17 11 18 16 19 12 20 15 21 13 22 14 23
REMARK SMILES IDX 23 24 24 25 25 26 26 27 27 28 28 29 29 31 30 32 31 33 83 34
REMARK SMILES IDX 32 35 82 36 33 37 34 38 35 39 76 40 36 41 81 42 75 43 77 44
REMARK SMILES IDX 37 45 80 46 74 47 73 48 38 50 64 51 47 52 63 53 48 54 51 55
REMARK SMILES IDX 62 56 78 57 49 58 50 59 61 61 79 62 52 63 39 64 40 65 45 66
REMARK SMILES IDX 41 67 42 68 44 69 46 70 43 71 65 72 66 73 71 74 67 75 68 76
REMARK SMILES IDX 70 77 72 78 69 79 53 80 54 81 59 82 55 83 56 84 58 85 60 86
REMARK SMILES IDX 57 87
REMARK H PARENT 20 6 27 30 77 49 51 60
REMARK Flexibility Score: inf
ROOT
ATOM      1  C   UNL A   1      40.025  22.330  27.254  1.00  0.00     0.021 C 
ENDROOT
BRANCH   1   2
ATOM      2  C   UNL A   1      39.274  21.705  26.070  1.00  0.00     0.116 C 
BRANCH   2   3
ATOM      3  N   UNL A   1      38.272  22.552  25.443  1.00  0.00    -0.356 N 
ATOM      4  O   UNL A   1      36.629  20.974  25.411  1.00  0.00    -0.275 OA
ATOM      5  C   UNL A   1      36.979  22.139  25.218  1.00  0.00     0.220 C 
ATOM      6  H   UNL A   1      38.530  23.460  25.167  1.00  0.00     0.163 HD
BRANCH   5   7
ATOM      7  C   UNL A   1      36.050  23.116  24.507  1.00  0.00     0.108 C 
BRANCH   7   8
ATOM      8  C   UNL A   1      34.519  23.191  24.715  1.00  0.00    -0.009 C 
ATOM      9  C   UNL A   1      33.816  23.088  23.343  1.00  0.00     0.009 C 
ATOM     10  C   UNL A   1      33.587  22.033  24.356  1.00  0.00     0.009 C 
BRANCH   8  11
ATOM     11  C   UNL A   1      33.939  24.327  25.526  1.00  0.00     0.112 C 
BRANCH  11  12
ATOM     12  S   UNL A   1      32.451  24.343  26.444  1.00  0.00     0.023 S 
ATOM     13  O   UNL A   1      32.311  23.206  27.384  1.00  0.00    -0.260 OA
BRANCH  12  14
ATOM     14  C   UNL A   1      31.021  24.783  25.497  1.00  0.00     0.120 C 
BRANCH  14  15
ATOM     15  C   UNL A   1      30.968  25.721  24.291  1.00  0.00     0.068 C 
ATOM     16  C   UNL A   1      29.589  25.962  23.665  1.00  0.00     0.052 C 
ATOM     17  S   UNL A   1      31.853  27.302  24.362  1.00  0.00    -0.121 SA
ATOM     18  C   UNL A   1      29.364  27.436  23.519  1.00  0.00    -0.033 A 
ATOM     19  C   UNL A   1      30.460  28.239  23.824  1.00  0.00     0.011 A 
ATOM     20  C   UNL A   1      28.170  28.020  23.102  1.00  0.00     0.005 A 
ATOM     21  C   UNL A   1      30.380  29.622  23.739  1.00  0.00     0.015 A 
ATOM     22  C   UNL A   1      28.064  29.412  23.062  1.00  0.00     0.000 A 
ATOM     23  C   UNL A   1      29.166  30.210  23.377  1.00  0.00     0.001 A 
ENDBRANCH  14  15
ENDBRANCH  12  14
ENDBRANCH  11  12
ENDBRANCH   8  11
ENDBRANCH   7   8
ENDBRANCH   5   7
ENDBRANCH   2   3
ENDBRANCH   1   2
BRANCH   1  24
ATOM     24  C   UNL A   1      41.400  21.766  27.639  1.00  0.00     0.002 C 
BRANCH  24  25
ATOM     25  C   UNL A   1      42.100  20.859  26.622  1.00  0.00     0.002 C 
BRANCH  25  26
ATOM     26  C   UNL A   1      43.177  21.506  25.761  1.00  0.00     0.021 C 
BRANCH  26  27
ATOM     27  C   UNL A   1      42.879  22.928  25.307  1.00  0.00     0.116 C 
BRANCH  27  28
ATOM     28  N   UNL A   1      44.049  23.680  24.865  1.00  0.00    -0.352 N 
ATOM     29  C   UNL A   1      44.411  24.972  25.181  1.00  0.00     0.251 C 
ATOM     30  H   UNL A   1      44.660  23.201  24.259  1.00  0.00     0.163 HD
ATOM     31  O   UNL A   1      45.402  25.493  24.680  1.00  0.00    -0.269 OA
BRANCH  29  32
ATOM     32  C   UNL A   1      43.547  25.748  26.096  1.00  0.00     0.039 A 
ATOM     33  C   UNL A   1      43.607  27.141  26.100  1.00  0.00     0.014 A 
ATOM     34  C   UNL A   1      42.760  25.072  27.031  1.00  0.00     0.014 A 
ATOM     35  C   UNL A   1      43.071  27.841  27.172  1.00  0.00     0.010 A 
ATOM     36  C   UNL A   1      42.133  25.791  28.053  1.00  0.00     0.010 A 
ATOM     37  C   UNL A   1      42.344  27.174  28.172  1.00  0.00    -0.014 A 
BRANCH  37  38
ATOM     38  C   UNL A   1      41.854  27.940  29.350  1.00  0.00     0.031 A 
ATOM     39  C   UNL A   1      40.587  28.753  29.271  1.00  0.00     0.074 A 
ATOM     40  C   UNL A   1      42.515  27.843  30.520  1.00  0.00     0.049 A 
ATOM     41  N   UNL A   1      40.020  29.492  30.192  1.00  0.00    -0.248 NA
ATOM     42  C   UNL A   1      39.863  28.741  27.989  1.00  0.00     0.031 C 
ATOM     43  C   UNL A   1      43.738  27.067  30.736  1.00  0.00     0.029 A 
ATOM     44  N   UNL A   1      42.238  28.376  31.752  1.00  0.00    -0.354 N 
ATOM     45  C   UNL A   1      38.897  30.054  29.596  1.00  0.00     0.074 A 
ATOM     46  C   UNL A   1      38.871  29.589  28.226  1.00  0.00     0.031 C 
ATOM     47  C   UNL A   1      44.072  27.126  32.033  1.00  0.00     0.029 A 
ATOM     48  C   UNL A   1      43.135  28.004  32.723  1.00  0.00     0.049 A 
ATOM     49  H   UNL A   1      41.470  28.968  31.924  1.00  0.00     0.167 HD
ATOM     50  C   UNL A   1      37.966  30.876  30.142  1.00  0.00     0.037 A 
ATOM     51  C   UNL A   1      43.211  28.351  34.020  1.00  0.00     0.037 A 
ATOM     52  C   UNL A   1      37.971  31.309  31.516  1.00  0.00     0.049 A 
ATOM     53  C   UNL A   1      42.199  29.303  34.584  1.00  0.00     0.074 A 
ATOM     54  C   UNL A   1      37.055  32.114  32.172  1.00  0.00     0.029 A 
ATOM     55  N   UNL A   1      38.940  30.967  32.447  1.00  0.00    -0.354 N 
ATOM     56  N   UNL A   1      41.151  29.834  34.004  1.00  0.00    -0.248 NA
ATOM     57  C   UNL A   1      42.395  29.720  35.979  1.00  0.00     0.031 C 
ATOM     58  C   UNL A   1      37.493  32.293  33.490  1.00  0.00     0.029 A 
ATOM     59  C   UNL A   1      38.658  31.567  33.665  1.00  0.00     0.049 A 
ATOM     60  H   UNL A   1      39.714  30.385  32.271  1.00  0.00     0.167 HD
ATOM     61  C   UNL A   1      40.558  30.644  34.962  1.00  0.00     0.074 A 
ATOM     62  C   UNL A   1      41.349  30.511  36.169  1.00  0.00     0.031 C 
ATOM     63  C   UNL A   1      39.463  31.433  34.852  1.00  0.00     0.037 A 
BRANCH  50  64
ATOM     64  C   UNL A   1      36.872  31.380  29.246  1.00  0.00     0.057 A 
ATOM     65  C   UNL A   1      36.896  32.697  28.768  1.00  0.00     0.134 A 
ATOM     66  C   UNL A   1      35.779  30.582  28.885  1.00  0.00     0.134 A 
ATOM     67  F   UNL A   1      37.910  33.518  29.082  1.00  0.00    -0.206 F 
ATOM     68  C   UNL A   1      35.871  33.202  27.965  1.00  0.00     0.040 A 
ATOM     69  C   UNL A   1      34.759  31.070  28.064  1.00  0.00     0.040 A 
ATOM     70  F   UNL A   1      35.700  29.309  29.299  1.00  0.00    -0.206 F 
ATOM     71  C   UNL A   1      34.802  32.386  27.605  1.00  0.00     0.006 A 
ENDBRANCH  50  64
BRANCH  51  72
ATOM     72  C   UNL A   1      44.309  27.819  34.865  1.00  0.00     0.057 A 
ATOM     73  C   UNL A   1      45.528  28.497  34.987  1.00  0.00     0.134 A 
ATOM     74  C   UNL A   1      44.161  26.620  35.571  1.00  0.00     0.134 A 
ATOM     75  F   UNL A   1      45.732  29.649  34.332  1.00  0.00    -0.206 F 
ATOM     76  C   UNL A   1      46.567  27.995  35.770  1.00  0.00     0.040 A 
ATOM     77  C   UNL A   1      45.183  26.120  36.379  1.00  0.00     0.040 A 
ATOM     78  F   UNL A   1      43.008  25.938  35.509  1.00  0.00    -0.206 F 
ATOM     79  C   UNL A   1      46.393  26.806  36.475  1.00  0.00     0.006 A 
ENDBRANCH  51  72
BRANCH  63  80
ATOM     80  C   UNL A   1      39.060  32.201  36.074  1.00  0.00     0.057 A 
ATOM     81  C   UNL A   1      39.520  33.506  36.284  1.00  0.00     0.134 A 
ATOM     82  C   UNL A   1      38.217  31.646  37.044  1.00  0.00     0.134 A 
ATOM     83  F   UNL A   1      40.334  34.094  35.395  1.00  0.00    -0.206 F 
ATOM     84  C   UNL A   1      39.152  34.234  37.416  1.00  0.00     0.040 A 
ATOM     85  C   UNL A   1      37.823  32.373  38.169  1.00  0.00     0.040 A 
ATOM     86  F   UNL A   1      37.727  30.405  36.890  1.00  0.00    -0.206 F 
ATOM     87  C   UNL A   1      38.295  33.670  38.359  1.00  0.00     0.006 A 
ENDBRANCH  63  80
ENDBRANCH  37  38
ENDBRANCH  29  32
ENDBRANCH  27  28
ENDBRANCH  26  27
ENDBRANCH  25  26
ENDBRANCH  24  25
ENDBRANCH   1  24
TORSDOF 18
ENDMDL
