MODEL 1
REMARK VINA RESULT:     -11.5      0.000      0.000
REMARK SMILES O=C(COc1ccccc1/C=C1/SC(=S)N(c2ccc(F)c(Cl)c2)C1=O)NCCCCCCNC(=O)c1ccc(-c2c3nc(c(-c4c(F)cccc4F)c4ccc([nH]4)c(-c4c(F)cccc4F)c4nc(c(-c5c(F)cccc5F)c5ccc2[nH]5)C=C4)C=C3)cc1
REMARK SMILES IDX 29 1 28 2 27 3 1 4 2 5 3 7 4 8 5 9 6 10 10 11 7 12 9 13 8 14
REMARK SMILES IDX 11 15 12 16 13 17 25 18 14 19 16 20 26 21 15 22 17 23 18 24
REMARK SMILES IDX 24 25 19 26 22 27 20 28 23 29 21 30 30 31 31 32 32 33 33 34
REMARK SMILES IDX 34 35 35 36 36 38 37 39 38 40 90 41 39 42 89 43 40 44 41 45
REMARK SMILES IDX 42 46 83 47 43 48 88 49 82 50 84 51 44 52 87 53 81 54 80 55
REMARK SMILES IDX 45 57 71 58 54 59 70 60 55 61 58 62 69 63 85 64 56 65 57 66
REMARK SMILES IDX 68 68 86 69 59 70 46 71 47 72 52 73 48 74 49 75 51 76 53 77
REMARK SMILES IDX 50 78 72 79 73 80 78 81 74 82 75 83 77 84 79 85 76 86 60 87
REMARK SMILES IDX 61 88 66 89 62 90 63 91 65 92 67 93 64 94
REMARK H PARENT 27 6 34 37 84 56 58 67
REMARK Flexibility Score: inf
ROOT
ATOM      1  C   UNL A   1      35.516  32.760  28.251  1.00  0.00     0.021 C 
ENDROOT
BRANCH   1   2
ATOM      2  C   UNL A   1      34.432  31.783  28.742  1.00  0.00     0.116 C 
BRANCH   2   3
ATOM      3  N   UNL A   1      34.249  30.536  28.000  1.00  0.00    -0.353 N 
ATOM      4  O   UNL A   1      32.390  31.298  26.890  1.00  0.00    -0.271 OA
ATOM      5  C   UNL A   1      33.259  30.435  27.020  1.00  0.00     0.257 C 
ATOM      6  H   UNL A   1      34.827  29.763  28.192  1.00  0.00     0.163 HD
BRANCH   5   7
ATOM      7  C   UNL A   1      33.335  29.215  26.052  1.00  0.00     0.329 C 
BRANCH   7   8
ATOM      8  O   UNL A   1      32.377  28.153  26.117  1.00  0.00    -0.483 OA
BRANCH   8   9
ATOM      9  C   UNL A   1      31.812  27.804  24.910  1.00  0.00     0.127 A 
ATOM     10  C   UNL A   1      31.585  28.796  23.959  1.00  0.00     0.047 A 
ATOM     11  C   UNL A   1      31.295  26.506  24.702  1.00  0.00     0.018 A 
ATOM     12  C   UNL A   1      30.970  28.464  22.748  1.00  0.00     0.004 A 
ATOM     13  C   UNL A   1      30.755  26.160  23.463  1.00  0.00     0.012 A 
ATOM     14  C   UNL A   1      30.598  27.142  22.485  1.00  0.00     0.001 A 
BRANCH  11  15
ATOM     15  C   UNL A   1      31.361  25.526  25.799  1.00  0.00     0.033 C 
ATOM     16  C   UNL A   1      32.170  24.468  25.631  1.00  0.00     0.081 C 
ATOM     17  S   UNL A   1      31.571  22.870  25.450  1.00  0.00    -0.054 SA
ATOM     18  C   UNL A   1      33.638  24.471  25.416  1.00  0.00     0.270 C 
ATOM     19  C   UNL A   1      33.149  22.147  25.485  1.00  0.00     0.152 C 
ATOM     20  N   UNL A   1      34.109  23.149  25.398  1.00  0.00    -0.261 N 
ATOM     21  O   UNL A   1      34.300  25.501  25.363  1.00  0.00    -0.268 OA
ATOM     22  S   UNL A   1      33.270  20.497  25.746  1.00  0.00    -0.051 S 
BRANCH  20  23
ATOM     23  C   UNL A   1      35.506  22.872  25.416  1.00  0.00     0.052 A 
ATOM     24  C   UNL A   1      36.407  23.797  25.963  1.00  0.00     0.030 A 
ATOM     25  C   UNL A   1      35.994  21.638  24.962  1.00  0.00     0.050 A 
ATOM     26  C   UNL A   1      37.752  23.458  26.124  1.00  0.00     0.043 A 
ATOM     27  C   UNL A   1      37.332  21.295  25.138  1.00  0.00     0.078 A 
ATOM     28  C   UNL A   1      38.203  22.203  25.728  1.00  0.00     0.141 A 
ATOM     29  Cl  UNL A   1      37.869  19.739  24.641  1.00  0.00    -0.081 Cl
ATOM     30  F   UNL A   1      39.489  21.886  25.927  1.00  0.00    -0.205 F 
ENDBRANCH  20  23
ENDBRANCH  11  15
ENDBRANCH   8   9
ENDBRANCH   7   8
ENDBRANCH   5   7
ENDBRANCH   2   3
ENDBRANCH   1   2
BRANCH   1  31
ATOM     31  C   UNL A   1      35.505  34.223  28.728  1.00  0.00     0.002 C 
BRANCH  31  32
ATOM     32  C   UNL A   1      34.497  35.186  28.076  1.00  0.00     0.002 C 
BRANCH  32  33
ATOM     33  C   UNL A   1      33.181  35.434  28.805  1.00  0.00     0.021 C 
BRANCH  33  34
ATOM     34  C   UNL A   1      33.165  36.606  29.781  1.00  0.00     0.116 C 
BRANCH  34  35
ATOM     35  N   UNL A   1      32.417  36.396  31.016  1.00  0.00    -0.352 N 
ATOM     36  C   UNL A   1      32.765  35.604  32.096  1.00  0.00     0.251 C 
ATOM     37  H   UNL A   1      31.561  36.876  31.090  1.00  0.00     0.163 HD
ATOM     38  O   UNL A   1      32.013  35.488  33.058  1.00  0.00    -0.269 OA
BRANCH  36  39
ATOM     39  C   UNL A   1      34.034  34.835  32.054  1.00  0.00     0.039 A 
ATOM     40  C   UNL A   1      35.249  35.517  32.156  1.00  0.00     0.014 A 
ATOM     41  C   UNL A   1      34.019  33.440  32.020  1.00  0.00     0.014 A 
ATOM     42  C   UNL A   1      36.431  34.797  32.357  1.00  0.00     0.010 A 
ATOM     43  C   UNL A   1      35.176  32.730  32.324  1.00  0.00     0.010 A 
ATOM     44  C   UNL A   1      36.393  33.400  32.517  1.00  0.00    -0.014 A 
BRANCH  44  45
ATOM     45  C   UNL A   1      37.598  32.632  32.934  1.00  0.00     0.031 A 
ATOM     46  C   UNL A   1      38.309  32.958  34.218  1.00  0.00     0.074 A 
ATOM     47  C   UNL A   1      38.109  31.696  32.107  1.00  0.00     0.049 A 
ATOM     48  N   UNL A   1      39.401  32.434  34.715  1.00  0.00    -0.248 NA
ATOM     49  C   UNL A   1      37.742  34.043  35.033  1.00  0.00     0.031 C 
ATOM     50  C   UNL A   1      37.568  31.335  30.795  1.00  0.00     0.029 A 
ATOM     51  N   UNL A   1      39.206  30.882  32.245  1.00  0.00    -0.354 N 
ATOM     52  C   UNL A   1      39.658  33.135  35.886  1.00  0.00     0.074 A 
ATOM     53  C   UNL A   1      38.647  34.163  35.992  1.00  0.00     0.031 C 
ATOM     54  C   UNL A   1      38.306  30.344  30.270  1.00  0.00     0.029 A 
ATOM     55  C   UNL A   1      39.395  30.024  31.188  1.00  0.00     0.049 A 
ATOM     56  H   UNL A   1      39.802  30.908  33.029  1.00  0.00     0.167 HD
ATOM     57  C   UNL A   1      40.630  32.925  36.807  1.00  0.00     0.037 A 
ATOM     58  C   UNL A   1      40.334  29.083  30.980  1.00  0.00     0.037 A 
ATOM     59  C   UNL A   1      41.620  31.883  36.718  1.00  0.00     0.049 A 
ATOM     60  C   UNL A   1      41.394  28.857  32.021  1.00  0.00     0.074 A 
ATOM     61  C   UNL A   1      42.592  31.535  37.639  1.00  0.00     0.029 A 
ATOM     62  N   UNL A   1      41.765  31.023  35.639  1.00  0.00    -0.354 N 
ATOM     63  N   UNL A   1      41.569  29.466  33.169  1.00  0.00    -0.248 NA
ATOM     64  C   UNL A   1      42.384  27.807  31.741  1.00  0.00     0.031 C 
ATOM     65  C   UNL A   1      43.356  30.496  37.098  1.00  0.00     0.029 A 
ATOM     66  C   UNL A   1      42.830  30.163  35.860  1.00  0.00     0.049 A 
ATOM     67  H   UNL A   1      41.197  31.024  34.836  1.00  0.00     0.167 HD
ATOM     68  C   UNL A   1      42.671  28.860  33.757  1.00  0.00     0.074 A 
ATOM     69  C   UNL A   1      43.113  27.824  32.847  1.00  0.00     0.031 C 
ATOM     70  C   UNL A   1      43.263  29.138  34.944  1.00  0.00     0.037 A 
BRANCH  57  71
ATOM     71  C   UNL A   1      40.661  33.843  37.995  1.00  0.00     0.057 A 
ATOM     72  C   UNL A   1      39.880  33.603  39.136  1.00  0.00     0.134 A 
ATOM     73  C   UNL A   1      41.486  34.973  38.007  1.00  0.00     0.134 A 
ATOM     74  F   UNL A   1      39.057  32.545  39.186  1.00  0.00    -0.206 F 
ATOM     75  C   UNL A   1      39.890  34.475  40.226  1.00  0.00     0.040 A 
ATOM     76  C   UNL A   1      41.529  35.836  39.104  1.00  0.00     0.040 A 
ATOM     77  F   UNL A   1      42.266  35.260  36.953  1.00  0.00    -0.206 F 
ATOM     78  C   UNL A   1      40.722  35.593  40.214  1.00  0.00     0.006 A 
ENDBRANCH  57  71
BRANCH  58  79
ATOM     79  C   UNL A   1      40.290  28.248  29.752  1.00  0.00     0.057 A 
ATOM     80  C   UNL A   1      41.082  28.563  28.642  1.00  0.00     0.134 A 
ATOM     81  C   UNL A   1      39.468  27.119  29.658  1.00  0.00     0.134 A 
ATOM     82  F   UNL A   1      41.876  29.644  28.665  1.00  0.00    -0.206 F 
ATOM     83  C   UNL A   1      41.047  27.798  27.476  1.00  0.00     0.040 A 
ATOM     84  C   UNL A   1      39.440  26.330  28.506  1.00  0.00     0.040 A 
ATOM     85  F   UNL A   1      38.690  26.759  30.689  1.00  0.00    -0.206 F 
ATOM     86  C   UNL A   1      40.227  26.673  27.409  1.00  0.00     0.006 A 
ENDBRANCH  58  79
BRANCH  70  87
ATOM     87  C   UNL A   1      44.441  28.294  35.336  1.00  0.00     0.057 A 
ATOM     88  C   UNL A   1      45.749  28.629  34.958  1.00  0.00     0.134 A 
ATOM     89  C   UNL A   1      44.269  27.149  36.123  1.00  0.00     0.134 A 
ATOM     90  F   UNL A   1      45.981  29.705  34.193  1.00  0.00    -0.206 F 
ATOM     91  C   UNL A   1      46.838  27.839  35.328  1.00  0.00     0.040 A 
ATOM     92  C   UNL A   1      45.353  26.368  36.523  1.00  0.00     0.040 A 
ATOM     93  F   UNL A   1      43.044  26.777  36.526  1.00  0.00    -0.206 F 
ATOM     94  C   UNL A   1      46.643  26.708  36.119  1.00  0.00     0.006 A 
ENDBRANCH  70  87
ENDBRANCH  44  45
ENDBRANCH  36  39
ENDBRANCH  34  35
ENDBRANCH  33  34
ENDBRANCH  32  33
ENDBRANCH  31  32
ENDBRANCH   1  31
TORSDOF 17
ENDMDL
MODEL 2
REMARK VINA RESULT:     -11.4      0.364      5.852
REMARK SMILES O=C(COc1ccccc1/C=C1/SC(=S)N(c2ccc(F)c(Cl)c2)C1=O)NCCCCCCNC(=O)c1ccc(-c2c3nc(c(-c4c(F)cccc4F)c4ccc([nH]4)c(-c4c(F)cccc4F)c4nc(c(-c5c(F)cccc5F)c5ccc2[nH]5)C=C4)C=C3)cc1
REMARK SMILES IDX 29 1 28 2 27 3 1 4 2 5 3 7 4 8 5 9 6 10 10 11 7 12 9 13 8 14
REMARK SMILES IDX 11 15 12 16 13 17 25 18 14 19 16 20 26 21 15 22 17 23 18 24
REMARK SMILES IDX 24 25 19 26 22 27 20 28 23 29 21 30 30 31 31 32 32 33 33 34
REMARK SMILES IDX 34 35 35 36 36 38 37 39 38 40 90 41 39 42 89 43 40 44 41 45
REMARK SMILES IDX 42 46 83 47 43 48 88 49 82 50 84 51 44 52 87 53 81 54 80 55
REMARK SMILES IDX 45 57 71 58 54 59 70 60 55 61 58 62 69 63 85 64 56 65 57 66
REMARK SMILES IDX 68 68 86 69 59 70 46 71 47 72 52 73 48 74 49 75 51 76 53 77
REMARK SMILES IDX 50 78 72 79 73 80 78 81 74 82 75 83 77 84 79 85 76 86 60 87
REMARK SMILES IDX 61 88 66 89 62 90 63 91 65 92 67 93 64 94
REMARK H PARENT 27 6 34 37 84 56 58 67
REMARK Flexibility Score: inf
ROOT
ATOM      1  C   UNL A   1      35.659  32.631  28.233  1.00  0.00     0.021 C 
ENDROOT
BRANCH   1   2
ATOM      2  C   UNL A   1      34.613  31.697  28.868  1.00  0.00     0.116 C 
BRANCH   2   3
ATOM      3  N   UNL A   1      34.289  30.455  28.166  1.00  0.00    -0.353 N 
ATOM      4  O   UNL A   1      32.471  31.361  27.098  1.00  0.00    -0.271 OA
ATOM      5  C   UNL A   1      33.260  30.425  27.222  1.00  0.00     0.257 C 
ATOM      6  H   UNL A   1      34.800  29.636  28.359  1.00  0.00     0.163 HD
BRANCH   5   7
ATOM      7  C   UNL A   1      33.188  29.181  26.285  1.00  0.00     0.329 C 
BRANCH   7   8
ATOM      8  O   UNL A   1      32.027  28.345  26.245  1.00  0.00    -0.483 OA
BRANCH   8   9
ATOM      9  C   UNL A   1      31.594  28.009  24.981  1.00  0.00     0.127 A 
ATOM     10  C   UNL A   1      31.378  29.023  24.051  1.00  0.00     0.047 A 
ATOM     11  C   UNL A   1      31.192  26.689  24.681  1.00  0.00     0.018 A 
ATOM     12  C   UNL A   1      30.895  28.701  22.779  1.00  0.00     0.004 A 
ATOM     13  C   UNL A   1      30.786  26.360  23.388  1.00  0.00     0.012 A 
ATOM     14  C   UNL A   1      30.643  27.370  22.435  1.00  0.00     0.001 A 
BRANCH  11  15
ATOM     15  C   UNL A   1      31.234  25.670  25.743  1.00  0.00     0.033 C 
ATOM     16  C   UNL A   1      32.036  24.612  25.548  1.00  0.00     0.081 C 
ATOM     17  S   UNL A   1      31.426  23.026  25.303  1.00  0.00    -0.054 SA
ATOM     18  C   UNL A   1      33.507  24.608  25.353  1.00  0.00     0.270 C 
ATOM     19  C   UNL A   1      32.996  22.288  25.333  1.00  0.00     0.152 C 
ATOM     20  N   UNL A   1      33.966  23.283  25.294  1.00  0.00    -0.261 N 
ATOM     21  O   UNL A   1      34.178  25.634  25.346  1.00  0.00    -0.268 OA
ATOM     22  S   UNL A   1      33.099  20.629  25.536  1.00  0.00    -0.051 S 
BRANCH  20  23
ATOM     23  C   UNL A   1      35.360  22.993  25.322  1.00  0.00     0.052 A 
ATOM     24  C   UNL A   1      36.274  23.939  25.808  1.00  0.00     0.030 A 
ATOM     25  C   UNL A   1      35.833  21.729  24.940  1.00  0.00     0.050 A 
ATOM     26  C   UNL A   1      37.617  23.596  25.982  1.00  0.00     0.043 A 
ATOM     27  C   UNL A   1      37.168  21.383  25.128  1.00  0.00     0.078 A 
ATOM     28  C   UNL A   1      38.052  22.315  25.659  1.00  0.00     0.141 A 
ATOM     29  Cl  UNL A   1      37.685  19.794  24.722  1.00  0.00    -0.081 Cl
ATOM     30  F   UNL A   1      39.336  21.996  25.869  1.00  0.00    -0.205 F 
ENDBRANCH  20  23
ENDBRANCH  11  15
ENDBRANCH   8   9
ENDBRANCH   7   8
ENDBRANCH   5   7
ENDBRANCH   2   3
ENDBRANCH   1   2
BRANCH   1  31
ATOM     31  C   UNL A   1      35.573  34.150  28.462  1.00  0.00     0.002 C 
BRANCH  31  32
ATOM     32  C   UNL A   1      34.363  34.898  27.875  1.00  0.00     0.002 C 
BRANCH  32  33
ATOM     33  C   UNL A   1      33.153  35.108  28.780  1.00  0.00     0.021 C 
BRANCH  33  34
ATOM     34  C   UNL A   1      33.153  36.383  29.616  1.00  0.00     0.116 C 
BRANCH  34  35
ATOM     35  N   UNL A   1      32.427  36.316  30.880  1.00  0.00    -0.352 N 
ATOM     36  C   UNL A   1      32.781  35.630  32.028  1.00  0.00     0.251 C 
ATOM     37  H   UNL A   1      31.583  36.821  30.921  1.00  0.00     0.163 HD
ATOM     38  O   UNL A   1      32.047  35.629  33.010  1.00  0.00    -0.269 OA
BRANCH  36  39
ATOM     39  C   UNL A   1      34.033  34.832  32.039  1.00  0.00     0.039 A 
ATOM     40  C   UNL A   1      35.260  35.485  31.897  1.00  0.00     0.014 A 
ATOM     41  C   UNL A   1      33.999  33.460  32.295  1.00  0.00     0.014 A 
ATOM     42  C   UNL A   1      36.447  34.786  32.143  1.00  0.00     0.010 A 
ATOM     43  C   UNL A   1      35.170  32.795  32.642  1.00  0.00     0.010 A 
ATOM     44  C   UNL A   1      36.407  33.454  32.590  1.00  0.00    -0.014 A 
BRANCH  44  45
ATOM     45  C   UNL A   1      37.634  32.752  33.055  1.00  0.00     0.031 A 
ATOM     46  C   UNL A   1      38.255  31.661  32.226  1.00  0.00     0.074 A 
ATOM     47  C   UNL A   1      38.141  33.035  34.273  1.00  0.00     0.049 A 
ATOM     48  N   UNL A   1      39.289  30.905  32.495  1.00  0.00    -0.248 NA
ATOM     49  C   UNL A   1      37.605  31.352  30.944  1.00  0.00     0.031 C 
ATOM     50  C   UNL A   1      37.592  34.012  35.216  1.00  0.00     0.029 A 
ATOM     51  N   UNL A   1      39.230  32.519  34.932  1.00  0.00    -0.354 N 
ATOM     52  C   UNL A   1      39.402  30.024  31.428  1.00  0.00     0.074 A 
ATOM     53  C   UNL A   1      38.292  30.295  30.540  1.00  0.00     0.031 C 
ATOM     54  C   UNL A   1      38.370  34.057  36.309  1.00  0.00     0.029 A 
ATOM     55  C   UNL A   1      39.450  33.087  36.164  1.00  0.00     0.049 A 
ATOM     56  H   UNL A   1      39.801  31.810  34.557  1.00  0.00     0.167 HD
ATOM     57  C   UNL A   1      40.356  29.092  31.191  1.00  0.00     0.037 A 
ATOM     58  C   UNL A   1      40.415  32.857  37.075  1.00  0.00     0.037 A 
ATOM     59  C   UNL A   1      41.478  28.842  32.059  1.00  0.00     0.049 A 
ATOM     60  C   UNL A   1      41.473  31.830  36.785  1.00  0.00     0.074 A 
ATOM     61  C   UNL A   1      42.543  27.980  31.865  1.00  0.00     0.029 A 
ATOM     62  N   UNL A   1      41.675  29.451  33.289  1.00  0.00    -0.354 N 
ATOM     63  N   UNL A   1      41.618  31.068  35.727  1.00  0.00    -0.248 NA
ATOM     64  C   UNL A   1      42.504  31.633  37.813  1.00  0.00     0.031 C 
ATOM     65  C   UNL A   1      43.360  28.033  32.999  1.00  0.00     0.029 A 
ATOM     66  C   UNL A   1      42.830  28.963  33.879  1.00  0.00     0.049 A 
ATOM     67  H   UNL A   1      41.082  30.129  33.685  1.00  0.00     0.167 HD
ATOM     68  C   UNL A   1      42.767  30.321  35.952  1.00  0.00     0.074 A 
ATOM     69  C   UNL A   1      43.289  30.734  37.238  1.00  0.00     0.031 C 
ATOM     70  C   UNL A   1      43.337  29.379  35.162  1.00  0.00     0.037 A 
BRANCH  57  71
ATOM     71  C   UNL A   1      40.227  28.280  29.934  1.00  0.00     0.057 A 
ATOM     72  C   UNL A   1      40.924  28.612  28.763  1.00  0.00     0.134 A 
ATOM     73  C   UNL A   1      39.406  27.148  29.893  1.00  0.00     0.134 A 
ATOM     74  F   UNL A   1      41.720  29.692  28.728  1.00  0.00    -0.206 F 
ATOM     75  C   UNL A   1      40.779  27.871  27.589  1.00  0.00     0.040 A 
ATOM     76  C   UNL A   1      39.276  26.379  28.734  1.00  0.00     0.040 A 
ATOM     77  F   UNL A   1      38.715  26.767  30.979  1.00  0.00    -0.206 F 
ATOM     78  C   UNL A   1      39.955  26.747  27.575  1.00  0.00     0.006 A 
ENDBRANCH  57  71
BRANCH  58  79
ATOM     79  C   UNL A   1      40.454  33.648  38.332  1.00  0.00     0.057 A 
ATOM     80  C   UNL A   1      41.320  34.739  38.465  1.00  0.00     0.134 A 
ATOM     81  C   UNL A   1      39.630  33.341  39.421  1.00  0.00     0.134 A 
ATOM     82  F   UNL A   1      42.147  35.070  37.463  1.00  0.00    -0.206 F 
ATOM     83  C   UNL A   1      41.379  35.488  39.641  1.00  0.00     0.040 A 
ATOM     84  C   UNL A   1      39.662  34.096  40.595  1.00  0.00     0.040 A 
ATOM     85  F   UNL A   1      38.773  32.313  39.354  1.00  0.00    -0.206 F 
ATOM     86  C   UNL A   1      40.543  35.170  40.709  1.00  0.00     0.006 A 
ENDBRANCH  58  79
BRANCH  70  87
ATOM     87  C   UNL A   1      44.604  28.745  35.659  1.00  0.00     0.057 A 
ATOM     88  C   UNL A   1      45.865  29.271  35.349  1.00  0.00     0.134 A 
ATOM     89  C   UNL A   1      44.561  27.612  36.481  1.00  0.00     0.134 A 
ATOM     90  F   UNL A   1      45.977  30.346  34.555  1.00  0.00    -0.206 F 
ATOM     91  C   UNL A   1      47.038  28.676  35.816  1.00  0.00     0.040 A 
ATOM     92  C   UNL A   1      45.725  27.025  36.978  1.00  0.00     0.040 A 
ATOM     93  F   UNL A   1      43.385  27.063  36.823  1.00  0.00    -0.206 F 
ATOM     94  C   UNL A   1      46.970  27.554  36.639  1.00  0.00     0.006 A 
ENDBRANCH  70  87
ENDBRANCH  44  45
ENDBRANCH  36  39
ENDBRANCH  34  35
ENDBRANCH  33  34
ENDBRANCH  32  33
ENDBRANCH  31  32
ENDBRANCH   1  31
TORSDOF 17
ENDMDL
MODEL 3
REMARK VINA RESULT:     -11.4      6.339     11.517
REMARK SMILES O=C(COc1ccccc1/C=C1/SC(=S)N(c2ccc(F)c(Cl)c2)C1=O)NCCCCCCNC(=O)c1ccc(-c2c3nc(c(-c4c(F)cccc4F)c4ccc([nH]4)c(-c4c(F)cccc4F)c4nc(c(-c5c(F)cccc5F)c5ccc2[nH]5)C=C4)C=C3)cc1
REMARK SMILES IDX 29 1 28 2 27 3 1 4 2 5 3 7 4 8 5 9 6 10 10 11 7 12 9 13 8 14
REMARK SMILES IDX 11 15 12 16 13 17 25 18 14 19 16 20 26 21 15 22 17 23 18 24
REMARK SMILES IDX 24 25 19 26 22 27 20 28 23 29 21 30 30 31 31 32 32 33 33 34
REMARK SMILES IDX 34 35 35 36 36 38 37 39 38 40 90 41 39 42 89 43 40 44 41 45
REMARK SMILES IDX 42 46 83 47 43 48 88 49 82 50 84 51 44 52 87 53 81 54 80 55
REMARK SMILES IDX 45 57 71 58 54 59 70 60 55 61 58 62 69 63 85 64 56 65 57 66
REMARK SMILES IDX 68 68 86 69 59 70 46 71 47 72 52 73 48 74 49 75 51 76 53 77
REMARK SMILES IDX 50 78 72 79 73 80 78 81 74 82 75 83 77 84 79 85 76 86 60 87
REMARK SMILES IDX 61 88 66 89 62 90 63 91 65 92 67 93 64 94
REMARK H PARENT 27 6 34 37 84 56 58 67
REMARK Flexibility Score: inf
ROOT
ATOM      1  C   UNL A   1      40.541  23.257  27.997  1.00  0.00     0.021 C 
ENDROOT
BRANCH   1   2
ATOM      2  C   UNL A   1      39.836  23.638  26.682  1.00  0.00     0.116 C 
BRANCH   2   3
ATOM      3  N   UNL A   1      39.059  22.605  25.999  1.00  0.00    -0.353 N 
ATOM      4  O   UNL A   1      37.077  23.740  26.223  1.00  0.00    -0.271 OA
ATOM      5  C   UNL A   1      37.703  22.803  25.728  1.00  0.00     0.257 C 
ATOM      6  H   UNL A   1      39.493  21.764  25.729  1.00  0.00     0.163 HD
BRANCH   5   7
ATOM      7  C   UNL A   1      37.026  21.825  24.720  1.00  0.00     0.329 C 
BRANCH   7   8
ATOM      8  O   UNL A   1      35.949  22.251  23.879  1.00  0.00    -0.483 OA
BRANCH   8   9
ATOM      9  C   UNL A   1      34.700  21.816  24.267  1.00  0.00     0.127 A 
ATOM     10  C   UNL A   1      34.593  20.630  24.988  1.00  0.00     0.047 A 
ATOM     11  C   UNL A   1      33.533  22.452  23.789  1.00  0.00     0.018 A 
ATOM     12  C   UNL A   1      33.328  20.153  25.348  1.00  0.00     0.004 A 
ATOM     13  C   UNL A   1      32.278  22.019  24.217  1.00  0.00     0.012 A 
ATOM     14  C   UNL A   1      32.179  20.870  25.002  1.00  0.00     0.001 A 
BRANCH  11  15
ATOM     15  C   UNL A   1      33.666  23.586  22.859  1.00  0.00     0.033 C 
ATOM     16  C   UNL A   1      33.047  24.729  23.192  1.00  0.00     0.081 C 
ATOM     17  S   UNL A   1      31.704  25.340  22.314  1.00  0.00    -0.054 SA
ATOM     18  C   UNL A   1      33.269  25.567  24.397  1.00  0.00     0.270 C 
ATOM     19  C   UNL A   1      31.646  26.827  23.206  1.00  0.00     0.152 C 
ATOM     20  N   UNL A   1      32.495  26.733  24.303  1.00  0.00    -0.261 N 
ATOM     21  O   UNL A   1      34.086  25.279  25.264  1.00  0.00    -0.268 OA
ATOM     22  S   UNL A   1      30.760  28.103  22.580  1.00  0.00    -0.051 S 
BRANCH  20  23
ATOM     23  C   UNL A   1      32.676  27.805  25.223  1.00  0.00     0.052 A 
ATOM     24  C   UNL A   1      31.582  28.330  25.928  1.00  0.00     0.030 A 
ATOM     25  C   UNL A   1      33.959  28.298  25.499  1.00  0.00     0.050 A 
ATOM     26  C   UNL A   1      31.783  29.268  26.942  1.00  0.00     0.043 A 
ATOM     27  C   UNL A   1      34.160  29.222  26.521  1.00  0.00     0.078 A 
ATOM     28  C   UNL A   1      33.072  29.695  27.245  1.00  0.00     0.141 A 
ATOM     29  Cl  UNL A   1      35.761  29.737  26.880  1.00  0.00    -0.081 Cl
ATOM     30  F   UNL A   1      33.245  30.567  28.247  1.00  0.00    -0.205 F 
ENDBRANCH  20  23
ENDBRANCH  11  15
ENDBRANCH   8   9
ENDBRANCH   7   8
ENDBRANCH   5   7
ENDBRANCH   2   3
ENDBRANCH   1   2
BRANCH   1  31
ATOM     31  C   UNL A   1      41.640  22.179  27.995  1.00  0.00     0.002 C 
BRANCH  31  32
ATOM     32  C   UNL A   1      41.205  20.708  28.112  1.00  0.00     0.002 C 
BRANCH  32  33
ATOM     33  C   UNL A   1      41.803  19.712  27.125  1.00  0.00     0.021 C 
BRANCH  33  34
ATOM     34  C   UNL A   1      42.284  20.289  25.798  1.00  0.00     0.116 C 
BRANCH  34  35
ATOM     35  N   UNL A   1      43.146  19.421  25.001  1.00  0.00    -0.352 N 
ATOM     36  C   UNL A   1      44.415  19.693  24.522  1.00  0.00     0.251 C 
ATOM     37  H   UNL A   1      42.780  18.535  24.777  1.00  0.00     0.163 HD
ATOM     38  O   UNL A   1      45.011  18.878  23.824  1.00  0.00    -0.269 OA
BRANCH  36  39
ATOM     39  C   UNL A   1      45.030  21.014  24.803  1.00  0.00     0.039 A 
ATOM     40  C   UNL A   1      44.887  22.045  23.872  1.00  0.00     0.014 A 
ATOM     41  C   UNL A   1      45.654  21.261  26.027  1.00  0.00     0.014 A 
ATOM     42  C   UNL A   1      45.250  23.350  24.225  1.00  0.00     0.010 A 
ATOM     43  C   UNL A   1      45.915  22.571  26.415  1.00  0.00     0.010 A 
ATOM     44  C   UNL A   1      45.698  23.635  25.527  1.00  0.00    -0.014 A 
BRANCH  44  45
ATOM     45  C   UNL A   1      45.895  25.034  25.993  1.00  0.00     0.031 A 
ATOM     46  C   UNL A   1      44.740  25.832  26.534  1.00  0.00     0.074 A 
ATOM     47  C   UNL A   1      47.099  25.623  25.842  1.00  0.00     0.049 A 
ATOM     48  N   UNL A   1      44.711  27.078  26.935  1.00  0.00    -0.248 NA
ATOM     49  C   UNL A   1      43.437  25.153  26.598  1.00  0.00     0.031 C 
ATOM     50  C   UNL A   1      48.285  24.993  25.256  1.00  0.00     0.029 A 
ATOM     51  N   UNL A   1      47.525  26.889  26.162  1.00  0.00    -0.354 N 
ATOM     52  C   UNL A   1      43.391  27.334  27.280  1.00  0.00     0.074 A 
ATOM     53  C   UNL A   1      42.638  26.137  26.980  1.00  0.00     0.031 C 
ATOM     54  C   UNL A   1      49.311  25.857  25.301  1.00  0.00     0.029 A 
ATOM     55  C   UNL A   1      48.851  27.114  25.880  1.00  0.00     0.049 A 
ATOM     56  H   UNL A   1      46.936  27.571  26.559  1.00  0.00     0.167 HD
ATOM     57  C   UNL A   1      42.856  28.454  27.824  1.00  0.00     0.037 A 
ATOM     58  C   UNL A   1      49.613  28.207  26.070  1.00  0.00     0.037 A 
ATOM     59  C   UNL A   1      43.610  29.637  28.151  1.00  0.00     0.049 A 
ATOM     60  C   UNL A   1      49.003  29.433  26.689  1.00  0.00     0.074 A 
ATOM     61  C   UNL A   1      43.176  30.789  28.782  1.00  0.00     0.029 A 
ATOM     62  N   UNL A   1      44.955  29.818  27.866  1.00  0.00    -0.354 N 
ATOM     63  N   UNL A   1      47.772  29.628  27.096  1.00  0.00    -0.248 NA
ATOM     64  C   UNL A   1      49.890  30.589  26.881  1.00  0.00     0.031 C 
ATOM     65  C   UNL A   1      44.248  31.687  28.838  1.00  0.00     0.029 A 
ATOM     66  C   UNL A   1      45.362  31.076  28.284  1.00  0.00     0.049 A 
ATOM     67  H   UNL A   1      45.535  29.153  27.431  1.00  0.00     0.167 HD
ATOM     68  C   UNL A   1      47.743  30.918  27.612  1.00  0.00     0.074 A 
ATOM     69  C   UNL A   1      49.083  31.450  27.482  1.00  0.00     0.031 C 
ATOM     70  C   UNL A   1      46.698  31.597  28.145  1.00  0.00     0.037 A 
BRANCH  57  71
ATOM     71  C   UNL A   1      41.381  28.444  28.106  1.00  0.00     0.057 A 
ATOM     72  C   UNL A   1      40.864  28.007  29.334  1.00  0.00     0.134 A 
ATOM     73  C   UNL A   1      40.464  28.885  27.143  1.00  0.00     0.134 A 
ATOM     74  F   UNL A   1      41.685  27.560  30.297  1.00  0.00    -0.206 F 
ATOM     75  C   UNL A   1      39.490  27.973  29.581  1.00  0.00     0.040 A 
ATOM     76  C   UNL A   1      39.090  28.885  27.389  1.00  0.00     0.040 A 
ATOM     77  F   UNL A   1      40.888  29.324  25.949  1.00  0.00    -0.206 F 
ATOM     78  C   UNL A   1      38.599  28.419  28.607  1.00  0.00     0.006 A 
ENDBRANCH  57  71
BRANCH  58  79
ATOM     79  C   UNL A   1      51.055  28.179  25.712  1.00  0.00     0.057 A 
ATOM     80  C   UNL A   1      52.032  27.959  26.689  1.00  0.00     0.134 A 
ATOM     81  C   UNL A   1      51.490  28.364  24.394  1.00  0.00     0.134 A 
ATOM     82  F   UNL A   1      51.678  27.794  27.971  1.00  0.00    -0.206 F 
ATOM     83  C   UNL A   1      53.392  27.940  26.374  1.00  0.00     0.040 A 
ATOM     84  C   UNL A   1      52.845  28.324  24.060  1.00  0.00     0.040 A 
ATOM     85  F   UNL A   1      50.603  28.572  23.410  1.00  0.00    -0.206 F 
ATOM     86  C   UNL A   1      53.800  28.116  25.054  1.00  0.00     0.006 A 
ENDBRANCH  58  79
BRANCH  70  87
ATOM     87  C   UNL A   1      46.970  32.985  28.648  1.00  0.00     0.057 A 
ATOM     88  C   UNL A   1      47.400  33.225  29.960  1.00  0.00     0.134 A 
ATOM     89  C   UNL A   1      46.827  34.091  27.802  1.00  0.00     0.134 A 
ATOM     90  F   UNL A   1      47.543  32.210  30.825  1.00  0.00    -0.206 F 
ATOM     91  C   UNL A   1      47.652  34.519  30.419  1.00  0.00     0.040 A 
ATOM     92  C   UNL A   1      47.103  35.387  28.241  1.00  0.00     0.040 A 
ATOM     93  F   UNL A   1      46.427  33.931  26.532  1.00  0.00    -0.206 F 
ATOM     94  C   UNL A   1      47.510  35.604  29.556  1.00  0.00     0.006 A 
ENDBRANCH  70  87
ENDBRANCH  44  45
ENDBRANCH  36  39
ENDBRANCH  34  35
ENDBRANCH  33  34
ENDBRANCH  32  33
ENDBRANCH  31  32
ENDBRANCH   1  31
TORSDOF 17
ENDMDL
