MODEL 1
REMARK VINA RESULT:     -12.7      0.000      0.000
REMARK SMILES COc1ccccc1[C@@H]1C[N@@H+](Cc2cc3c(cc2C)OCO3)C[C@H]1C(=O)NCCCCCCNC(=O)c1ccc(-c2c3nc(c(-c4c(F)cccc4F)c4ccc([nH]4)c(-c4c(F)cccc4F)c4nc(c(-c5c(F)cccc5F)c5ccc2[nH]5)C=C4)C=C3)cc1
REMARK SMILES IDX 30 1 29 2 28 3 27 4 25 5 26 6 24 8 9 9 10 10 11 11 23 12
REMARK SMILES IDX 8 14 3 15 4 16 5 17 7 18 6 19 2 20 1 21 12 22 13 23 14 24
REMARK SMILES IDX 18 25 15 26 17 27 19 28 16 29 22 30 20 31 21 32 31 33 32 34
REMARK SMILES IDX 33 35 34 36 35 37 36 39 37 40 38 41 90 42 39 43 89 44 40 45
REMARK SMILES IDX 41 46 42 47 83 48 43 49 88 50 82 51 84 52 44 53 87 54 81 55
REMARK SMILES IDX 80 56 45 58 71 59 54 60 70 61 55 62 58 63 69 64 85 65 56 66
REMARK SMILES IDX 57 67 68 69 86 70 59 71 46 72 47 73 52 74 48 75 49 76 51 77
REMARK SMILES IDX 53 78 50 79 72 80 73 81 78 82 74 83 75 84 77 85 79 86 76 87
REMARK SMILES IDX 60 88 61 89 66 90 62 91 63 92 65 93 67 94 64 95
REMARK H PARENT 27 7 11 13 34 38 84 57 58 68
REMARK Flexibility Score: inf
ROOT
ATOM      1  C   UNL A   1      34.385  32.250  29.127  1.00  0.00     0.002 C 
ENDROOT
BRANCH   1   2
ATOM      2  C   UNL A   1      34.292  31.298  27.927  1.00  0.00     0.021 C 
BRANCH   2   3
ATOM      3  C   UNL A   1      32.947  30.840  27.253  1.00  0.00     0.116 C 
BRANCH   3   4
ATOM      4  N   UNL A   1      32.603  29.303  27.185  1.00  0.00    -0.356 N 
ATOM      5  C   UNL A   1      32.617  28.051  26.631  1.00  0.00     0.229 C 
ATOM      6  O   UNL A   1      32.083  27.276  27.469  1.00  0.00    -0.275 OA
ATOM      7  H   UNL A   1      32.084  29.164  28.011  1.00  0.00     0.163 HD
BRANCH   5   8
ATOM      8  C   UNL A   1      33.052  27.252  25.269  1.00  0.00     0.146 C 
ATOM      9  C   UNL A   1      32.587  25.767  25.035  1.00  0.00     0.096 C 
ATOM     10  C   UNL A   1      32.679  25.506  23.514  1.00  0.00     0.272 C 
ATOM     11  N   UNL A   1      32.549  26.804  22.849  1.00  0.00    -0.330 N 
ATOM     12  C   UNL A   1      33.140  27.780  23.806  1.00  0.00     0.276 C 
ATOM     13  H   UNL A   1      33.076  26.924  21.984  1.00  0.00     0.348 HD
BRANCH   9  14
ATOM     14  C   UNL A   1      33.039  24.519  25.797  1.00  0.00     0.004 A 
ATOM     15  C   UNL A   1      32.337  23.746  26.742  1.00  0.00     0.122 A 
ATOM     16  C   UNL A   1      33.016  22.759  27.493  1.00  0.00     0.047 A 
ATOM     17  C   UNL A   1      34.391  22.559  27.384  1.00  0.00     0.004 A 
ATOM     18  C   UNL A   1      34.445  24.286  25.720  1.00  0.00     0.008 A 
ATOM     19  C   UNL A   1      35.112  23.346  26.508  1.00  0.00     0.001 A 
BRANCH  15  20
ATOM     20  O   UNL A   1      31.083  23.949  27.251  1.00  0.00    -0.496 OA
ATOM     21  C   UNL A   1      30.027  23.124  26.812  1.00  0.00     0.278 C 
ENDBRANCH  15  20
ENDBRANCH   9  14
BRANCH  11  22
ATOM     22  C   UNL A   1      31.214  27.014  22.206  1.00  0.00     0.299 C 
BRANCH  22  23
ATOM     23  C   UNL A   1      30.297  28.008  22.895  1.00  0.00     0.013 A 
ATOM     24  C   UNL A   1      30.408  29.418  22.857  1.00  0.00     0.060 A 
ATOM     25  C   UNL A   1      29.145  27.471  23.432  1.00  0.00    -0.038 A 
ATOM     26  C   UNL A   1      29.263  30.170  23.082  1.00  0.00     0.166 A 
ATOM     27  C   UNL A   1      27.993  28.194  23.169  1.00  0.00     0.054 A 
ATOM     28  C   UNL A   1      29.224  26.205  24.239  1.00  0.00     0.045 C 
ATOM     29  C   UNL A   1      28.058  29.547  23.093  1.00  0.00     0.166 A 
ATOM     30  O   UNL A   1      29.095  31.511  23.227  1.00  0.00    -0.454 OA
ATOM     31  O   UNL A   1      26.986  30.371  23.130  1.00  0.00    -0.454 OA
ATOM     32  C   UNL A   1      27.665  31.576  23.502  1.00  0.00     0.468 C 
ENDBRANCH  22  23
ENDBRANCH  11  22
ENDBRANCH   5   8
ENDBRANCH   3   4
ENDBRANCH   2   3
ENDBRANCH   1   2
BRANCH   1  33
ATOM     33  C   UNL A   1      34.531  33.756  28.859  1.00  0.00     0.002 C 
BRANCH  33  34
ATOM     34  C   UNL A   1      33.278  34.655  28.827  1.00  0.00     0.021 C 
BRANCH  34  35
ATOM     35  C   UNL A   1      33.392  36.085  29.362  1.00  0.00     0.116 C 
BRANCH  35  36
ATOM     36  N   UNL A   1      32.523  36.345  30.499  1.00  0.00    -0.352 N 
ATOM     37  C   UNL A   1      32.573  35.868  31.790  1.00  0.00     0.251 C 
ATOM     38  H   UNL A   1      31.777  36.962  30.316  1.00  0.00     0.163 HD
ATOM     39  O   UNL A   1      31.655  36.068  32.563  1.00  0.00    -0.269 OA
BRANCH  37  40
ATOM     40  C   UNL A   1      33.756  35.104  32.238  1.00  0.00     0.039 A 
ATOM     41  C   UNL A   1      33.581  33.819  32.758  1.00  0.00     0.014 A 
ATOM     42  C   UNL A   1      35.028  35.674  32.164  1.00  0.00     0.014 A 
ATOM     43  C   UNL A   1      34.697  33.075  33.148  1.00  0.00     0.010 A 
ATOM     44  C   UNL A   1      36.143  34.910  32.496  1.00  0.00     0.010 A 
ATOM     45  C   UNL A   1      35.988  33.606  32.995  1.00  0.00    -0.014 A 
BRANCH  45  46
ATOM     46  C   UNL A   1      37.192  32.829  33.380  1.00  0.00     0.031 A 
ATOM     47  C   UNL A   1      37.899  33.141  34.669  1.00  0.00     0.074 A 
ATOM     48  C   UNL A   1      37.688  31.899  32.543  1.00  0.00     0.049 A 
ATOM     49  N   UNL A   1      39.013  32.647  35.146  1.00  0.00    -0.248 NA
ATOM     50  C   UNL A   1      37.284  34.172  35.521  1.00  0.00     0.031 C 
ATOM     51  C   UNL A   1      37.113  31.536  31.247  1.00  0.00     0.029 A 
ATOM     52  N   UNL A   1      38.799  31.101  32.649  1.00  0.00    -0.354 N 
ATOM     53  C   UNL A   1      39.239  33.318  36.340  1.00  0.00     0.074 A 
ATOM     54  C   UNL A   1      38.184  34.297  36.483  1.00  0.00     0.031 C 
ATOM     55  C   UNL A   1      37.867  30.578  30.686  1.00  0.00     0.029 A 
ATOM     56  C   UNL A   1      38.999  30.287  31.560  1.00  0.00     0.049 A 
ATOM     57  H   UNL A   1      39.397  31.111  33.432  1.00  0.00     0.167 HD
ATOM     58  C   UNL A   1      40.224  33.121  37.249  1.00  0.00     0.037 A 
ATOM     59  C   UNL A   1      39.990  29.414  31.295  1.00  0.00     0.037 A 
ATOM     60  C   UNL A   1      41.264  32.137  37.103  1.00  0.00     0.049 A 
ATOM     61  C   UNL A   1      41.084  29.221  32.308  1.00  0.00     0.074 A 
ATOM     62  C   UNL A   1      42.282  31.819  37.983  1.00  0.00     0.029 A 
ATOM     63  N   UNL A   1      41.421  31.315  35.995  1.00  0.00    -0.354 N 
ATOM     64  N   UNL A   1      41.255  29.816  33.464  1.00  0.00    -0.248 NA
ATOM     65  C   UNL A   1      42.120  28.231  31.984  1.00  0.00     0.031 C 
ATOM     66  C   UNL A   1      43.088  30.845  37.384  1.00  0.00     0.029 A 
ATOM     67  C   UNL A   1      42.534  30.508  36.158  1.00  0.00     0.049 A 
ATOM     68  H   UNL A   1      40.828  31.307  35.209  1.00  0.00     0.167 HD
ATOM     69  C   UNL A   1      42.395  29.249  34.022  1.00  0.00     0.074 A 
ATOM     70  C   UNL A   1      42.871  28.260  33.077  1.00  0.00     0.031 C 
ATOM     71  C   UNL A   1      42.988  29.521  35.210  1.00  0.00     0.037 A 
BRANCH  58  72
ATOM     72  C   UNL A   1      40.219  33.998  38.469  1.00  0.00     0.057 A 
ATOM     73  C   UNL A   1      40.948  35.195  38.526  1.00  0.00     0.134 A 
ATOM     74  C   UNL A   1      39.482  33.640  39.605  1.00  0.00     0.134 A 
ATOM     75  F   UNL A   1      41.686  35.593  37.478  1.00  0.00    -0.206 F 
ATOM     76  C   UNL A   1      40.983  35.978  39.683  1.00  0.00     0.040 A 
ATOM     77  C   UNL A   1      39.480  34.432  40.755  1.00  0.00     0.040 A 
ATOM     78  F   UNL A   1      38.755  32.514  39.619  1.00  0.00    -0.206 F 
ATOM     79  C   UNL A   1      40.243  35.598  40.800  1.00  0.00     0.006 A 
ENDBRANCH  58  72
BRANCH  59  80
ATOM     80  C   UNL A   1      39.973  28.645  30.025  1.00  0.00     0.057 A 
ATOM     81  C   UNL A   1      40.680  29.089  28.902  1.00  0.00     0.134 A 
ATOM     82  C   UNL A   1      39.269  27.441  29.908  1.00  0.00     0.134 A 
ATOM     83  F   UNL A   1      41.361  30.243  28.946  1.00  0.00    -0.206 F 
ATOM     84  C   UNL A   1      40.676  28.371  27.703  1.00  0.00     0.040 A 
ATOM     85  C   UNL A   1      39.277  26.699  28.725  1.00  0.00     0.040 A 
ATOM     86  F   UNL A   1      38.580  26.954  30.951  1.00  0.00    -0.206 F 
ATOM     87  C   UNL A   1      39.978  27.169  27.616  1.00  0.00     0.006 A 
ENDBRANCH  59  80
BRANCH  71  88
ATOM     88  C   UNL A   1      44.192  28.705  35.584  1.00  0.00     0.057 A 
ATOM     89  C   UNL A   1      44.088  27.505  36.297  1.00  0.00     0.134 A 
ATOM     90  C   UNL A   1      45.471  29.098  35.165  1.00  0.00     0.134 A 
ATOM     91  F   UNL A   1      42.895  27.076  36.737  1.00  0.00    -0.206 F 
ATOM     92  C   UNL A   1      45.213  26.735  36.597  1.00  0.00     0.040 A 
ATOM     93  C   UNL A   1      46.599  28.322  35.433  1.00  0.00     0.040 A 
ATOM     94  F   UNL A   1      45.640  30.232  34.469  1.00  0.00    -0.206 F 
ATOM     95  C   UNL A   1      46.472  27.139  36.155  1.00  0.00     0.006 A 
ENDBRANCH  71  88
ENDBRANCH  45  46
ENDBRANCH  37  40
ENDBRANCH  35  36
ENDBRANCH  34  35
ENDBRANCH  33  34
ENDBRANCH   1  33
TORSDOF 17
ENDMDL
MODEL 2
REMARK VINA RESULT:     -12.5      0.710      1.682
REMARK SMILES COc1ccccc1[C@@H]1C[N@@H+](Cc2cc3c(cc2C)OCO3)C[C@H]1C(=O)NCCCCCCNC(=O)c1ccc(-c2c3nc(c(-c4c(F)cccc4F)c4ccc([nH]4)c(-c4c(F)cccc4F)c4nc(c(-c5c(F)cccc5F)c5ccc2[nH]5)C=C4)C=C3)cc1
REMARK SMILES IDX 30 1 29 2 28 3 27 4 25 5 26 6 24 8 9 9 10 10 11 11 23 12
REMARK SMILES IDX 8 14 3 15 4 16 5 17 7 18 6 19 2 20 1 21 12 22 13 23 14 24
REMARK SMILES IDX 18 25 15 26 17 27 19 28 16 29 22 30 20 31 21 32 31 33 32 34
REMARK SMILES IDX 33 35 34 36 35 37 36 39 37 40 38 41 90 42 39 43 89 44 40 45
REMARK SMILES IDX 41 46 42 47 83 48 43 49 88 50 82 51 84 52 44 53 87 54 81 55
REMARK SMILES IDX 80 56 45 58 71 59 54 60 70 61 55 62 58 63 69 64 85 65 56 66
REMARK SMILES IDX 57 67 68 69 86 70 59 71 46 72 47 73 52 74 48 75 49 76 51 77
REMARK SMILES IDX 53 78 50 79 72 80 73 81 78 82 74 83 75 84 77 85 79 86 76 87
REMARK SMILES IDX 60 88 61 89 66 90 62 91 63 92 65 93 67 94 64 95
REMARK H PARENT 27 7 11 13 34 38 84 57 58 68
REMARK Flexibility Score: inf
ROOT
ATOM      1  C   UNL A   1      34.437  32.359  29.084  1.00  0.00     0.002 C 
ENDROOT
BRANCH   1   2
ATOM      2  C   UNL A   1      34.451  31.557  27.776  1.00  0.00     0.021 C 
BRANCH   2   3
ATOM      3  C   UNL A   1      34.751  30.016  27.677  1.00  0.00     0.116 C 
BRANCH   3   4
ATOM      4  N   UNL A   1      33.618  29.041  27.176  1.00  0.00    -0.356 N 
ATOM      5  C   UNL A   1      33.092  28.046  26.396  1.00  0.00     0.229 C 
ATOM      6  O   UNL A   1      31.937  27.808  26.840  1.00  0.00    -0.275 OA
ATOM      7  H   UNL A   1      32.857  29.286  27.751  1.00  0.00     0.163 HD
BRANCH   5   8
ATOM      8  C   UNL A   1      33.438  27.112  25.096  1.00  0.00     0.146 C 
ATOM      9  C   UNL A   1      33.013  25.597  25.070  1.00  0.00     0.096 C 
ATOM     10  C   UNL A   1      32.983  25.169  23.584  1.00  0.00     0.272 C 
ATOM     11  N   UNL A   1      32.745  26.380  22.796  1.00  0.00    -0.330 N 
ATOM     12  C   UNL A   1      33.378  27.474  23.583  1.00  0.00     0.276 C 
ATOM     13  H   UNL A   1      33.190  26.416  21.879  1.00  0.00     0.348 HD
BRANCH   9  14
ATOM     14  C   UNL A   1      33.578  24.456  25.920  1.00  0.00     0.004 A 
ATOM     15  C   UNL A   1      34.847  23.847  25.866  1.00  0.00     0.122 A 
ATOM     16  C   UNL A   1      35.092  22.659  26.593  1.00  0.00     0.047 A 
ATOM     17  C   UNL A   1      34.095  22.016  27.321  1.00  0.00     0.004 A 
ATOM     18  C   UNL A   1      32.585  23.763  26.672  1.00  0.00     0.008 A 
ATOM     19  C   UNL A   1      32.826  22.561  27.341  1.00  0.00     0.001 A 
BRANCH  15  20
ATOM     20  O   UNL A   1      35.879  24.095  25.002  1.00  0.00    -0.496 OA
ATOM     21  C   UNL A   1      37.184  23.706  25.370  1.00  0.00     0.278 C 
ENDBRANCH  15  20
ENDBRANCH   9  14
BRANCH  11  22
ATOM     22  C   UNL A   1      31.352  26.476  22.257  1.00  0.00     0.299 C 
BRANCH  22  23
ATOM     23  C   UNL A   1      30.506  27.607  22.812  1.00  0.00     0.013 A 
ATOM     24  C   UNL A   1      30.582  28.971  22.444  1.00  0.00     0.060 A 
ATOM     25  C   UNL A   1      29.439  27.214  23.595  1.00  0.00    -0.038 A 
ATOM     26  C   UNL A   1      29.457  29.762  22.633  1.00  0.00     0.166 A 
ATOM     27  C   UNL A   1      28.248  27.867  23.319  1.00  0.00     0.054 A 
ATOM     28  C   UNL A   1      29.643  26.163  24.649  1.00  0.00     0.045 C 
ATOM     29  C   UNL A   1      28.276  29.167  22.932  1.00  0.00     0.166 A 
ATOM     30  O   UNL A   1      29.280  31.103  22.491  1.00  0.00    -0.454 OA
ATOM     31  O   UNL A   1      27.199  29.986  22.915  1.00  0.00    -0.454 OA
ATOM     32  C   UNL A   1      27.894  31.240  22.919  1.00  0.00     0.468 C 
ENDBRANCH  22  23
ENDBRANCH  11  22
ENDBRANCH   5   8
ENDBRANCH   3   4
ENDBRANCH   2   3
ENDBRANCH   1   2
BRANCH   1  33
ATOM     33  C   UNL A   1      34.552  33.890  29.007  1.00  0.00     0.002 C 
BRANCH  33  34
ATOM     34  C   UNL A   1      33.277  34.757  28.992  1.00  0.00     0.021 C 
BRANCH  34  35
ATOM     35  C   UNL A   1      33.357  36.182  29.545  1.00  0.00     0.116 C 
BRANCH  35  36
ATOM     36  N   UNL A   1      32.497  36.402  30.697  1.00  0.00    -0.352 N 
ATOM     37  C   UNL A   1      32.563  35.886  31.973  1.00  0.00     0.251 C 
ATOM     38  H   UNL A   1      31.746  37.018  30.540  1.00  0.00     0.163 HD
ATOM     39  O   UNL A   1      31.650  36.056  32.760  1.00  0.00    -0.269 OA
BRANCH  37  40
ATOM     40  C   UNL A   1      33.755  35.118  32.386  1.00  0.00     0.039 A 
ATOM     41  C   UNL A   1      33.595  33.814  32.862  1.00  0.00     0.014 A 
ATOM     42  C   UNL A   1      35.022  35.701  32.325  1.00  0.00     0.014 A 
ATOM     43  C   UNL A   1      34.720  33.067  33.219  1.00  0.00     0.010 A 
ATOM     44  C   UNL A   1      36.146  34.936  32.623  1.00  0.00     0.010 A 
ATOM     45  C   UNL A   1      36.005  33.614  33.077  1.00  0.00    -0.014 A 
BRANCH  45  46
ATOM     46  C   UNL A   1      37.218  32.835  33.427  1.00  0.00     0.031 A 
ATOM     47  C   UNL A   1      37.945  33.126  34.710  1.00  0.00     0.074 A 
ATOM     48  C   UNL A   1      37.703  31.922  32.565  1.00  0.00     0.049 A 
ATOM     49  N   UNL A   1      39.069  32.628  35.158  1.00  0.00    -0.248 NA
ATOM     50  C   UNL A   1      37.341  34.139  35.590  1.00  0.00     0.031 C 
ATOM     51  C   UNL A   1      37.107  31.581  31.272  1.00  0.00     0.029 A 
ATOM     52  N   UNL A   1      38.819  31.127  32.638  1.00  0.00    -0.354 N 
ATOM     53  C   UNL A   1      39.313  33.278  36.361  1.00  0.00     0.074 A 
ATOM     54  C   UNL A   1      38.257  34.250  36.540  1.00  0.00     0.031 C 
ATOM     55  C   UNL A   1      37.856  30.636  30.681  1.00  0.00     0.029 A 
ATOM     56  C   UNL A   1      39.003  30.334  31.531  1.00  0.00     0.049 A 
ATOM     57  H   UNL A   1      39.430  31.125  33.410  1.00  0.00     0.167 HD
ATOM     58  C   UNL A   1      40.315  33.068  37.250  1.00  0.00     0.037 A 
ATOM     59  C   UNL A   1      39.992  29.470  31.233  1.00  0.00     0.037 A 
ATOM     60  C   UNL A   1      41.355  32.091  37.067  1.00  0.00     0.049 A 
ATOM     61  C   UNL A   1      41.105  29.263  32.224  1.00  0.00     0.074 A 
ATOM     62  C   UNL A   1      42.390  31.761  37.924  1.00  0.00     0.029 A 
ATOM     63  N   UNL A   1      41.496  31.290  35.942  1.00  0.00    -0.354 N 
ATOM     64  N   UNL A   1      41.293  29.837  33.388  1.00  0.00    -0.248 NA
ATOM     65  C   UNL A   1      42.139  28.283  31.864  1.00  0.00     0.031 C 
ATOM     66  C   UNL A   1      43.188  30.801  37.294  1.00  0.00     0.029 A 
ATOM     67  C   UNL A   1      42.615  30.485  36.071  1.00  0.00     0.049 A 
ATOM     68  H   UNL A   1      40.890  31.294  35.166  1.00  0.00     0.167 HD
ATOM     69  C   UNL A   1      42.444  29.265  33.916  1.00  0.00     0.074 A 
ATOM     70  C   UNL A   1      42.907  28.294  32.944  1.00  0.00     0.031 C 
ATOM     71  C   UNL A   1      43.057  29.517  35.098  1.00  0.00     0.037 A 
BRANCH  58  72
ATOM     72  C   UNL A   1      40.327  33.922  38.485  1.00  0.00     0.057 A 
ATOM     73  C   UNL A   1      39.587  33.586  39.629  1.00  0.00     0.134 A 
ATOM     74  C   UNL A   1      41.083  35.100  38.533  1.00  0.00     0.134 A 
ATOM     75  F   UNL A   1      38.831  32.477  39.648  1.00  0.00    -0.206 F 
ATOM     76  C   UNL A   1      39.560  34.413  40.753  1.00  0.00     0.040 A 
ATOM     77  C   UNL A   1      41.092  35.918  39.665  1.00  0.00     0.040 A 
ATOM     78  F   UNL A   1      41.821  35.480  37.480  1.00  0.00    -0.206 F 
ATOM     79  C   UNL A   1      40.319  35.581  40.775  1.00  0.00     0.006 A 
ENDBRANCH  58  72
BRANCH  59  80
ATOM     80  C   UNL A   1      39.957  28.724  29.950  1.00  0.00     0.057 A 
ATOM     81  C   UNL A   1      40.633  29.197  28.819  1.00  0.00     0.134 A 
ATOM     82  C   UNL A   1      39.264  27.514  29.825  1.00  0.00     0.134 A 
ATOM     83  F   UNL A   1      41.302  30.358  28.870  1.00  0.00    -0.206 F 
ATOM     84  C   UNL A   1      40.612  28.501  27.609  1.00  0.00     0.040 A 
ATOM     85  C   UNL A   1      39.255  26.794  28.629  1.00  0.00     0.040 A 
ATOM     86  F   UNL A   1      38.604  27.000  30.874  1.00  0.00    -0.206 F 
ATOM     87  C   UNL A   1      39.927  27.292  27.514  1.00  0.00     0.006 A 
ENDBRANCH  59  80
BRANCH  71  88
ATOM     88  C   UNL A   1      44.270  28.699  35.436  1.00  0.00     0.057 A 
ATOM     89  C   UNL A   1      45.566  29.117  35.110  1.00  0.00     0.134 A 
ATOM     90  C   UNL A   1      44.138  27.503  36.156  1.00  0.00     0.134 A 
ATOM     91  F   UNL A   1      45.761  30.246  34.413  1.00  0.00    -0.206 F 
ATOM     92  C   UNL A   1      46.686  28.366  35.472  1.00  0.00     0.040 A 
ATOM     93  C   UNL A   1      45.252  26.760  36.548  1.00  0.00     0.040 A 
ATOM     94  F   UNL A   1      42.926  27.050  36.508  1.00  0.00    -0.206 F 
ATOM     95  C   UNL A   1      46.530  27.189  36.202  1.00  0.00     0.006 A 
ENDBRANCH  71  88
ENDBRANCH  45  46
ENDBRANCH  37  40
ENDBRANCH  35  36
ENDBRANCH  34  35
ENDBRANCH  33  34
ENDBRANCH   1  33
TORSDOF 17
ENDMDL
MODEL 3
REMARK VINA RESULT:     -12.2      1.928      2.844
REMARK SMILES COc1ccccc1[C@@H]1C[N@@H+](Cc2cc3c(cc2C)OCO3)C[C@H]1C(=O)NCCCCCCNC(=O)c1ccc(-c2c3nc(c(-c4c(F)cccc4F)c4ccc([nH]4)c(-c4c(F)cccc4F)c4nc(c(-c5c(F)cccc5F)c5ccc2[nH]5)C=C4)C=C3)cc1
REMARK SMILES IDX 30 1 29 2 28 3 27 4 25 5 26 6 24 8 9 9 10 10 11 11 23 12
REMARK SMILES IDX 8 14 3 15 4 16 5 17 7 18 6 19 2 20 1 21 12 22 13 23 14 24
REMARK SMILES IDX 18 25 15 26 17 27 19 28 16 29 22 30 20 31 21 32 31 33 32 34
REMARK SMILES IDX 33 35 34 36 35 37 36 39 37 40 38 41 90 42 39 43 89 44 40 45
REMARK SMILES IDX 41 46 42 47 83 48 43 49 88 50 82 51 84 52 44 53 87 54 81 55
REMARK SMILES IDX 80 56 45 58 71 59 54 60 70 61 55 62 58 63 69 64 85 65 56 66
REMARK SMILES IDX 57 67 68 69 86 70 59 71 46 72 47 73 52 74 48 75 49 76 51 77
REMARK SMILES IDX 53 78 50 79 72 80 73 81 78 82 74 83 75 84 77 85 79 86 76 87
REMARK SMILES IDX 60 88 61 89 66 90 62 91 63 92 65 93 67 94 64 95
REMARK H PARENT 27 7 11 13 34 38 84 57 58 68
REMARK Flexibility Score: inf
ROOT
ATOM      1  C   UNL A   1      31.517  29.931  25.773  1.00  0.00     0.002 C 
ENDROOT
BRANCH   1   2
ATOM      2  C   UNL A   1      32.055  29.662  27.185  1.00  0.00     0.021 C 
BRANCH   2   3
ATOM      3  C   UNL A   1      33.255  28.700  27.514  1.00  0.00     0.116 C 
BRANCH   3   4
ATOM      4  N   UNL A   1      33.255  27.238  26.925  1.00  0.00    -0.356 N 
ATOM      5  C   UNL A   1      33.417  26.294  25.946  1.00  0.00     0.229 C 
ATOM      6  O   UNL A   1      33.279  25.170  26.499  1.00  0.00    -0.275 OA
ATOM      7  H   UNL A   1      32.987  26.695  27.702  1.00  0.00     0.163 HD
BRANCH   5   8
ATOM      8  C   UNL A   1      33.689  26.141  24.339  1.00  0.00     0.146 C 
ATOM      9  C   UNL A   1      33.436  24.766  23.617  1.00  0.00     0.096 C 
ATOM     10  C   UNL A   1      33.256  25.079  22.112  1.00  0.00     0.272 C 
ATOM     11  N   UNL A   1      32.782  26.461  22.019  1.00  0.00    -0.330 N 
ATOM     12  C   UNL A   1      33.388  27.150  23.191  1.00  0.00     0.276 C 
ATOM     13  H   UNL A   1      33.094  26.991  21.205  1.00  0.00     0.348 HD
BRANCH   9  14
ATOM     14  C   UNL A   1      34.233  23.469  23.777  1.00  0.00     0.004 A 
ATOM     15  C   UNL A   1      33.854  22.258  24.388  1.00  0.00     0.122 A 
ATOM     16  C   UNL A   1      34.821  21.253  24.625  1.00  0.00     0.047 A 
ATOM     17  C   UNL A   1      36.171  21.440  24.336  1.00  0.00     0.004 A 
ATOM     18  C   UNL A   1      35.625  23.621  23.502  1.00  0.00     0.008 A 
ATOM     19  C   UNL A   1      36.577  22.642  23.792  1.00  0.00     0.001 A 
BRANCH  15  20
ATOM     20  O   UNL A   1      32.688  21.955  25.035  1.00  0.00    -0.496 OA
ATOM     21  C   UNL A   1      32.213  20.627  24.998  1.00  0.00     0.278 C 
ENDBRANCH  15  20
ENDBRANCH   9  14
BRANCH  11  22
ATOM     22  C   UNL A   1      31.327  26.571  21.682  1.00  0.00     0.299 C 
BRANCH  22  23
ATOM     23  C   UNL A   1      30.565  27.673  22.395  1.00  0.00     0.013 A 
ATOM     24  C   UNL A   1      30.557  29.046  22.051  1.00  0.00     0.060 A 
ATOM     25  C   UNL A   1      29.649  27.243  23.333  1.00  0.00    -0.038 A 
ATOM     26  C   UNL A   1      29.466  29.810  22.441  1.00  0.00     0.166 A 
ATOM     27  C   UNL A   1      28.419  27.878  23.273  1.00  0.00     0.054 A 
ATOM     28  C   UNL A   1      30.041  26.175  24.315  1.00  0.00     0.045 C 
ATOM     29  C   UNL A   1      28.361  29.185  22.917  1.00  0.00     0.166 A 
ATOM     30  O   UNL A   1      29.246  31.150  22.362  1.00  0.00    -0.454 OA
ATOM     31  O   UNL A   1      27.283  29.983  23.096  1.00  0.00    -0.454 OA
ATOM     32  C   UNL A   1      27.947  31.249  23.015  1.00  0.00     0.468 C 
ENDBRANCH  22  23
ENDBRANCH  11  22
ENDBRANCH   5   8
ENDBRANCH   3   4
ENDBRANCH   2   3
ENDBRANCH   1   2
BRANCH   1  33
ATOM     33  C   UNL A   1      30.892  31.304  25.476  1.00  0.00     0.002 C 
BRANCH  33  34
ATOM     34  C   UNL A   1      31.027  32.448  26.502  1.00  0.00     0.021 C 
BRANCH  34  35
ATOM     35  C   UNL A   1      32.430  32.846  26.969  1.00  0.00     0.116 C 
BRANCH  35  36
ATOM     36  N   UNL A   1      32.486  34.178  27.552  1.00  0.00    -0.352 N 
ATOM     37  C   UNL A   1      33.275  34.678  28.564  1.00  0.00     0.251 C 
ATOM     38  H   UNL A   1      31.858  34.826  27.158  1.00  0.00     0.163 HD
ATOM     39  O   UNL A   1      33.060  35.780  29.032  1.00  0.00    -0.269 OA
BRANCH  37  40
ATOM     40  C   UNL A   1      34.390  33.863  29.087  1.00  0.00     0.039 A 
ATOM     41  C   UNL A   1      35.705  34.245  28.804  1.00  0.00     0.014 A 
ATOM     42  C   UNL A   1      34.130  32.712  29.832  1.00  0.00     0.014 A 
ATOM     43  C   UNL A   1      36.766  33.502  29.326  1.00  0.00     0.010 A 
ATOM     44  C   UNL A   1      35.187  32.008  30.402  1.00  0.00     0.010 A 
ATOM     45  C   UNL A   1      36.514  32.393  30.150  1.00  0.00    -0.014 A 
BRANCH  45  46
ATOM     46  C   UNL A   1      37.623  31.600  30.737  1.00  0.00     0.031 A 
ATOM     47  C   UNL A   1      38.034  31.837  32.162  1.00  0.00     0.074 A 
ATOM     48  C   UNL A   1      38.301  30.724  29.971  1.00  0.00     0.049 A 
ATOM     49  N   UNL A   1      39.030  31.320  32.835  1.00  0.00    -0.248 NA
ATOM     50  C   UNL A   1      37.234  32.811  32.922  1.00  0.00     0.031 C 
ATOM     51  C   UNL A   1      38.020  30.438  28.564  1.00  0.00     0.029 A 
ATOM     52  N   UNL A   1      39.378  29.926  30.265  1.00  0.00    -0.354 N 
ATOM     53  C   UNL A   1      38.986  31.918  34.088  1.00  0.00     0.074 A 
ATOM     54  C   UNL A   1      37.908  32.882  34.060  1.00  0.00     0.031 C 
ATOM     55  C   UNL A   1      38.893  29.518  28.121  1.00  0.00     0.029 A 
ATOM     56  C   UNL A   1      39.818  29.181  29.198  1.00  0.00     0.049 A 
ATOM     57  H   UNL A   1      39.796  29.892  31.157  1.00  0.00     0.167 HD
ATOM     58  C   UNL A   1      39.759  31.671  35.173  1.00  0.00     0.037 A 
ATOM     59  C   UNL A   1      40.858  28.330  29.100  1.00  0.00     0.037 A 
ATOM     60  C   UNL A   1      40.823  30.702  35.194  1.00  0.00     0.049 A 
ATOM     61  C   UNL A   1      41.716  28.081  30.310  1.00  0.00     0.074 A 
ATOM     62  C   UNL A   1      41.637  30.336  36.251  1.00  0.00     0.029 A 
ATOM     63  N   UNL A   1      41.226  29.950  34.099  1.00  0.00    -0.354 N 
ATOM     64  N   UNL A   1      41.627  28.606  31.508  1.00  0.00    -0.248 NA
ATOM     65  C   UNL A   1      42.814  27.117  30.157  1.00  0.00     0.031 C 
ATOM     66  C   UNL A   1      42.568  29.404  35.781  1.00  0.00     0.029 A 
ATOM     67  C   UNL A   1      42.293  29.139  34.448  1.00  0.00     0.049 A 
ATOM     68  H   UNL A   1      40.814  29.987  33.205  1.00  0.00     0.167 HD
ATOM     69  C   UNL A   1      42.632  28.012  32.262  1.00  0.00     0.074 A 
ATOM     70  C   UNL A   1      43.315  27.083  31.384  1.00  0.00     0.031 C 
ATOM     71  C   UNL A   1      42.955  28.213  33.563  1.00  0.00     0.037 A 
BRANCH  58  72
ATOM     72  C   UNL A   1      39.480  32.473  36.412  1.00  0.00     0.057 A 
ATOM     73  C   UNL A   1      38.504  32.087  37.343  1.00  0.00     0.134 A 
ATOM     74  C   UNL A   1      40.191  33.649  36.679  1.00  0.00     0.134 A 
ATOM     75  F   UNL A   1      37.777  30.976  37.144  1.00  0.00    -0.206 F 
ATOM     76  C   UNL A   1      38.212  32.865  38.464  1.00  0.00     0.040 A 
ATOM     77  C   UNL A   1      39.933  34.418  37.816  1.00  0.00     0.040 A 
ATOM     78  F   UNL A   1      41.145  34.075  35.838  1.00  0.00    -0.206 F 
ATOM     79  C   UNL A   1      38.932  34.033  38.705  1.00  0.00     0.006 A 
ENDBRANCH  58  72
BRANCH  59  80
ATOM     80  C   UNL A   1      41.125  27.639  27.813  1.00  0.00     0.057 A 
ATOM     81  C   UNL A   1      41.926  28.228  26.829  1.00  0.00     0.134 A 
ATOM     82  C   UNL A   1      40.602  26.369  27.542  1.00  0.00     0.134 A 
ATOM     83  F   UNL A   1      42.443  29.450  27.022  1.00  0.00    -0.206 F 
ATOM     84  C   UNL A   1      42.189  27.585  25.617  1.00  0.00     0.040 A 
ATOM     85  C   UNL A   1      40.876  25.703  26.346  1.00  0.00     0.040 A 
ATOM     86  F   UNL A   1      39.834  25.744  28.448  1.00  0.00    -0.206 F 
ATOM     87  C   UNL A   1      41.668  26.315  25.377  1.00  0.00     0.006 A 
ENDBRANCH  59  80
BRANCH  71  88
ATOM     88  C   UNL A   1      44.066  27.382  34.136  1.00  0.00     0.057 A 
ATOM     89  C   UNL A   1      43.844  26.106  34.670  1.00  0.00     0.134 A 
ATOM     90  C   UNL A   1      45.389  27.844  34.094  1.00  0.00     0.134 A 
ATOM     91  F   UNL A   1      42.601  25.609  34.750  1.00  0.00    -0.206 F 
ATOM     92  C   UNL A   1      44.896  25.328  35.157  1.00  0.00     0.040 A 
ATOM     93  C   UNL A   1      46.451  27.062  34.550  1.00  0.00     0.040 A 
ATOM     94  F   UNL A   1      45.672  29.053  33.587  1.00  0.00    -0.206 F 
ATOM     95  C   UNL A   1      46.204  25.802  35.088  1.00  0.00     0.006 A 
ENDBRANCH  71  88
ENDBRANCH  45  46
ENDBRANCH  37  40
ENDBRANCH  35  36
ENDBRANCH  34  35
ENDBRANCH  33  34
ENDBRANCH   1  33
TORSDOF 17
ENDMDL
