MODEL 1
REMARK VINA RESULT:      -9.4      0.000      0.000
REMARK SMILES C/C(=N\Nc1ccncc1[N+](=O)[O-])C(=O)NCCCCCCNC(=O)c1ccc(-c2c3nc(c(-c4c(F)cccc4F)c4ccc([nH]4)c(-c4c(F)cccc4F)c4nc(c(-c5c(F)cccc5F)c5ccc2[nH]5)C=C4)C=C3)cc1
REMARK SMILES IDX 19 1 18 2 17 3 16 4 14 5 15 6 2 8 1 9 3 10 4 11 5 13 6 14
REMARK SMILES IDX 10 15 7 16 9 17 8 18 11 19 12 20 13 21 20 22 21 23 22 24
REMARK SMILES IDX 23 25 24 26 25 28 26 29 27 30 79 31 28 32 78 33 29 34 30 35
REMARK SMILES IDX 31 36 72 37 32 38 77 39 71 40 73 41 33 42 76 43 70 44 69 45
REMARK SMILES IDX 34 47 60 48 43 49 59 50 44 51 47 52 58 53 74 54 45 55 46 56
REMARK SMILES IDX 57 58 75 59 48 60 35 61 36 62 41 63 37 64 38 65 40 66 42 67
REMARK SMILES IDX 39 68 61 69 62 70 67 71 63 72 64 73 66 74 68 75 65 76 49 77
REMARK SMILES IDX 50 78 55 79 51 80 52 81 54 82 56 83 53 84
REMARK H PARENT 16 7 4 12 23 27 73 46 47 57
REMARK Flexibility Score: inf
ROOT
ATOM      1  C   UNL A   1      46.222  20.490  24.639  1.00  0.00     0.002 C 
ENDROOT
BRANCH   1   2
ATOM      2  C   UNL A   1      45.100  21.371  24.069  1.00  0.00     0.021 C 
BRANCH   2   3
ATOM      3  C   UNL A   1      45.378  22.869  24.208  1.00  0.00     0.116 C 
BRANCH   3   4
ATOM      4  N   UNL A   1      46.173  23.107  25.399  1.00  0.00    -0.351 N 
ATOM      5  C   UNL A   1      46.902  24.210  25.763  1.00  0.00     0.267 C 
ATOM      6  O   UNL A   1      47.702  24.159  26.689  1.00  0.00    -0.268 OA
ATOM      7  H   UNL A   1      46.191  22.363  26.045  1.00  0.00     0.163 HD
BRANCH   5   8
ATOM      8  C   UNL A   1      46.605  25.560  25.128  1.00  0.00     0.122 C 
ATOM      9  C   UNL A   1      47.802  26.180  24.450  1.00  0.00     0.075 C 
ATOM     10  N   UNL A   1      45.395  26.043  25.199  1.00  0.00    -0.175 NA
BRANCH  10  11
ATOM     11  N   UNL A   1      45.170  27.336  24.875  1.00  0.00    -0.271 N 
ATOM     12  H   UNL A   1      45.069  27.545  23.917  1.00  0.00     0.190 HD
BRANCH  11  13
ATOM     13  C   UNL A   1      45.064  28.412  25.776  1.00  0.00     0.137 A 
ATOM     14  C   UNL A   1      46.200  28.937  26.400  1.00  0.00     0.055 A 
ATOM     15  C   UNL A   1      43.811  28.881  26.212  1.00  0.00     0.312 A 
ATOM     16  C   UNL A   1      46.046  29.843  27.437  1.00  0.00     0.113 A 
ATOM     17  C   UNL A   1      43.750  29.778  27.268  1.00  0.00     0.198 A 
ATOM     18  N   UNL A   1      44.847  30.264  27.893  1.00  0.00    -0.257 NA
BRANCH  15  19
ATOM     19  N   UNL A   1      42.562  28.424  25.616  1.00  0.00     0.066 N 
ATOM     20  O   UNL A   1      41.526  28.542  26.285  1.00  0.00    -0.258 OA
ATOM     21  O   UNL A   1      42.600  27.957  24.467  1.00  0.00    -0.258 OA
ENDBRANCH  15  19
ENDBRANCH  11  13
ENDBRANCH  10  11
ENDBRANCH   5   8
ENDBRANCH   3   4
ENDBRANCH   2   3
ENDBRANCH   1   2
BRANCH   1  22
ATOM     22  C   UNL A   1      45.743  19.198  25.308  1.00  0.00     0.002 C 
BRANCH  22  23
ATOM     23  C   UNL A   1      44.316  18.781  24.944  1.00  0.00     0.021 C 
BRANCH  23  24
ATOM     24  C   UNL A   1      43.390  18.619  26.143  1.00  0.00     0.116 C 
BRANCH  24  25
ATOM     25  N   UNL A   1      41.988  18.662  25.755  1.00  0.00    -0.352 N 
ATOM     26  C   UNL A   1      41.039  19.613  26.037  1.00  0.00     0.251 C 
ATOM     27  H   UNL A   1      41.677  17.902  25.212  1.00  0.00     0.163 HD
ATOM     28  O   UNL A   1      39.856  19.395  25.808  1.00  0.00    -0.269 OA
BRANCH  26  29
ATOM     29  C   UNL A   1      41.452  20.897  26.641  1.00  0.00     0.039 A 
ATOM     30  C   UNL A   1      41.934  21.911  25.810  1.00  0.00     0.014 A 
ATOM     31  C   UNL A   1      41.361  21.099  28.021  1.00  0.00     0.014 A 
ATOM     32  C   UNL A   1      42.271  23.150  26.358  1.00  0.00     0.010 A 
ATOM     33  C   UNL A   1      41.623  22.357  28.554  1.00  0.00     0.010 A 
ATOM     34  C   UNL A   1      42.085  23.393  27.729  1.00  0.00    -0.014 A 
BRANCH  34  35
ATOM     35  C   UNL A   1      42.368  24.727  28.317  1.00  0.00     0.031 A 
ATOM     36  C   UNL A   1      43.735  25.042  28.858  1.00  0.00     0.074 A 
ATOM     37  C   UNL A   1      41.375  25.633  28.419  1.00  0.00     0.049 A 
ATOM     38  N   UNL A   1      44.155  26.125  29.462  1.00  0.00    -0.248 NA
ATOM     39  C   UNL A   1      44.757  23.993  28.724  1.00  0.00     0.031 C 
ATOM     40  C   UNL A   1      39.994  25.431  27.974  1.00  0.00     0.029 A 
ATOM     41  N   UNL A   1      41.372  26.902  28.940  1.00  0.00    -0.354 N 
ATOM     42  C   UNL A   1      45.483  25.883  29.788  1.00  0.00     0.074 A 
ATOM     43  C   UNL A   1      45.783  24.530  29.369  1.00  0.00     0.031 C 
ATOM     44  C   UNL A   1      39.287  26.545  28.217  1.00  0.00     0.029 A 
ATOM     45  C   UNL A   1      40.148  27.523  28.873  1.00  0.00     0.049 A 
ATOM     46  H   UNL A   1      42.172  27.329  29.325  1.00  0.00     0.167 HD
ATOM     47  C   UNL A   1      46.380  26.719  30.364  1.00  0.00     0.037 A 
ATOM     48  C   UNL A   1      39.762  28.740  29.301  1.00  0.00     0.037 A 
ATOM     49  C   UNL A   1      46.083  28.069  30.766  1.00  0.00     0.049 A 
ATOM     50  C   UNL A   1      40.771  29.642  29.957  1.00  0.00     0.074 A 
ATOM     51  C   UNL A   1      46.936  29.014  31.309  1.00  0.00     0.029 A 
ATOM     52  N   UNL A   1      44.833  28.664  30.674  1.00  0.00    -0.354 N 
ATOM     53  N   UNL A   1      42.042  29.425  30.198  1.00  0.00    -0.248 NA
ATOM     54  C   UNL A   1      40.293  30.960  30.396  1.00  0.00     0.031 C 
ATOM     55  C   UNL A   1      46.191  30.162  31.595  1.00  0.00     0.029 A 
ATOM     56  C   UNL A   1      44.887  29.955  31.175  1.00  0.00     0.049 A 
ATOM     57  H   UNL A   1      44.028  28.234  30.307  1.00  0.00     0.167 HD
ATOM     58  C   UNL A   1      42.522  30.589  30.784  1.00  0.00     0.074 A 
ATOM     59  C   UNL A   1      41.409  31.513  30.851  1.00  0.00     0.031 C 
ATOM     60  C   UNL A   1      43.773  30.867  31.227  1.00  0.00     0.037 A 
BRANCH  47  61
ATOM     61  C   UNL A   1      47.769  26.195  30.594  1.00  0.00     0.057 A 
ATOM     62  C   UNL A   1      48.744  26.216  29.588  1.00  0.00     0.134 A 
ATOM     63  C   UNL A   1      48.147  25.696  31.848  1.00  0.00     0.134 A 
ATOM     64  F   UNL A   1      48.446  26.669  28.361  1.00  0.00    -0.206 F 
ATOM     65  C   UNL A   1      50.036  25.733  29.811  1.00  0.00     0.040 A 
ATOM     66  C   UNL A   1      49.444  25.240  32.092  1.00  0.00     0.040 A 
ATOM     67  F   UNL A   1      47.267  25.654  32.859  1.00  0.00    -0.206 F 
ATOM     68  C   UNL A   1      50.391  25.250  31.069  1.00  0.00     0.006 A 
ENDBRANCH  47  61
BRANCH  48  69
ATOM     69  C   UNL A   1      38.359  29.187  29.107  1.00  0.00     0.057 A 
ATOM     70  C   UNL A   1      37.428  29.119  30.151  1.00  0.00     0.134 A 
ATOM     71  C   UNL A   1      37.910  29.682  27.876  1.00  0.00     0.134 A 
ATOM     72  F   UNL A   1      37.792  28.638  31.348  1.00  0.00    -0.206 F 
ATOM     73  C   UNL A   1      36.098  29.502  29.972  1.00  0.00     0.040 A 
ATOM     74  C   UNL A   1      36.590  30.094  27.691  1.00  0.00     0.040 A 
ATOM     75  F   UNL A   1      38.753  29.782  26.838  1.00  0.00    -0.206 F 
ATOM     76  C   UNL A   1      35.677  29.996  28.739  1.00  0.00     0.006 A 
ENDBRANCH  48  69
BRANCH  60  77
ATOM     77  C   UNL A   1      44.018  32.242  31.781  1.00  0.00     0.057 A 
ATOM     78  C   UNL A   1      44.428  33.308  30.971  1.00  0.00     0.134 A 
ATOM     79  C   UNL A   1      43.800  32.508  33.140  1.00  0.00     0.134 A 
ATOM     80  F   UNL A   1      44.667  33.118  29.665  1.00  0.00    -0.206 F 
ATOM     81  C   UNL A   1      44.637  34.584  31.498  1.00  0.00     0.040 A 
ATOM     82  C   UNL A   1      43.976  33.786  33.671  1.00  0.00     0.040 A 
ATOM     83  F   UNL A   1      43.397  31.533  33.969  1.00  0.00    -0.206 F 
ATOM     84  C   UNL A   1      44.402  34.828  32.850  1.00  0.00     0.006 A 
ENDBRANCH  60  77
ENDBRANCH  34  35
ENDBRANCH  26  29
ENDBRANCH  24  25
ENDBRANCH  23  24
ENDBRANCH  22  23
ENDBRANCH   1  22
TORSDOF 16
ENDMDL
MODEL 2
REMARK VINA RESULT:      -9.2      4.170     10.019
REMARK SMILES C/C(=N\Nc1ccncc1[N+](=O)[O-])C(=O)NCCCCCCNC(=O)c1ccc(-c2c3nc(c(-c4c(F)cccc4F)c4ccc([nH]4)c(-c4c(F)cccc4F)c4nc(c(-c5c(F)cccc5F)c5ccc2[nH]5)C=C4)C=C3)cc1
REMARK SMILES IDX 19 1 18 2 17 3 16 4 14 5 15 6 2 8 1 9 3 10 4 11 5 13 6 14
REMARK SMILES IDX 10 15 7 16 9 17 8 18 11 19 12 20 13 21 20 22 21 23 22 24
REMARK SMILES IDX 23 25 24 26 25 28 26 29 27 30 79 31 28 32 78 33 29 34 30 35
REMARK SMILES IDX 31 36 72 37 32 38 77 39 71 40 73 41 33 42 76 43 70 44 69 45
REMARK SMILES IDX 34 47 60 48 43 49 59 50 44 51 47 52 58 53 74 54 45 55 46 56
REMARK SMILES IDX 57 58 75 59 48 60 35 61 36 62 41 63 37 64 38 65 40 66 42 67
REMARK SMILES IDX 39 68 61 69 62 70 67 71 63 72 64 73 66 74 68 75 65 76 49 77
REMARK SMILES IDX 50 78 55 79 51 80 52 81 54 82 56 83 53 84
REMARK H PARENT 16 7 4 12 23 27 73 46 47 57
REMARK Flexibility Score: inf
ROOT
ATOM      1  C   UNL A   1      33.275  25.868  25.825  1.00  0.00     0.002 C 
ENDROOT
BRANCH   1   2
ATOM      2  C   UNL A   1      33.896  25.772  24.424  1.00  0.00     0.021 C 
BRANCH   2   3
ATOM      3  C   UNL A   1      34.374  24.362  24.069  1.00  0.00     0.116 C 
BRANCH   3   4
ATOM      4  N   UNL A   1      35.690  24.137  24.642  1.00  0.00    -0.351 N 
ATOM      5  C   UNL A   1      36.092  23.230  25.588  1.00  0.00     0.267 C 
ATOM      6  O   UNL A   1      37.187  23.327  26.128  1.00  0.00    -0.268 OA
ATOM      7  H   UNL A   1      36.401  24.725  24.298  1.00  0.00     0.163 HD
BRANCH   5   8
ATOM      8  C   UNL A   1      35.252  21.991  25.859  1.00  0.00     0.122 C 
ATOM      9  C   UNL A   1      34.404  22.101  27.102  1.00  0.00     0.075 C 
ATOM     10  N   UNL A   1      35.312  20.988  25.026  1.00  0.00    -0.175 NA
BRANCH  10  11
ATOM     11  N   UNL A   1      34.783  19.794  25.376  1.00  0.00    -0.271 N 
ATOM     12  H   UNL A   1      34.897  19.514  26.314  1.00  0.00     0.190 HD
BRANCH  11  13
ATOM     13  C   UNL A   1      34.084  18.915  24.528  1.00  0.00     0.137 A 
ATOM     14  C   UNL A   1      34.632  17.679  24.170  1.00  0.00     0.055 A 
ATOM     15  C   UNL A   1      32.902  19.313  23.876  1.00  0.00     0.312 A 
ATOM     16  C   UNL A   1      34.027  16.934  23.170  1.00  0.00     0.113 A 
ATOM     17  C   UNL A   1      32.373  18.510  22.877  1.00  0.00     0.198 A 
ATOM     18  N   UNL A   1      32.920  17.328  22.508  1.00  0.00    -0.257 NA
BRANCH  15  19
ATOM     19  N   UNL A   1      32.228  20.567  24.188  1.00  0.00     0.066 N 
ATOM     20  O   UNL A   1      32.135  21.412  23.287  1.00  0.00    -0.258 OA
ATOM     21  O   UNL A   1      31.770  20.714  25.333  1.00  0.00    -0.258 OA
ENDBRANCH  15  19
ENDBRANCH  11  13
ENDBRANCH  10  11
ENDBRANCH   5   8
ENDBRANCH   3   4
ENDBRANCH   2   3
ENDBRANCH   1   2
BRANCH   1  22
ATOM     22  C   UNL A   1      32.204  26.952  25.977  1.00  0.00     0.002 C 
BRANCH  22  23
ATOM     23  C   UNL A   1      32.431  27.914  27.146  1.00  0.00     0.021 C 
BRANCH  23  24
ATOM     24  C   UNL A   1      33.808  28.566  27.158  1.00  0.00     0.116 C 
BRANCH  24  25
ATOM     25  N   UNL A   1      33.753  29.942  27.626  1.00  0.00    -0.352 N 
ATOM     26  C   UNL A   1      34.700  30.665  28.309  1.00  0.00     0.251 C 
ATOM     27  H   UNL A   1      32.919  30.424  27.423  1.00  0.00     0.163 HD
ATOM     28  O   UNL A   1      34.414  31.746  28.808  1.00  0.00    -0.269 OA
BRANCH  26  29
ATOM     29  C   UNL A   1      36.065  30.118  28.458  1.00  0.00     0.039 A 
ATOM     30  C   UNL A   1      36.933  30.162  27.366  1.00  0.00     0.014 A 
ATOM     31  C   UNL A   1      36.485  29.568  29.673  1.00  0.00     0.014 A 
ATOM     32  C   UNL A   1      38.245  29.705  27.509  1.00  0.00     0.010 A 
ATOM     33  C   UNL A   1      37.813  29.186  29.836  1.00  0.00     0.010 A 
ATOM     34  C   UNL A   1      38.704  29.246  28.755  1.00  0.00    -0.014 A 
BRANCH  34  35
ATOM     35  C   UNL A   1      40.116  28.826  28.945  1.00  0.00     0.031 A 
ATOM     36  C   UNL A   1      41.123  29.789  29.511  1.00  0.00     0.074 A 
ATOM     37  C   UNL A   1      40.502  27.597  28.551  1.00  0.00     0.049 A 
ATOM     38  N   UNL A   1      42.409  29.626  29.694  1.00  0.00    -0.248 NA
ATOM     39  C   UNL A   1      40.623  31.117  29.900  1.00  0.00     0.031 C 
ATOM     40  C   UNL A   1      39.630  26.587  27.946  1.00  0.00     0.029 A 
ATOM     41  N   UNL A   1      41.732  26.990  28.591  1.00  0.00    -0.354 N 
ATOM     42  C   UNL A   1      42.872  30.831  30.207  1.00  0.00     0.074 A 
ATOM     43  C   UNL A   1      41.742  31.734  30.251  1.00  0.00     0.031 C 
ATOM     44  C   UNL A   1      40.347  25.481  27.696  1.00  0.00     0.029 A 
ATOM     45  C   UNL A   1      41.735  25.714  28.080  1.00  0.00     0.049 A 
ATOM     46  H   UNL A   1      42.538  27.428  28.951  1.00  0.00     0.167 HD
ATOM     47  C   UNL A   1      44.120  31.150  30.625  1.00  0.00     0.037 A 
ATOM     48  C   UNL A   1      42.744  24.836  27.932  1.00  0.00     0.037 A 
ATOM     49  C   UNL A   1      45.239  30.244  30.592  1.00  0.00     0.049 A 
ATOM     50  C   UNL A   1      44.126  25.221  28.384  1.00  0.00     0.074 A 
ATOM     51  C   UNL A   1      46.530  30.454  31.042  1.00  0.00     0.029 A 
ATOM     52  N   UNL A   1      45.198  28.957  30.076  1.00  0.00    -0.354 N 
ATOM     53  N   UNL A   1      44.536  26.341  28.930  1.00  0.00    -0.248 NA
ATOM     54  C   UNL A   1      45.185  24.219  28.203  1.00  0.00     0.031 C 
ATOM     55  C   UNL A   1      47.285  29.314  30.749  1.00  0.00     0.029 A 
ATOM     56  C   UNL A   1      46.450  28.371  30.172  1.00  0.00     0.049 A 
ATOM     57  H   UNL A   1      44.400  28.525  29.698  1.00  0.00     0.167 HD
ATOM     58  C   UNL A   1      45.889  26.166  29.189  1.00  0.00     0.074 A 
ATOM     59  C   UNL A   1      46.228  24.828  28.750  1.00  0.00     0.031 C 
ATOM     60  C   UNL A   1      46.771  27.035  29.740  1.00  0.00     0.037 A 
BRANCH  47  61
ATOM     61  C   UNL A   1      44.341  32.539  31.152  1.00  0.00     0.057 A 
ATOM     62  C   UNL A   1      44.651  33.612  30.306  1.00  0.00     0.134 A 
ATOM     63  C   UNL A   1      44.208  32.815  32.519  1.00  0.00     0.134 A 
ATOM     64  F   UNL A   1      44.806  33.416  28.987  1.00  0.00    -0.206 F 
ATOM     65  C   UNL A   1      44.849  34.902  30.802  1.00  0.00     0.040 A 
ATOM     66  C   UNL A   1      44.372  34.107  33.023  1.00  0.00     0.040 A 
ATOM     67  F   UNL A   1      43.905  31.837  33.386  1.00  0.00    -0.206 F 
ATOM     68  C   UNL A   1      44.702  35.154  32.165  1.00  0.00     0.006 A 
ENDBRANCH  47  61
BRANCH  48  69
ATOM     69  C   UNL A   1      42.486  23.497  27.344  1.00  0.00     0.057 A 
ATOM     70  C   UNL A   1      42.583  23.282  25.964  1.00  0.00     0.134 A 
ATOM     71  C   UNL A   1      42.124  22.403  28.141  1.00  0.00     0.134 A 
ATOM     72  F   UNL A   1      42.908  24.293  25.146  1.00  0.00    -0.206 F 
ATOM     73  C   UNL A   1      42.308  22.038  25.395  1.00  0.00     0.040 A 
ATOM     74  C   UNL A   1      41.874  21.146  27.589  1.00  0.00     0.040 A 
ATOM     75  F   UNL A   1      42.023  22.539  29.471  1.00  0.00    -0.206 F 
ATOM     76  C   UNL A   1      41.956  20.964  26.210  1.00  0.00     0.006 A 
ENDBRANCH  48  69
BRANCH  60  77
ATOM     77  C   UNL A   1      48.179  26.551  29.944  1.00  0.00     0.057 A 
ATOM     78  C   UNL A   1      48.573  25.878  31.107  1.00  0.00     0.134 A 
ATOM     79  C   UNL A   1      49.142  26.729  28.942  1.00  0.00     0.134 A 
ATOM     80  F   UNL A   1      47.703  25.686  32.110  1.00  0.00    -0.206 F 
ATOM     81  C   UNL A   1      49.881  25.420  31.276  1.00  0.00     0.040 A 
ATOM     82  C   UNL A   1      50.444  26.249  29.086  1.00  0.00     0.040 A 
ATOM     83  F   UNL A   1      48.829  27.358  27.799  1.00  0.00    -0.206 F 
ATOM     84  C   UNL A   1      50.819  25.598  30.260  1.00  0.00     0.006 A 
ENDBRANCH  60  77
ENDBRANCH  34  35
ENDBRANCH  26  29
ENDBRANCH  24  25
ENDBRANCH  23  24
ENDBRANCH  22  23
ENDBRANCH   1  22
TORSDOF 16
ENDMDL
MODEL 3
REMARK VINA RESULT:      -9.0      4.740     11.018
REMARK SMILES C/C(=N\Nc1ccncc1[N+](=O)[O-])C(=O)NCCCCCCNC(=O)c1ccc(-c2c3nc(c(-c4c(F)cccc4F)c4ccc([nH]4)c(-c4c(F)cccc4F)c4nc(c(-c5c(F)cccc5F)c5ccc2[nH]5)C=C4)C=C3)cc1
REMARK SMILES IDX 19 1 18 2 17 3 16 4 14 5 15 6 2 8 1 9 3 10 4 11 5 13 6 14
REMARK SMILES IDX 10 15 7 16 9 17 8 18 11 19 12 20 13 21 20 22 21 23 22 24
REMARK SMILES IDX 23 25 24 26 25 28 26 29 27 30 79 31 28 32 78 33 29 34 30 35
REMARK SMILES IDX 31 36 72 37 32 38 77 39 71 40 73 41 33 42 76 43 70 44 69 45
REMARK SMILES IDX 34 47 60 48 43 49 59 50 44 51 47 52 58 53 74 54 45 55 46 56
REMARK SMILES IDX 57 58 75 59 48 60 35 61 36 62 41 63 37 64 38 65 40 66 42 67
REMARK SMILES IDX 39 68 61 69 62 70 67 71 63 72 64 73 66 74 68 75 65 76 49 77
REMARK SMILES IDX 50 78 55 79 51 80 52 81 54 82 56 83 53 84
REMARK H PARENT 16 7 4 12 23 27 73 46 47 57
REMARK Flexibility Score: inf
ROOT
ATOM      1  C   UNL A   1      39.262  34.737  30.026  1.00  0.00     0.002 C 
ENDROOT
BRANCH   1   2
ATOM      2  C   UNL A   1      39.787  34.116  31.329  1.00  0.00     0.021 C 
BRANCH   2   3
ATOM      3  C   UNL A   1      38.767  34.151  32.469  1.00  0.00     0.116 C 
BRANCH   3   4
ATOM      4  N   UNL A   1      38.298  32.804  32.743  1.00  0.00    -0.351 N 
ATOM      5  C   UNL A   1      37.099  32.379  33.255  1.00  0.00     0.267 C 
ATOM      6  O   UNL A   1      36.952  31.225  33.639  1.00  0.00    -0.268 OA
ATOM      7  H   UNL A   1      38.937  32.087  32.527  1.00  0.00     0.163 HD
BRANCH   5   8
ATOM      8  C   UNL A   1      35.882  33.290  33.198  1.00  0.00     0.122 C 
ATOM      9  C   UNL A   1      35.543  33.922  34.525  1.00  0.00     0.075 C 
ATOM     10  N   UNL A   1      35.270  33.461  32.058  1.00  0.00    -0.175 NA
BRANCH  10  11
ATOM     11  N   UNL A   1      34.053  34.050  32.034  1.00  0.00    -0.271 N 
ATOM     12  H   UNL A   1      33.436  33.829  32.769  1.00  0.00     0.190 HD
BRANCH  11  13
ATOM     13  C   UNL A   1      33.585  34.949  31.058  1.00  0.00     0.137 A 
ATOM     14  C   UNL A   1      33.534  34.579  29.710  1.00  0.00     0.055 A 
ATOM     15  C   UNL A   1      33.320  36.295  31.370  1.00  0.00     0.312 A 
ATOM     16  C   UNL A   1      33.278  35.547  28.751  1.00  0.00     0.113 A 
ATOM     17  C   UNL A   1      33.087  37.199  30.344  1.00  0.00     0.198 A 
ATOM     18  N   UNL A   1      33.067  36.848  29.037  1.00  0.00    -0.257 NA
BRANCH  15  19
ATOM     19  N   UNL A   1      33.319  36.787  32.742  1.00  0.00     0.066 N 
ATOM     20  O   UNL A   1      32.232  37.117  33.236  1.00  0.00    -0.258 OA
ATOM     21  O   UNL A   1      34.403  36.834  33.345  1.00  0.00    -0.258 OA
ENDBRANCH  15  19
ENDBRANCH  11  13
ENDBRANCH  10  11
ENDBRANCH   5   8
ENDBRANCH   3   4
ENDBRANCH   2   3
ENDBRANCH   1   2
BRANCH   1  22
ATOM     22  C   UNL A   1      38.539  33.757  29.096  1.00  0.00     0.002 C 
BRANCH  22  23
ATOM     23  C   UNL A   1      37.012  33.793  29.195  1.00  0.00     0.021 C 
BRANCH  23  24
ATOM     24  C   UNL A   1      36.321  32.566  28.613  1.00  0.00     0.116 C 
BRANCH  24  25
ATOM     25  N   UNL A   1      35.892  31.642  29.652  1.00  0.00    -0.352 N 
ATOM     26  C   UNL A   1      36.503  30.498  30.103  1.00  0.00     0.251 C 
ATOM     27  H   UNL A   1      35.043  31.869  30.095  1.00  0.00     0.163 HD
ATOM     28  O   UNL A   1      35.905  29.725  30.841  1.00  0.00    -0.269 OA
BRANCH  26  29
ATOM     29  C   UNL A   1      37.884  30.193  29.672  1.00  0.00     0.039 A 
ATOM     30  C   UNL A   1      38.888  30.103  30.638  1.00  0.00     0.014 A 
ATOM     31  C   UNL A   1      38.184  29.994  28.322  1.00  0.00     0.014 A 
ATOM     32  C   UNL A   1      40.185  29.757  30.255  1.00  0.00     0.010 A 
ATOM     33  C   UNL A   1      39.457  29.573  27.951  1.00  0.00     0.010 A 
ATOM     34  C   UNL A   1      40.470  29.454  28.913  1.00  0.00    -0.014 A 
BRANCH  34  35
ATOM     35  C   UNL A   1      41.826  29.012  28.498  1.00  0.00     0.031 A 
ATOM     36  C   UNL A   1      42.074  27.575  28.132  1.00  0.00     0.074 A 
ATOM     37  C   UNL A   1      42.846  29.892  28.510  1.00  0.00     0.049 A 
ATOM     38  N   UNL A   1      43.198  26.987  27.804  1.00  0.00    -0.248 NA
ATOM     39  C   UNL A   1      40.912  26.674  28.161  1.00  0.00     0.031 C 
ATOM     40  C   UNL A   1      42.743  31.303  28.889  1.00  0.00     0.029 A 
ATOM     41  N   UNL A   1      44.173  29.728  28.203  1.00  0.00    -0.354 N 
ATOM     42  C   UNL A   1      42.879  25.651  27.601  1.00  0.00     0.074 A 
ATOM     43  C   UNL A   1      41.471  25.502  27.898  1.00  0.00     0.031 C 
ATOM     44  C   UNL A   1      43.949  31.880  28.768  1.00  0.00     0.029 A 
ATOM     45  C   UNL A   1      44.918  30.874  28.347  1.00  0.00     0.049 A 
ATOM     46  H   UNL A   1      44.556  28.870  27.909  1.00  0.00     0.167 HD
ATOM     47  C   UNL A   1      43.681  24.643  27.181  1.00  0.00     0.037 A 
ATOM     48  C   UNL A   1      46.235  31.088  28.166  1.00  0.00     0.037 A 
ATOM     49  C   UNL A   1      45.079  24.799  26.872  1.00  0.00     0.049 A 
ATOM     50  C   UNL A   1      47.109  29.948  27.721  1.00  0.00     0.074 A 
ATOM     51  C   UNL A   1      45.965  23.853  26.389  1.00  0.00     0.029 A 
ATOM     52  N   UNL A   1      45.795  25.979  27.022  1.00  0.00    -0.354 N 
ATOM     53  N   UNL A   1      46.781  28.704  27.466  1.00  0.00    -0.248 NA
ATOM     54  C   UNL A   1      48.537  30.242  27.533  1.00  0.00     0.031 C 
ATOM     55  C   UNL A   1      47.229  24.444  26.297  1.00  0.00     0.029 A 
ATOM     56  C   UNL A   1      47.118  25.775  26.665  1.00  0.00     0.049 A 
ATOM     57  H   UNL A   1      45.419  26.832  27.334  1.00  0.00     0.167 HD
ATOM     58  C   UNL A   1      47.952  28.077  27.057  1.00  0.00     0.074 A 
ATOM     59  C   UNL A   1      48.994  29.081  27.086  1.00  0.00     0.031 C 
ATOM     60  C   UNL A   1      48.144  26.787  26.690  1.00  0.00     0.037 A 
BRANCH  47  61
ATOM     61  C   UNL A   1      43.066  23.282  27.034  1.00  0.00     0.057 A 
ATOM     62  C   UNL A   1      42.781  22.474  28.143  1.00  0.00     0.134 A 
ATOM     63  C   UNL A   1      42.719  22.786  25.770  1.00  0.00     0.134 A 
ATOM     64  F   UNL A   1      43.097  22.882  29.381  1.00  0.00    -0.206 F 
ATOM     65  C   UNL A   1      42.202  21.211  27.999  1.00  0.00     0.040 A 
ATOM     66  C   UNL A   1      42.110  21.539  25.616  1.00  0.00     0.040 A 
ATOM     67  F   UNL A   1      42.956  23.509  24.665  1.00  0.00    -0.206 F 
ATOM     68  C   UNL A   1      41.858  20.744  26.732  1.00  0.00     0.006 A 
ENDBRANCH  47  61
BRANCH  48  69
ATOM     69  C   UNL A   1      46.808  32.440  28.388  1.00  0.00     0.057 A 
ATOM     70  C   UNL A   1      46.880  33.374  27.348  1.00  0.00     0.134 A 
ATOM     71  C   UNL A   1      47.306  32.829  29.638  1.00  0.00     0.134 A 
ATOM     72  F   UNL A   1      46.435  33.056  26.124  1.00  0.00    -0.206 F 
ATOM     73  C   UNL A   1      47.448  34.635  27.535  1.00  0.00     0.040 A 
ATOM     74  C   UNL A   1      47.852  34.096  29.846  1.00  0.00     0.040 A 
ATOM     75  F   UNL A   1      47.259  31.984  30.679  1.00  0.00    -0.206 F 
ATOM     76  C   UNL A   1      47.932  35.000  28.789  1.00  0.00     0.006 A 
ENDBRANCH  48  69
BRANCH  60  77
ATOM     77  C   UNL A   1      49.525  26.396  26.245  1.00  0.00     0.057 A 
ATOM     78  C   UNL A   1      50.391  25.665  27.068  1.00  0.00     0.134 A 
ATOM     79  C   UNL A   1      49.976  26.723  24.959  1.00  0.00     0.134 A 
ATOM     80  F   UNL A   1      50.026  25.330  28.314  1.00  0.00    -0.206 F 
ATOM     81  C   UNL A   1      51.667  25.295  26.636  1.00  0.00     0.040 A 
ATOM     82  C   UNL A   1      51.236  26.333  24.506  1.00  0.00     0.040 A 
ATOM     83  F   UNL A   1      49.192  27.414  24.118  1.00  0.00    -0.206 F 
ATOM     84  C   UNL A   1      52.089  25.622  25.348  1.00  0.00     0.006 A 
ENDBRANCH  60  77
ENDBRANCH  34  35
ENDBRANCH  26  29
ENDBRANCH  24  25
ENDBRANCH  23  24
ENDBRANCH  22  23
ENDBRANCH   1  22
TORSDOF 16
ENDMDL
