MODEL 1
REMARK VINA RESULT:     -10.4      0.000      0.000
REMARK SMILES C[C@@H](Oc1ccc(/C=N/NC(=O)c2ccc(I)c(O)c2)cc1)C(=O)NCCCCCCNC(=O)c1ccc(-c2c3nc(c(-c4c(F)cccc4F)c4ccc([nH]4)c(-c4c(F)cccc4F)c4nc(c(-c5c(F)cccc5F)c5ccc2[nH]5)C=C4)C=C3)cc1
REMARK SMILES IDX 26 1 25 2 23 3 24 4 2 6 1 7 3 8 4 9 5 10 22 11 6 12 21 13
REMARK SMILES IDX 7 14 8 15 9 16 10 17 11 18 12 20 13 21 14 22 20 23 15 24
REMARK SMILES IDX 18 25 16 26 17 27 19 28 27 30 28 31 29 32 30 33 31 34 32 35
REMARK SMILES IDX 33 36 34 38 35 39 36 40 88 41 37 42 87 43 38 44 39 45 40 46
REMARK SMILES IDX 81 47 41 48 86 49 80 50 82 51 42 52 85 53 79 54 78 55 43 57
REMARK SMILES IDX 69 58 52 59 68 60 53 61 56 62 67 63 83 64 54 65 55 66 66 68
REMARK SMILES IDX 84 69 57 70 44 71 45 72 50 73 46 74 47 75 49 76 51 77 48 78
REMARK SMILES IDX 70 79 71 80 76 81 72 82 73 83 75 84 77 85 74 86 58 87 59 88
REMARK SMILES IDX 64 89 60 90 61 91 63 92 65 93 62 94
REMARK H PARENT 25 5 10 19 19 29 32 37 82 56 56 67
REMARK Flexibility Score: inf
ROOT
ATOM      1  C   UNL A   1      33.186  27.647  26.137  1.00  0.00     0.116 C 
ENDROOT
BRANCH   1   2
ATOM      2  N   UNL A   1      32.429  27.309  24.943  1.00  0.00    -0.353 N 
ATOM      3  C   UNL A   1      32.341  26.113  24.284  1.00  0.00     0.260 C 
ATOM      4  O   UNL A   1      31.637  26.053  23.273  1.00  0.00    -0.271 OA
ATOM      5  H   UNL A   1      31.905  28.046  24.552  1.00  0.00     0.163 HD
BRANCH   3   6
ATOM      6  C   UNL A   1      33.158  24.906  24.760  1.00  0.00     0.258 C 
ATOM      7  C   UNL A   1      32.340  23.644  24.480  1.00  0.00     0.064 C 
BRANCH   6   8
ATOM      8  O   UNL A   1      34.426  24.992  24.090  1.00  0.00    -0.481 OA
BRANCH   8   9
ATOM      9  C   UNL A   1      35.363  24.073  24.443  1.00  0.00     0.120 A 
ATOM     10  C   UNL A   1      35.918  24.171  25.722  1.00  0.00     0.047 A 
ATOM     11  C   UNL A   1      35.882  23.168  23.522  1.00  0.00     0.047 A 
ATOM     12  C   UNL A   1      36.952  23.313  26.104  1.00  0.00     0.013 A 
ATOM     13  C   UNL A   1      36.871  22.274  23.912  1.00  0.00     0.013 A 
ATOM     14  C   UNL A   1      37.398  22.348  25.201  1.00  0.00    -0.005 A 
BRANCH  14  15
ATOM     15  C   UNL A   1      38.455  21.392  25.540  1.00  0.00     0.141 C 
ATOM     16  N   UNL A   1      39.567  21.762  26.089  1.00  0.00    -0.180 NA
BRANCH  16  17
ATOM     17  N   UNL A   1      40.543  20.807  26.206  1.00  0.00    -0.243 N 
ATOM     18  C   UNL A   1      41.920  20.956  26.302  1.00  0.00     0.271 C 
ATOM     19  H   UNL A   1      40.219  19.878  26.225  1.00  0.00     0.194 HD
ATOM     20  O   UNL A   1      42.661  19.975  26.259  1.00  0.00    -0.267 OA
BRANCH  18  21
ATOM     21  C   UNL A   1      42.532  22.300  26.461  1.00  0.00     0.045 A 
ATOM     22  C   UNL A   1      42.547  22.876  27.738  1.00  0.00     0.015 A 
ATOM     23  C   UNL A   1      43.116  22.973  25.381  1.00  0.00     0.061 A 
ATOM     24  C   UNL A   1      43.205  24.090  27.949  1.00  0.00     0.019 A 
ATOM     25  C   UNL A   1      43.794  24.173  25.602  1.00  0.00     0.129 A 
ATOM     26  C   UNL A   1      43.846  24.729  26.884  1.00  0.00     0.055 A 
ATOM     27  I   UNL A   1      44.899  26.491  27.280  1.00  0.00    -0.040 I 
BRANCH  25  28
ATOM     28  O   UNL A   1      44.455  24.769  24.564  1.00  0.00    -0.507 OA
ATOM     29  H   UNL A   1      44.447  24.373  23.715  1.00  0.00     0.293 HD
ENDBRANCH  25  28
ENDBRANCH  18  21
ENDBRANCH  16  17
ENDBRANCH  14  15
ENDBRANCH   8   9
ENDBRANCH   6   8
ENDBRANCH   3   6
ENDBRANCH   1   2
BRANCH   1  30
ATOM     30  C   UNL A   1      34.018  28.907  25.935  1.00  0.00     0.021 C 
BRANCH  30  31
ATOM     31  C   UNL A   1      34.968  29.214  27.095  1.00  0.00     0.002 C 
BRANCH  31  32
ATOM     32  C   UNL A   1      34.542  30.389  27.981  1.00  0.00     0.002 C 
BRANCH  32  33
ATOM     33  C   UNL A   1      34.031  31.617  27.225  1.00  0.00     0.021 C 
BRANCH  33  34
ATOM     34  C   UNL A   1      32.627  32.063  27.620  1.00  0.00     0.116 C 
BRANCH  34  35
ATOM     35  N   UNL A   1      32.520  33.510  27.712  1.00  0.00    -0.352 N 
ATOM     36  C   UNL A   1      33.265  34.397  28.450  1.00  0.00     0.251 C 
ATOM     37  H   UNL A   1      31.808  33.915  27.164  1.00  0.00     0.163 HD
ATOM     38  O   UNL A   1      32.906  35.561  28.569  1.00  0.00    -0.269 OA
BRANCH  36  39
ATOM     39  C   UNL A   1      34.495  33.931  29.124  1.00  0.00     0.039 A 
ATOM     40  C   UNL A   1      34.379  33.203  30.311  1.00  0.00     0.014 A 
ATOM     41  C   UNL A   1      35.754  34.203  28.583  1.00  0.00     0.014 A 
ATOM     42  C   UNL A   1      35.525  32.683  30.915  1.00  0.00     0.010 A 
ATOM     43  C   UNL A   1      36.887  33.621  29.144  1.00  0.00     0.010 A 
ATOM     44  C   UNL A   1      36.783  32.849  30.311  1.00  0.00    -0.014 A 
BRANCH  44  45
ATOM     45  C   UNL A   1      37.993  32.194  30.866  1.00  0.00     0.031 A 
ATOM     46  C   UNL A   1      38.582  30.986  30.195  1.00  0.00     0.074 A 
ATOM     47  C   UNL A   1      38.515  32.644  32.024  1.00  0.00     0.049 A 
ATOM     48  N   UNL A   1      39.586  30.237  30.576  1.00  0.00    -0.248 NA
ATOM     49  C   UNL A   1      37.942  30.546  28.946  1.00  0.00     0.031 C 
ATOM     50  C   UNL A   1      38.001  33.774  32.798  1.00  0.00     0.029 A 
ATOM     51  N   UNL A   1      39.582  32.193  32.760  1.00  0.00    -0.354 N 
ATOM     52  C   UNL A   1      39.695  29.237  29.618  1.00  0.00     0.074 A 
ATOM     53  C   UNL A   1      38.616  29.439  28.674  1.00  0.00     0.031 C 
ATOM     54  C   UNL A   1      38.758  33.936  33.895  1.00  0.00     0.029 A 
ATOM     55  C   UNL A   1      39.782  32.896  33.923  1.00  0.00     0.049 A 
ATOM     56  H   UNL A   1      40.148  31.438  32.482  1.00  0.00     0.167 HD
ATOM     57  C   UNL A   1      40.622  28.254  29.521  1.00  0.00     0.037 A 
ATOM     58  C   UNL A   1      40.676  32.714  34.913  1.00  0.00     0.037 A 
ATOM     59  C   UNL A   1      41.692  28.057  30.465  1.00  0.00     0.049 A 
ATOM     60  C   UNL A   1      41.678  31.599  34.802  1.00  0.00     0.074 A 
ATOM     61  C   UNL A   1      42.714  27.124  30.428  1.00  0.00     0.029 A 
ATOM     62  N   UNL A   1      41.870  28.797  31.625  1.00  0.00    -0.354 N 
ATOM     63  N   UNL A   1      41.818  30.707  33.851  1.00  0.00    -0.248 NA
ATOM     64  C   UNL A   1      42.648  31.467  35.897  1.00  0.00     0.031 C 
ATOM     65  C   UNL A   1      43.474  27.261  31.594  1.00  0.00     0.029 A 
ATOM     66  C   UNL A   1      42.964  28.319  32.329  1.00  0.00     0.049 A 
ATOM     67  H   UNL A   1      41.303  29.550  31.906  1.00  0.00     0.167 HD
ATOM     68  C   UNL A   1      42.900  29.920  34.223  1.00  0.00     0.074 A 
ATOM     69  C   UNL A   1      43.392  30.453  35.477  1.00  0.00     0.031 C 
ATOM     70  C   UNL A   1      43.438  28.854  33.583  1.00  0.00     0.037 A 
BRANCH  57  71
ATOM     71  C   UNL A   1      40.507  27.312  28.355  1.00  0.00     0.057 A 
ATOM     72  C   UNL A   1      41.151  27.562  27.134  1.00  0.00     0.134 A 
ATOM     73  C   UNL A   1      39.753  26.136  28.455  1.00  0.00     0.134 A 
ATOM     74  F   UNL A   1      41.882  28.675  26.967  1.00  0.00    -0.206 F 
ATOM     75  C   UNL A   1      41.018  26.698  26.046  1.00  0.00     0.040 A 
ATOM     76  C   UNL A   1      39.639  25.248  27.384  1.00  0.00     0.040 A 
ATOM     77  F   UNL A   1      39.118  25.827  29.595  1.00  0.00    -0.206 F 
ATOM     78  C   UNL A   1      40.263  25.534  26.171  1.00  0.00     0.006 A 
ENDBRANCH  57  71
BRANCH  58  79
ATOM     79  C   UNL A   1      40.657  33.612  36.094  1.00  0.00     0.057 A 
ATOM     80  C   UNL A   1      39.842  33.344  37.200  1.00  0.00     0.134 A 
ATOM     81  C   UNL A   1      41.469  34.752  36.155  1.00  0.00     0.134 A 
ATOM     82  F   UNL A   1      39.029  32.276  37.195  1.00  0.00    -0.206 F 
ATOM     83  C   UNL A   1      39.825  34.180  38.317  1.00  0.00     0.040 A 
ATOM     84  C   UNL A   1      41.483  35.583  37.276  1.00  0.00     0.040 A 
ATOM     85  F   UNL A   1      42.281  35.061  35.132  1.00  0.00    -0.206 F 
ATOM     86  C   UNL A   1      40.655  35.300  38.360  1.00  0.00     0.006 A 
ENDBRANCH  58  79
BRANCH  70  87
ATOM     87  C   UNL A   1      44.631  28.198  34.219  1.00  0.00     0.057 A 
ATOM     88  C   UNL A   1      44.501  27.106  35.086  1.00  0.00     0.134 A 
ATOM     89  C   UNL A   1      45.928  28.639  33.925  1.00  0.00     0.134 A 
ATOM     90  F   UNL A   1      43.287  26.643  35.419  1.00  0.00    -0.206 F 
ATOM     91  C   UNL A   1      45.617  26.488  35.653  1.00  0.00     0.040 A 
ATOM     92  C   UNL A   1      47.053  28.011  34.463  1.00  0.00     0.040 A 
ATOM     93  F   UNL A   1      46.125  29.676  33.097  1.00  0.00    -0.206 F 
ATOM     94  C   UNL A   1      46.898  26.936  35.335  1.00  0.00     0.006 A 
ENDBRANCH  70  87
ENDBRANCH  44  45
ENDBRANCH  36  39
ENDBRANCH  34  35
ENDBRANCH  33  34
ENDBRANCH  32  33
ENDBRANCH  31  32
ENDBRANCH  30  31
ENDBRANCH   1  30
TORSDOF 19
ENDMDL
MODEL 2
REMARK VINA RESULT:     -10.3      0.527      5.989
REMARK SMILES C[C@@H](Oc1ccc(/C=N/NC(=O)c2ccc(I)c(O)c2)cc1)C(=O)NCCCCCCNC(=O)c1ccc(-c2c3nc(c(-c4c(F)cccc4F)c4ccc([nH]4)c(-c4c(F)cccc4F)c4nc(c(-c5c(F)cccc5F)c5ccc2[nH]5)C=C4)C=C3)cc1
REMARK SMILES IDX 26 1 25 2 23 3 24 4 2 6 1 7 3 8 4 9 5 10 22 11 6 12 21 13
REMARK SMILES IDX 7 14 8 15 9 16 10 17 11 18 12 20 13 21 14 22 20 23 15 24
REMARK SMILES IDX 18 25 16 26 17 27 19 28 27 30 28 31 29 32 30 33 31 34 32 35
REMARK SMILES IDX 33 36 34 38 35 39 36 40 88 41 37 42 87 43 38 44 39 45 40 46
REMARK SMILES IDX 81 47 41 48 86 49 80 50 82 51 42 52 85 53 79 54 78 55 43 57
REMARK SMILES IDX 69 58 52 59 68 60 53 61 56 62 67 63 83 64 54 65 55 66 66 68
REMARK SMILES IDX 84 69 57 70 44 71 45 72 50 73 46 74 47 75 49 76 51 77 48 78
REMARK SMILES IDX 70 79 71 80 76 81 72 82 73 83 75 84 77 85 74 86 58 87 59 88
REMARK SMILES IDX 64 89 60 90 61 91 63 92 65 93 62 94
REMARK H PARENT 25 5 10 19 19 29 32 37 82 56 56 67
REMARK Flexibility Score: inf
ROOT
ATOM      1  C   UNL A   1      32.717  27.815  26.441  1.00  0.00     0.116 C 
ENDROOT
BRANCH   1   2
ATOM      2  N   UNL A   1      32.213  27.149  25.252  1.00  0.00    -0.353 N 
ATOM      3  C   UNL A   1      32.538  25.921  24.745  1.00  0.00     0.260 C 
ATOM      4  O   UNL A   1      31.987  25.553  23.705  1.00  0.00    -0.271 OA
ATOM      5  H   UNL A   1      31.542  27.654  24.737  1.00  0.00     0.163 HD
BRANCH   3   6
ATOM      6  C   UNL A   1      33.616  25.065  25.423  1.00  0.00     0.258 C 
ATOM      7  C   UNL A   1      32.945  23.796  25.951  1.00  0.00     0.064 C 
BRANCH   6   8
ATOM      8  O   UNL A   1      34.646  24.868  24.442  1.00  0.00    -0.481 OA
BRANCH   8   9
ATOM      9  C   UNL A   1      35.594  23.938  24.734  1.00  0.00     0.120 A 
ATOM     10  C   UNL A   1      36.474  24.218  25.783  1.00  0.00     0.047 A 
ATOM     11  C   UNL A   1      35.800  22.825  23.926  1.00  0.00     0.047 A 
ATOM     12  C   UNL A   1      37.525  23.343  26.066  1.00  0.00     0.013 A 
ATOM     13  C   UNL A   1      36.808  21.922  24.235  1.00  0.00     0.013 A 
ATOM     14  C   UNL A   1      37.663  22.183  25.305  1.00  0.00    -0.005 A 
BRANCH  14  15
ATOM     15  C   UNL A   1      38.721  21.202  25.562  1.00  0.00     0.141 C 
ATOM     16  N   UNL A   1      39.783  21.497  26.239  1.00  0.00    -0.180 NA
BRANCH  16  17
ATOM     17  N   UNL A   1      40.774  20.551  26.272  1.00  0.00    -0.243 N 
ATOM     18  C   UNL A   1      42.153  20.714  26.297  1.00  0.00     0.271 C 
ATOM     19  H   UNL A   1      40.462  19.618  26.280  1.00  0.00     0.194 HD
ATOM     20  O   UNL A   1      42.900  19.743  26.183  1.00  0.00    -0.267 OA
BRANCH  18  21
ATOM     21  C   UNL A   1      42.759  22.059  26.465  1.00  0.00     0.045 A 
ATOM     22  C   UNL A   1      42.827  22.601  27.755  1.00  0.00     0.015 A 
ATOM     23  C   UNL A   1      43.285  22.768  25.378  1.00  0.00     0.061 A 
ATOM     24  C   UNL A   1      43.482  23.816  27.969  1.00  0.00     0.019 A 
ATOM     25  C   UNL A   1      43.961  23.968  25.600  1.00  0.00     0.129 A 
ATOM     26  C   UNL A   1      44.067  24.491  26.894  1.00  0.00     0.055 A 
ATOM     27  I   UNL A   1      45.120  26.253  27.289  1.00  0.00    -0.040 I 
BRANCH  25  28
ATOM     28  O   UNL A   1      44.568  24.600  24.550  1.00  0.00    -0.507 OA
ATOM     29  H   UNL A   1      44.200  24.537  23.691  1.00  0.00     0.293 HD
ENDBRANCH  25  28
ENDBRANCH  18  21
ENDBRANCH  16  17
ENDBRANCH  14  15
ENDBRANCH   8   9
ENDBRANCH   6   8
ENDBRANCH   3   6
ENDBRANCH   1   2
BRANCH   1  30
ATOM     30  C   UNL A   1      33.556  29.037  26.087  1.00  0.00     0.021 C 
BRANCH  30  31
ATOM     31  C   UNL A   1      34.632  29.372  27.122  1.00  0.00     0.002 C 
BRANCH  31  32
ATOM     32  C   UNL A   1      34.455  30.725  27.818  1.00  0.00     0.002 C 
BRANCH  32  33
ATOM     33  C   UNL A   1      33.691  31.775  27.007  1.00  0.00     0.021 C 
BRANCH  33  34
ATOM     34  C   UNL A   1      32.502  32.393  27.735  1.00  0.00     0.116 C 
BRANCH  34  35
ATOM     35  N   UNL A   1      32.594  33.843  27.796  1.00  0.00    -0.352 N 
ATOM     36  C   UNL A   1      33.454  34.635  28.517  1.00  0.00     0.251 C 
ATOM     37  H   UNL A   1      31.944  34.329  27.238  1.00  0.00     0.163 HD
ATOM     38  O   UNL A   1      33.256  35.839  28.610  1.00  0.00    -0.269 OA
BRANCH  36  39
ATOM     39  C   UNL A   1      34.609  34.019  29.203  1.00  0.00     0.039 A 
ATOM     40  C   UNL A   1      34.383  33.260  30.354  1.00  0.00     0.014 A 
ATOM     41  C   UNL A   1      35.905  34.184  28.709  1.00  0.00     0.014 A 
ATOM     42  C   UNL A   1      35.452  32.602  30.966  1.00  0.00     0.010 A 
ATOM     43  C   UNL A   1      36.956  33.469  29.276  1.00  0.00     0.010 A 
ATOM     44  C   UNL A   1      36.738  32.664  30.405  1.00  0.00    -0.014 A 
BRANCH  44  45
ATOM     45  C   UNL A   1      37.858  31.868  30.963  1.00  0.00     0.031 A 
ATOM     46  C   UNL A   1      38.456  32.220  32.295  1.00  0.00     0.074 A 
ATOM     47  C   UNL A   1      38.390  30.871  30.229  1.00  0.00     0.049 A 
ATOM     48  N   UNL A   1      39.485  31.690  32.906  1.00  0.00    -0.248 NA
ATOM     49  C   UNL A   1      37.831  33.334  33.025  1.00  0.00     0.031 C 
ATOM     50  C   UNL A   1      37.933  30.467  28.898  1.00  0.00     0.029 A 
ATOM     51  N   UNL A   1      39.442  30.029  30.489  1.00  0.00    -0.354 N 
ATOM     52  C   UNL A   1      39.633  32.406  34.086  1.00  0.00     0.074 A 
ATOM     53  C   UNL A   1      38.628  33.448  34.076  1.00  0.00     0.031 C 
ATOM     54  C   UNL A   1      38.693  29.449  28.463  1.00  0.00     0.029 A 
ATOM     55  C   UNL A   1      39.715  29.158  29.463  1.00  0.00     0.049 A 
ATOM     56  H   UNL A   1      39.953  30.049  31.330  1.00  0.00     0.167 HD
ATOM     57  C   UNL A   1      40.512  32.200  35.097  1.00  0.00     0.037 A 
ATOM     58  C   UNL A   1      40.692  28.241  29.330  1.00  0.00     0.037 A 
ATOM     59  C   UNL A   1      41.511  31.162  35.101  1.00  0.00     0.049 A 
ATOM     60  C   UNL A   1      41.676  28.047  30.450  1.00  0.00     0.074 A 
ATOM     61  C   UNL A   1      42.413  30.837  36.099  1.00  0.00     0.029 A 
ATOM     62  N   UNL A   1      41.750  30.291  34.048  1.00  0.00    -0.354 N 
ATOM     63  N   UNL A   1      41.756  28.680  31.596  1.00  0.00    -0.248 NA
ATOM     64  C   UNL A   1      42.699  27.011  30.262  1.00  0.00     0.031 C 
ATOM     65  C   UNL A   1      43.236  29.809  35.627  1.00  0.00     0.029 A 
ATOM     66  C   UNL A   1      42.808  29.451  34.358  1.00  0.00     0.049 A 
ATOM     67  H   UNL A   1      41.243  30.272  33.205  1.00  0.00     0.167 HD
ATOM     68  C   UNL A   1      42.826  28.109  32.272  1.00  0.00     0.074 A 
ATOM     69  C   UNL A   1      43.351  27.064  31.416  1.00  0.00     0.031 C 
ATOM     70  C   UNL A   1      43.327  28.421  33.492  1.00  0.00     0.037 A 
BRANCH  57  71
ATOM     71  C   UNL A   1      40.432  33.127  36.278  1.00  0.00     0.057 A 
ATOM     72  C   UNL A   1      41.256  34.256  36.392  1.00  0.00     0.134 A 
ATOM     73  C   UNL A   1      39.512  32.896  37.309  1.00  0.00     0.134 A 
ATOM     74  F   UNL A   1      42.166  34.531  35.445  1.00  0.00    -0.206 F 
ATOM     75  C   UNL A   1      41.196  35.097  37.504  1.00  0.00     0.040 A 
ATOM     76  C   UNL A   1      39.420  33.748  38.411  1.00  0.00     0.040 A 
ATOM     77  F   UNL A   1      38.685  31.842  37.262  1.00  0.00    -0.206 F 
ATOM     78  C   UNL A   1      40.272  34.846  38.516  1.00  0.00     0.006 A 
ENDBRANCH  57  71
BRANCH  58  79
ATOM     79  C   UNL A   1      40.781  27.438  28.085  1.00  0.00     0.057 A 
ATOM     80  C   UNL A   1      41.475  27.910  26.964  1.00  0.00     0.134 A 
ATOM     81  C   UNL A   1      40.192  26.171  27.991  1.00  0.00     0.134 A 
ATOM     82  F   UNL A   1      42.046  29.123  26.986  1.00  0.00    -0.206 F 
ATOM     83  C   UNL A   1      41.570  27.157  25.793  1.00  0.00     0.040 A 
ATOM     84  C   UNL A   1      40.301  25.396  26.835  1.00  0.00     0.040 A 
ATOM     85  F   UNL A   1      39.521  25.657  29.034  1.00  0.00    -0.206 F 
ATOM     86  C   UNL A   1      40.987  25.892  25.730  1.00  0.00     0.006 A 
ENDBRANCH  58  79
BRANCH  70  87
ATOM     87  C   UNL A   1      44.495  27.614  33.984  1.00  0.00     0.057 A 
ATOM     88  C   UNL A   1      45.817  28.043  33.809  1.00  0.00     0.134 A 
ATOM     89  C   UNL A   1      44.292  26.414  34.678  1.00  0.00     0.134 A 
ATOM     90  F   UNL A   1      46.082  29.176  33.141  1.00  0.00    -0.206 F 
ATOM     91  C   UNL A   1      46.896  27.298  34.291  1.00  0.00     0.040 A 
ATOM     92  C   UNL A   1      45.360  25.675  35.190  1.00  0.00     0.040 A 
ATOM     93  F   UNL A   1      43.051  25.948  34.887  1.00  0.00    -0.206 F 
ATOM     94  C   UNL A   1      46.668  26.115  34.991  1.00  0.00     0.006 A 
ENDBRANCH  70  87
ENDBRANCH  44  45
ENDBRANCH  36  39
ENDBRANCH  34  35
ENDBRANCH  33  34
ENDBRANCH  32  33
ENDBRANCH  31  32
ENDBRANCH  30  31
ENDBRANCH   1  30
TORSDOF 19
ENDMDL
MODEL 3
REMARK VINA RESULT:     -10.1      4.686      7.420
REMARK SMILES C[C@@H](Oc1ccc(/C=N/NC(=O)c2ccc(I)c(O)c2)cc1)C(=O)NCCCCCCNC(=O)c1ccc(-c2c3nc(c(-c4c(F)cccc4F)c4ccc([nH]4)c(-c4c(F)cccc4F)c4nc(c(-c5c(F)cccc5F)c5ccc2[nH]5)C=C4)C=C3)cc1
REMARK SMILES IDX 26 1 25 2 23 3 24 4 2 6 1 7 3 8 4 9 5 10 22 11 6 12 21 13
REMARK SMILES IDX 7 14 8 15 9 16 10 17 11 18 12 20 13 21 14 22 20 23 15 24
REMARK SMILES IDX 18 25 16 26 17 27 19 28 27 30 28 31 29 32 30 33 31 34 32 35
REMARK SMILES IDX 33 36 34 38 35 39 36 40 88 41 37 42 87 43 38 44 39 45 40 46
REMARK SMILES IDX 81 47 41 48 86 49 80 50 82 51 42 52 85 53 79 54 78 55 43 57
REMARK SMILES IDX 69 58 52 59 68 60 53 61 56 62 67 63 83 64 54 65 55 66 66 68
REMARK SMILES IDX 84 69 57 70 44 71 45 72 50 73 46 74 47 75 49 76 51 77 48 78
REMARK SMILES IDX 70 79 71 80 76 81 72 82 73 83 75 84 77 85 74 86 58 87 59 88
REMARK SMILES IDX 64 89 60 90 61 91 63 92 65 93 62 94
REMARK H PARENT 25 5 10 19 19 29 32 37 82 56 56 67
REMARK Flexibility Score: inf
ROOT
ATOM      1  C   UNL A   1      31.495  29.552  24.995  1.00  0.00     0.116 C 
ENDROOT
BRANCH   1   2
ATOM      2  N   UNL A   1      31.013  29.701  23.632  1.00  0.00    -0.353 N 
ATOM      3  C   UNL A   1      30.183  28.883  22.914  1.00  0.00     0.260 C 
ATOM      4  O   UNL A   1      29.908  29.202  21.755  1.00  0.00    -0.271 OA
ATOM      5  H   UNL A   1      31.328  30.504  23.158  1.00  0.00     0.163 HD
BRANCH   3   6
ATOM      6  C   UNL A   1      29.675  27.570  23.524  1.00  0.00     0.258 C 
ATOM      7  C   UNL A   1      28.146  27.587  23.469  1.00  0.00     0.064 C 
BRANCH   6   8
ATOM      8  O   UNL A   1      30.316  26.514  22.790  1.00  0.00    -0.481 OA
BRANCH   8   9
ATOM      9  C   UNL A   1      31.501  26.065  23.283  1.00  0.00     0.120 A 
ATOM     10  C   UNL A   1      32.521  25.792  22.368  1.00  0.00     0.047 A 
ATOM     11  C   UNL A   1      31.653  25.726  24.624  1.00  0.00     0.047 A 
ATOM     12  C   UNL A   1      33.726  25.239  22.809  1.00  0.00     0.013 A 
ATOM     13  C   UNL A   1      32.867  25.228  25.078  1.00  0.00     0.013 A 
ATOM     14  C   UNL A   1      33.899  24.991  24.170  1.00  0.00    -0.005 A 
BRANCH  14  15
ATOM     15  C   UNL A   1      35.145  24.443  24.712  1.00  0.00     0.141 C 
ATOM     16  N   UNL A   1      35.871  23.601  24.050  1.00  0.00    -0.180 NA
BRANCH  16  17
ATOM     17  N   UNL A   1      36.922  23.033  24.722  1.00  0.00    -0.243 N 
ATOM     18  C   UNL A   1      37.027  21.774  25.298  1.00  0.00     0.271 C 
ATOM     19  H   UNL A   1      37.720  23.602  24.809  1.00  0.00     0.194 HD
ATOM     20  O   UNL A   1      38.002  21.481  25.989  1.00  0.00    -0.267 OA
BRANCH  18  21
ATOM     21  C   UNL A   1      35.970  20.751  25.094  1.00  0.00     0.045 A 
ATOM     22  C   UNL A   1      36.357  19.468  24.684  1.00  0.00     0.015 A 
ATOM     23  C   UNL A   1      34.619  21.033  25.332  1.00  0.00     0.061 A 
ATOM     24  C   UNL A   1      35.405  18.451  24.582  1.00  0.00     0.019 A 
ATOM     25  C   UNL A   1      33.676  20.007  25.254  1.00  0.00     0.129 A 
ATOM     26  C   UNL A   1      34.067  18.715  24.886  1.00  0.00     0.055 A 
ATOM     27  I   UNL A   1      32.706  17.130  24.812  1.00  0.00    -0.040 I 
BRANCH  25  28
ATOM     28  O   UNL A   1      32.377  20.264  25.596  1.00  0.00    -0.507 OA
ATOM     29  H   UNL A   1      31.770  20.550  24.943  1.00  0.00     0.293 HD
ENDBRANCH  25  28
ENDBRANCH  18  21
ENDBRANCH  16  17
ENDBRANCH  14  15
ENDBRANCH   8   9
ENDBRANCH   6   8
ENDBRANCH   3   6
ENDBRANCH   1   2
BRANCH   1  30
ATOM     30  C   UNL A   1      32.980  29.207  25.030  1.00  0.00     0.021 C 
BRANCH  30  31
ATOM     31  C   UNL A   1      33.442  28.591  26.352  1.00  0.00     0.002 C 
BRANCH  31  32
ATOM     32  C   UNL A   1      34.692  29.236  26.959  1.00  0.00     0.002 C 
BRANCH  32  33
ATOM     33  C   UNL A   1      34.502  30.669  27.461  1.00  0.00     0.021 C 
BRANCH  33  34
ATOM     34  C   UNL A   1      35.658  31.202  28.301  1.00  0.00     0.116 C 
BRANCH  34  35
ATOM     35  N   UNL A   1      35.555  30.794  29.693  1.00  0.00    -0.352 N 
ATOM     36  C   UNL A   1      36.462  30.127  30.478  1.00  0.00     0.251 C 
ATOM     37  H   UNL A   1      34.709  31.031  30.138  1.00  0.00     0.163 HD
ATOM     38  O   UNL A   1      36.130  29.681  31.568  1.00  0.00    -0.269 OA
BRANCH  36  39
ATOM     39  C   UNL A   1      37.842  29.926  29.987  1.00  0.00     0.039 A 
ATOM     40  C   UNL A   1      38.880  29.823  30.916  1.00  0.00     0.014 A 
ATOM     41  C   UNL A   1      38.108  29.833  28.618  1.00  0.00     0.014 A 
ATOM     42  C   UNL A   1      40.176  29.549  30.474  1.00  0.00     0.010 A 
ATOM     43  C   UNL A   1      39.384  29.486  28.185  1.00  0.00     0.010 A 
ATOM     44  C   UNL A   1      40.429  29.332  29.109  1.00  0.00    -0.014 A 
BRANCH  44  45
ATOM     45  C   UNL A   1      41.770  28.911  28.635  1.00  0.00     0.031 A 
ATOM     46  C   UNL A   1      42.030  27.483  28.250  1.00  0.00     0.074 A 
ATOM     47  C   UNL A   1      42.778  29.806  28.627  1.00  0.00     0.049 A 
ATOM     48  N   UNL A   1      43.153  26.916  27.888  1.00  0.00    -0.248 NA
ATOM     49  C   UNL A   1      40.882  26.566  28.305  1.00  0.00     0.031 C 
ATOM     50  C   UNL A   1      42.665  31.208  29.029  1.00  0.00     0.029 A 
ATOM     51  N   UNL A   1      44.100  29.663  28.286  1.00  0.00    -0.354 N 
ATOM     52  C   UNL A   1      42.848  25.578  27.677  1.00  0.00     0.074 A 
ATOM     53  C   UNL A   1      41.450  25.405  28.012  1.00  0.00     0.031 C 
ATOM     54  C   UNL A   1      43.863  31.800  28.901  1.00  0.00     0.029 A 
ATOM     55  C   UNL A   1      44.836  30.810  28.451  1.00  0.00     0.049 A 
ATOM     56  H   UNL A   1      44.483  28.819  27.955  1.00  0.00     0.167 HD
ATOM     57  C   UNL A   1      43.654  24.587  27.224  1.00  0.00     0.037 A 
ATOM     58  C   UNL A   1      46.152  31.037  28.280  1.00  0.00     0.037 A 
ATOM     59  C   UNL A   1      45.045  24.764  26.894  1.00  0.00     0.049 A 
ATOM     60  C   UNL A   1      47.036  29.918  27.806  1.00  0.00     0.074 A 
ATOM     61  C   UNL A   1      45.933  23.837  26.377  1.00  0.00     0.029 A 
ATOM     62  N   UNL A   1      45.754  25.944  27.063  1.00  0.00    -0.354 N 
ATOM     63  N   UNL A   1      46.719  28.674  27.535  1.00  0.00    -0.248 NA
ATOM     64  C   UNL A   1      48.457  30.232  27.608  1.00  0.00     0.031 C 
ATOM     65  C   UNL A   1      47.192  24.439  26.290  1.00  0.00     0.029 A 
ATOM     66  C   UNL A   1      47.077  25.759  26.694  1.00  0.00     0.049 A 
ATOM     67  H   UNL A   1      45.373  26.788  27.397  1.00  0.00     0.167 HD
ATOM     68  C   UNL A   1      47.894  28.063  27.119  1.00  0.00     0.074 A 
ATOM     69  C   UNL A   1      48.927  29.078  27.154  1.00  0.00     0.031 C 
ATOM     70  C   UNL A   1      48.098  26.777  26.742  1.00  0.00     0.037 A 
BRANCH  57  71
ATOM     71  C   UNL A   1      43.045  23.221  27.070  1.00  0.00     0.057 A 
ATOM     72  C   UNL A   1      42.697  22.701  25.815  1.00  0.00     0.134 A 
ATOM     73  C   UNL A   1      42.812  22.410  28.188  1.00  0.00     0.134 A 
ATOM     74  F   UNL A   1      42.885  23.428  24.703  1.00  0.00    -0.206 F 
ATOM     75  C   UNL A   1      42.106  21.444  25.681  1.00  0.00     0.040 A 
ATOM     76  C   UNL A   1      42.251  21.138  28.065  1.00  0.00     0.040 A 
ATOM     77  F   UNL A   1      43.128  22.838  29.419  1.00  0.00    -0.206 F 
ATOM     78  C   UNL A   1      41.886  20.656  26.809  1.00  0.00     0.006 A 
ENDBRANCH  57  71
BRANCH  58  79
ATOM     79  C   UNL A   1      46.708  32.384  28.563  1.00  0.00     0.057 A 
ATOM     80  C   UNL A   1      46.791  33.361  27.564  1.00  0.00     0.134 A 
ATOM     81  C   UNL A   1      47.151  32.735  29.846  1.00  0.00     0.134 A 
ATOM     82  F   UNL A   1      46.398  33.081  26.313  1.00  0.00    -0.206 F 
ATOM     83  C   UNL A   1      47.304  34.632  27.826  1.00  0.00     0.040 A 
ATOM     84  C   UNL A   1      47.642  34.010  30.127  1.00  0.00     0.040 A 
ATOM     85  F   UNL A   1      47.088  31.847  30.850  1.00  0.00    -0.206 F 
ATOM     86  C   UNL A   1      47.725  34.962  29.114  1.00  0.00     0.006 A 
ENDBRANCH  58  79
BRANCH  70  87
ATOM     87  C   UNL A   1      49.489  26.396  26.321  1.00  0.00     0.057 A 
ATOM     88  C   UNL A   1      50.351  25.686  27.167  1.00  0.00     0.134 A 
ATOM     89  C   UNL A   1      49.956  26.706  25.037  1.00  0.00     0.134 A 
ATOM     90  F   UNL A   1      49.970  25.370  28.414  1.00  0.00    -0.206 F 
ATOM     91  C   UNL A   1      51.633  25.315  26.758  1.00  0.00     0.040 A 
ATOM     92  C   UNL A   1      51.225  26.316  24.606  1.00  0.00     0.040 A 
ATOM     93  F   UNL A   1      49.181  27.378  24.173  1.00  0.00    -0.206 F 
ATOM     94  C   UNL A   1      52.070  25.623  25.471  1.00  0.00     0.006 A 
ENDBRANCH  70  87
ENDBRANCH  44  45
ENDBRANCH  36  39
ENDBRANCH  34  35
ENDBRANCH  33  34
ENDBRANCH  32  33
ENDBRANCH  31  32
ENDBRANCH  30  31
ENDBRANCH   1  30
TORSDOF 19
ENDMDL
