MODEL 1
REMARK VINA RESULT:     -11.1      0.000      0.000
REMARK SMILES C[C@H](Oc1ccc(/C=C2/SC(=S)N(c3ccc(F)c(Cl)c3)C2=O)cc1)C(=O)NCCCCCCNC(=O)c1ccc(-c2c3nc(c(-c4c(F)cccc4F)c4ccc([nH]4)c(-c4c(F)cccc4F)c4nc(c(-c5c(F)cccc5F)c5ccc2[nH]5)C=C4)C=C3)cc1
REMARK SMILES IDX 30 1 29 2 28 3 26 4 27 5 2 7 1 8 3 9 4 10 5 11 25 12 6 13
REMARK SMILES IDX 24 14 7 15 8 16 9 17 10 18 22 19 11 20 13 21 23 22 12 23
REMARK SMILES IDX 14 24 15 25 21 26 16 27 19 28 17 29 20 30 18 31 31 32 32 33
REMARK SMILES IDX 33 34 34 35 35 36 36 37 37 39 38 40 39 41 91 42 40 43 90 44
REMARK SMILES IDX 41 45 42 46 43 47 84 48 44 49 89 50 83 51 85 52 45 53 88 54
REMARK SMILES IDX 82 55 81 56 46 58 72 59 55 60 71 61 56 62 59 63 70 64 86 65
REMARK SMILES IDX 57 66 58 67 69 69 87 70 60 71 47 72 48 73 53 74 49 75 50 76
REMARK SMILES IDX 52 77 54 78 51 79 73 80 74 81 79 82 75 83 76 84 78 85 80 86
REMARK SMILES IDX 77 87 61 88 62 89 67 90 63 91 64 92 66 93 68 94 65 95
REMARK H PARENT 28 6 35 38 85 57 59 68
REMARK Flexibility Score: inf
ROOT
ATOM      1  C   UNL A   1      39.911  29.091  27.378  1.00  0.00     0.021 C 
ENDROOT
BRANCH   1   2
ATOM      2  C   UNL A   1      38.395  29.250  27.475  1.00  0.00     0.116 C 
BRANCH   2   3
ATOM      3  N   UNL A   1      37.986  29.984  28.661  1.00  0.00    -0.353 N 
ATOM      4  C   UNL A   1      36.797  30.616  28.921  1.00  0.00     0.260 C 
ATOM      5  O   UNL A   1      36.651  31.139  30.029  1.00  0.00    -0.271 OA
ATOM      6  H   UNL A   1      38.656  30.032  29.379  1.00  0.00     0.163 HD
BRANCH   4   7
ATOM      7  C   UNL A   1      35.663  30.623  27.878  1.00  0.00     0.258 C 
ATOM      8  C   UNL A   1      35.142  32.056  27.752  1.00  0.00     0.064 C 
BRANCH   7   9
ATOM      9  O   UNL A   1      34.789  29.566  28.276  1.00  0.00    -0.481 OA
BRANCH   9  10
ATOM     10  C   UNL A   1      33.925  28.922  27.454  1.00  0.00     0.120 A 
ATOM     11  C   UNL A   1      32.652  28.460  27.757  1.00  0.00     0.047 A 
ATOM     12  C   UNL A   1      34.428  28.718  26.166  1.00  0.00     0.047 A 
ATOM     13  C   UNL A   1      31.952  27.668  26.834  1.00  0.00     0.012 A 
ATOM     14  C   UNL A   1      33.718  27.966  25.231  1.00  0.00     0.012 A 
ATOM     15  C   UNL A   1      32.503  27.371  25.584  1.00  0.00    -0.024 A 
BRANCH  15  16
ATOM     16  C   UNL A   1      31.789  26.478  24.661  1.00  0.00     0.029 C 
ATOM     17  C   UNL A   1      32.082  25.190  24.417  1.00  0.00     0.081 C 
ATOM     18  S   UNL A   1      31.250  24.258  23.234  1.00  0.00    -0.054 SA
ATOM     19  C   UNL A   1      33.163  24.364  25.033  1.00  0.00     0.270 C 
ATOM     20  C   UNL A   1      32.376  22.904  23.358  1.00  0.00     0.152 C 
ATOM     21  N   UNL A   1      33.352  23.190  24.302  1.00  0.00    -0.261 N 
ATOM     22  O   UNL A   1      33.783  24.716  26.028  1.00  0.00    -0.268 OA
ATOM     23  S   UNL A   1      32.113  21.506  22.479  1.00  0.00    -0.051 S 
BRANCH  21  24
ATOM     24  C   UNL A   1      34.525  22.399  24.542  1.00  0.00     0.052 A 
ATOM     25  C   UNL A   1      35.802  22.981  24.487  1.00  0.00     0.030 A 
ATOM     26  C   UNL A   1      34.438  21.006  24.702  1.00  0.00     0.050 A 
ATOM     27  C   UNL A   1      36.954  22.199  24.554  1.00  0.00     0.043 A 
ATOM     28  C   UNL A   1      35.597  20.223  24.780  1.00  0.00     0.078 A 
ATOM     29  C   UNL A   1      36.847  20.822  24.694  1.00  0.00     0.141 A 
ATOM     30  Cl  UNL A   1      35.458  18.513  24.919  1.00  0.00    -0.081 Cl
ATOM     31  F   UNL A   1      37.967  20.086  24.720  1.00  0.00    -0.205 F 
ENDBRANCH  21  24
ENDBRANCH  15  16
ENDBRANCH   9  10
ENDBRANCH   7   9
ENDBRANCH   4   7
ENDBRANCH   2   3
ENDBRANCH   1   2
BRANCH   1  32
ATOM     32  C   UNL A   1      40.405  27.648  27.236  1.00  0.00     0.002 C 
BRANCH  32  33
ATOM     33  C   UNL A   1      40.007  26.697  28.371  1.00  0.00     0.002 C 
BRANCH  33  34
ATOM     34  C   UNL A   1      39.303  25.404  27.945  1.00  0.00     0.021 C 
BRANCH  34  35
ATOM     35  C   UNL A   1      39.583  24.940  26.516  1.00  0.00     0.116 C 
BRANCH  35  36
ATOM     36  N   UNL A   1      40.356  23.709  26.469  1.00  0.00    -0.352 N 
ATOM     37  C   UNL A   1      41.712  23.521  26.353  1.00  0.00     0.251 C 
ATOM     38  H   UNL A   1      39.825  22.882  26.529  1.00  0.00     0.163 HD
ATOM     39  O   UNL A   1      42.162  22.393  26.176  1.00  0.00    -0.269 OA
BRANCH  37  40
ATOM     40  C   UNL A   1      42.638  24.672  26.420  1.00  0.00     0.039 A 
ATOM     41  C   UNL A   1      43.211  25.014  27.649  1.00  0.00     0.014 A 
ATOM     42  C   UNL A   1      42.917  25.438  25.288  1.00  0.00     0.014 A 
ATOM     43  C   UNL A   1      44.125  26.072  27.727  1.00  0.00     0.010 A 
ATOM     44  C   UNL A   1      43.866  26.456  25.362  1.00  0.00     0.010 A 
ATOM     45  C   UNL A   1      44.493  26.778  26.573  1.00  0.00    -0.014 A 
BRANCH  45  46
ATOM     46  C   UNL A   1      45.553  27.822  26.591  1.00  0.00     0.031 A 
ATOM     47  C   UNL A   1      45.203  29.281  26.737  1.00  0.00     0.074 A 
ATOM     48  C   UNL A   1      46.835  27.470  26.365  1.00  0.00     0.049 A 
ATOM     49  N   UNL A   1      45.992  30.326  26.708  1.00  0.00    -0.248 NA
ATOM     50  C   UNL A   1      43.778  29.609  26.900  1.00  0.00     0.031 C 
ATOM     51  C   UNL A   1      47.308  26.108  26.115  1.00  0.00     0.029 A 
ATOM     52  N   UNL A   1      47.974  28.234  26.293  1.00  0.00    -0.354 N 
ATOM     53  C   UNL A   1      45.159  31.432  26.826  1.00  0.00     0.074 A 
ATOM     54  C   UNL A   1      43.801  30.933  26.877  1.00  0.00     0.031 C 
ATOM     55  C   UNL A   1      48.640  26.127  25.949  1.00  0.00     0.029 A 
ATOM     56  C   UNL A   1      49.113  27.504  26.053  1.00  0.00     0.049 A 
ATOM     57  H   UNL A   1      47.974  29.213  26.404  1.00  0.00     0.167 HD
ATOM     58  C   UNL A   1      45.491  32.743  26.911  1.00  0.00     0.037 A 
ATOM     59  C   UNL A   1      50.395  27.895  25.937  1.00  0.00     0.037 A 
ATOM     60  C   UNL A   1      46.841  33.244  26.905  1.00  0.00     0.049 A 
ATOM     61  C   UNL A   1      50.747  29.348  26.082  1.00  0.00     0.074 A 
ATOM     62  C   UNL A   1      47.279  34.545  27.086  1.00  0.00     0.029 A 
ATOM     63  N   UNL A   1      47.970  32.467  26.703  1.00  0.00    -0.354 N 
ATOM     64  N   UNL A   1      49.956  30.371  26.292  1.00  0.00    -0.248 NA
ATOM     65  C   UNL A   1      52.172  29.699  25.981  1.00  0.00     0.031 C 
ATOM     66  C   UNL A   1      48.673  34.559  26.966  1.00  0.00     0.029 A 
ATOM     67  C   UNL A   1      49.104  33.263  26.741  1.00  0.00     0.049 A 
ATOM     68  H   UNL A   1      47.967  31.494  26.556  1.00  0.00     0.167 HD
ATOM     69  C   UNL A   1      50.785  31.482  26.370  1.00  0.00     0.074 A 
ATOM     70  C   UNL A   1      52.142  31.007  26.197  1.00  0.00     0.031 C 
ATOM     71  C   UNL A   1      50.450  32.780  26.569  1.00  0.00     0.037 A 
BRANCH  58  72
ATOM     72  C   UNL A   1      44.369  33.731  27.041  1.00  0.00     0.057 A 
ATOM     73  C   UNL A   1      43.842  34.083  28.290  1.00  0.00     0.134 A 
ATOM     74  C   UNL A   1      43.833  34.359  25.911  1.00  0.00     0.134 A 
ATOM     75  F   UNL A   1      44.308  33.512  29.411  1.00  0.00    -0.206 F 
ATOM     76  C   UNL A   1      42.800  35.004  28.409  1.00  0.00     0.040 A 
ATOM     77  C   UNL A   1      42.806  35.299  26.019  1.00  0.00     0.040 A 
ATOM     78  F   UNL A   1      44.300  34.075  24.686  1.00  0.00    -0.206 F 
ATOM     79  C   UNL A   1      42.282  35.619  27.270  1.00  0.00     0.006 A 
ENDBRANCH  58  72
BRANCH  59  80
ATOM     80  C   UNL A   1      51.456  26.883  25.717  1.00  0.00     0.057 A 
ATOM     81  C   UNL A   1      52.008  26.181  26.796  1.00  0.00     0.134 A 
ATOM     82  C   UNL A   1      51.935  26.586  24.437  1.00  0.00     0.134 A 
ATOM     83  F   UNL A   1      51.598  26.437  28.047  1.00  0.00    -0.206 F 
ATOM     84  C   UNL A   1      53.008  25.227  26.611  1.00  0.00     0.040 A 
ATOM     85  C   UNL A   1      52.922  25.621  24.235  1.00  0.00     0.040 A 
ATOM     86  F   UNL A   1      51.438  27.219  23.364  1.00  0.00    -0.206 F 
ATOM     87  C   UNL A   1      53.465  24.942  25.326  1.00  0.00     0.006 A 
ENDBRANCH  59  80
BRANCH  71  88
ATOM     88  C   UNL A   1      51.569  33.773  26.632  1.00  0.00     0.057 A 
ATOM     89  C   UNL A   1      52.012  34.457  25.494  1.00  0.00     0.134 A 
ATOM     90  C   UNL A   1      52.191  34.072  27.852  1.00  0.00     0.134 A 
ATOM     91  F   UNL A   1      51.468  34.204  24.294  1.00  0.00    -0.206 F 
ATOM     92  C   UNL A   1      53.047  35.391  25.562  1.00  0.00     0.040 A 
ATOM     93  C   UNL A   1      53.212  35.019  27.936  1.00  0.00     0.040 A 
ATOM     94  F   UNL A   1      51.809  33.455  28.980  1.00  0.00    -0.206 F 
ATOM     95  C   UNL A   1      53.645  35.678  26.787  1.00  0.00     0.006 A 
ENDBRANCH  71  88
ENDBRANCH  45  46
ENDBRANCH  37  40
ENDBRANCH  35  36
ENDBRANCH  34  35
ENDBRANCH  33  34
ENDBRANCH  32  33
ENDBRANCH   1  32
TORSDOF 17
ENDMDL
MODEL 2
REMARK VINA RESULT:     -10.9      6.703     11.841
REMARK SMILES C[C@H](Oc1ccc(/C=C2/SC(=S)N(c3ccc(F)c(Cl)c3)C2=O)cc1)C(=O)NCCCCCCNC(=O)c1ccc(-c2c3nc(c(-c4c(F)cccc4F)c4ccc([nH]4)c(-c4c(F)cccc4F)c4nc(c(-c5c(F)cccc5F)c5ccc2[nH]5)C=C4)C=C3)cc1
REMARK SMILES IDX 30 1 29 2 28 3 26 4 27 5 2 7 1 8 3 9 4 10 5 11 25 12 6 13
REMARK SMILES IDX 24 14 7 15 8 16 9 17 10 18 22 19 11 20 13 21 23 22 12 23
REMARK SMILES IDX 14 24 15 25 21 26 16 27 19 28 17 29 20 30 18 31 31 32 32 33
REMARK SMILES IDX 33 34 34 35 35 36 36 37 37 39 38 40 39 41 91 42 40 43 90 44
REMARK SMILES IDX 41 45 42 46 43 47 84 48 44 49 89 50 83 51 85 52 45 53 88 54
REMARK SMILES IDX 82 55 81 56 46 58 72 59 55 60 71 61 56 62 59 63 70 64 86 65
REMARK SMILES IDX 57 66 58 67 69 69 87 70 60 71 47 72 48 73 53 74 49 75 50 76
REMARK SMILES IDX 52 77 54 78 51 79 73 80 74 81 79 82 75 83 76 84 78 85 80 86
REMARK SMILES IDX 77 87 61 88 62 89 67 90 63 91 64 92 66 93 68 94 65 95
REMARK H PARENT 28 6 35 38 85 57 59 68
REMARK Flexibility Score: inf
ROOT
ATOM      1  C   UNL A   1      33.316  28.844  24.900  1.00  0.00     0.021 C 
ENDROOT
BRANCH   1   2
ATOM      2  C   UNL A   1      33.648  27.462  24.342  1.00  0.00     0.116 C 
BRANCH   2   3
ATOM      3  N   UNL A   1      32.607  26.485  24.615  1.00  0.00    -0.353 N 
ATOM      4  C   UNL A   1      32.409  25.250  24.054  1.00  0.00     0.260 C 
ATOM      5  O   UNL A   1      31.477  24.562  24.482  1.00  0.00    -0.271 OA
ATOM      6  H   UNL A   1      31.952  26.747  25.302  1.00  0.00     0.163 HD
BRANCH   4   7
ATOM      7  C   UNL A   1      33.357  24.719  22.961  1.00  0.00     0.258 C 
ATOM      8  C   UNL A   1      32.891  25.278  21.615  1.00  0.00     0.064 C 
BRANCH   7   9
ATOM      9  O   UNL A   1      33.418  23.309  23.178  1.00  0.00    -0.481 OA
BRANCH   9  10
ATOM     10  C   UNL A   1      34.487  22.648  23.688  1.00  0.00     0.120 A 
ATOM     11  C   UNL A   1      34.491  21.699  24.701  1.00  0.00     0.047 A 
ATOM     12  C   UNL A   1      35.700  23.010  23.096  1.00  0.00     0.047 A 
ATOM     13  C   UNL A   1      35.707  21.231  25.221  1.00  0.00     0.012 A 
ATOM     14  C   UNL A   1      36.909  22.515  23.583  1.00  0.00     0.012 A 
ATOM     15  C   UNL A   1      36.926  21.676  24.701  1.00  0.00    -0.024 A 
BRANCH  15  16
ATOM     16  C   UNL A   1      38.188  21.234  25.309  1.00  0.00     0.029 C 
ATOM     17  C   UNL A   1      38.991  21.969  26.097  1.00  0.00     0.081 C 
ATOM     18  S   UNL A   1      40.507  21.392  26.672  1.00  0.00    -0.054 SA
ATOM     19  C   UNL A   1      38.784  23.374  26.559  1.00  0.00     0.270 C 
ATOM     20  C   UNL A   1      40.978  22.966  27.318  1.00  0.00     0.152 C 
ATOM     21  N   UNL A   1      39.968  23.890  27.087  1.00  0.00    -0.261 N 
ATOM     22  O   UNL A   1      37.713  23.959  26.451  1.00  0.00    -0.268 OA
ATOM     23  S   UNL A   1      42.417  23.139  28.152  1.00  0.00    -0.051 S 
BRANCH  21  24
ATOM     24  C   UNL A   1      40.073  25.302  27.318  1.00  0.00     0.052 A 
ATOM     25  C   UNL A   1      39.379  25.906  28.379  1.00  0.00     0.030 A 
ATOM     26  C   UNL A   1      40.758  26.134  26.416  1.00  0.00     0.050 A 
ATOM     27  C   UNL A   1      39.339  27.292  28.517  1.00  0.00     0.043 A 
ATOM     28  C   UNL A   1      40.725  27.526  26.563  1.00  0.00     0.078 A 
ATOM     29  C   UNL A   1      40.006  28.098  27.605  1.00  0.00     0.141 A 
ATOM     30  Cl  UNL A   1      41.527  28.521  25.409  1.00  0.00    -0.081 Cl
ATOM     31  F   UNL A   1      39.924  29.430  27.736  1.00  0.00    -0.205 F 
ENDBRANCH  21  24
ENDBRANCH  15  16
ENDBRANCH   9  10
ENDBRANCH   7   9
ENDBRANCH   4   7
ENDBRANCH   2   3
ENDBRANCH   1   2
BRANCH   1  32
ATOM     32  C   UNL A   1      33.914  29.148  26.277  1.00  0.00     0.002 C 
BRANCH  32  33
ATOM     33  C   UNL A   1      33.354  30.386  26.986  1.00  0.00     0.002 C 
BRANCH  33  34
ATOM     34  C   UNL A   1      34.278  31.044  28.016  1.00  0.00     0.021 C 
BRANCH  34  35
ATOM     35  C   UNL A   1      34.661  32.495  27.727  1.00  0.00     0.116 C 
BRANCH  35  36
ATOM     36  N   UNL A   1      33.758  33.448  28.351  1.00  0.00    -0.352 N 
ATOM     37  C   UNL A   1      33.763  33.966  29.624  1.00  0.00     0.251 C 
ATOM     38  H   UNL A   1      33.029  33.771  27.774  1.00  0.00     0.163 HD
ATOM     39  O   UNL A   1      32.819  34.648  30.013  1.00  0.00    -0.269 OA
BRANCH  37  40
ATOM     40  C   UNL A   1      34.893  33.696  30.540  1.00  0.00     0.039 A 
ATOM     41  C   UNL A   1      34.822  32.596  31.402  1.00  0.00     0.014 A 
ATOM     42  C   UNL A   1      36.004  34.537  30.580  1.00  0.00     0.014 A 
ATOM     43  C   UNL A   1      35.898  32.296  32.245  1.00  0.00     0.010 A 
ATOM     44  C   UNL A   1      37.092  34.204  31.384  1.00  0.00     0.010 A 
ATOM     45  C   UNL A   1      37.063  33.075  32.214  1.00  0.00    -0.014 A 
BRANCH  45  46
ATOM     46  C   UNL A   1      38.275  32.715  32.999  1.00  0.00     0.031 A 
ATOM     47  C   UNL A   1      39.387  31.906  32.383  1.00  0.00     0.074 A 
ATOM     48  C   UNL A   1      38.331  33.024  34.310  1.00  0.00     0.049 A 
ATOM     49  N   UNL A   1      40.481  31.450  32.939  1.00  0.00    -0.248 NA
ATOM     50  C   UNL A   1      39.230  31.530  30.969  1.00  0.00     0.031 C 
ATOM     51  C   UNL A   1      37.288  33.723  35.062  1.00  0.00     0.029 A 
ATOM     52  N   UNL A   1      39.303  32.775  35.248  1.00  0.00    -0.354 N 
ATOM     53  C   UNL A   1      41.130  30.718  31.953  1.00  0.00     0.074 A 
ATOM     54  C   UNL A   1      40.283  30.748  30.779  1.00  0.00     0.031 C 
ATOM     55  C   UNL A   1      37.688  33.875  36.335  1.00  0.00     0.029 A 
ATOM     56  C   UNL A   1      39.002  33.261  36.497  1.00  0.00     0.049 A 
ATOM     57  H   UNL A   1      40.138  32.294  35.044  1.00  0.00     0.167 HD
ATOM     58  C   UNL A   1      42.333  30.096  32.005  1.00  0.00     0.037 A 
ATOM     59  C   UNL A   1      39.705  33.225  37.644  1.00  0.00     0.037 A 
ATOM     60  C   UNL A   1      43.201  30.097  33.153  1.00  0.00     0.049 A 
ATOM     61  C   UNL A   1      41.058  32.572  37.668  1.00  0.00     0.074 A 
ATOM     62  C   UNL A   1      44.481  29.580  33.268  1.00  0.00     0.029 A 
ATOM     63  N   UNL A   1      42.878  30.638  34.386  1.00  0.00    -0.354 N 
ATOM     64  N   UNL A   1      41.700  31.969  36.699  1.00  0.00    -0.248 NA
ATOM     65  C   UNL A   1      41.787  32.603  38.945  1.00  0.00     0.031 C 
ATOM     66  C   UNL A   1      44.921  29.784  34.580  1.00  0.00     0.029 A 
ATOM     67  C   UNL A   1      43.928  30.455  35.273  1.00  0.00     0.049 A 
ATOM     68  H   UNL A   1      42.029  31.087  34.601  1.00  0.00     0.167 HD
ATOM     69  C   UNL A   1      42.913  31.568  37.239  1.00  0.00     0.074 A 
ATOM     70  C   UNL A   1      42.924  32.007  38.620  1.00  0.00     0.031 C 
ATOM     71  C   UNL A   1      43.929  30.897  36.644  1.00  0.00     0.037 A 
BRANCH  58  72
ATOM     72  C   UNL A   1      42.792  29.378  30.770  1.00  0.00     0.057 A 
ATOM     73  C   UNL A   1      43.417  30.056  29.716  1.00  0.00     0.134 A 
ATOM     74  C   UNL A   1      42.637  27.991  30.648  1.00  0.00     0.134 A 
ATOM     75  F   UNL A   1      43.589  31.385  29.769  1.00  0.00    -0.206 F 
ATOM     76  C   UNL A   1      43.845  29.385  28.569  1.00  0.00     0.040 A 
ATOM     77  C   UNL A   1      43.082  27.306  29.515  1.00  0.00     0.040 A 
ATOM     78  F   UNL A   1      42.057  27.281  31.627  1.00  0.00    -0.206 F 
ATOM     79  C   UNL A   1      43.682  28.004  28.469  1.00  0.00     0.006 A 
ENDBRANCH  58  72
BRANCH  59  80
ATOM     80  C   UNL A   1      39.161  33.874  38.862  1.00  0.00     0.057 A 
ATOM     81  C   UNL A   1      38.310  33.173  39.725  1.00  0.00     0.134 A 
ATOM     82  C   UNL A   1      39.481  35.194  39.195  1.00  0.00     0.134 A 
ATOM     83  F   UNL A   1      37.957  31.910  39.444  1.00  0.00    -0.206 F 
ATOM     84  C   UNL A   1      37.786  33.766  40.873  1.00  0.00     0.040 A 
ATOM     85  C   UNL A   1      38.977  35.794  40.351  1.00  0.00     0.040 A 
ATOM     86  F   UNL A   1      40.298  35.913  38.412  1.00  0.00    -0.206 F 
ATOM     87  C   UNL A   1      38.123  35.080  41.190  1.00  0.00     0.006 A 
ENDBRANCH  59  80
BRANCH  71  88
ATOM     88  C   UNL A   1      45.143  30.616  37.474  1.00  0.00     0.057 A 
ATOM     89  C   UNL A   1      46.117  31.593  37.708  1.00  0.00     0.134 A 
ATOM     90  C   UNL A   1      45.326  29.361  38.071  1.00  0.00     0.134 A 
ATOM     91  F   UNL A   1      46.007  32.809  37.152  1.00  0.00    -0.206 F 
ATOM     92  C   UNL A   1      47.240  31.329  38.494  1.00  0.00     0.040 A 
ATOM     93  C   UNL A   1      46.434  29.092  38.875  1.00  0.00     0.040 A 
ATOM     94  F   UNL A   1      44.426  28.383  37.889  1.00  0.00    -0.206 F 
ATOM     95  C   UNL A   1      47.397  30.077  39.085  1.00  0.00     0.006 A 
ENDBRANCH  71  88
ENDBRANCH  45  46
ENDBRANCH  37  40
ENDBRANCH  35  36
ENDBRANCH  34  35
ENDBRANCH  33  34
ENDBRANCH  32  33
ENDBRANCH   1  32
TORSDOF 17
ENDMDL
MODEL 3
REMARK VINA RESULT:     -10.9      7.725     12.100
REMARK SMILES C[C@H](Oc1ccc(/C=C2/SC(=S)N(c3ccc(F)c(Cl)c3)C2=O)cc1)C(=O)NCCCCCCNC(=O)c1ccc(-c2c3nc(c(-c4c(F)cccc4F)c4ccc([nH]4)c(-c4c(F)cccc4F)c4nc(c(-c5c(F)cccc5F)c5ccc2[nH]5)C=C4)C=C3)cc1
REMARK SMILES IDX 30 1 29 2 28 3 26 4 27 5 2 7 1 8 3 9 4 10 5 11 25 12 6 13
REMARK SMILES IDX 24 14 7 15 8 16 9 17 10 18 22 19 11 20 13 21 23 22 12 23
REMARK SMILES IDX 14 24 15 25 21 26 16 27 19 28 17 29 20 30 18 31 31 32 32 33
REMARK SMILES IDX 33 34 34 35 35 36 36 37 37 39 38 40 39 41 91 42 40 43 90 44
REMARK SMILES IDX 41 45 42 46 43 47 84 48 44 49 89 50 83 51 85 52 45 53 88 54
REMARK SMILES IDX 82 55 81 56 46 58 72 59 55 60 71 61 56 62 59 63 70 64 86 65
REMARK SMILES IDX 57 66 58 67 69 69 87 70 60 71 47 72 48 73 53 74 49 75 50 76
REMARK SMILES IDX 52 77 54 78 51 79 73 80 74 81 79 82 75 83 76 84 78 85 80 86
REMARK SMILES IDX 77 87 61 88 62 89 67 90 63 91 64 92 66 93 68 94 65 95
REMARK H PARENT 28 6 35 38 85 57 59 68
REMARK Flexibility Score: inf
ROOT
ATOM      1  C   UNL A   1      33.265  28.993  25.135  1.00  0.00     0.021 C 
ENDROOT
BRANCH   1   2
ATOM      2  C   UNL A   1      33.492  27.673  24.400  1.00  0.00     0.116 C 
BRANCH   2   3
ATOM      3  N   UNL A   1      32.349  26.779  24.493  1.00  0.00    -0.353 N 
ATOM      4  C   UNL A   1      32.107  25.610  23.818  1.00  0.00     0.260 C 
ATOM      5  O   UNL A   1      31.081  24.983  24.097  1.00  0.00    -0.271 OA
ATOM      6  H   UNL A   1      31.652  27.051  25.131  1.00  0.00     0.163 HD
BRANCH   4   7
ATOM      7  C   UNL A   1      33.115  25.073  22.783  1.00  0.00     0.258 C 
ATOM      8  C   UNL A   1      32.755  25.665  21.419  1.00  0.00     0.064 C 
BRANCH   7   9
ATOM      9  O   UNL A   1      33.127  23.658  22.980  1.00  0.00    -0.481 OA
BRANCH   9  10
ATOM     10  C   UNL A   1      34.178  22.952  23.462  1.00  0.00     0.120 A 
ATOM     11  C   UNL A   1      34.156  21.948  24.421  1.00  0.00     0.047 A 
ATOM     12  C   UNL A   1      35.404  23.323  22.903  1.00  0.00     0.047 A 
ATOM     13  C   UNL A   1      35.358  21.431  24.927  1.00  0.00     0.012 A 
ATOM     14  C   UNL A   1      36.599  22.781  23.374  1.00  0.00     0.012 A 
ATOM     15  C   UNL A   1      36.590  21.882  24.444  1.00  0.00    -0.024 A 
BRANCH  15  16
ATOM     16  C   UNL A   1      37.837  21.384  25.039  1.00  0.00     0.029 C 
ATOM     17  C   UNL A   1      38.634  22.052  25.890  1.00  0.00     0.081 C 
ATOM     18  S   UNL A   1      40.134  21.420  26.446  1.00  0.00    -0.054 SA
ATOM     19  C   UNL A   1      38.431  23.422  26.449  1.00  0.00     0.270 C 
ATOM     20  C   UNL A   1      40.609  22.938  27.211  1.00  0.00     0.152 C 
ATOM     21  N   UNL A   1      39.611  23.887  27.033  1.00  0.00    -0.261 N 
ATOM     22  O   UNL A   1      37.368  24.024  26.366  1.00  0.00    -0.268 OA
ATOM     23  S   UNL A   1      42.034  23.036  28.080  1.00  0.00    -0.051 S 
BRANCH  21  24
ATOM     24  C   UNL A   1      39.725  25.278  27.366  1.00  0.00     0.052 A 
ATOM     25  C   UNL A   1      40.458  26.151  26.545  1.00  0.00     0.030 A 
ATOM     26  C   UNL A   1      39.226  25.774  28.582  1.00  0.00     0.050 A 
ATOM     27  C   UNL A   1      40.715  27.463  26.938  1.00  0.00     0.043 A 
ATOM     28  C   UNL A   1      39.477  27.095  28.970  1.00  0.00     0.078 A 
ATOM     29  C   UNL A   1      40.229  27.929  28.152  1.00  0.00     0.141 A 
ATOM     30  Cl  UNL A   1      38.901  27.657  30.492  1.00  0.00    -0.081 Cl
ATOM     31  F   UNL A   1      40.520  29.183  28.527  1.00  0.00    -0.205 F 
ENDBRANCH  21  24
ENDBRANCH  15  16
ENDBRANCH   9  10
ENDBRANCH   7   9
ENDBRANCH   4   7
ENDBRANCH   2   3
ENDBRANCH   1   2
BRANCH   1  32
ATOM     32  C   UNL A   1      33.428  28.924  26.657  1.00  0.00     0.002 C 
BRANCH  32  33
ATOM     33  C   UNL A   1      34.438  29.905  27.260  1.00  0.00     0.002 C 
BRANCH  33  34
ATOM     34  C   UNL A   1      35.792  29.310  27.662  1.00  0.00     0.021 C 
BRANCH  34  35
ATOM     35  C   UNL A   1      36.344  29.776  29.008  1.00  0.00     0.116 C 
BRANCH  35  36
ATOM     36  N   UNL A   1      35.634  30.930  29.536  1.00  0.00    -0.352 N 
ATOM     37  C   UNL A   1      35.811  31.614  30.714  1.00  0.00     0.251 C 
ATOM     38  H   UNL A   1      34.913  31.274  28.960  1.00  0.00     0.163 HD
ATOM     39  O   UNL A   1      35.004  32.475  31.052  1.00  0.00    -0.269 OA
BRANCH  37  40
ATOM     40  C   UNL A   1      36.961  31.309  31.593  1.00  0.00     0.039 A 
ATOM     41  C   UNL A   1      38.201  31.899  31.323  1.00  0.00     0.014 A 
ATOM     42  C   UNL A   1      36.835  30.419  32.660  1.00  0.00     0.014 A 
ATOM     43  C   UNL A   1      39.291  31.660  32.168  1.00  0.00     0.010 A 
ATOM     44  C   UNL A   1      37.910  30.225  33.526  1.00  0.00     0.010 A 
ATOM     45  C   UNL A   1      39.144  30.851  33.304  1.00  0.00    -0.014 A 
BRANCH  45  46
ATOM     46  C   UNL A   1      40.240  30.674  34.295  1.00  0.00     0.031 A 
ATOM     47  C   UNL A   1      41.067  29.415  34.320  1.00  0.00     0.074 A 
ATOM     48  C   UNL A   1      40.425  31.605  35.252  1.00  0.00     0.049 A 
ATOM     49  N   UNL A   1      42.016  29.067  35.153  1.00  0.00    -0.248 NA
ATOM     50  C   UNL A   1      40.764  28.400  33.299  1.00  0.00     0.031 C 
ATOM     51  C   UNL A   1      39.639  32.830  35.406  1.00  0.00     0.029 A 
ATOM     52  N   UNL A   1      41.326  31.659  36.287  1.00  0.00    -0.354 N 
ATOM     53  C   UNL A   1      42.406  27.789  34.772  1.00  0.00     0.074 A 
ATOM     54  C   UNL A   1      41.556  27.403  33.665  1.00  0.00     0.031 C 
ATOM     55  C   UNL A   1      40.110  33.528  36.452  1.00  0.00     0.029 A 
ATOM     56  C   UNL A   1      41.213  32.790  37.059  1.00  0.00     0.049 A 
ATOM     57  H   UNL A   1      41.991  30.952  36.460  1.00  0.00     0.167 HD
ATOM     58  C   UNL A   1      43.396  27.014  35.276  1.00  0.00     0.037 A 
ATOM     59  C   UNL A   1      41.921  33.193  38.130  1.00  0.00     0.037 A 
ATOM     60  C   UNL A   1      44.272  27.407  36.348  1.00  0.00     0.049 A 
ATOM     61  C   UNL A   1      43.046  32.340  38.644  1.00  0.00     0.074 A 
ATOM     62  C   UNL A   1      45.367  26.730  36.861  1.00  0.00     0.029 A 
ATOM     63  N   UNL A   1      44.153  28.580  37.075  1.00  0.00    -0.354 N 
ATOM     64  N   UNL A   1      43.464  31.178  38.209  1.00  0.00    -0.248 NA
ATOM     65  C   UNL A   1      43.801  32.861  39.794  1.00  0.00     0.031 C 
ATOM     66  C   UNL A   1      45.892  27.482  37.917  1.00  0.00     0.029 A 
ATOM     67  C   UNL A   1      45.144  28.640  38.042  1.00  0.00     0.049 A 
ATOM     68  H   UNL A   1      43.465  29.269  36.927  1.00  0.00     0.167 HD
ATOM     69  C   UNL A   1      44.542  30.837  39.015  1.00  0.00     0.074 A 
ATOM     70  C   UNL A   1      44.721  31.921  39.958  1.00  0.00     0.031 C 
ATOM     71  C   UNL A   1      45.314  29.724  38.975  1.00  0.00     0.037 A 
BRANCH  58  72
ATOM     72  C   UNL A   1      43.598  25.663  34.655  1.00  0.00     0.057 A 
ATOM     73  C   UNL A   1      42.939  24.526  35.141  1.00  0.00     0.134 A 
ATOM     74  C   UNL A   1      44.433  25.503  33.543  1.00  0.00     0.134 A 
ATOM     75  F   UNL A   1      42.131  24.612  36.208  1.00  0.00    -0.206 F 
ATOM     76  C   UNL A   1      43.128  23.270  34.561  1.00  0.00     0.040 A 
ATOM     77  C   UNL A   1      44.611  24.256  32.940  1.00  0.00     0.040 A 
ATOM     78  F   UNL A   1      45.084  26.554  33.022  1.00  0.00    -0.206 F 
ATOM     79  C   UNL A   1      43.962  23.134  33.453  1.00  0.00     0.006 A 
ENDBRANCH  58  72
BRANCH  59  80
ATOM     80  C   UNL A   1      41.618  34.500  38.762  1.00  0.00     0.057 A 
ATOM     81  C   UNL A   1      42.254  35.669  38.327  1.00  0.00     0.134 A 
ATOM     82  C   UNL A   1      40.688  34.615  39.800  1.00  0.00     0.134 A 
ATOM     83  F   UNL A   1      43.167  35.614  37.346  1.00  0.00    -0.206 F 
ATOM     84  C   UNL A   1      41.985  36.907  38.910  1.00  0.00     0.040 A 
ATOM     85  C   UNL A   1      40.395  35.850  40.381  1.00  0.00     0.040 A 
ATOM     86  F   UNL A   1      40.040  33.532  40.254  1.00  0.00    -0.206 F 
ATOM     87  C   UNL A   1      41.049  37.000  39.938  1.00  0.00     0.006 A 
ENDBRANCH  59  80
BRANCH  71  88
ATOM     88  C   UNL A   1      46.436  29.634  39.963  1.00  0.00     0.057 A 
ATOM     89  C   UNL A   1      46.272  29.019  41.209  1.00  0.00     0.134 A 
ATOM     90  C   UNL A   1      47.704  30.144  39.653  1.00  0.00     0.134 A 
ATOM     91  F   UNL A   1      45.078  28.526  41.571  1.00  0.00    -0.206 F 
ATOM     92  C   UNL A   1      47.325  28.926  42.120  1.00  0.00     0.040 A 
ATOM     93  C   UNL A   1      48.770  30.039  40.547  1.00  0.00     0.040 A 
ATOM     94  F   UNL A   1      47.928  30.742  38.473  1.00  0.00    -0.206 F 
ATOM     95  C   UNL A   1      48.580  29.433  41.788  1.00  0.00     0.006 A 
ENDBRANCH  71  88
ENDBRANCH  45  46
ENDBRANCH  37  40
ENDBRANCH  35  36
ENDBRANCH  34  35
ENDBRANCH  33  34
ENDBRANCH  32  33
ENDBRANCH   1  32
TORSDOF 17
ENDMDL
