MODEL 1
REMARK VINA RESULT:     -12.0      0.000      0.000
REMARK SMILES COc1ccc(C)cc1[C@@H](C)NC(=O)CC1(C(=O)NCCCCCCNC(=O)c2ccc(-c3c4nc(c(-c5c(F)cccc5F)c5ccc([nH]5)c(-c5c(F)cccc5F)c5nc(c(-c6c(F)cccc6F)c6ccc3[nH]6)C=C5)C=C4)cc2)CCCC1
REMARK SMILES IDX 21 1 20 2 19 3 17 4 18 5 16 7 83 8 86 9 84 10 85 11 15 12
REMARK SMILES IDX 13 13 12 14 14 16 10 17 11 18 9 19 3 20 4 21 5 22 8 23 6 24
REMARK SMILES IDX 7 25 2 26 1 27 22 28 23 29 24 30 25 31 26 32 27 33 28 35
REMARK SMILES IDX 29 36 30 37 82 38 31 39 81 40 32 41 33 42 34 43 75 44 35 45
REMARK SMILES IDX 80 46 74 47 76 48 36 49 79 50 73 51 72 52 37 54 63 55 46 56
REMARK SMILES IDX 62 57 47 58 50 59 61 60 77 61 48 62 49 63 60 65 78 66 51 67
REMARK SMILES IDX 38 68 39 69 44 70 40 71 41 72 43 73 45 74 42 75 64 76 65 77
REMARK SMILES IDX 70 78 66 79 67 80 69 81 71 82 68 83 52 84 53 85 58 86 54 87
REMARK SMILES IDX 55 88 57 89 59 90 56 91
REMARK H PARENT 19 6 12 15 26 34 76 53 50 64
REMARK Flexibility Score: inf
ROOT
ATOM      1  C   UNL A   1      36.033  19.621  25.000  1.00  0.00     0.021 C 
ENDROOT
BRANCH   1   2
ATOM      2  C   UNL A   1      35.118  20.821  24.755  1.00  0.00     0.116 C 
BRANCH   2   3
ATOM      3  N   UNL A   1      33.723  20.456  24.824  1.00  0.00    -0.356 N 
ATOM      4  C   UNL A   1      32.566  21.152  24.888  1.00  0.00     0.226 C 
ATOM      5  O   UNL A   1      31.571  20.442  25.078  1.00  0.00    -0.274 OA
ATOM      6  H   UNL A   1      33.583  19.482  24.825  1.00  0.00     0.163 HD
BRANCH   4   7
ATOM      7  C   UNL A   1      32.423  22.696  24.875  1.00  0.00     0.058 C 
ATOM      8  C   UNL A   1      33.311  23.524  25.819  1.00  0.00     0.017 C 
ATOM      9  C   UNL A   1      30.988  23.049  25.350  1.00  0.00     0.017 C 
ATOM     10  C   UNL A   1      32.438  24.143  26.906  1.00  0.00     0.001 C 
ATOM     11  C   UNL A   1      31.101  23.442  26.815  1.00  0.00     0.001 C 
BRANCH   7  12
ATOM     12  C   UNL A   1      32.638  23.195  23.407  1.00  0.00     0.117 C 
BRANCH  12  13
ATOM     13  C   UNL A   1      33.896  23.989  23.063  1.00  0.00     0.221 C 
ATOM     14  N   UNL A   1      33.943  25.342  23.001  1.00  0.00    -0.349 N 
ATOM     15  H   UNL A   1      34.856  25.705  23.063  1.00  0.00     0.164 HD
ATOM     16  O   UNL A   1      34.937  23.394  22.760  1.00  0.00    -0.275 OA
BRANCH  14  17
ATOM     17  C   UNL A   1      32.915  26.374  22.863  1.00  0.00     0.113 C 
ATOM     18  C   UNL A   1      33.468  27.530  22.024  1.00  0.00     0.036 C 
BRANCH  17  19
ATOM     19  C   UNL A   1      32.440  26.865  24.226  1.00  0.00     0.016 A 
ATOM     20  C   UNL A   1      31.094  26.749  24.634  1.00  0.00     0.124 A 
ATOM     21  C   UNL A   1      30.733  27.086  25.944  1.00  0.00     0.047 A 
ATOM     22  C   UNL A   1      31.662  27.662  26.811  1.00  0.00     0.007 A 
ATOM     23  C   UNL A   1      33.351  27.483  25.107  1.00  0.00     0.013 A 
ATOM     24  C   UNL A   1      32.965  27.909  26.384  1.00  0.00    -0.051 A 
ATOM     25  C   UNL A   1      33.932  28.663  27.247  1.00  0.00     0.044 C 
BRANCH  20  26
ATOM     26  O   UNL A   1      30.198  26.356  23.676  1.00  0.00    -0.496 OA
ATOM     27  C   UNL A   1      28.808  26.492  23.951  1.00  0.00     0.278 C 
ENDBRANCH  20  26
ENDBRANCH  17  19
ENDBRANCH  14  17
ENDBRANCH  12  13
ENDBRANCH   7  12
ENDBRANCH   4   7
ENDBRANCH   2   3
ENDBRANCH   1   2
BRANCH   1  28
ATOM     28  C   UNL A   1      37.529  19.869  24.775  1.00  0.00     0.002 C 
BRANCH  28  29
ATOM     29  C   UNL A   1      38.036  21.303  24.999  1.00  0.00     0.002 C 
BRANCH  29  30
ATOM     30  C   UNL A   1      39.109  21.494  26.073  1.00  0.00     0.021 C 
BRANCH  30  31
ATOM     31  C   UNL A   1      39.399  22.946  26.431  1.00  0.00     0.116 C 
BRANCH  31  32
ATOM     32  N   UNL A   1      40.817  23.265  26.539  1.00  0.00    -0.352 N 
ATOM     33  C   UNL A   1      41.415  24.492  26.805  1.00  0.00     0.251 C 
ATOM     34  H   UNL A   1      41.434  22.510  26.407  1.00  0.00     0.163 HD
ATOM     35  O   UNL A   1      42.618  24.595  26.881  1.00  0.00    -0.269 OA
BRANCH  33  36
ATOM     36  C   UNL A   1      40.534  25.644  27.128  1.00  0.00     0.039 A 
ATOM     37  C   UNL A   1      40.736  26.826  26.409  1.00  0.00     0.014 A 
ATOM     38  C   UNL A   1      39.732  25.633  28.265  1.00  0.00     0.014 A 
ATOM     39  C   UNL A   1      40.364  28.037  26.984  1.00  0.00     0.010 A 
ATOM     40  C   UNL A   1      39.442  26.835  28.881  1.00  0.00     0.010 A 
ATOM     41  C   UNL A   1      39.832  28.033  28.273  1.00  0.00    -0.014 A 
BRANCH  41  42
ATOM     42  C   UNL A   1      39.785  29.234  29.098  1.00  0.00     0.031 A 
ATOM     43  C   UNL A   1      38.729  30.243  28.892  1.00  0.00     0.074 A 
ATOM     44  C   UNL A   1      40.708  29.406  30.071  1.00  0.00     0.049 A 
ATOM     45  N   UNL A   1      38.858  31.498  29.160  1.00  0.00    -0.248 NA
ATOM     46  C   UNL A   1      37.438  29.906  28.312  1.00  0.00     0.031 C 
ATOM     47  C   UNL A   1      40.723  30.433  31.109  1.00  0.00     0.029 A 
ATOM     48  N   UNL A   1      41.968  28.795  30.162  1.00  0.00    -0.354 N 
ATOM     49  C   UNL A   1      37.614  32.080  29.057  1.00  0.00     0.074 A 
ATOM     50  C   UNL A   1      36.783  31.061  28.456  1.00  0.00     0.031 C 
ATOM     51  C   UNL A   1      41.988  30.600  31.526  1.00  0.00     0.029 A 
ATOM     52  C   UNL A   1      42.838  29.776  30.684  1.00  0.00     0.049 A 
ATOM     53  H   UNL A   1      42.198  27.871  29.914  1.00  0.00     0.167 HD
ATOM     54  C   UNL A   1      37.400  33.304  29.624  1.00  0.00     0.037 A 
ATOM     55  C   UNL A   1      43.906  30.228  29.967  1.00  0.00     0.037 A 
ATOM     56  C   UNL A   1      38.641  33.852  30.174  1.00  0.00     0.049 A 
ATOM     57  C   UNL A   1      43.862  31.710  29.675  1.00  0.00     0.074 A 
ATOM     58  C   UNL A   1      39.163  33.871  31.458  1.00  0.00     0.029 A 
ATOM     59  N   UNL A   1      39.684  34.202  29.322  1.00  0.00    -0.354 N 
ATOM     60  N   UNL A   1      42.781  32.435  29.762  1.00  0.00    -0.248 NA
ATOM     61  C   UNL A   1      45.021  32.485  29.239  1.00  0.00     0.031 C 
ATOM     62  C   UNL A   1      40.544  34.171  31.369  1.00  0.00     0.029 A 
ATOM     63  C   UNL A   1      40.860  34.356  30.034  1.00  0.00     0.049 A 
ATOM     64  H   UNL A   1      39.597  34.325  28.349  1.00  0.00     0.167 HD
ATOM     65  C   UNL A   1      43.065  33.725  29.394  1.00  0.00     0.074 A 
ATOM     66  C   UNL A   1      44.485  33.710  29.094  1.00  0.00     0.031 C 
ATOM     67  C   UNL A   1      42.105  34.696  29.365  1.00  0.00     0.037 A 
BRANCH  54  68
ATOM     68  C   UNL A   1      36.022  33.838  29.970  1.00  0.00     0.057 A 
ATOM     69  C   UNL A   1      35.142  34.281  28.961  1.00  0.00     0.134 A 
ATOM     70  C   UNL A   1      35.528  34.015  31.273  1.00  0.00     0.134 A 
ATOM     71  F   UNL A   1      35.388  34.064  27.663  1.00  0.00    -0.206 F 
ATOM     72  C   UNL A   1      33.954  34.974  29.230  1.00  0.00     0.040 A 
ATOM     73  C   UNL A   1      34.368  34.753  31.561  1.00  0.00     0.040 A 
ATOM     74  F   UNL A   1      36.105  33.428  32.328  1.00  0.00    -0.206 F 
ATOM     75  C   UNL A   1      33.585  35.255  30.534  1.00  0.00     0.006 A 
ENDBRANCH  54  68
BRANCH  55  76
ATOM     76  C   UNL A   1      44.512  29.194  29.091  1.00  0.00     0.057 A 
ATOM     77  C   UNL A   1      44.176  29.193  27.725  1.00  0.00     0.134 A 
ATOM     78  C   UNL A   1      45.647  28.472  29.465  1.00  0.00     0.134 A 
ATOM     79  F   UNL A   1      43.095  29.866  27.297  1.00  0.00    -0.206 F 
ATOM     80  C   UNL A   1      44.993  28.599  26.760  1.00  0.00     0.040 A 
ATOM     81  C   UNL A   1      46.468  27.862  28.509  1.00  0.00     0.040 A 
ATOM     82  F   UNL A   1      46.045  28.441  30.746  1.00  0.00    -0.206 F 
ATOM     83  C   UNL A   1      46.163  27.958  27.150  1.00  0.00     0.006 A 
ENDBRANCH  55  76
BRANCH  67  84
ATOM     84  C   UNL A   1      42.274  36.085  28.800  1.00  0.00     0.057 A 
ATOM     85  C   UNL A   1      42.934  37.130  29.460  1.00  0.00     0.134 A 
ATOM     86  C   UNL A   1      41.881  36.368  27.472  1.00  0.00     0.134 A 
ATOM     87  F   UNL A   1      43.457  36.966  30.684  1.00  0.00    -0.206 F 
ATOM     88  C   UNL A   1      43.138  38.384  28.868  1.00  0.00     0.040 A 
ATOM     89  C   UNL A   1      42.125  37.597  26.852  1.00  0.00     0.040 A 
ATOM     90  F   UNL A   1      41.262  35.453  26.711  1.00  0.00    -0.206 F 
ATOM     91  C   UNL A   1      42.743  38.617  27.556  1.00  0.00     0.006 A 
ENDBRANCH  67  84
ENDBRANCH  41  42
ENDBRANCH  33  36
ENDBRANCH  31  32
ENDBRANCH  30  31
ENDBRANCH  29  30
ENDBRANCH  28  29
ENDBRANCH   1  28
TORSDOF 18
ENDMDL
MODEL 2
REMARK VINA RESULT:     -11.8      3.655      9.000
REMARK SMILES COc1ccc(C)cc1[C@@H](C)NC(=O)CC1(C(=O)NCCCCCCNC(=O)c2ccc(-c3c4nc(c(-c5c(F)cccc5F)c5ccc([nH]5)c(-c5c(F)cccc5F)c5nc(c(-c6c(F)cccc6F)c6ccc3[nH]6)C=C5)C=C4)cc2)CCCC1
REMARK SMILES IDX 21 1 20 2 19 3 17 4 18 5 16 7 83 8 86 9 84 10 85 11 15 12
REMARK SMILES IDX 13 13 12 14 14 16 10 17 11 18 9 19 3 20 4 21 5 22 8 23 6 24
REMARK SMILES IDX 7 25 2 26 1 27 22 28 23 29 24 30 25 31 26 32 27 33 28 35
REMARK SMILES IDX 29 36 30 37 82 38 31 39 81 40 32 41 33 42 34 43 75 44 35 45
REMARK SMILES IDX 80 46 74 47 76 48 36 49 79 50 73 51 72 52 37 54 63 55 46 56
REMARK SMILES IDX 62 57 47 58 50 59 61 60 77 61 48 62 49 63 60 65 78 66 51 67
REMARK SMILES IDX 38 68 39 69 44 70 40 71 41 72 43 73 45 74 42 75 64 76 65 77
REMARK SMILES IDX 70 78 66 79 67 80 69 81 71 82 68 83 52 84 53 85 58 86 54 87
REMARK SMILES IDX 55 88 57 89 59 90 56 91
REMARK H PARENT 19 6 12 15 26 34 76 53 50 64
REMARK Flexibility Score: inf
ROOT
ATOM      1  C   UNL A   1      32.677  29.326  24.168  1.00  0.00     0.021 C 
ENDROOT
BRANCH   1   2
ATOM      2  C   UNL A   1      31.842  29.024  22.924  1.00  0.00     0.116 C 
BRANCH   2   3
ATOM      3  N   UNL A   1      30.643  28.287  23.247  1.00  0.00    -0.356 N 
ATOM      4  C   UNL A   1      30.380  26.997  23.552  1.00  0.00     0.226 C 
ATOM      5  O   UNL A   1      29.171  26.744  23.629  1.00  0.00    -0.274 OA
ATOM      6  H   UNL A   1      29.837  28.852  23.246  1.00  0.00     0.163 HD
BRANCH   4   7
ATOM      7  C   UNL A   1      31.419  25.852  23.671  1.00  0.00     0.058 C 
ATOM      8  C   UNL A   1      32.859  26.207  24.075  1.00  0.00     0.017 C 
ATOM      9  C   UNL A   1      31.598  25.219  22.264  1.00  0.00     0.017 C 
ATOM     10  C   UNL A   1      33.779  25.986  22.877  1.00  0.00     0.001 C 
ATOM     11  C   UNL A   1      32.870  25.814  21.681  1.00  0.00     0.001 C 
BRANCH   7  12
ATOM     12  C   UNL A   1      30.859  24.785  24.669  1.00  0.00     0.117 C 
BRANCH  12  13
ATOM     13  C   UNL A   1      31.145  24.934  26.162  1.00  0.00     0.221 C 
ATOM     14  N   UNL A   1      31.991  24.132  26.852  1.00  0.00    -0.349 N 
ATOM     15  H   UNL A   1      32.292  24.523  27.704  1.00  0.00     0.164 HD
ATOM     16  O   UNL A   1      30.543  25.788  26.823  1.00  0.00    -0.275 OA
BRANCH  14  17
ATOM     17  C   UNL A   1      32.550  22.805  26.592  1.00  0.00     0.113 C 
ATOM     18  C   UNL A   1      33.002  22.179  27.914  1.00  0.00     0.036 C 
BRANCH  17  19
ATOM     19  C   UNL A   1      33.703  22.878  25.598  1.00  0.00     0.016 A 
ATOM     20  C   UNL A   1      33.552  22.490  24.249  1.00  0.00     0.124 A 
ATOM     21  C   UNL A   1      34.597  22.705  23.342  1.00  0.00     0.047 A 
ATOM     22  C   UNL A   1      35.835  23.174  23.783  1.00  0.00     0.007 A 
ATOM     23  C   UNL A   1      34.974  23.315  26.026  1.00  0.00     0.013 A 
ATOM     24  C   UNL A   1      36.047  23.437  25.135  1.00  0.00    -0.051 A 
ATOM     25  C   UNL A   1      37.410  23.794  25.649  1.00  0.00     0.044 C 
BRANCH  20  26
ATOM     26  O   UNL A   1      32.380  21.862  23.923  1.00  0.00    -0.496 OA
ATOM     27  C   UNL A   1      32.241  21.324  22.612  1.00  0.00     0.278 C 
ENDBRANCH  20  26
ENDBRANCH  17  19
ENDBRANCH  14  17
ENDBRANCH  12  13
ENDBRANCH   7  12
ENDBRANCH   4   7
ENDBRANCH   2   3
ENDBRANCH   1   2
BRANCH   1  28
ATOM     28  C   UNL A   1      31.890  29.778  25.403  1.00  0.00     0.002 C 
BRANCH  28  29
ATOM     29  C   UNL A   1      32.070  28.946  26.684  1.00  0.00     0.002 C 
BRANCH  29  30
ATOM     30  C   UNL A   1      33.174  29.393  27.645  1.00  0.00     0.021 C 
BRANCH  30  31
ATOM     31  C   UNL A   1      33.891  30.674  27.237  1.00  0.00     0.116 C 
BRANCH  31  32
ATOM     32  N   UNL A   1      34.338  31.492  28.357  1.00  0.00    -0.352 N 
ATOM     33  C   UNL A   1      35.430  31.297  29.196  1.00  0.00     0.251 C 
ATOM     34  H   UNL A   1      33.795  32.292  28.543  1.00  0.00     0.163 HD
ATOM     35  O   UNL A   1      35.684  32.083  30.080  1.00  0.00    -0.269 OA
BRANCH  33  36
ATOM     36  C   UNL A   1      36.353  30.173  28.893  1.00  0.00     0.039 A 
ATOM     37  C   UNL A   1      36.629  29.274  29.927  1.00  0.00     0.014 A 
ATOM     38  C   UNL A   1      37.110  30.166  27.725  1.00  0.00     0.014 A 
ATOM     39  C   UNL A   1      37.826  28.566  29.904  1.00  0.00     0.010 A 
ATOM     40  C   UNL A   1      38.339  29.537  27.739  1.00  0.00     0.010 A 
ATOM     41  C   UNL A   1      38.727  28.802  28.865  1.00  0.00    -0.014 A 
BRANCH  41  42
ATOM     42  C   UNL A   1      40.133  28.428  28.954  1.00  0.00     0.031 A 
ATOM     43  C   UNL A   1      40.594  27.125  28.442  1.00  0.00     0.074 A 
ATOM     44  C   UNL A   1      41.016  29.298  29.495  1.00  0.00     0.049 A 
ATOM     45  N   UNL A   1      41.621  26.487  28.892  1.00  0.00    -0.248 NA
ATOM     46  C   UNL A   1      39.887  26.411  27.389  1.00  0.00     0.031 C 
ATOM     47  C   UNL A   1      42.472  29.191  29.507  1.00  0.00     0.029 A 
ATOM     48  N   UNL A   1      40.734  30.365  30.360  1.00  0.00    -0.354 N 
ATOM     49  C   UNL A   1      41.875  25.440  28.033  1.00  0.00     0.074 A 
ATOM     50  C   UNL A   1      40.725  25.396  27.160  1.00  0.00     0.031 C 
ATOM     51  C   UNL A   1      42.945  29.916  30.533  1.00  0.00     0.029 A 
ATOM     52  C   UNL A   1      41.802  30.409  31.282  1.00  0.00     0.049 A 
ATOM     53  H   UNL A   1      39.952  30.962  30.330  1.00  0.00     0.167 HD
ATOM     54  C   UNL A   1      43.095  24.826  28.072  1.00  0.00     0.037 A 
ATOM     55  C   UNL A   1      41.595  30.213  32.616  1.00  0.00     0.037 A 
ATOM     56  C   UNL A   1      43.916  25.357  29.162  1.00  0.00     0.049 A 
ATOM     57  C   UNL A   1      42.339  29.026  33.181  1.00  0.00     0.074 A 
ATOM     58  C   UNL A   1      44.920  26.312  29.193  1.00  0.00     0.029 A 
ATOM     59  N   UNL A   1      43.539  25.142  30.484  1.00  0.00    -0.354 N 
ATOM     60  N   UNL A   1      42.837  28.066  32.450  1.00  0.00    -0.248 NA
ATOM     61  C   UNL A   1      42.558  28.811  34.609  1.00  0.00     0.031 C 
ATOM     62  C   UNL A   1      45.100  26.720  30.537  1.00  0.00     0.029 A 
ATOM     63  C   UNL A   1      44.222  25.998  31.328  1.00  0.00     0.049 A 
ATOM     64  H   UNL A   1      42.879  24.473  30.778  1.00  0.00     0.167 HD
ATOM     65  C   UNL A   1      43.411  27.123  33.263  1.00  0.00     0.074 A 
ATOM     66  C   UNL A   1      43.227  27.644  34.605  1.00  0.00     0.031 C 
ATOM     67  C   UNL A   1      43.985  25.990  32.762  1.00  0.00     0.037 A 
BRANCH  54  68
ATOM     68  C   UNL A   1      43.653  24.000  26.929  1.00  0.00     0.057 A 
ATOM     69  C   UNL A   1      44.401  24.603  25.896  1.00  0.00     0.134 A 
ATOM     70  C   UNL A   1      43.430  22.626  26.740  1.00  0.00     0.134 A 
ATOM     71  F   UNL A   1      44.826  25.870  25.978  1.00  0.00    -0.206 F 
ATOM     72  C   UNL A   1      44.758  23.935  24.716  1.00  0.00     0.040 A 
ATOM     73  C   UNL A   1      43.732  21.955  25.543  1.00  0.00     0.040 A 
ATOM     74  F   UNL A   1      42.969  21.848  27.727  1.00  0.00    -0.206 F 
ATOM     75  C   UNL A   1      44.382  22.618  24.515  1.00  0.00     0.006 A 
ENDBRANCH  54  68
BRANCH  55  76
ATOM     76  C   UNL A   1      40.279  30.713  33.090  1.00  0.00     0.057 A 
ATOM     77  C   UNL A   1      40.097  32.102  33.215  1.00  0.00     0.134 A 
ATOM     78  C   UNL A   1      39.129  29.921  33.069  1.00  0.00     0.134 A 
ATOM     79  F   UNL A   1      41.161  32.921  33.244  1.00  0.00    -0.206 F 
ATOM     80  C   UNL A   1      38.829  32.688  33.203  1.00  0.00     0.040 A 
ATOM     81  C   UNL A   1      37.853  30.496  33.068  1.00  0.00     0.040 A 
ATOM     82  F   UNL A   1      39.220  28.590  32.932  1.00  0.00    -0.206 F 
ATOM     83  C   UNL A   1      37.700  31.882  33.095  1.00  0.00     0.006 A 
ENDBRANCH  55  76
BRANCH  67  84
ATOM     84  C   UNL A   1      44.470  24.814  33.574  1.00  0.00     0.057 A 
ATOM     85  C   UNL A   1      45.812  24.424  33.672  1.00  0.00     0.134 A 
ATOM     86  C   UNL A   1      43.578  24.111  34.416  1.00  0.00     0.134 A 
ATOM     87  F   UNL A   1      46.781  25.076  33.014  1.00  0.00    -0.206 F 
ATOM     88  C   UNL A   1      46.231  23.374  34.500  1.00  0.00     0.040 A 
ATOM     89  C   UNL A   1      43.991  23.097  35.284  1.00  0.00     0.040 A 
ATOM     90  F   UNL A   1      42.267  24.395  34.446  1.00  0.00    -0.206 F 
ATOM     91  C   UNL A   1      45.321  22.714  35.318  1.00  0.00     0.006 A 
ENDBRANCH  67  84
ENDBRANCH  41  42
ENDBRANCH  33  36
ENDBRANCH  31  32
ENDBRANCH  30  31
ENDBRANCH  29  30
ENDBRANCH  28  29
ENDBRANCH   1  28
TORSDOF 18
ENDMDL
MODEL 3
REMARK VINA RESULT:     -11.7      3.564      9.216
REMARK SMILES COc1ccc(C)cc1[C@@H](C)NC(=O)CC1(C(=O)NCCCCCCNC(=O)c2ccc(-c3c4nc(c(-c5c(F)cccc5F)c5ccc([nH]5)c(-c5c(F)cccc5F)c5nc(c(-c6c(F)cccc6F)c6ccc3[nH]6)C=C5)C=C4)cc2)CCCC1
REMARK SMILES IDX 21 1 20 2 19 3 17 4 18 5 16 7 83 8 86 9 84 10 85 11 15 12
REMARK SMILES IDX 13 13 12 14 14 16 10 17 11 18 9 19 3 20 4 21 5 22 8 23 6 24
REMARK SMILES IDX 7 25 2 26 1 27 22 28 23 29 24 30 25 31 26 32 27 33 28 35
REMARK SMILES IDX 29 36 30 37 82 38 31 39 81 40 32 41 33 42 34 43 75 44 35 45
REMARK SMILES IDX 80 46 74 47 76 48 36 49 79 50 73 51 72 52 37 54 63 55 46 56
REMARK SMILES IDX 62 57 47 58 50 59 61 60 77 61 48 62 49 63 60 65 78 66 51 67
REMARK SMILES IDX 38 68 39 69 44 70 40 71 41 72 43 73 45 74 42 75 64 76 65 77
REMARK SMILES IDX 70 78 66 79 67 80 69 81 71 82 68 83 52 84 53 85 58 86 54 87
REMARK SMILES IDX 55 88 57 89 59 90 56 91
REMARK H PARENT 19 6 12 15 26 34 76 53 50 64
REMARK Flexibility Score: inf
ROOT
ATOM      1  C   UNL A   1      32.337  28.312  27.316  1.00  0.00     0.021 C 
ENDROOT
BRANCH   1   2
ATOM      2  C   UNL A   1      31.054  27.825  26.643  1.00  0.00     0.116 C 
BRANCH   2   3
ATOM      3  N   UNL A   1      31.073  26.399  26.419  1.00  0.00    -0.356 N 
ATOM      4  C   UNL A   1      31.115  25.615  25.318  1.00  0.00     0.226 C 
ATOM      5  O   UNL A   1      30.975  24.410  25.563  1.00  0.00    -0.274 OA
ATOM      6  H   UNL A   1      31.051  25.881  27.256  1.00  0.00     0.163 HD
BRANCH   4   7
ATOM      7  C   UNL A   1      31.188  26.102  23.848  1.00  0.00     0.058 C 
ATOM      8  C   UNL A   1      32.026  27.351  23.528  1.00  0.00     0.017 C 
ATOM      9  C   UNL A   1      29.759  26.522  23.411  1.00  0.00     0.017 C 
ATOM     10  C   UNL A   1      31.090  28.490  23.134  1.00  0.00     0.001 C 
ATOM     11  C   UNL A   1      29.700  28.037  23.521  1.00  0.00     0.001 C 
BRANCH   7  12
ATOM     12  C   UNL A   1      31.690  24.913  22.963  1.00  0.00     0.117 C 
BRANCH  12  13
ATOM     13  C   UNL A   1      33.161  24.849  22.559  1.00  0.00     0.221 C 
ATOM     14  N   UNL A   1      34.120  24.234  23.293  1.00  0.00    -0.349 N 
ATOM     15  H   UNL A   1      34.932  24.023  22.777  1.00  0.00     0.164 HD
ATOM     16  O   UNL A   1      33.546  25.433  21.539  1.00  0.00    -0.275 OA
BRANCH  14  17
ATOM     17  C   UNL A   1      34.197  23.817  24.694  1.00  0.00     0.113 C 
ATOM     18  C   UNL A   1      34.741  24.975  25.536  1.00  0.00     0.036 C 
BRANCH  17  19
ATOM     19  C   UNL A   1      35.061  22.571  24.852  1.00  0.00     0.016 A 
ATOM     20  C   UNL A   1      34.532  21.272  24.697  1.00  0.00     0.124 A 
ATOM     21  C   UNL A   1      35.390  20.166  24.714  1.00  0.00     0.047 A 
ATOM     22  C   UNL A   1      36.744  20.321  25.015  1.00  0.00     0.007 A 
ATOM     23  C   UNL A   1      36.423  22.699  25.191  1.00  0.00     0.013 A 
ATOM     24  C   UNL A   1      37.261  21.583  25.303  1.00  0.00    -0.051 A 
ATOM     25  C   UNL A   1      38.674  21.750  25.777  1.00  0.00     0.044 C 
BRANCH  20  26
ATOM     26  O   UNL A   1      33.170  21.176  24.594  1.00  0.00    -0.496 OA
ATOM     27  C   UNL A   1      32.525  20.042  25.164  1.00  0.00     0.278 C 
ENDBRANCH  20  26
ENDBRANCH  17  19
ENDBRANCH  14  17
ENDBRANCH  12  13
ENDBRANCH   7  12
ENDBRANCH   4   7
ENDBRANCH   2   3
ENDBRANCH   1   2
BRANCH   1  28
ATOM     28  C   UNL A   1      33.609  28.226  26.465  1.00  0.00     0.002 C 
BRANCH  28  29
ATOM     29  C   UNL A   1      34.836  29.004  26.969  1.00  0.00     0.002 C 
BRANCH  29  30
ATOM     30  C   UNL A   1      34.622  30.482  27.304  1.00  0.00     0.021 C 
BRANCH  30  31
ATOM     31  C   UNL A   1      34.754  30.824  28.783  1.00  0.00     0.116 C 
BRANCH  31  32
ATOM     32  N   UNL A   1      35.786  31.808  29.081  1.00  0.00    -0.352 N 
ATOM     33  C   UNL A   1      37.159  31.620  29.200  1.00  0.00     0.251 C 
ATOM     34  H   UNL A   1      35.469  32.730  29.216  1.00  0.00     0.163 HD
ATOM     35  O   UNL A   1      37.897  32.550  29.436  1.00  0.00    -0.269 OA
BRANCH  33  36
ATOM     36  C   UNL A   1      37.710  30.275  28.893  1.00  0.00     0.039 A 
ATOM     37  C   UNL A   1      37.892  29.398  29.967  1.00  0.00     0.014 A 
ATOM     38  C   UNL A   1      38.265  29.997  27.648  1.00  0.00     0.014 A 
ATOM     39  C   UNL A   1      38.852  28.396  29.864  1.00  0.00     0.010 A 
ATOM     40  C   UNL A   1      39.280  29.064  27.570  1.00  0.00     0.010 A 
ATOM     41  C   UNL A   1      39.624  28.322  28.704  1.00  0.00    -0.014 A 
BRANCH  41  42
ATOM     42  C   UNL A   1      40.885  27.592  28.655  1.00  0.00     0.031 A 
ATOM     43  C   UNL A   1      40.900  26.139  28.411  1.00  0.00     0.074 A 
ATOM     44  C   UNL A   1      42.046  28.266  28.817  1.00  0.00     0.049 A 
ATOM     45  N   UNL A   1      41.819  25.337  28.832  1.00  0.00    -0.248 NA
ATOM     46  C   UNL A   1      39.829  25.463  27.693  1.00  0.00     0.031 C 
ATOM     47  C   UNL A   1      43.401  27.759  28.621  1.00  0.00     0.029 A 
ATOM     48  N   UNL A   1      42.224  29.516  29.428  1.00  0.00    -0.354 N 
ATOM     49  C   UNL A   1      41.621  24.116  28.227  1.00  0.00     0.074 A 
ATOM     50  C   UNL A   1      40.330  24.229  27.588  1.00  0.00     0.031 C 
ATOM     51  C   UNL A   1      44.247  28.506  29.347  1.00  0.00     0.029 A 
ATOM     52  C   UNL A   1      43.447  29.436  30.127  1.00  0.00     0.049 A 
ATOM     53  H   UNL A   1      41.620  30.291  29.379  1.00  0.00     0.167 HD
ATOM     54  C   UNL A   1      42.638  23.204  28.218  1.00  0.00     0.037 A 
ATOM     55  C   UNL A   1      43.499  29.568  31.483  1.00  0.00     0.037 A 
ATOM     56  C   UNL A   1      43.781  23.683  28.998  1.00  0.00     0.049 A 
ATOM     57  C   UNL A   1      44.045  28.353  32.194  1.00  0.00     0.074 A 
ATOM     58  C   UNL A   1      44.965  24.304  28.632  1.00  0.00     0.029 A 
ATOM     59  N   UNL A   1      43.664  23.843  30.375  1.00  0.00    -0.354 N 
ATOM     60  N   UNL A   1      44.127  27.169  31.651  1.00  0.00    -0.248 NA
ATOM     61  C   UNL A   1      44.516  28.366  33.577  1.00  0.00     0.031 C 
ATOM     62  C   UNL A   1      45.528  24.897  29.788  1.00  0.00     0.029 A 
ATOM     63  C   UNL A   1      44.700  24.619  30.862  1.00  0.00     0.049 A 
ATOM     64  H   UNL A   1      42.945  23.457  30.927  1.00  0.00     0.167 HD
ATOM     65  C   UNL A   1      44.625  26.279  32.567  1.00  0.00     0.074 A 
ATOM     66  C   UNL A   1      44.870  27.081  33.752  1.00  0.00     0.031 C 
ATOM     67  C   UNL A   1      44.789  24.955  32.274  1.00  0.00     0.037 A 
BRANCH  54  68
ATOM     68  C   UNL A   1      42.718  22.048  27.238  1.00  0.00     0.057 A 
ATOM     69  C   UNL A   1      41.912  20.902  27.400  1.00  0.00     0.134 A 
ATOM     70  C   UNL A   1      43.616  21.962  26.161  1.00  0.00     0.134 A 
ATOM     71  F   UNL A   1      40.908  20.864  28.285  1.00  0.00    -0.206 F 
ATOM     72  C   UNL A   1      42.091  19.726  26.659  1.00  0.00     0.040 A 
ATOM     73  C   UNL A   1      43.845  20.776  25.444  1.00  0.00     0.040 A 
ATOM     74  F   UNL A   1      44.269  23.038  25.705  1.00  0.00    -0.206 F 
ATOM     75  C   UNL A   1      43.093  19.643  25.707  1.00  0.00     0.006 A 
ENDBRANCH  54  68
BRANCH  55  76
ATOM     76  C   UNL A   1      42.477  30.500  32.026  1.00  0.00     0.057 A 
ATOM     77  C   UNL A   1      42.705  31.883  31.911  1.00  0.00     0.134 A 
ATOM     78  C   UNL A   1      41.172  30.093  32.307  1.00  0.00     0.134 A 
ATOM     79  F   UNL A   1      43.939  32.343  31.644  1.00  0.00    -0.206 F 
ATOM     80  C   UNL A   1      41.663  32.813  31.957  1.00  0.00     0.040 A 
ATOM     81  C   UNL A   1      40.121  31.016  32.368  1.00  0.00     0.040 A 
ATOM     82  F   UNL A   1      40.871  28.790  32.411  1.00  0.00    -0.206 F 
ATOM     83  C   UNL A   1      40.358  32.374  32.154  1.00  0.00     0.006 A 
ENDBRANCH  55  76
BRANCH  67  84
ATOM     84  C   UNL A   1      45.147  23.871  33.260  1.00  0.00     0.057 A 
ATOM     85  C   UNL A   1      46.402  23.744  33.870  1.00  0.00     0.134 A 
ATOM     86  C   UNL A   1      44.155  22.985  33.739  1.00  0.00     0.134 A 
ATOM     87  F   UNL A   1      47.406  24.590  33.593  1.00  0.00    -0.206 F 
ATOM     88  C   UNL A   1      46.672  22.770  34.841  1.00  0.00     0.040 A 
ATOM     89  C   UNL A   1      44.397  22.044  34.743  1.00  0.00     0.040 A 
ATOM     90  F   UNL A   1      42.901  23.011  33.264  1.00  0.00    -0.206 F 
ATOM     91  C   UNL A   1      45.664  21.923  35.289  1.00  0.00     0.006 A 
ENDBRANCH  67  84
ENDBRANCH  41  42
ENDBRANCH  33  36
ENDBRANCH  31  32
ENDBRANCH  30  31
ENDBRANCH  29  30
ENDBRANCH  28  29
ENDBRANCH   1  28
TORSDOF 18
ENDMDL
