MODEL 1
REMARK VINA RESULT:     -12.0      0.000      0.000
REMARK SMILES CC(C)COc1cccc(C(=O)Nc2ccc(O)c(C(=O)NCCCCCCNC(=O)c3ccc(-c4c5nc(c(-c6c(F)cccc6F)c6ccc([nH]6)c(-c6c(F)cccc6F)c6nc(c(-c7c(F)cccc7F)c7ccc4[nH]7)C=C6)C=C5)cc3)c2)c1
REMARK SMILES IDX 24 1 23 2 22 3 20 4 21 5 19 7 14 8 15 9 86 10 16 11 17 12
REMARK SMILES IDX 13 13 11 14 12 15 10 17 6 18 7 19 87 20 8 21 9 22 5 23 4 24
REMARK SMILES IDX 2 25 1 26 3 27 18 28 25 30 26 31 27 32 28 33 29 34 30 35
REMARK SMILES IDX 31 37 32 38 33 39 85 40 34 41 84 42 35 43 36 44 37 45 78 46
REMARK SMILES IDX 38 47 83 48 77 49 79 50 39 51 82 52 76 53 75 54 40 56 66 57
REMARK SMILES IDX 49 58 65 59 50 60 53 61 64 62 80 63 51 64 52 65 63 67 81 68
REMARK SMILES IDX 54 69 41 70 42 71 47 72 43 73 44 74 46 75 48 76 45 77 67 78
REMARK SMILES IDX 68 79 73 80 69 81 70 82 72 83 74 84 71 85 55 86 56 87 61 88
REMARK SMILES IDX 57 89 58 90 60 91 62 92 59 93
REMARK H PARENT 22 6 13 16 18 29 29 36 79 55 53 66
REMARK Flexibility Score: inf
ROOT
ATOM      1  C   UNL A   1      31.799  28.216  27.487  1.00  0.00     0.021 C 
ENDROOT
BRANCH   1   2
ATOM      2  C   UNL A   1      31.566  27.269  26.313  1.00  0.00     0.116 C 
BRANCH   2   3
ATOM      3  N   UNL A   1      30.608  26.248  26.676  1.00  0.00    -0.352 N 
ATOM      4  C   UNL A   1      30.473  24.924  26.360  1.00  0.00     0.255 C 
ATOM      5  O   UNL A   1      29.496  24.338  26.839  1.00  0.00    -0.269 OA
ATOM      6  H   UNL A   1      29.901  26.575  27.278  1.00  0.00     0.163 HD
BRANCH   4   7
ATOM      7  C   UNL A   1      31.453  24.119  25.569  1.00  0.00     0.083 A 
ATOM      8  C   UNL A   1      32.756  23.658  23.563  1.00  0.00     0.042 A 
ATOM      9  C   UNL A   1      33.557  22.760  24.268  1.00  0.00     0.030 A 
ATOM     10  C   UNL A   1      31.638  24.229  24.185  1.00  0.00     0.043 A 
ATOM     11  C   UNL A   1      33.330  22.553  25.626  1.00  0.00     0.049 A 
ATOM     12  C   UNL A   1      32.312  23.251  26.274  1.00  0.00     0.128 A 
BRANCH   8  13
ATOM     13  N   UNL A   1      33.149  23.999  22.259  1.00  0.00    -0.322 N 
ATOM     14  C   UNL A   1      32.878  25.102  21.463  1.00  0.00     0.255 C 
ATOM     15  O   UNL A   1      33.110  25.009  20.256  1.00  0.00    -0.269 OA
ATOM     16  H   UNL A   1      33.726  23.328  21.828  1.00  0.00     0.170 HD
BRANCH  14  17
ATOM     17  C   UNL A   1      32.468  26.446  21.996  1.00  0.00     0.043 A 
ATOM     18  C   UNL A   1      30.801  28.174  22.454  1.00  0.00     0.120 A 
ATOM     19  C   UNL A   1      31.767  28.978  23.041  1.00  0.00     0.046 A 
ATOM     20  C   UNL A   1      31.156  26.916  21.968  1.00  0.00     0.060 A 
ATOM     21  C   UNL A   1      33.075  28.504  23.160  1.00  0.00     0.005 A 
ATOM     22  C   UNL A   1      33.424  27.252  22.632  1.00  0.00     0.014 A 
BRANCH  18  23
ATOM     23  O   UNL A   1      29.578  28.711  22.157  1.00  0.00    -0.493 OA
BRANCH  23  24
ATOM     24  C   UNL A   1      29.582  30.081  21.712  1.00  0.00     0.232 C 
BRANCH  24  25
ATOM     25  C   UNL A   1      28.206  30.773  21.812  1.00  0.00     0.020 C 
ATOM     26  C   UNL A   1      27.776  30.928  23.276  1.00  0.00     0.011 C 
ATOM     27  C   UNL A   1      28.196  32.155  21.159  1.00  0.00     0.011 C 
ENDBRANCH  24  25
ENDBRANCH  23  24
ENDBRANCH  18  23
ENDBRANCH  14  17
ENDBRANCH   8  13
BRANCH  12  28
ATOM     28  O   UNL A   1      32.248  23.056  27.631  1.00  0.00    -0.507 OA
ATOM     29  H   UNL A   1      32.317  23.787  28.213  1.00  0.00     0.293 HD
ENDBRANCH  12  28
ENDBRANCH   4   7
ENDBRANCH   2   3
ENDBRANCH   1   2
BRANCH   1  30
ATOM     30  C   UNL A   1      32.455  29.528  27.050  1.00  0.00     0.002 C 
BRANCH  30  31
ATOM     31  C   UNL A   1      31.553  30.428  26.194  1.00  0.00     0.002 C 
BRANCH  31  32
ATOM     32  C   UNL A   1      31.397  31.864  26.704  1.00  0.00     0.021 C 
BRANCH  32  33
ATOM     33  C   UNL A   1      32.695  32.516  27.164  1.00  0.00     0.116 C 
BRANCH  33  34
ATOM     34  N   UNL A   1      32.485  33.880  27.617  1.00  0.00    -0.352 N 
ATOM     35  C   UNL A   1      33.139  34.580  28.592  1.00  0.00     0.251 C 
ATOM     36  H   UNL A   1      31.767  34.371  27.155  1.00  0.00     0.163 HD
ATOM     37  O   UNL A   1      32.694  35.663  28.978  1.00  0.00    -0.269 OA
BRANCH  35  38
ATOM     38  C   UNL A   1      34.375  34.042  29.188  1.00  0.00     0.039 A 
ATOM     39  C   UNL A   1      35.603  34.375  28.609  1.00  0.00     0.014 A 
ATOM     40  C   UNL A   1      34.323  33.175  30.285  1.00  0.00     0.014 A 
ATOM     41  C   UNL A   1      36.782  33.857  29.143  1.00  0.00     0.010 A 
ATOM     42  C   UNL A   1      35.504  32.712  30.857  1.00  0.00     0.010 A 
ATOM     43  C   UNL A   1      36.741  33.029  30.276  1.00  0.00    -0.014 A 
BRANCH  43  44
ATOM     44  C   UNL A   1      37.980  32.437  30.834  1.00  0.00     0.031 A 
ATOM     45  C   UNL A   1      38.566  31.204  30.204  1.00  0.00     0.074 A 
ATOM     46  C   UNL A   1      38.549  32.979  31.927  1.00  0.00     0.049 A 
ATOM     47  N   UNL A   1      39.604  30.499  30.573  1.00  0.00    -0.248 NA
ATOM     48  C   UNL A   1      37.876  30.679  29.014  1.00  0.00     0.031 C 
ATOM     49  C   UNL A   1      38.049  34.150  32.649  1.00  0.00     0.029 A 
ATOM     50  N   UNL A   1      39.668  32.609  32.625  1.00  0.00    -0.354 N 
ATOM     51  C   UNL A   1      39.679  29.440  29.677  1.00  0.00     0.074 A 
ATOM     52  C   UNL A   1      38.553  29.565  28.777  1.00  0.00     0.031 C 
ATOM     53  C   UNL A   1      38.871  34.413  33.678  1.00  0.00     0.029 A 
ATOM     54  C   UNL A   1      39.935  33.414  33.705  1.00  0.00     0.049 A 
ATOM     55  H   UNL A   1      40.228  31.838  32.377  1.00  0.00     0.167 HD
ATOM     56  C   UNL A   1      40.614  28.465  29.596  1.00  0.00     0.037 A 
ATOM     57  C   UNL A   1      40.926  33.350  34.614  1.00  0.00     0.037 A 
ATOM     58  C   UNL A   1      41.751  28.364  30.472  1.00  0.00     0.049 A 
ATOM     59  C   UNL A   1      41.960  32.265  34.495  1.00  0.00     0.074 A 
ATOM     60  C   UNL A   1      42.785  27.446  30.441  1.00  0.00     0.029 A 
ATOM     61  N   UNL A   1      42.003  29.218  31.535  1.00  0.00    -0.354 N 
ATOM     62  N   UNL A   1      42.052  31.304  33.607  1.00  0.00    -0.248 NA
ATOM     63  C   UNL A   1      43.035  32.263  35.496  1.00  0.00     0.031 C 
ATOM     64  C   UNL A   1      43.648  27.726  31.507  1.00  0.00     0.029 A 
ATOM     65  C   UNL A   1      43.171  28.843  32.175  1.00  0.00     0.049 A 
ATOM     66  H   UNL A   1      41.435  29.979  31.796  1.00  0.00     0.167 HD
ATOM     67  C   UNL A   1      43.208  30.603  33.923  1.00  0.00     0.074 A 
ATOM     68  C   UNL A   1      43.790  31.256  35.079  1.00  0.00     0.031 C 
ATOM     69  C   UNL A   1      43.741  29.516  33.314  1.00  0.00     0.037 A 
BRANCH  56  70
ATOM     70  C   UNL A   1      40.445  27.434  28.518  1.00  0.00     0.057 A 
ATOM     71  C   UNL A   1      41.089  27.550  27.279  1.00  0.00     0.134 A 
ATOM     72  C   UNL A   1      39.649  26.301  28.728  1.00  0.00     0.134 A 
ATOM     73  F   UNL A   1      41.854  28.618  27.008  1.00  0.00    -0.206 F 
ATOM     74  C   UNL A   1      40.924  26.591  26.278  1.00  0.00     0.040 A 
ATOM     75  C   UNL A   1      39.499  25.322  27.745  1.00  0.00     0.040 A 
ATOM     76  F   UNL A   1      39.009  26.125  29.894  1.00  0.00    -0.206 F 
ATOM     77  C   UNL A   1      40.132  25.470  26.512  1.00  0.00     0.006 A 
ENDBRANCH  56  70
BRANCH  57  78
ATOM     78  C   UNL A   1      41.007  34.360  35.697  1.00  0.00     0.057 A 
ATOM     79  C   UNL A   1      41.724  35.549  35.521  1.00  0.00     0.134 A 
ATOM     80  C   UNL A   1      40.378  34.162  36.932  1.00  0.00     0.134 A 
ATOM     81  F   UNL A   1      42.362  35.786  34.365  1.00  0.00    -0.206 F 
ATOM     82  C   UNL A   1      41.832  36.496  36.540  1.00  0.00     0.040 A 
ATOM     83  C   UNL A   1      40.458  35.112  37.953  1.00  0.00     0.040 A 
ATOM     84  F   UNL A   1      39.668  33.048  37.160  1.00  0.00    -0.206 F 
ATOM     85  C   UNL A   1      41.194  36.279  37.759  1.00  0.00     0.006 A 
ENDBRANCH  57  78
BRANCH  69  86
ATOM     86  C   UNL A   1      45.039  28.995  33.854  1.00  0.00     0.057 A 
ATOM     87  C   UNL A   1      45.085  27.994  34.832  1.00  0.00     0.134 A 
ATOM     88  C   UNL A   1      46.258  29.475  33.360  1.00  0.00     0.134 A 
ATOM     89  F   UNL A   1      43.951  27.503  35.355  1.00  0.00    -0.206 F 
ATOM     90  C   UNL A   1      46.298  27.503  35.314  1.00  0.00     0.040 A 
ATOM     91  C   UNL A   1      47.477  28.974  33.815  1.00  0.00     0.040 A 
ATOM     92  F   UNL A   1      46.282  30.428  32.415  1.00  0.00    -0.206 F 
ATOM     93  C   UNL A   1      47.500  27.989  34.801  1.00  0.00     0.006 A 
ENDBRANCH  69  86
ENDBRANCH  43  44
ENDBRANCH  35  38
ENDBRANCH  33  34
ENDBRANCH  32  33
ENDBRANCH  31  32
ENDBRANCH  30  31
ENDBRANCH   1  30
TORSDOF 19
ENDMDL
MODEL 2
REMARK VINA RESULT:     -11.8      3.830      9.227
REMARK SMILES CC(C)COc1cccc(C(=O)Nc2ccc(O)c(C(=O)NCCCCCCNC(=O)c3ccc(-c4c5nc(c(-c6c(F)cccc6F)c6ccc([nH]6)c(-c6c(F)cccc6F)c6nc(c(-c7c(F)cccc7F)c7ccc4[nH]7)C=C6)C=C5)cc3)c2)c1
REMARK SMILES IDX 24 1 23 2 22 3 20 4 21 5 19 7 14 8 15 9 86 10 16 11 17 12
REMARK SMILES IDX 13 13 11 14 12 15 10 17 6 18 7 19 87 20 8 21 9 22 5 23 4 24
REMARK SMILES IDX 2 25 1 26 3 27 18 28 25 30 26 31 27 32 28 33 29 34 30 35
REMARK SMILES IDX 31 37 32 38 33 39 85 40 34 41 84 42 35 43 36 44 37 45 78 46
REMARK SMILES IDX 38 47 83 48 77 49 79 50 39 51 82 52 76 53 75 54 40 56 66 57
REMARK SMILES IDX 49 58 65 59 50 60 53 61 64 62 80 63 51 64 52 65 63 67 81 68
REMARK SMILES IDX 54 69 41 70 42 71 47 72 43 73 44 74 46 75 48 76 45 77 67 78
REMARK SMILES IDX 68 79 73 80 69 81 70 82 72 83 74 84 71 85 55 86 56 87 61 88
REMARK SMILES IDX 57 89 58 90 60 91 62 92 59 93
REMARK H PARENT 22 6 13 16 18 29 29 36 79 55 53 66
REMARK Flexibility Score: inf
ROOT
ATOM      1  C   UNL A   1      36.170  23.152  23.993  1.00  0.00     0.021 C 
ENDROOT
BRANCH   1   2
ATOM      2  C   UNL A   1      34.665  23.304  23.798  1.00  0.00     0.116 C 
BRANCH   2   3
ATOM      3  N   UNL A   1      34.389  24.283  22.768  1.00  0.00    -0.352 N 
ATOM      4  C   UNL A   1      33.593  25.393  22.709  1.00  0.00     0.255 C 
ATOM      5  O   UNL A   1      33.575  26.004  21.635  1.00  0.00    -0.269 OA
ATOM      6  H   UNL A   1      34.879  24.113  21.931  1.00  0.00     0.163 HD
BRANCH   4   7
ATOM      7  C   UNL A   1      32.827  25.971  23.855  1.00  0.00     0.083 A 
ATOM      8  C   UNL A   1      31.293  25.797  25.740  1.00  0.00     0.042 A 
ATOM      9  C   UNL A   1      31.687  27.053  26.200  1.00  0.00     0.030 A 
ATOM     10  C   UNL A   1      31.769  25.325  24.510  1.00  0.00     0.043 A 
ATOM     11  C   UNL A   1      32.665  27.765  25.509  1.00  0.00     0.049 A 
ATOM     12  C   UNL A   1      33.251  27.213  24.371  1.00  0.00     0.128 A 
BRANCH   8  13
ATOM     13  N   UNL A   1      30.470  25.024  26.575  1.00  0.00    -0.322 N 
ATOM     14  C   UNL A   1      30.445  23.668  26.862  1.00  0.00     0.255 C 
ATOM     15  O   UNL A   1      29.434  23.214  27.402  1.00  0.00    -0.269 OA
ATOM     16  H   UNL A   1      29.779  25.545  27.046  1.00  0.00     0.170 HD
BRANCH  14  17
ATOM     17  C   UNL A   1      31.624  22.750  26.699  1.00  0.00     0.043 A 
ATOM     18  C   UNL A   1      32.790  20.902  25.605  1.00  0.00     0.120 A 
ATOM     19  C   UNL A   1      33.887  21.075  26.437  1.00  0.00     0.046 A 
ATOM     20  C   UNL A   1      31.693  21.753  25.728  1.00  0.00     0.060 A 
ATOM     21  C   UNL A   1      33.884  22.117  27.368  1.00  0.00     0.005 A 
ATOM     22  C   UNL A   1      32.757  22.941  27.504  1.00  0.00     0.014 A 
BRANCH  18  23
ATOM     23  O   UNL A   1      32.707  19.770  24.841  1.00  0.00    -0.493 OA
BRANCH  23  24
ATOM     24  C   UNL A   1      33.958  19.140  24.508  1.00  0.00     0.232 C 
BRANCH  24  25
ATOM     25  C   UNL A   1      33.931  17.601  24.622  1.00  0.00     0.020 C 
ATOM     26  C   UNL A   1      32.633  17.123  25.286  1.00  0.00     0.011 C 
ATOM     27  C   UNL A   1      34.057  16.910  23.263  1.00  0.00     0.011 C 
ENDBRANCH  24  25
ENDBRANCH  23  24
ENDBRANCH  18  23
ENDBRANCH  14  17
ENDBRANCH   8  13
BRANCH  12  28
ATOM     28  O   UNL A   1      34.279  27.946  23.834  1.00  0.00    -0.507 OA
ATOM     29  H   UNL A   1      34.248  28.208  22.935  1.00  0.00     0.293 HD
ENDBRANCH  12  28
ENDBRANCH   4   7
ENDBRANCH   2   3
ENDBRANCH   1   2
BRANCH   1  30
ATOM     30  C   UNL A   1      36.579  21.695  24.223  1.00  0.00     0.002 C 
BRANCH  30  31
ATOM     31  C   UNL A   1      37.896  21.523  24.991  1.00  0.00     0.002 C 
BRANCH  31  32
ATOM     32  C   UNL A   1      38.552  20.145  24.857  1.00  0.00     0.021 C 
BRANCH  32  33
ATOM     33  C   UNL A   1      39.187  19.621  26.140  1.00  0.00     0.116 C 
BRANCH  33  34
ATOM     34  N   UNL A   1      40.471  18.989  25.888  1.00  0.00    -0.352 N 
ATOM     35  C   UNL A   1      41.725  19.531  25.919  1.00  0.00     0.251 C 
ATOM     36  H   UNL A   1      40.432  18.031  25.662  1.00  0.00     0.163 HD
ATOM     37  O   UNL A   1      42.685  18.892  25.483  1.00  0.00    -0.269 OA
BRANCH  35  38
ATOM     38  C   UNL A   1      41.934  20.883  26.469  1.00  0.00     0.039 A 
ATOM     39  C   UNL A   1      42.239  21.927  25.592  1.00  0.00     0.014 A 
ATOM     40  C   UNL A   1      41.875  21.113  27.848  1.00  0.00     0.014 A 
ATOM     41  C   UNL A   1      42.464  23.209  26.095  1.00  0.00     0.010 A 
ATOM     42  C   UNL A   1      42.035  22.403  28.341  1.00  0.00     0.010 A 
ATOM     43  C   UNL A   1      42.354  23.457  27.472  1.00  0.00    -0.014 A 
BRANCH  43  44
ATOM     44  C   UNL A   1      42.629  24.802  28.029  1.00  0.00     0.031 A 
ATOM     45  C   UNL A   1      44.024  25.162  28.456  1.00  0.00     0.074 A 
ATOM     46  C   UNL A   1      41.620  25.680  28.190  1.00  0.00     0.049 A 
ATOM     47  N   UNL A   1      44.462  26.258  29.020  1.00  0.00    -0.248 NA
ATOM     48  C   UNL A   1      45.064  24.140  28.245  1.00  0.00     0.031 C 
ATOM     49  C   UNL A   1      40.219  25.430  27.850  1.00  0.00     0.029 A 
ATOM     50  N   UNL A   1      41.621  26.956  28.690  1.00  0.00    -0.354 N 
ATOM     51  C   UNL A   1      45.816  26.051  29.249  1.00  0.00     0.074 A 
ATOM     52  C   UNL A   1      46.119  24.706  28.810  1.00  0.00     0.031 C 
ATOM     53  C   UNL A   1      39.498  26.527  28.134  1.00  0.00     0.029 A 
ATOM     54  C   UNL A   1      40.379  27.543  28.702  1.00  0.00     0.049 A 
ATOM     55  H   UNL A   1      42.433  27.409  29.011  1.00  0.00     0.167 HD
ATOM     56  C   UNL A   1      46.730  26.911  29.756  1.00  0.00     0.037 A 
ATOM     57  C   UNL A   1      39.998  28.762  29.126  1.00  0.00     0.037 A 
ATOM     58  C   UNL A   1      46.431  28.259  30.159  1.00  0.00     0.049 A 
ATOM     59  C   UNL A   1      41.034  29.704  29.674  1.00  0.00     0.074 A 
ATOM     60  C   UNL A   1      47.294  29.230  30.635  1.00  0.00     0.029 A 
ATOM     61  N   UNL A   1      45.166  28.827  30.127  1.00  0.00    -0.354 N 
ATOM     62  N   UNL A   1      42.323  29.516  29.830  1.00  0.00    -0.248 NA
ATOM     63  C   UNL A   1      40.566  31.032  30.092  1.00  0.00     0.031 C 
ATOM     64  C   UNL A   1      46.545  30.377  30.922  1.00  0.00     0.029 A 
ATOM     65  C   UNL A   1      45.223  30.133  30.585  1.00  0.00     0.049 A 
ATOM     66  H   UNL A   1      44.348  28.370  29.823  1.00  0.00     0.167 HD
ATOM     67  C   UNL A   1      42.823  30.709  30.335  1.00  0.00     0.074 A 
ATOM     68  C   UNL A   1      41.700  31.618  30.448  1.00  0.00     0.031 C 
ATOM     69  C   UNL A   1      44.096  31.025  30.674  1.00  0.00     0.037 A 
BRANCH  56  70
ATOM     70  C   UNL A   1      48.140  26.417  29.897  1.00  0.00     0.057 A 
ATOM     71  C   UNL A   1      49.087  26.587  28.878  1.00  0.00     0.134 A 
ATOM     72  C   UNL A   1      48.563  25.784  31.072  1.00  0.00     0.134 A 
ATOM     73  F   UNL A   1      48.743  27.172  27.721  1.00  0.00    -0.206 F 
ATOM     74  C   UNL A   1      50.396  26.120  29.012  1.00  0.00     0.040 A 
ATOM     75  C   UNL A   1      49.877  25.338  31.229  1.00  0.00     0.040 A 
ATOM     76  F   UNL A   1      47.710  25.594  32.090  1.00  0.00    -0.206 F 
ATOM     77  C   UNL A   1      50.796  25.499  30.193  1.00  0.00     0.006 A 
ENDBRANCH  56  70
BRANCH  57  78
ATOM     78  C   UNL A   1      38.577  29.175  29.021  1.00  0.00     0.057 A 
ATOM     79  C   UNL A   1      37.718  29.089  30.122  1.00  0.00     0.134 A 
ATOM     80  C   UNL A   1      38.042  29.659  27.821  1.00  0.00     0.134 A 
ATOM     81  F   UNL A   1      38.170  28.617  31.293  1.00  0.00    -0.206 F 
ATOM     82  C   UNL A   1      36.373  29.448  30.031  1.00  0.00     0.040 A 
ATOM     83  C   UNL A   1      36.704  30.043  27.721  1.00  0.00     0.040 A 
ATOM     84  F   UNL A   1      38.817  29.773  26.732  1.00  0.00    -0.206 F 
ATOM     85  C   UNL A   1      35.864  29.930  28.827  1.00  0.00     0.006 A 
ENDBRANCH  57  78
BRANCH  69  86
ATOM     86  C   UNL A   1      44.351  32.422  31.156  1.00  0.00     0.057 A 
ATOM     87  C   UNL A   1      44.346  32.748  32.517  1.00  0.00     0.134 A 
ATOM     88  C   UNL A   1      44.642  33.445  30.244  1.00  0.00     0.134 A 
ATOM     89  F   UNL A   1      44.061  31.815  33.438  1.00  0.00    -0.206 F 
ATOM     90  C   UNL A   1      44.603  34.048  32.954  1.00  0.00     0.040 A 
ATOM     91  C   UNL A   1      44.925  34.742  30.671  1.00  0.00     0.040 A 
ATOM     92  F   UNL A   1      44.670  33.196  28.926  1.00  0.00    -0.206 F 
ATOM     93  C   UNL A   1      44.900  35.048  32.031  1.00  0.00     0.006 A 
ENDBRANCH  69  86
ENDBRANCH  43  44
ENDBRANCH  35  38
ENDBRANCH  33  34
ENDBRANCH  32  33
ENDBRANCH  31  32
ENDBRANCH  30  31
ENDBRANCH   1  30
TORSDOF 19
ENDMDL
MODEL 3
REMARK VINA RESULT:     -11.8      1.031      6.101
REMARK SMILES CC(C)COc1cccc(C(=O)Nc2ccc(O)c(C(=O)NCCCCCCNC(=O)c3ccc(-c4c5nc(c(-c6c(F)cccc6F)c6ccc([nH]6)c(-c6c(F)cccc6F)c6nc(c(-c7c(F)cccc7F)c7ccc4[nH]7)C=C6)C=C5)cc3)c2)c1
REMARK SMILES IDX 24 1 23 2 22 3 20 4 21 5 19 7 14 8 15 9 86 10 16 11 17 12
REMARK SMILES IDX 13 13 11 14 12 15 10 17 6 18 7 19 87 20 8 21 9 22 5 23 4 24
REMARK SMILES IDX 2 25 1 26 3 27 18 28 25 30 26 31 27 32 28 33 29 34 30 35
REMARK SMILES IDX 31 37 32 38 33 39 85 40 34 41 84 42 35 43 36 44 37 45 78 46
REMARK SMILES IDX 38 47 83 48 77 49 79 50 39 51 82 52 76 53 75 54 40 56 66 57
REMARK SMILES IDX 49 58 65 59 50 60 53 61 64 62 80 63 51 64 52 65 63 67 81 68
REMARK SMILES IDX 54 69 41 70 42 71 47 72 43 73 44 74 46 75 48 76 45 77 67 78
REMARK SMILES IDX 68 79 73 80 69 81 70 82 72 83 74 84 71 85 55 86 56 87 61 88
REMARK SMILES IDX 57 89 58 90 60 91 62 92 59 93
REMARK H PARENT 22 6 13 16 18 29 29 36 79 55 53 66
REMARK Flexibility Score: inf
ROOT
ATOM      1  C   UNL A   1      31.406  28.276  27.209  1.00  0.00     0.021 C 
ENDROOT
BRANCH   1   2
ATOM      2  C   UNL A   1      31.872  27.028  26.466  1.00  0.00     0.116 C 
BRANCH   2   3
ATOM      3  N   UNL A   1      31.091  25.880  26.873  1.00  0.00    -0.352 N 
ATOM      4  C   UNL A   1      31.078  24.565  26.499  1.00  0.00     0.255 C 
ATOM      5  O   UNL A   1      30.241  23.842  27.049  1.00  0.00    -0.269 OA
ATOM      6  H   UNL A   1      30.427  26.091  27.569  1.00  0.00     0.163 HD
BRANCH   4   7
ATOM      7  C   UNL A   1      32.046  23.924  25.558  1.00  0.00     0.083 A 
ATOM      8  C   UNL A   1      33.110  23.679  23.380  1.00  0.00     0.042 A 
ATOM      9  C   UNL A   1      34.126  22.907  23.942  1.00  0.00     0.030 A 
ATOM     10  C   UNL A   1      32.017  24.071  24.165  1.00  0.00     0.043 A 
ATOM     11  C   UNL A   1      34.123  22.657  25.313  1.00  0.00     0.049 A 
ATOM     12  C   UNL A   1      33.114  23.189  26.114  1.00  0.00     0.128 A 
BRANCH   8  13
ATOM     13  N   UNL A   1      33.262  24.087  22.045  1.00  0.00    -0.322 N 
ATOM     14  C   UNL A   1      32.904  25.249  21.379  1.00  0.00     0.255 C 
ATOM     15  O   UNL A   1      32.892  25.224  20.146  1.00  0.00    -0.269 OA
ATOM     16  H   UNL A   1      33.706  23.420  21.472  1.00  0.00     0.170 HD
BRANCH  14  17
ATOM     17  C   UNL A   1      32.679  26.573  22.055  1.00  0.00     0.043 A 
ATOM     18  C   UNL A   1      31.231  28.314  22.973  1.00  0.00     0.120 A 
ATOM     19  C   UNL A   1      32.336  29.063  23.350  1.00  0.00     0.046 A 
ATOM     20  C   UNL A   1      31.416  27.075  22.360  1.00  0.00     0.060 A 
ATOM     21  C   UNL A   1      33.618  28.552  23.132  1.00  0.00     0.005 A 
ATOM     22  C   UNL A   1      33.787  27.321  22.481  1.00  0.00     0.014 A 
BRANCH  18  23
ATOM     23  O   UNL A   1      29.993  28.895  23.000  1.00  0.00    -0.493 OA
BRANCH  23  24
ATOM     24  C   UNL A   1      29.743  29.894  21.994  1.00  0.00     0.232 C 
BRANCH  24  25
ATOM     25  C   UNL A   1      28.352  30.555  22.103  1.00  0.00     0.020 C 
ATOM     26  C   UNL A   1      28.250  31.412  23.372  1.00  0.00     0.011 C 
ATOM     27  C   UNL A   1      28.027  31.440  20.900  1.00  0.00     0.011 C 
ENDBRANCH  24  25
ENDBRANCH  23  24
ENDBRANCH  18  23
ENDBRANCH  14  17
ENDBRANCH   8  13
BRANCH  12  28
ATOM     28  O   UNL A   1      33.270  22.976  27.460  1.00  0.00    -0.507 OA
ATOM     29  H   UNL A   1      33.468  23.695  28.028  1.00  0.00     0.293 HD
ENDBRANCH  12  28
ENDBRANCH   4   7
ENDBRANCH   2   3
ENDBRANCH   1   2
BRANCH   1  30
ATOM     30  C   UNL A   1      32.246  29.506  26.857  1.00  0.00     0.002 C 
BRANCH  30  31
ATOM     31  C   UNL A   1      31.456  30.639  26.188  1.00  0.00     0.002 C 
BRANCH  31  32
ATOM     32  C   UNL A   1      31.405  31.950  26.978  1.00  0.00     0.021 C 
BRANCH  32  33
ATOM     33  C   UNL A   1      32.667  32.798  26.877  1.00  0.00     0.116 C 
BRANCH  33  34
ATOM     34  N   UNL A   1      32.496  34.099  27.501  1.00  0.00    -0.352 N 
ATOM     35  C   UNL A   1      33.101  34.612  28.614  1.00  0.00     0.251 C 
ATOM     36  H   UNL A   1      31.852  34.697  27.058  1.00  0.00     0.163 HD
ATOM     37  O   UNL A   1      32.686  35.660  29.114  1.00  0.00    -0.269 OA
BRANCH  35  38
ATOM     38  C   UNL A   1      34.246  33.913  29.225  1.00  0.00     0.039 A 
ATOM     39  C   UNL A   1      35.539  34.261  28.825  1.00  0.00     0.014 A 
ATOM     40  C   UNL A   1      34.047  32.886  30.154  1.00  0.00     0.014 A 
ATOM     41  C   UNL A   1      36.635  33.595  29.372  1.00  0.00     0.010 A 
ATOM     42  C   UNL A   1      35.142  32.268  30.748  1.00  0.00     0.010 A 
ATOM     43  C   UNL A   1      36.444  32.600  30.344  1.00  0.00    -0.014 A 
BRANCH  43  44
ATOM     44  C   UNL A   1      37.593  31.854  30.908  1.00  0.00     0.031 A 
ATOM     45  C   UNL A   1      38.078  32.170  32.296  1.00  0.00     0.074 A 
ATOM     46  C   UNL A   1      38.225  30.929  30.160  1.00  0.00     0.049 A 
ATOM     47  N   UNL A   1      39.100  31.677  32.948  1.00  0.00    -0.248 NA
ATOM     48  C   UNL A   1      37.330  33.196  33.040  1.00  0.00     0.031 C 
ATOM     49  C   UNL A   1      37.871  30.566  28.787  1.00  0.00     0.029 A 
ATOM     50  N   UNL A   1      39.303  30.134  30.449  1.00  0.00    -0.354 N 
ATOM     51  C   UNL A   1      39.128  32.346  34.166  1.00  0.00     0.074 A 
ATOM     52  C   UNL A   1      38.054  33.314  34.142  1.00  0.00     0.031 C 
ATOM     53  C   UNL A   1      38.706  29.604  28.361  1.00  0.00     0.029 A 
ATOM     54  C   UNL A   1      39.669  29.307  29.416  1.00  0.00     0.049 A 
ATOM     55  H   UNL A   1      39.771  30.154  31.315  1.00  0.00     0.167 HD
ATOM     56  C   UNL A   1      39.958  32.155  35.217  1.00  0.00     0.037 A 
ATOM     57  C   UNL A   1      40.671  28.412  29.333  1.00  0.00     0.037 A 
ATOM     58  C   UNL A   1      41.004  31.167  35.249  1.00  0.00     0.049 A 
ATOM     59  C   UNL A   1      41.572  28.208  30.519  1.00  0.00     0.074 A 
ATOM     60  C   UNL A   1      41.866  30.855  36.285  1.00  0.00     0.029 A 
ATOM     61  N   UNL A   1      41.324  30.326  34.193  1.00  0.00    -0.354 N 
ATOM     62  N   UNL A   1      41.551  28.806  31.686  1.00  0.00    -0.248 NA
ATOM     63  C   UNL A   1      42.628  27.196  30.382  1.00  0.00     0.031 C 
ATOM     64  C   UNL A   1      42.730  29.846  35.844  1.00  0.00     0.029 A 
ATOM     65  C   UNL A   1      42.377  29.502  34.549  1.00  0.00     0.049 A 
ATOM     66  H   UNL A   1      40.868  30.316  33.320  1.00  0.00     0.167 HD
ATOM     67  C   UNL A   1      42.568  28.223  32.431  1.00  0.00     0.074 A 
ATOM     68  C   UNL A   1      43.179  27.216  31.587  1.00  0.00     0.031 C 
ATOM     69  C   UNL A   1      42.960  28.496  33.699  1.00  0.00     0.037 A 
BRANCH  56  70
ATOM     70  C   UNL A   1      39.762  33.030  36.420  1.00  0.00     0.057 A 
ATOM     71  C   UNL A   1      38.827  32.719  37.415  1.00  0.00     0.134 A 
ATOM     72  C   UNL A   1      40.534  34.186  36.598  1.00  0.00     0.134 A 
ATOM     73  F   UNL A   1      38.046  31.634  37.299  1.00  0.00    -0.206 F 
ATOM     74  C   UNL A   1      38.645  33.540  38.530  1.00  0.00     0.040 A 
ATOM     75  C   UNL A   1      40.380  35.000  37.722  1.00  0.00     0.040 A 
ATOM     76  F   UNL A   1      41.452  34.540  35.687  1.00  0.00    -0.206 F 
ATOM     77  C   UNL A   1      39.428  34.681  38.688  1.00  0.00     0.006 A 
ENDBRANCH  56  70
BRANCH  57  78
ATOM     78  C   UNL A   1      40.856  27.617  28.094  1.00  0.00     0.057 A 
ATOM     79  C   UNL A   1      40.239  26.372  27.937  1.00  0.00     0.134 A 
ATOM     80  C   UNL A   1      41.656  28.078  27.041  1.00  0.00     0.134 A 
ATOM     81  F   UNL A   1      39.474  25.871  28.919  1.00  0.00    -0.206 F 
ATOM     82  C   UNL A   1      40.425  25.602  26.789  1.00  0.00     0.040 A 
ATOM     83  C   UNL A   1      41.833  27.329  25.876  1.00  0.00     0.040 A 
ATOM     84  F   UNL A   1      42.268  29.268  27.126  1.00  0.00    -0.206 F 
ATOM     85  C   UNL A   1      41.222  26.082  25.752  1.00  0.00     0.006 A 
ENDBRANCH  57  78
BRANCH  69  86
ATOM     86  C   UNL A   1      44.072  27.664  34.266  1.00  0.00     0.057 A 
ATOM     87  C   UNL A   1      45.412  28.060  34.177  1.00  0.00     0.134 A 
ATOM     88  C   UNL A   1      43.792  26.471  34.943  1.00  0.00     0.134 A 
ATOM     89  F   UNL A   1      45.746  29.186  33.529  1.00  0.00    -0.206 F 
ATOM     90  C   UNL A   1      46.437  27.288  34.724  1.00  0.00     0.040 A 
ATOM     91  C   UNL A   1      44.805  25.703  35.516  1.00  0.00     0.040 A 
ATOM     92  F   UNL A   1      42.527  26.040  35.070  1.00  0.00    -0.206 F 
ATOM     93  C   UNL A   1      46.134  26.108  35.402  1.00  0.00     0.006 A 
ENDBRANCH  69  86
ENDBRANCH  43  44
ENDBRANCH  35  38
ENDBRANCH  33  34
ENDBRANCH  32  33
ENDBRANCH  31  32
ENDBRANCH  30  31
ENDBRANCH   1  30
TORSDOF 19
ENDMDL
