MODEL 1
REMARK VINA RESULT:     -11.1      0.000      0.000
REMARK SMILES CCC[C@]1(C(=O)NCCCCCCNC(=O)c2ccc(-c3c4nc(c(-c5c(F)cccc5F)c5ccc([nH]5)c(-c5c(F)cccc5F)c5nc(c(-c6c(F)cccc6F)c6ccc3[nH]6)C=C5)C=C4)cc2)CCN(c2cncc(C(=O)OC)n2)C1
REMARK SMILES IDX 10 1 9 2 8 3 7 4 5 5 6 6 4 8 71 9 84 10 72 11 73 12 3 13
REMARK SMILES IDX 2 14 1 15 74 16 75 17 83 18 76 19 78 20 77 21 79 22 80 23
REMARK SMILES IDX 81 24 82 25 11 26 12 27 13 28 14 29 15 30 16 32 17 33 18 34
REMARK SMILES IDX 70 35 19 36 69 37 20 38 21 39 22 40 63 41 23 42 68 43 62 44
REMARK SMILES IDX 64 45 24 46 67 47 61 48 60 49 25 51 51 52 34 53 50 54 35 55
REMARK SMILES IDX 38 56 49 57 65 58 36 59 37 60 48 62 66 63 39 64 26 65 27 66
REMARK SMILES IDX 32 67 28 68 29 69 31 70 33 71 30 72 52 73 53 74 58 75 54 76
REMARK SMILES IDX 55 77 57 78 59 79 56 80 40 81 41 82 46 83 42 84 43 85 45 86
REMARK SMILES IDX 47 87 44 88
REMARK H PARENT 7 7 14 31 64 50 38 61
REMARK Flexibility Score: inf
ROOT
ATOM      1  C   UNL A   1      33.355  21.934  24.868  1.00  0.00     0.002 C 
ENDROOT
BRANCH   1   2
ATOM      2  C   UNL A   1      32.705  21.836  23.484  1.00  0.00     0.021 C 
BRANCH   2   3
ATOM      3  C   UNL A   1      31.923  23.080  23.069  1.00  0.00     0.116 C 
BRANCH   3   4
ATOM      4  N   UNL A   1      32.588  23.778  21.986  1.00  0.00    -0.356 N 
ATOM      5  C   UNL A   1      32.880  25.090  21.784  1.00  0.00     0.228 C 
ATOM      6  O   UNL A   1      33.302  25.359  20.654  1.00  0.00    -0.274 OA
ATOM      7  H   UNL A   1      32.886  23.188  21.256  1.00  0.00     0.163 HD
BRANCH   5   8
ATOM      8  C   UNL A   1      32.662  26.185  22.851  1.00  0.00     0.068 C 
ATOM      9  C   UNL A   1      33.270  27.521  22.337  1.00  0.00     0.040 C 
ATOM     10  C   UNL A   1      31.160  26.490  23.092  1.00  0.00     0.135 C 
ATOM     11  C   UNL A   1      32.267  28.595  22.740  1.00  0.00     0.119 C 
ATOM     12  N   UNL A   1      31.007  27.884  22.704  1.00  0.00    -0.354 N 
BRANCH   8  13
ATOM     13  C   UNL A   1      33.400  25.800  24.173  1.00  0.00     0.018 C 
BRANCH  13  14
ATOM     14  C   UNL A   1      32.789  26.229  25.517  1.00  0.00    -0.002 C 
ATOM     15  C   UNL A   1      32.117  25.142  26.336  1.00  0.00     0.004 C 
ENDBRANCH  13  14
ENDBRANCH   8  13
BRANCH  12  16
ATOM     16  C   UNL A   1      29.789  28.511  22.688  1.00  0.00     0.148 A 
ATOM     17  C   UNL A   1      28.649  27.849  23.167  1.00  0.00     0.157 A 
ATOM     18  N   UNL A   1      29.692  29.794  22.273  1.00  0.00    -0.221 NA
ATOM     19  N   UNL A   1      27.417  28.404  23.263  1.00  0.00    -0.258 NA
ATOM     20  C   UNL A   1      28.446  30.353  22.314  1.00  0.00     0.169 A 
ATOM     21  C   UNL A   1      27.343  29.677  22.818  1.00  0.00     0.147 A 
BRANCH  20  22
ATOM     22  C   UNL A   1      28.216  31.710  21.759  1.00  0.00     0.358 C 
ATOM     23  O   UNL A   1      28.346  31.971  20.568  1.00  0.00    -0.244 OA
BRANCH  22  24
ATOM     24  O   UNL A   1      27.910  32.608  22.729  1.00  0.00    -0.464 OA
ATOM     25  C   UNL A   1      29.011  33.438  23.107  1.00  0.00     0.282 C 
ENDBRANCH  22  24
ENDBRANCH  20  22
ENDBRANCH  12  16
ENDBRANCH   5   8
ENDBRANCH   3   4
ENDBRANCH   2   3
ENDBRANCH   1   2
BRANCH   1  26
ATOM     26  C   UNL A   1      34.837  22.323  24.858  1.00  0.00     0.002 C 
BRANCH  26  27
ATOM     27  C   UNL A   1      35.303  23.124  26.075  1.00  0.00     0.021 C 
BRANCH  27  28
ATOM     28  C   UNL A   1      36.715  23.684  25.960  1.00  0.00     0.116 C 
BRANCH  28  29
ATOM     29  N   UNL A   1      37.724  22.640  26.029  1.00  0.00    -0.352 N 
ATOM     30  C   UNL A   1      39.063  22.747  26.308  1.00  0.00     0.251 C 
ATOM     31  H   UNL A   1      37.400  21.727  25.850  1.00  0.00     0.163 HD
ATOM     32  O   UNL A   1      39.812  21.792  26.130  1.00  0.00    -0.269 OA
BRANCH  30  33
ATOM     33  C   UNL A   1      39.603  24.029  26.806  1.00  0.00     0.039 A 
ATOM     34  C   UNL A   1      40.064  24.972  25.885  1.00  0.00     0.014 A 
ATOM     35  C   UNL A   1      39.651  24.298  28.176  1.00  0.00     0.014 A 
ATOM     36  C   UNL A   1      40.524  26.209  26.339  1.00  0.00     0.010 A 
ATOM     37  C   UNL A   1      40.032  25.559  28.620  1.00  0.00     0.010 A 
ATOM     38  C   UNL A   1      40.482  26.525  27.707  1.00  0.00    -0.014 A 
BRANCH  38  39
ATOM     39  C   UNL A   1      40.916  27.855  28.203  1.00  0.00     0.031 A 
ATOM     40  C   UNL A   1      42.377  28.208  28.238  1.00  0.00     0.074 A 
ATOM     41  C   UNL A   1      39.999  28.725  28.669  1.00  0.00     0.049 A 
ATOM     42  N   UNL A   1      42.956  29.295  28.683  1.00  0.00    -0.248 NA
ATOM     43  C   UNL A   1      43.314  27.193  27.732  1.00  0.00     0.031 C 
ATOM     44  C   UNL A   1      38.556  28.487  28.723  1.00  0.00     0.029 A 
ATOM     45  N   UNL A   1      40.148  29.985  29.192  1.00  0.00    -0.354 N 
ATOM     46  C   UNL A   1      44.320  29.091  28.515  1.00  0.00     0.074 A 
ATOM     47  C   UNL A   1      44.486  27.751  27.993  1.00  0.00     0.031 C 
ATOM     48  C   UNL A   1      37.949  29.578  29.217  1.00  0.00     0.029 A 
ATOM     49  C   UNL A   1      38.961  30.573  29.555  1.00  0.00     0.049 A 
ATOM     50  H   UNL A   1      41.022  30.425  29.296  1.00  0.00     0.167 HD
ATOM     51  C   UNL A   1      45.341  29.949  28.748  1.00  0.00     0.037 A 
ATOM     52  C   UNL A   1      38.718  31.778  30.104  1.00  0.00     0.037 A 
ATOM     53  C   UNL A   1      45.171  31.284  29.261  1.00  0.00     0.049 A 
ATOM     54  C   UNL A   1      39.871  32.699  30.393  1.00  0.00     0.074 A 
ATOM     55  C   UNL A   1      46.136  32.248  29.496  1.00  0.00     0.029 A 
ATOM     56  N   UNL A   1      43.953  31.840  29.626  1.00  0.00    -0.354 N 
ATOM     57  N   UNL A   1      41.151  32.518  30.172  1.00  0.00    -0.248 NA
ATOM     58  C   UNL A   1      39.544  33.994  31.006  1.00  0.00     0.031 C 
ATOM     59  C   UNL A   1      45.509  33.368  30.052  1.00  0.00     0.029 A 
ATOM     60  C   UNL A   1      44.146  33.125  30.106  1.00  0.00     0.049 A 
ATOM     61  H   UNL A   1      43.081  31.389  29.553  1.00  0.00     0.167 HD
ATOM     62  C   UNL A   1      41.777  33.688  30.582  1.00  0.00     0.074 A 
ATOM     63  C   UNL A   1      40.735  34.575  31.056  1.00  0.00     0.031 C 
ATOM     64  C   UNL A   1      43.097  34.002  30.566  1.00  0.00     0.037 A 
BRANCH  51  65
ATOM     65  C   UNL A   1      46.731  29.463  28.450  1.00  0.00     0.057 A 
ATOM     66  C   UNL A   1      47.321  29.635  27.189  1.00  0.00     0.134 A 
ATOM     67  C   UNL A   1      47.495  28.826  29.435  1.00  0.00     0.134 A 
ATOM     68  F   UNL A   1      46.641  30.227  26.196  1.00  0.00    -0.206 F 
ATOM     69  C   UNL A   1      48.603  29.157  26.909  1.00  0.00     0.040 A 
ATOM     70  C   UNL A   1      48.791  28.373  29.177  1.00  0.00     0.040 A 
ATOM     71  F   UNL A   1      46.999  28.634  30.667  1.00  0.00    -0.206 F 
ATOM     72  C   UNL A   1      49.344  28.528  27.907  1.00  0.00     0.006 A 
ENDBRANCH  51  65
BRANCH  52  73
ATOM     73  C   UNL A   1      37.323  32.200  30.389  1.00  0.00     0.057 A 
ATOM     74  C   UNL A   1      36.618  33.009  29.489  1.00  0.00     0.134 A 
ATOM     75  C   UNL A   1      36.663  31.819  31.563  1.00  0.00     0.134 A 
ATOM     76  F   UNL A   1      37.202  33.422  28.355  1.00  0.00    -0.206 F 
ATOM     77  C   UNL A   1      35.318  33.443  29.757  1.00  0.00     0.040 A 
ATOM     78  C   UNL A   1      35.354  32.221  31.831  1.00  0.00     0.040 A 
ATOM     79  F   UNL A   1      37.279  31.037  32.463  1.00  0.00    -0.206 F 
ATOM     80  C   UNL A   1      34.681  33.044  30.929  1.00  0.00     0.006 A 
ENDBRANCH  52  73
BRANCH  64  81
ATOM     81  C   UNL A   1      43.483  35.377  31.029  1.00  0.00     0.057 A 
ATOM     82  C   UNL A   1      43.595  36.457  30.145  1.00  0.00     0.134 A 
ATOM     83  C   UNL A   1      43.712  35.629  32.389  1.00  0.00     0.134 A 
ATOM     84  F   UNL A   1      43.403  36.281  28.829  1.00  0.00    -0.206 F 
ATOM     85  C   UNL A   1      43.948  37.732  30.592  1.00  0.00     0.040 A 
ATOM     86  C   UNL A   1      44.033  36.906  32.851  1.00  0.00     0.040 A 
ATOM     87  F   UNL A   1      43.613  34.641  33.292  1.00  0.00    -0.206 F 
ATOM     88  C   UNL A   1      44.161  37.960  31.950  1.00  0.00     0.006 A 
ENDBRANCH  64  81
ENDBRANCH  38  39
ENDBRANCH  30  33
ENDBRANCH  28  29
ENDBRANCH  27  28
ENDBRANCH  26  27
ENDBRANCH   1  26
TORSDOF 18
ENDMDL
MODEL 2
REMARK VINA RESULT:     -10.9      4.045      9.079
REMARK SMILES CCC[C@]1(C(=O)NCCCCCCNC(=O)c2ccc(-c3c4nc(c(-c5c(F)cccc5F)c5ccc([nH]5)c(-c5c(F)cccc5F)c5nc(c(-c6c(F)cccc6F)c6ccc3[nH]6)C=C5)C=C4)cc2)CCN(c2cncc(C(=O)OC)n2)C1
REMARK SMILES IDX 10 1 9 2 8 3 7 4 5 5 6 6 4 8 71 9 84 10 72 11 73 12 3 13
REMARK SMILES IDX 2 14 1 15 74 16 75 17 83 18 76 19 78 20 77 21 79 22 80 23
REMARK SMILES IDX 81 24 82 25 11 26 12 27 13 28 14 29 15 30 16 32 17 33 18 34
REMARK SMILES IDX 70 35 19 36 69 37 20 38 21 39 22 40 63 41 23 42 68 43 62 44
REMARK SMILES IDX 64 45 24 46 67 47 61 48 60 49 25 51 51 52 34 53 50 54 35 55
REMARK SMILES IDX 38 56 49 57 65 58 36 59 37 60 48 62 66 63 39 64 26 65 27 66
REMARK SMILES IDX 32 67 28 68 29 69 31 70 33 71 30 72 52 73 53 74 58 75 54 76
REMARK SMILES IDX 55 77 57 78 59 79 56 80 40 81 41 82 46 83 42 84 43 85 45 86
REMARK SMILES IDX 47 87 44 88
REMARK H PARENT 7 7 14 31 64 50 38 61
REMARK Flexibility Score: inf
ROOT
ATOM      1  C   UNL A   1      32.160  29.860  27.136  1.00  0.00     0.002 C 
ENDROOT
BRANCH   1   2
ATOM      2  C   UNL A   1      33.673  29.681  26.969  1.00  0.00     0.021 C 
BRANCH   2   3
ATOM      3  C   UNL A   1      34.074  28.455  26.153  1.00  0.00     0.116 C 
BRANCH   3   4
ATOM      4  N   UNL A   1      34.233  28.789  24.752  1.00  0.00    -0.356 N 
ATOM      5  C   UNL A   1      33.806  28.186  23.611  1.00  0.00     0.228 C 
ATOM      6  O   UNL A   1      34.279  28.652  22.569  1.00  0.00    -0.274 OA
ATOM      7  H   UNL A   1      34.752  29.612  24.596  1.00  0.00     0.163 HD
BRANCH   5   8
ATOM      8  C   UNL A   1      32.843  26.978  23.596  1.00  0.00     0.068 C 
ATOM      9  C   UNL A   1      32.763  26.413  22.150  1.00  0.00     0.040 C 
ATOM     10  C   UNL A   1      33.356  25.799  24.464  1.00  0.00     0.135 C 
ATOM     11  C   UNL A   1      32.766  24.897  22.315  1.00  0.00     0.119 C 
ATOM     12  N   UNL A   1      33.547  24.710  23.519  1.00  0.00    -0.354 N 
BRANCH   8  13
ATOM     13  C   UNL A   1      31.408  27.431  24.013  1.00  0.00     0.018 C 
BRANCH  13  14
ATOM     14  C   UNL A   1      30.414  27.853  22.917  1.00  0.00    -0.002 C 
ATOM     15  C   UNL A   1      30.268  29.344  22.670  1.00  0.00     0.004 C 
ENDBRANCH  13  14
ENDBRANCH   8  13
BRANCH  12  16
ATOM     16  C   UNL A   1      34.083  23.504  23.888  1.00  0.00     0.148 A 
ATOM     17  C   UNL A   1      35.466  23.377  24.083  1.00  0.00     0.157 A 
ATOM     18  N   UNL A   1      33.274  22.448  24.130  1.00  0.00    -0.221 NA
ATOM     19  N   UNL A   1      36.085  22.253  24.519  1.00  0.00    -0.258 NA
ATOM     20  C   UNL A   1      33.887  21.291  24.520  1.00  0.00     0.169 A 
ATOM     21  C   UNL A   1      35.257  21.207  24.729  1.00  0.00     0.147 A 
BRANCH  20  22
ATOM     22  C   UNL A   1      33.097  20.044  24.683  1.00  0.00     0.358 C 
ATOM     23  O   UNL A   1      31.941  20.040  25.090  1.00  0.00    -0.244 OA
BRANCH  22  24
ATOM     24  O   UNL A   1      33.829  18.940  24.388  1.00  0.00    -0.464 OA
ATOM     25  C   UNL A   1      33.100  17.950  23.660  1.00  0.00     0.282 C 
ENDBRANCH  22  24
ENDBRANCH  20  22
ENDBRANCH  12  16
ENDBRANCH   5   8
ENDBRANCH   3   4
ENDBRANCH   2   3
ENDBRANCH   1   2
BRANCH   1  26
ATOM     26  C   UNL A   1      31.506  30.799  26.118  1.00  0.00     0.002 C 
BRANCH  26  27
ATOM     27  C   UNL A   1      31.413  32.262  26.555  1.00  0.00     0.021 C 
BRANCH  27  28
ATOM     28  C   UNL A   1      32.703  32.832  27.130  1.00  0.00     0.116 C 
BRANCH  28  29
ATOM     29  N   UNL A   1      32.518  34.172  27.664  1.00  0.00    -0.352 N 
ATOM     30  C   UNL A   1      33.139  34.772  28.730  1.00  0.00     0.251 C 
ATOM     31  H   UNL A   1      31.854  34.726  27.193  1.00  0.00     0.163 HD
ATOM     32  O   UNL A   1      32.723  35.839  29.169  1.00  0.00    -0.269 OA
BRANCH  30  33
ATOM     33  C   UNL A   1      34.301  34.115  29.361  1.00  0.00     0.039 A 
ATOM     34  C   UNL A   1      34.082  33.172  30.367  1.00  0.00     0.014 A 
ATOM     35  C   UNL A   1      35.603  34.427  28.958  1.00  0.00     0.014 A 
ATOM     36  C   UNL A   1      35.168  32.502  30.932  1.00  0.00     0.010 A 
ATOM     37  C   UNL A   1      36.676  33.701  29.463  1.00  0.00     0.010 A 
ATOM     38  C   UNL A   1      36.471  32.738  30.463  1.00  0.00    -0.014 A 
BRANCH  38  39
ATOM     39  C   UNL A   1      37.633  31.996  31.013  1.00  0.00     0.031 A 
ATOM     40  C   UNL A   1      38.152  32.319  32.386  1.00  0.00     0.074 A 
ATOM     41  C   UNL A   1      38.252  31.069  30.257  1.00  0.00     0.049 A 
ATOM     42  N   UNL A   1      39.185  31.820  33.019  1.00  0.00    -0.248 NA
ATOM     43  C   UNL A   1      37.434  33.360  33.136  1.00  0.00     0.031 C 
ATOM     44  C   UNL A   1      37.866  30.692  28.895  1.00  0.00     0.029 A 
ATOM     45  N   UNL A   1      39.340  30.278  30.525  1.00  0.00    -0.354 N 
ATOM     46  C   UNL A   1      39.241  32.490  34.235  1.00  0.00     0.074 A 
ATOM     47  C   UNL A   1      38.182  33.477  34.223  1.00  0.00     0.031 C 
ATOM     48  C   UNL A   1      38.684  29.718  28.462  1.00  0.00     0.029 A 
ATOM     49  C   UNL A   1      39.675  29.435  29.495  1.00  0.00     0.049 A 
ATOM     50  H   UNL A   1      39.833  30.311  31.377  1.00  0.00     0.167 HD
ATOM     51  C   UNL A   1      40.078  32.284  35.279  1.00  0.00     0.037 A 
ATOM     52  C   UNL A   1      40.674  28.537  29.392  1.00  0.00     0.037 A 
ATOM     53  C   UNL A   1      41.125  31.295  35.290  1.00  0.00     0.049 A 
ATOM     54  C   UNL A   1      41.618  28.356  30.548  1.00  0.00     0.074 A 
ATOM     55  C   UNL A   1      42.003  30.980  36.312  1.00  0.00     0.029 A 
ATOM     56  N   UNL A   1      41.439  30.466  34.222  1.00  0.00    -0.354 N 
ATOM     57  N   UNL A   1      41.622  28.951  31.717  1.00  0.00    -0.248 NA
ATOM     58  C   UNL A   1      42.696  27.373  30.372  1.00  0.00     0.031 C 
ATOM     59  C   UNL A   1      42.883  29.998  35.845  1.00  0.00     0.029 A 
ATOM     60  C   UNL A   1      42.514  29.657  34.553  1.00  0.00     0.049 A 
ATOM     61  H   UNL A   1      40.968  30.455  33.358  1.00  0.00     0.167 HD
ATOM     62  C   UNL A   1      42.675  28.390  32.427  1.00  0.00     0.074 A 
ATOM     63  C   UNL A   1      43.281  27.399  31.561  1.00  0.00     0.031 C 
ATOM     64  C   UNL A   1      43.101  28.668  33.684  1.00  0.00     0.037 A 
BRANCH  51  65
ATOM     65  C   UNL A   1      39.892  33.150  36.493  1.00  0.00     0.057 A 
ATOM     66  C   UNL A   1      40.651  34.311  36.697  1.00  0.00     0.134 A 
ATOM     67  C   UNL A   1      38.935  32.830  37.463  1.00  0.00     0.134 A 
ATOM     68  F   UNL A   1      41.594  34.672  35.812  1.00  0.00    -0.206 F 
ATOM     69  C   UNL A   1      40.494  35.098  37.839  1.00  0.00     0.040 A 
ATOM     70  C   UNL A   1      38.745  33.627  38.594  1.00  0.00     0.040 A 
ATOM     71  F   UNL A   1      38.166  31.738  37.330  1.00  0.00    -0.206 F 
ATOM     72  C   UNL A   1      39.534  34.759  38.790  1.00  0.00     0.006 A 
ENDBRANCH  51  65
BRANCH  52  73
ATOM     73  C   UNL A   1      40.816  27.717  28.162  1.00  0.00     0.057 A 
ATOM     74  C   UNL A   1      41.564  28.180  27.072  1.00  0.00     0.134 A 
ATOM     75  C   UNL A   1      40.206  26.464  28.037  1.00  0.00     0.134 A 
ATOM     76  F   UNL A   1      42.157  29.381  27.123  1.00  0.00    -0.206 F 
ATOM     77  C   UNL A   1      41.679  27.437  25.895  1.00  0.00     0.040 A 
ATOM     78  C   UNL A   1      40.336  25.698  26.878  1.00  0.00     0.040 A 
ATOM     79  F   UNL A   1      39.483  25.960  29.049  1.00  0.00    -0.206 F 
ATOM     80  C   UNL A   1      41.068  26.189  25.799  1.00  0.00     0.006 A 
ENDBRANCH  52  73
BRANCH  64  81
ATOM     81  C   UNL A   1      44.247  27.856  34.217  1.00  0.00     0.057 A 
ATOM     82  C   UNL A   1      45.575  28.293  34.128  1.00  0.00     0.134 A 
ATOM     83  C   UNL A   1      44.012  26.633  34.861  1.00  0.00     0.134 A 
ATOM     84  F   UNL A   1      45.871  29.448  33.513  1.00  0.00    -0.206 F 
ATOM     85  C   UNL A   1      46.629  27.531  34.636  1.00  0.00     0.040 A 
ATOM     86  C   UNL A   1      45.054  25.879  35.400  1.00  0.00     0.040 A 
ATOM     87  F   UNL A   1      42.762  26.160  34.989  1.00  0.00    -0.206 F 
ATOM     88  C   UNL A   1      46.369  26.323  35.281  1.00  0.00     0.006 A 
ENDBRANCH  64  81
ENDBRANCH  38  39
ENDBRANCH  30  33
ENDBRANCH  28  29
ENDBRANCH  27  28
ENDBRANCH  26  27
ENDBRANCH   1  26
TORSDOF 18
ENDMDL
MODEL 3
REMARK VINA RESULT:     -10.9      4.329      9.321
REMARK SMILES CCC[C@]1(C(=O)NCCCCCCNC(=O)c2ccc(-c3c4nc(c(-c5c(F)cccc5F)c5ccc([nH]5)c(-c5c(F)cccc5F)c5nc(c(-c6c(F)cccc6F)c6ccc3[nH]6)C=C5)C=C4)cc2)CCN(c2cncc(C(=O)OC)n2)C1
REMARK SMILES IDX 10 1 9 2 8 3 7 4 5 5 6 6 4 8 71 9 84 10 72 11 73 12 3 13
REMARK SMILES IDX 2 14 1 15 74 16 75 17 83 18 76 19 78 20 77 21 79 22 80 23
REMARK SMILES IDX 81 24 82 25 11 26 12 27 13 28 14 29 15 30 16 32 17 33 18 34
REMARK SMILES IDX 70 35 19 36 69 37 20 38 21 39 22 40 63 41 23 42 68 43 62 44
REMARK SMILES IDX 64 45 24 46 67 47 61 48 60 49 25 51 51 52 34 53 50 54 35 55
REMARK SMILES IDX 38 56 49 57 65 58 36 59 37 60 48 62 66 63 39 64 26 65 27 66
REMARK SMILES IDX 32 67 28 68 29 69 31 70 33 71 30 72 52 73 53 74 58 75 54 76
REMARK SMILES IDX 55 77 57 78 59 79 56 80 40 81 41 82 46 83 42 84 43 85 45 86
REMARK SMILES IDX 47 87 44 88
REMARK H PARENT 7 7 14 31 64 50 38 61
REMARK Flexibility Score: inf
ROOT
ATOM      1  C   UNL A   1      31.203  27.372  26.867  1.00  0.00     0.002 C 
ENDROOT
BRANCH   1   2
ATOM      2  C   UNL A   1      30.844  27.185  25.389  1.00  0.00     0.021 C 
BRANCH   2   3
ATOM      3  C   UNL A   1      30.563  25.738  24.991  1.00  0.00     0.116 C 
BRANCH   3   4
ATOM      4  N   UNL A   1      30.248  24.928  26.151  1.00  0.00    -0.356 N 
ATOM      5  C   UNL A   1      30.866  23.859  26.718  1.00  0.00     0.228 C 
ATOM      6  O   UNL A   1      30.219  23.296  27.607  1.00  0.00    -0.274 OA
ATOM      7  H   UNL A   1      29.426  25.205  26.618  1.00  0.00     0.163 HD
BRANCH   5   8
ATOM      8  C   UNL A   1      32.250  23.339  26.269  1.00  0.00     0.068 C 
ATOM      9  C   UNL A   1      32.823  22.407  27.373  1.00  0.00     0.040 C 
ATOM     10  C   UNL A   1      32.168  22.457  24.995  1.00  0.00     0.135 C 
ATOM     11  C   UNL A   1      33.462  21.245  26.619  1.00  0.00     0.119 C 
ATOM     12  N   UNL A   1      32.647  21.152  25.428  1.00  0.00    -0.354 N 
BRANCH   8  13
ATOM     13  C   UNL A   1      33.240  24.534  26.090  1.00  0.00     0.018 C 
BRANCH  13  14
ATOM     14  C   UNL A   1      34.286  24.470  24.965  1.00  0.00    -0.002 C 
ATOM     15  C   UNL A   1      35.675  23.998  25.355  1.00  0.00     0.004 C 
ENDBRANCH  13  14
ENDBRANCH   8  13
BRANCH  12  16
ATOM     16  C   UNL A   1      32.644  20.059  24.601  1.00  0.00     0.148 A 
ATOM     17  C   UNL A   1      32.153  20.168  23.291  1.00  0.00     0.157 A 
ATOM     18  N   UNL A   1      33.174  18.890  25.022  1.00  0.00    -0.221 NA
ATOM     19  N   UNL A   1      32.174  19.171  22.374  1.00  0.00    -0.258 NA
ATOM     20  C   UNL A   1      33.155  17.858  24.126  1.00  0.00     0.169 A 
ATOM     21  C   UNL A   1      32.686  18.006  22.829  1.00  0.00     0.147 A 
BRANCH  20  22
ATOM     22  C   UNL A   1      33.595  16.501  24.539  1.00  0.00     0.358 C 
ATOM     23  O   UNL A   1      34.379  15.828  23.878  1.00  0.00    -0.244 OA
BRANCH  22  24
ATOM     24  O   UNL A   1      32.984  16.096  25.680  1.00  0.00    -0.464 OA
ATOM     25  C   UNL A   1      32.543  14.737  25.642  1.00  0.00     0.282 C 
ENDBRANCH  22  24
ENDBRANCH  20  22
ENDBRANCH  12  16
ENDBRANCH   5   8
ENDBRANCH   3   4
ENDBRANCH   2   3
ENDBRANCH   1   2
BRANCH   1  26
ATOM     26  C   UNL A   1      31.917  28.687  27.194  1.00  0.00     0.002 C 
BRANCH  26  27
ATOM     27  C   UNL A   1      33.444  28.601  27.238  1.00  0.00     0.021 C 
BRANCH  27  28
ATOM     28  C   UNL A   1      34.162  29.801  26.635  1.00  0.00     0.116 C 
BRANCH  28  29
ATOM     29  N   UNL A   1      33.970  31.006  27.426  1.00  0.00    -0.352 N 
ATOM     30  C   UNL A   1      34.684  31.454  28.508  1.00  0.00     0.251 C 
ATOM     31  H   UNL A   1      33.222  31.582  27.144  1.00  0.00     0.163 HD
ATOM     32  O   UNL A   1      34.267  32.391  29.182  1.00  0.00    -0.269 OA
BRANCH  30  33
ATOM     33  C   UNL A   1      35.952  30.789  28.871  1.00  0.00     0.039 A 
ATOM     34  C   UNL A   1      37.150  31.289  28.357  1.00  0.00     0.014 A 
ATOM     35  C   UNL A   1      35.957  29.676  29.717  1.00  0.00     0.014 A 
ATOM     36  C   UNL A   1      38.360  30.705  28.736  1.00  0.00     0.010 A 
ATOM     37  C   UNL A   1      37.165  29.148  30.158  1.00  0.00     0.010 A 
ATOM     38  C   UNL A   1      38.379  29.650  29.664  1.00  0.00    -0.014 A 
BRANCH  38  39
ATOM     39  C   UNL A   1      39.658  29.053  30.122  1.00  0.00     0.031 A 
ATOM     40  C   UNL A   1      40.362  29.608  31.329  1.00  0.00     0.074 A 
ATOM     41  C   UNL A   1      40.213  28.044  29.421  1.00  0.00     0.049 A 
ATOM     42  N   UNL A   1      41.510  29.258  31.852  1.00  0.00    -0.248 NA
ATOM     43  C   UNL A   1      39.701  30.723  32.023  1.00  0.00     0.031 C 
ATOM     44  C   UNL A   1      39.647  27.443  28.212  1.00  0.00     0.029 A 
ATOM     45  N   UNL A   1      41.379  27.351  29.622  1.00  0.00    -0.354 N 
ATOM     46  C   UNL A   1      41.709  30.112  32.930  1.00  0.00     0.074 A 
ATOM     47  C   UNL A   1      40.599  31.040  32.944  1.00  0.00     0.031 C 
ATOM     48  C   UNL A   1      40.450  26.448  27.800  1.00  0.00     0.029 A 
ATOM     49  C   UNL A   1      41.607  26.372  28.687  1.00  0.00     0.049 A 
ATOM     50  H   UNL A   1      41.995  27.538  30.368  1.00  0.00     0.167 HD
ATOM     51  C   UNL A   1      42.709  30.107  33.842  1.00  0.00     0.037 A 
ATOM     52  C   UNL A   1      42.634  25.512  28.557  1.00  0.00     0.037 A 
ATOM     53  C   UNL A   1      43.809  29.177  33.828  1.00  0.00     0.049 A 
ATOM     54  C   UNL A   1      43.755  25.553  29.558  1.00  0.00     0.074 A 
ATOM     55  C   UNL A   1      44.854  29.062  34.729  1.00  0.00     0.029 A 
ATOM     56  N   UNL A   1      44.008  28.205  32.859  1.00  0.00    -0.354 N 
ATOM     57  N   UNL A   1      43.901  26.324  30.609  1.00  0.00    -0.248 NA
ATOM     58  C   UNL A   1      44.856  24.600  29.356  1.00  0.00     0.031 C 
ATOM     59  C   UNL A   1      45.713  28.056  34.275  1.00  0.00     0.029 A 
ATOM     60  C   UNL A   1      45.172  27.502  33.126  1.00  0.00     0.049 A 
ATOM     61  H   UNL A   1      43.411  28.038  32.094  1.00  0.00     0.167 HD
ATOM     62  C   UNL A   1      45.086  25.925  31.213  1.00  0.00     0.074 A 
ATOM     63  C   UNL A   1      45.615  24.837  30.417  1.00  0.00     0.031 C 
ATOM     64  C   UNL A   1      45.682  26.414  32.329  1.00  0.00     0.037 A 
BRANCH  51  65
ATOM     65  C   UNL A   1      42.656  31.145  34.928  1.00  0.00     0.057 A 
ATOM     66  C   UNL A   1      41.982  30.917  36.137  1.00  0.00     0.134 A 
ATOM     67  C   UNL A   1      43.294  32.381  34.771  1.00  0.00     0.134 A 
ATOM     68  F   UNL A   1      41.339  29.759  36.349  1.00  0.00    -0.206 F 
ATOM     69  C   UNL A   1      41.913  31.894  37.131  1.00  0.00     0.040 A 
ATOM     70  C   UNL A   1      43.260  33.353  35.773  1.00  0.00     0.040 A 
ATOM     71  F   UNL A   1      43.965  32.665  33.645  1.00  0.00    -0.206 F 
ATOM     72  C   UNL A   1      42.557  33.116  36.952  1.00  0.00     0.006 A 
ENDBRANCH  51  65
BRANCH  52  73
ATOM     73  C   UNL A   1      42.639  24.516  27.456  1.00  0.00     0.057 A 
ATOM     74  C   UNL A   1      42.158  23.216  27.659  1.00  0.00     0.134 A 
ATOM     75  C   UNL A   1      43.128  24.828  26.182  1.00  0.00     0.134 A 
ATOM     76  F   UNL A   1      41.693  22.850  28.862  1.00  0.00    -0.206 F 
ATOM     77  C   UNL A   1      42.187  22.258  26.645  1.00  0.00     0.040 A 
ATOM     78  C   UNL A   1      43.137  23.889  25.150  1.00  0.00     0.040 A 
ATOM     79  F   UNL A   1      43.595  26.059  25.919  1.00  0.00    -0.206 F 
ATOM     80  C   UNL A   1      42.673  22.595  25.383  1.00  0.00     0.006 A 
ENDBRANCH  52  73
BRANCH  64  81
ATOM     81  C   UNL A   1      46.948  25.745  32.782  1.00  0.00     0.057 A 
ATOM     82  C   UNL A   1      46.949  24.724  33.740  1.00  0.00     0.134 A 
ATOM     83  C   UNL A   1      48.181  26.107  32.223  1.00  0.00     0.134 A 
ATOM     84  F   UNL A   1      45.805  24.338  34.325  1.00  0.00    -0.206 F 
ATOM     85  C   UNL A   1      48.134  24.105  34.146  1.00  0.00     0.040 A 
ATOM     86  C   UNL A   1      49.367  25.474  32.597  1.00  0.00     0.040 A 
ATOM     87  F   UNL A   1      48.251  27.072  31.293  1.00  0.00    -0.206 F 
ATOM     88  C   UNL A   1      49.347  24.476  33.568  1.00  0.00     0.006 A 
ENDBRANCH  64  81
ENDBRANCH  38  39
ENDBRANCH  30  33
ENDBRANCH  28  29
ENDBRANCH  27  28
ENDBRANCH  26  27
ENDBRANCH   1  26
TORSDOF 18
ENDMDL
