MODEL 1
REMARK VINA RESULT:     -11.6      0.000      0.000
REMARK SMILES COc1cc(/C=C2\SC(=S)N(CCC(=O)Nc3ccc(C(=O)NCCCCCCNC(=O)c4ccc(-c5c6nc(c(-c7c(F)cccc7F)c7ccc([nH]7)c(-c7c(F)cccc7F)c7nc(c(-c8c(F)cccc8F)c8ccc5[nH]8)C=C7)C=C6)cc4)cc3)C2=O)ccc1O
REMARK SMILES IDX 24 1 23 2 21 3 22 4 20 6 17 7 18 8 88 9 19 10 87 11 16 12
REMARK SMILES IDX 14 13 15 14 13 16 12 17 11 18 6 19 7 20 8 21 89 22 9 23
REMARK SMILES IDX 90 24 10 25 5 26 3 27 4 28 93 29 92 30 91 31 2 32 1 33 94 34
REMARK SMILES IDX 25 36 26 37 27 38 28 39 29 40 30 41 31 42 32 44 33 45 34 46
REMARK SMILES IDX 86 47 35 48 85 49 36 50 37 51 38 52 79 53 39 54 84 55 78 56
REMARK SMILES IDX 80 57 40 58 83 59 77 60 76 61 41 63 67 64 50 65 66 66 51 67
REMARK SMILES IDX 54 68 65 69 81 70 52 71 53 72 64 74 82 75 55 76 42 77 43 78
REMARK SMILES IDX 48 79 44 80 45 81 47 82 49 83 46 84 68 85 69 86 74 87 70 88
REMARK SMILES IDX 71 89 73 90 75 91 72 92 56 93 57 94 62 95 58 96 59 97 61 98
REMARK SMILES IDX 63 99 60 100
REMARK H PARENT 23 5 16 15 94 35 30 43 80 62 54 73
REMARK Flexibility Score: inf
ROOT
ATOM      1  C   UNL A   1      35.428  20.337  24.974  1.00  0.00     0.116 C 
ENDROOT
BRANCH   1   2
ATOM      2  N   UNL A   1      34.039  19.922  25.076  1.00  0.00    -0.352 N 
ATOM      3  C   UNL A   1      32.880  20.611  24.779  1.00  0.00     0.251 C 
ATOM      4  O   UNL A   1      31.795  20.088  25.027  1.00  0.00    -0.269 OA
ATOM      5  H   UNL A   1      33.903  19.006  25.410  1.00  0.00     0.163 HD
BRANCH   3   6
ATOM      6  C   UNL A   1      32.909  21.990  24.215  1.00  0.00     0.039 A 
ATOM      7  C   UNL A   1      33.300  24.622  23.260  1.00  0.00     0.041 A 
ATOM      8  C   UNL A   1      33.021  24.385  24.612  1.00  0.00     0.027 A 
ATOM      9  C   UNL A   1      33.199  23.551  22.378  1.00  0.00     0.027 A 
ATOM     10  C   UNL A   1      32.838  23.078  25.089  1.00  0.00     0.016 A 
ATOM     11  C   UNL A   1      32.985  22.249  22.850  1.00  0.00     0.016 A 
BRANCH   7  12
ATOM     12  N   UNL A   1      33.689  25.928  22.914  1.00  0.00    -0.326 N 
ATOM     13  C   UNL A   1      33.030  27.103  22.701  1.00  0.00     0.226 C 
ATOM     14  O   UNL A   1      33.715  28.095  22.424  1.00  0.00    -0.275 OA
ATOM     15  H   UNL A   1      34.665  26.015  22.800  1.00  0.00     0.169 HD
BRANCH  13  16
ATOM     16  C   UNL A   1      31.526  27.243  22.753  1.00  0.00     0.122 C 
BRANCH  16  17
ATOM     17  C   UNL A   1      30.893  27.428  24.140  1.00  0.00     0.137 C 
BRANCH  17  18
ATOM     18  N   UNL A   1      31.173  28.680  24.852  1.00  0.00    -0.292 N 
ATOM     19  C   UNL A   1      33.380  30.215  27.197  1.00  0.00     0.029 C 
ATOM     20  C   UNL A   1      32.277  30.009  26.463  1.00  0.00     0.081 C 
ATOM     21  S   UNL A   1      31.198  31.109  25.733  1.00  0.00    -0.054 SA
ATOM     22  C   UNL A   1      31.952  28.631  25.999  1.00  0.00     0.266 C 
ATOM     23  C   UNL A   1      30.612  29.908  24.575  1.00  0.00     0.148 C 
ATOM     24  O   UNL A   1      32.339  27.622  26.561  1.00  0.00    -0.268 OA
ATOM     25  S   UNL A   1      29.538  30.304  23.359  1.00  0.00    -0.052 S 
BRANCH  19  26
ATOM     26  C   UNL A   1      34.076  31.456  27.595  1.00  0.00    -0.020 A 
ATOM     27  C   UNL A   1      33.812  33.787  28.361  1.00  0.00     0.161 A 
ATOM     28  C   UNL A   1      33.272  32.557  27.956  1.00  0.00     0.058 A 
ATOM     29  C   UNL A   1      35.197  33.916  28.390  1.00  0.00     0.157 A 
ATOM     30  C   UNL A   1      36.014  32.853  27.998  1.00  0.00     0.051 A 
ATOM     31  C   UNL A   1      35.459  31.628  27.607  1.00  0.00     0.012 A 
BRANCH  27  32
ATOM     32  O   UNL A   1      32.860  34.703  28.710  1.00  0.00    -0.493 OA
ATOM     33  C   UNL A   1      32.934  35.326  29.985  1.00  0.00     0.278 C 
ENDBRANCH  27  32
BRANCH  29  34
ATOM     34  O   UNL A   1      35.849  35.033  28.824  1.00  0.00    -0.504 OA
ATOM     35  H   UNL A   1      35.468  35.567  29.495  1.00  0.00     0.293 HD
ENDBRANCH  29  34
ENDBRANCH  19  26
ENDBRANCH  17  18
ENDBRANCH  16  17
ENDBRANCH  13  16
ENDBRANCH   7  12
ENDBRANCH   3   6
ENDBRANCH   1   2
BRANCH   1  36
ATOM     36  C   UNL A   1      35.817  21.453  25.943  1.00  0.00     0.021 C 
BRANCH  36  37
ATOM     37  C   UNL A   1      36.819  22.468  25.395  1.00  0.00     0.002 C 
BRANCH  37  38
ATOM     38  C   UNL A   1      38.282  22.229  25.787  1.00  0.00     0.002 C 
BRANCH  38  39
ATOM     39  C   UNL A   1      38.926  20.940  25.262  1.00  0.00     0.021 C 
BRANCH  39  40
ATOM     40  C   UNL A   1      39.285  19.896  26.320  1.00  0.00     0.116 C 
BRANCH  40  41
ATOM     41  N   UNL A   1      40.536  19.217  26.026  1.00  0.00    -0.352 N 
ATOM     42  C   UNL A   1      41.820  19.693  25.941  1.00  0.00     0.251 C 
ATOM     43  H   UNL A   1      40.448  18.250  25.860  1.00  0.00     0.163 HD
ATOM     44  O   UNL A   1      42.701  18.963  25.491  1.00  0.00    -0.269 OA
BRANCH  42  45
ATOM     45  C   UNL A   1      42.165  21.069  26.367  1.00  0.00     0.039 A 
ATOM     46  C   UNL A   1      42.294  22.056  25.384  1.00  0.00     0.014 A 
ATOM     47  C   UNL A   1      42.424  21.388  27.703  1.00  0.00     0.014 A 
ATOM     48  C   UNL A   1      42.631  23.362  25.744  1.00  0.00     0.010 A 
ATOM     49  C   UNL A   1      42.690  22.709  28.070  1.00  0.00     0.010 A 
ATOM     50  C   UNL A   1      42.801  23.711  27.094  1.00  0.00    -0.014 A 
BRANCH  50  51
ATOM     51  C   UNL A   1      43.085  25.119  27.482  1.00  0.00     0.031 A 
ATOM     52  C   UNL A   1      44.447  25.722  27.257  1.00  0.00     0.074 A 
ATOM     53  C   UNL A   1      42.113  25.855  28.058  1.00  0.00     0.049 A 
ATOM     54  N   UNL A   1      44.870  26.932  27.531  1.00  0.00    -0.248 NA
ATOM     55  C   UNL A   1      45.474  24.850  26.665  1.00  0.00     0.031 C 
ATOM     56  C   UNL A   1      40.764  25.378  28.369  1.00  0.00     0.029 A 
ATOM     57  N   UNL A   1      42.106  27.162  28.480  1.00  0.00    -0.354 N 
ATOM     58  C   UNL A   1      46.203  26.967  27.140  1.00  0.00     0.074 A 
ATOM     59  C   UNL A   1      46.538  25.640  26.671  1.00  0.00     0.031 C 
ATOM     60  C   UNL A   1      40.050  26.386  28.896  1.00  0.00     0.029 A 
ATOM     61  C   UNL A   1      40.900  27.567  29.000  1.00  0.00     0.049 A 
ATOM     62  H   UNL A   1      42.891  27.751  28.418  1.00  0.00     0.167 HD
ATOM     63  C   UNL A   1      47.063  28.015  27.142  1.00  0.00     0.037 A 
ATOM     64  C   UNL A   1      40.520  28.757  29.504  1.00  0.00     0.037 A 
ATOM     65  C   UNL A   1      46.729  29.338  27.603  1.00  0.00     0.049 A 
ATOM     66  C   UNL A   1      41.509  29.891  29.527  1.00  0.00     0.074 A 
ATOM     67  C   UNL A   1      47.524  30.471  27.621  1.00  0.00     0.029 A 
ATOM     68  N   UNL A   1      45.500  29.705  28.129  1.00  0.00    -0.354 N 
ATOM     69  N   UNL A   1      42.746  29.923  29.095  1.00  0.00    -0.248 NA
ATOM     70  C   UNL A   1      41.042  31.160  30.104  1.00  0.00     0.031 C 
ATOM     71  C   UNL A   1      46.791  31.513  28.200  1.00  0.00     0.029 A 
ATOM     72  C   UNL A   1      45.521  31.044  28.491  1.00  0.00     0.049 A 
ATOM     73  H   UNL A   1      44.726  29.105  28.231  1.00  0.00     0.167 HD
ATOM     74  C   UNL A   1      43.191  31.221  29.313  1.00  0.00     0.074 A 
ATOM     75  C   UNL A   1      42.085  31.951  29.894  1.00  0.00     0.031 C 
ATOM     76  C   UNL A   1      44.408  31.761  29.057  1.00  0.00     0.037 A 
BRANCH  63  77
ATOM     77  C   UNL A   1      48.449  27.780  26.613  1.00  0.00     0.057 A 
ATOM     78  C   UNL A   1      49.529  27.530  27.471  1.00  0.00     0.134 A 
ATOM     79  C   UNL A   1      48.700  27.742  25.235  1.00  0.00     0.134 A 
ATOM     80  F   UNL A   1      49.362  27.560  28.802  1.00  0.00    -0.206 F 
ATOM     81  C   UNL A   1      50.810  27.271  26.979  1.00  0.00     0.040 A 
ATOM     82  C   UNL A   1      49.970  27.456  24.731  1.00  0.00     0.040 A 
ATOM     83  F   UNL A   1      47.711  27.965  24.357  1.00  0.00    -0.206 F 
ATOM     84  C   UNL A   1      51.031  27.224  25.604  1.00  0.00     0.006 A 
ENDBRANCH  63  77
BRANCH  64  85
ATOM     85  C   UNL A   1      39.139  28.956  30.015  1.00  0.00     0.057 A 
ATOM     86  C   UNL A   1      38.093  29.315  29.156  1.00  0.00     0.134 A 
ATOM     87  C   UNL A   1      38.840  28.842  31.379  1.00  0.00     0.134 A 
ATOM     88  F   UNL A   1      38.318  29.457  27.842  1.00  0.00    -0.206 F 
ATOM     89  C   UNL A   1      36.811  29.591  29.636  1.00  0.00     0.040 A 
ATOM     90  C   UNL A   1      37.556  29.084  31.869  1.00  0.00     0.040 A 
ATOM     91  F   UNL A   1      39.793  28.494  32.256  1.00  0.00    -0.206 F 
ATOM     92  C   UNL A   1      36.540  29.474  30.998  1.00  0.00     0.006 A 
ENDBRANCH  64  85
BRANCH  76  93
ATOM     93  C   UNL A   1      44.587  33.222  29.360  1.00  0.00     0.057 A 
ATOM     94  C   UNL A   1      44.270  34.219  28.428  1.00  0.00     0.134 A 
ATOM     95  C   UNL A   1      45.071  33.636  30.608  1.00  0.00     0.134 A 
ATOM     96  F   UNL A   1      43.814  33.891  27.209  1.00  0.00    -0.206 F 
ATOM     97  C   UNL A   1      44.465  35.572  28.713  1.00  0.00     0.040 A 
ATOM     98  C   UNL A   1      45.237  34.987  30.916  1.00  0.00     0.040 A 
ATOM     99  F   UNL A   1      45.383  32.736  31.552  1.00  0.00    -0.206 F 
ATOM    100  C   UNL A   1      44.944  35.959  29.962  1.00  0.00     0.006 A 
ENDBRANCH  76  93
ENDBRANCH  50  51
ENDBRANCH  42  45
ENDBRANCH  40  41
ENDBRANCH  39  40
ENDBRANCH  38  39
ENDBRANCH  37  38
ENDBRANCH  36  37
ENDBRANCH   1  36
TORSDOF 20
ENDMDL
MODEL 2
REMARK VINA RESULT:     -11.6      2.379      4.760
REMARK SMILES COc1cc(/C=C2\SC(=S)N(CCC(=O)Nc3ccc(C(=O)NCCCCCCNC(=O)c4ccc(-c5c6nc(c(-c7c(F)cccc7F)c7ccc([nH]7)c(-c7c(F)cccc7F)c7nc(c(-c8c(F)cccc8F)c8ccc5[nH]8)C=C7)C=C6)cc4)cc3)C2=O)ccc1O
REMARK SMILES IDX 24 1 23 2 21 3 22 4 20 6 17 7 18 8 88 9 19 10 87 11 16 12
REMARK SMILES IDX 14 13 15 14 13 16 12 17 11 18 6 19 7 20 8 21 89 22 9 23
REMARK SMILES IDX 90 24 10 25 5 26 3 27 4 28 93 29 92 30 91 31 2 32 1 33 94 34
REMARK SMILES IDX 25 36 26 37 27 38 28 39 29 40 30 41 31 42 32 44 33 45 34 46
REMARK SMILES IDX 86 47 35 48 85 49 36 50 37 51 38 52 79 53 39 54 84 55 78 56
REMARK SMILES IDX 80 57 40 58 83 59 77 60 76 61 41 63 67 64 50 65 66 66 51 67
REMARK SMILES IDX 54 68 65 69 81 70 52 71 53 72 64 74 82 75 55 76 42 77 43 78
REMARK SMILES IDX 48 79 44 80 45 81 47 82 49 83 46 84 68 85 69 86 74 87 70 88
REMARK SMILES IDX 71 89 73 90 75 91 72 92 56 93 57 94 62 95 58 96 59 97 61 98
REMARK SMILES IDX 63 99 60 100
REMARK H PARENT 23 5 16 15 94 35 30 43 80 62 54 73
REMARK Flexibility Score: inf
ROOT
ATOM      1  C   UNL A   1      35.336  23.497  23.580  1.00  0.00     0.116 C 
ENDROOT
BRANCH   1   2
ATOM      2  N   UNL A   1      34.402  22.621  22.892  1.00  0.00    -0.352 N 
ATOM      3  C   UNL A   1      33.153  22.888  22.371  1.00  0.00     0.251 C 
ATOM      4  O   UNL A   1      32.493  21.963  21.901  1.00  0.00    -0.269 OA
ATOM      5  H   UNL A   1      34.710  21.693  22.781  1.00  0.00     0.163 HD
BRANCH   3   6
ATOM      6  C   UNL A   1      32.560  24.254  22.409  1.00  0.00     0.039 A 
ATOM      7  C   UNL A   1      31.347  26.794  22.140  1.00  0.00     0.041 A 
ATOM      8  C   UNL A   1      32.648  26.568  21.671  1.00  0.00     0.027 A 
ATOM      9  C   UNL A   1      30.747  25.793  22.896  1.00  0.00     0.027 A 
ATOM     10  C   UNL A   1      33.246  25.305  21.794  1.00  0.00     0.016 A 
ATOM     11  C   UNL A   1      31.356  24.541  23.046  1.00  0.00     0.016 A 
BRANCH   7  12
ATOM     12  N   UNL A   1      30.746  28.012  21.777  1.00  0.00    -0.326 N 
ATOM     13  C   UNL A   1      30.146  29.030  22.459  1.00  0.00     0.226 C 
ATOM     14  O   UNL A   1      29.736  29.991  21.798  1.00  0.00    -0.275 OA
ATOM     15  H   UNL A   1      30.764  28.168  20.804  1.00  0.00     0.169 HD
BRANCH  13  16
ATOM     16  C   UNL A   1      29.931  29.024  23.955  1.00  0.00     0.122 C 
BRANCH  16  17
ATOM     17  C   UNL A   1      31.156  29.316  24.834  1.00  0.00     0.137 C 
BRANCH  17  18
ATOM     18  N   UNL A   1      32.060  28.198  25.132  1.00  0.00    -0.292 N 
ATOM     19  C   UNL A   1      32.208  24.926  26.544  1.00  0.00     0.029 C 
ATOM     20  C   UNL A   1      32.625  26.123  26.107  1.00  0.00     0.081 C 
ATOM     21  S   UNL A   1      34.070  26.587  25.328  1.00  0.00    -0.054 SA
ATOM     22  C   UNL A   1      31.674  27.270  26.086  1.00  0.00     0.266 C 
ATOM     23  C   UNL A   1      33.344  28.050  24.652  1.00  0.00     0.148 C 
ATOM     24  O   UNL A   1      30.697  27.347  26.810  1.00  0.00    -0.268 OA
ATOM     25  S   UNL A   1      34.174  29.042  23.596  1.00  0.00    -0.052 S 
BRANCH  19  26
ATOM     26  C   UNL A   1      32.822  23.585  26.470  1.00  0.00    -0.020 A 
ATOM     27  C   UNL A   1      32.580  21.273  25.639  1.00  0.00     0.161 A 
ATOM     28  C   UNL A   1      32.101  22.584  25.786  1.00  0.00     0.058 A 
ATOM     29  C   UNL A   1      33.811  20.959  26.207  1.00  0.00     0.157 A 
ATOM     30  C   UNL A   1      34.525  21.922  26.923  1.00  0.00     0.051 A 
ATOM     31  C   UNL A   1      34.037  23.229  27.051  1.00  0.00     0.012 A 
BRANCH  27  32
ATOM     32  O   UNL A   1      31.748  20.476  24.905  1.00  0.00    -0.493 OA
ATOM     33  C   UNL A   1      32.311  19.512  24.027  1.00  0.00     0.278 C 
ENDBRANCH  27  32
BRANCH  29  34
ATOM     34  O   UNL A   1      34.419  19.744  26.082  1.00  0.00    -0.504 OA
ATOM     35  H   UNL A   1      34.387  19.129  26.789  1.00  0.00     0.293 HD
ENDBRANCH  29  34
ENDBRANCH  19  26
ENDBRANCH  17  18
ENDBRANCH  16  17
ENDBRANCH  13  16
ENDBRANCH   7  12
ENDBRANCH   3   6
ENDBRANCH   1   2
BRANCH   1  36
ATOM     36  C   UNL A   1      36.605  22.796  24.066  1.00  0.00     0.021 C 
BRANCH  36  37
ATOM     37  C   UNL A   1      37.305  23.468  25.246  1.00  0.00     0.002 C 
BRANCH  37  38
ATOM     38  C   UNL A   1      38.379  22.625  25.944  1.00  0.00     0.002 C 
BRANCH  38  39
ATOM     39  C   UNL A   1      38.114  21.117  26.025  1.00  0.00     0.021 C 
BRANCH  39  40
ATOM     40  C   UNL A   1      38.729  20.271  24.910  1.00  0.00     0.116 C 
BRANCH  40  41
ATOM     41  N   UNL A   1      39.675  19.290  25.416  1.00  0.00    -0.352 N 
ATOM     42  C   UNL A   1      40.856  19.447  26.098  1.00  0.00     0.251 C 
ATOM     43  H   UNL A   1      39.427  18.354  25.239  1.00  0.00     0.163 HD
ATOM     44  O   UNL A   1      41.587  18.473  26.260  1.00  0.00    -0.269 OA
BRANCH  42  45
ATOM     45  C   UNL A   1      41.271  20.765  26.631  1.00  0.00     0.039 A 
ATOM     46  C   UNL A   1      41.897  21.665  25.762  1.00  0.00     0.014 A 
ATOM     47  C   UNL A   1      41.115  21.103  27.978  1.00  0.00     0.014 A 
ATOM     48  C   UNL A   1      42.317  22.913  26.229  1.00  0.00     0.010 A 
ATOM     49  C   UNL A   1      41.469  22.377  28.427  1.00  0.00     0.010 A 
ATOM     50  C   UNL A   1      42.078  23.295  27.559  1.00  0.00    -0.014 A 
BRANCH  50  51
ATOM     51  C   UNL A   1      42.457  24.652  28.036  1.00  0.00     0.031 A 
ATOM     52  C   UNL A   1      43.897  25.002  28.306  1.00  0.00     0.074 A 
ATOM     53  C   UNL A   1      41.493  25.573  28.244  1.00  0.00     0.049 A 
ATOM     54  N   UNL A   1      44.408  26.135  28.722  1.00  0.00    -0.248 NA
ATOM     55  C   UNL A   1      44.892  23.938  28.101  1.00  0.00     0.031 C 
ATOM     56  C   UNL A   1      40.058  25.350  28.059  1.00  0.00     0.029 A 
ATOM     57  N   UNL A   1      41.574  26.882  28.650  1.00  0.00    -0.354 N 
ATOM     58  C   UNL A   1      45.777  25.922  28.821  1.00  0.00     0.074 A 
ATOM     59  C   UNL A   1      46.011  24.534  28.485  1.00  0.00     0.031 C 
ATOM     60  C   UNL A   1      39.398  26.491  28.314  1.00  0.00     0.029 A 
ATOM     61  C   UNL A   1      40.356  27.514  28.720  1.00  0.00     0.049 A 
ATOM     62  H   UNL A   1      42.424  27.326  28.871  1.00  0.00     0.167 HD
ATOM     63  C   UNL A   1      46.756  26.807  29.133  1.00  0.00     0.037 A 
ATOM     64  C   UNL A   1      40.044  28.776  29.072  1.00  0.00     0.037 A 
ATOM     65  C   UNL A   1      46.524  28.190  29.461  1.00  0.00     0.049 A 
ATOM     66  C   UNL A   1      41.149  29.725  29.450  1.00  0.00     0.074 A 
ATOM     67  C   UNL A   1      47.453  29.171  29.767  1.00  0.00     0.029 A 
ATOM     68  N   UNL A   1      45.276  28.789  29.530  1.00  0.00    -0.354 N 
ATOM     69  N   UNL A   1      42.443  29.523  29.476  1.00  0.00    -0.248 NA
ATOM     70  C   UNL A   1      40.746  31.084  29.839  1.00  0.00     0.031 C 
ATOM     71  C   UNL A   1      46.764  30.351  30.064  1.00  0.00     0.029 A 
ATOM     72  C   UNL A   1      45.409  30.121  29.890  1.00  0.00     0.049 A 
ATOM     73  H   UNL A   1      44.421  28.335  29.349  1.00  0.00     0.167 HD
ATOM     74  C   UNL A   1      43.010  30.736  29.849  1.00  0.00     0.074 A 
ATOM     75  C   UNL A   1      41.919  31.673  30.015  1.00  0.00     0.031 C 
ATOM     76  C   UNL A   1      44.316  31.047  30.039  1.00  0.00     0.037 A 
BRANCH  63  77
ATOM     77  C   UNL A   1      48.174  26.312  29.119  1.00  0.00     0.057 A 
ATOM     78  C   UNL A   1      48.972  26.403  27.970  1.00  0.00     0.134 A 
ATOM     79  C   UNL A   1      48.770  25.795  30.277  1.00  0.00     0.134 A 
ATOM     80  F   UNL A   1      48.463  26.880  26.824  1.00  0.00    -0.206 F 
ATOM     81  C   UNL A   1      50.303  25.981  27.968  1.00  0.00     0.040 A 
ATOM     82  C   UNL A   1      50.108  25.396  30.295  1.00  0.00     0.040 A 
ATOM     83  F   UNL A   1      48.066  25.686  31.414  1.00  0.00    -0.206 F 
ATOM     84  C   UNL A   1      50.878  25.485  29.137  1.00  0.00     0.006 A 
ENDBRANCH  63  77
BRANCH  64  85
ATOM     85  C   UNL A   1      38.629  29.234  29.071  1.00  0.00     0.057 A 
ATOM     86  C   UNL A   1      37.846  29.168  30.229  1.00  0.00     0.134 A 
ATOM     87  C   UNL A   1      38.012  29.700  27.903  1.00  0.00     0.134 A 
ATOM     88  F   UNL A   1      38.374  28.714  31.376  1.00  0.00    -0.206 F 
ATOM     89  C   UNL A   1      36.492  29.512  30.220  1.00  0.00     0.040 A 
ATOM     90  C   UNL A   1      36.669  30.078  27.887  1.00  0.00     0.040 A 
ATOM     91  F   UNL A   1      38.706  29.797  26.760  1.00  0.00    -0.206 F 
ATOM     92  C   UNL A   1      35.901  29.970  29.045  1.00  0.00     0.006 A 
ENDBRANCH  64  85
BRANCH  76  93
ATOM     93  C   UNL A   1      44.636  32.470  30.400  1.00  0.00     0.057 A 
ATOM     94  C   UNL A   1      44.667  32.911  31.729  1.00  0.00     0.134 A 
ATOM     95  C   UNL A   1      44.930  33.408  29.402  1.00  0.00     0.134 A 
ATOM     96  F   UNL A   1      44.383  32.067  32.733  1.00  0.00    -0.206 F 
ATOM     97  C   UNL A   1      44.941  34.242  32.050  1.00  0.00     0.040 A 
ATOM     98  C   UNL A   1      45.238  34.733  29.712  1.00  0.00     0.040 A 
ATOM     99  F   UNL A   1      44.929  33.052  28.108  1.00  0.00    -0.206 F 
ATOM    100  C   UNL A   1      45.233  35.156  31.040  1.00  0.00     0.006 A 
ENDBRANCH  76  93
ENDBRANCH  50  51
ENDBRANCH  42  45
ENDBRANCH  40  41
ENDBRANCH  39  40
ENDBRANCH  38  39
ENDBRANCH  37  38
ENDBRANCH  36  37
ENDBRANCH   1  36
TORSDOF 20
ENDMDL
MODEL 3
REMARK VINA RESULT:     -11.5      2.471      7.111
REMARK SMILES COc1cc(/C=C2\SC(=S)N(CCC(=O)Nc3ccc(C(=O)NCCCCCCNC(=O)c4ccc(-c5c6nc(c(-c7c(F)cccc7F)c7ccc([nH]7)c(-c7c(F)cccc7F)c7nc(c(-c8c(F)cccc8F)c8ccc5[nH]8)C=C7)C=C6)cc4)cc3)C2=O)ccc1O
REMARK SMILES IDX 24 1 23 2 21 3 22 4 20 6 17 7 18 8 88 9 19 10 87 11 16 12
REMARK SMILES IDX 14 13 15 14 13 16 12 17 11 18 6 19 7 20 8 21 89 22 9 23
REMARK SMILES IDX 90 24 10 25 5 26 3 27 4 28 93 29 92 30 91 31 2 32 1 33 94 34
REMARK SMILES IDX 25 36 26 37 27 38 28 39 29 40 30 41 31 42 32 44 33 45 34 46
REMARK SMILES IDX 86 47 35 48 85 49 36 50 37 51 38 52 79 53 39 54 84 55 78 56
REMARK SMILES IDX 80 57 40 58 83 59 77 60 76 61 41 63 67 64 50 65 66 66 51 67
REMARK SMILES IDX 54 68 65 69 81 70 52 71 53 72 64 74 82 75 55 76 42 77 43 78
REMARK SMILES IDX 48 79 44 80 45 81 47 82 49 83 46 84 68 85 69 86 74 87 70 88
REMARK SMILES IDX 71 89 73 90 75 91 72 92 56 93 57 94 62 95 58 96 59 97 61 98
REMARK SMILES IDX 63 99 60 100
REMARK H PARENT 23 5 16 15 94 35 30 43 80 62 54 73
REMARK Flexibility Score: inf
ROOT
ATOM      1  C   UNL A   1      35.380  23.498  23.550  1.00  0.00     0.116 C 
ENDROOT
BRANCH   1   2
ATOM      2  N   UNL A   1      34.437  22.606  22.896  1.00  0.00    -0.352 N 
ATOM      3  C   UNL A   1      33.178  22.858  22.391  1.00  0.00     0.251 C 
ATOM      4  O   UNL A   1      32.513  21.921  21.951  1.00  0.00    -0.269 OA
ATOM      5  H   UNL A   1      34.746  21.677  22.798  1.00  0.00     0.163 HD
BRANCH   3   6
ATOM      6  C   UNL A   1      32.581  24.223  22.413  1.00  0.00     0.039 A 
ATOM      7  C   UNL A   1      31.357  26.754  22.115  1.00  0.00     0.041 A 
ATOM      8  C   UNL A   1      32.656  26.526  21.642  1.00  0.00     0.027 A 
ATOM      9  C   UNL A   1      30.765  25.762  22.889  1.00  0.00     0.027 A 
ATOM     10  C   UNL A   1      33.260  25.267  21.779  1.00  0.00     0.016 A 
ATOM     11  C   UNL A   1      31.380  24.515  23.054  1.00  0.00     0.016 A 
BRANCH   7  12
ATOM     12  N   UNL A   1      30.750  27.965  21.738  1.00  0.00    -0.326 N 
ATOM     13  C   UNL A   1      30.132  28.981  22.408  1.00  0.00     0.226 C 
ATOM     14  O   UNL A   1      29.722  29.935  21.737  1.00  0.00    -0.275 OA
ATOM     15  H   UNL A   1      30.779  28.116  20.764  1.00  0.00     0.169 HD
BRANCH  13  16
ATOM     16  C   UNL A   1      29.898  28.981  23.901  1.00  0.00     0.122 C 
BRANCH  16  17
ATOM     17  C   UNL A   1      31.110  29.287  24.794  1.00  0.00     0.137 C 
BRANCH  17  18
ATOM     18  N   UNL A   1      32.025  28.182  25.099  1.00  0.00    -0.292 N 
ATOM     19  C   UNL A   1      32.209  24.920  26.530  1.00  0.00     0.029 C 
ATOM     20  C   UNL A   1      32.613  26.119  26.086  1.00  0.00     0.081 C 
ATOM     21  S   UNL A   1      34.053  26.594  25.307  1.00  0.00    -0.054 SA
ATOM     22  C   UNL A   1      31.649  27.254  26.058  1.00  0.00     0.266 C 
ATOM     23  C   UNL A   1      33.312  28.046  24.622  1.00  0.00     0.148 C 
ATOM     24  O   UNL A   1      30.670  27.325  26.780  1.00  0.00    -0.268 OA
ATOM     25  S   UNL A   1      34.132  29.041  23.561  1.00  0.00    -0.052 S 
BRANCH  19  26
ATOM     26  C   UNL A   1      32.838  23.585  26.464  1.00  0.00    -0.020 A 
ATOM     27  C   UNL A   1      32.602  21.254  25.689  1.00  0.00     0.161 A 
ATOM     28  C   UNL A   1      32.110  22.561  25.824  1.00  0.00     0.058 A 
ATOM     29  C   UNL A   1      33.853  20.967  26.225  1.00  0.00     0.157 A 
ATOM     30  C   UNL A   1      34.577  21.954  26.898  1.00  0.00     0.051 A 
ATOM     31  C   UNL A   1      34.076  23.257  27.015  1.00  0.00     0.012 A 
BRANCH  27  32
ATOM     32  O   UNL A   1      31.758  20.431  24.997  1.00  0.00    -0.493 OA
ATOM     33  C   UNL A   1      32.294  19.567  24.005  1.00  0.00     0.278 C 
ENDBRANCH  27  32
BRANCH  29  34
ATOM     34  O   UNL A   1      34.474  19.758  26.106  1.00  0.00    -0.504 OA
ATOM     35  H   UNL A   1      35.403  19.717  25.995  1.00  0.00     0.293 HD
ENDBRANCH  29  34
ENDBRANCH  19  26
ENDBRANCH  17  18
ENDBRANCH  16  17
ENDBRANCH  13  16
ENDBRANCH   7  12
ENDBRANCH   3   6
ENDBRANCH   1   2
BRANCH   1  36
ATOM     36  C   UNL A   1      36.628  22.800  24.088  1.00  0.00     0.021 C 
BRANCH  36  37
ATOM     37  C   UNL A   1      37.361  23.547  25.201  1.00  0.00     0.002 C 
BRANCH  37  38
ATOM     38  C   UNL A   1      38.350  22.709  26.020  1.00  0.00     0.002 C 
BRANCH  38  39
ATOM     39  C   UNL A   1      38.096  21.198  26.054  1.00  0.00     0.021 C 
BRANCH  39  40
ATOM     40  C   UNL A   1      38.717  20.390  24.915  1.00  0.00     0.116 C 
BRANCH  40  41
ATOM     41  N   UNL A   1      39.662  19.393  25.392  1.00  0.00    -0.352 N 
ATOM     42  C   UNL A   1      40.853  19.528  26.059  1.00  0.00     0.251 C 
ATOM     43  H   UNL A   1      39.402  18.462  25.205  1.00  0.00     0.163 HD
ATOM     44  O   UNL A   1      41.577  18.545  26.197  1.00  0.00    -0.269 OA
BRANCH  42  45
ATOM     45  C   UNL A   1      41.288  20.834  26.607  1.00  0.00     0.039 A 
ATOM     46  C   UNL A   1      41.904  21.744  25.741  1.00  0.00     0.014 A 
ATOM     47  C   UNL A   1      41.160  21.150  27.962  1.00  0.00     0.014 A 
ATOM     48  C   UNL A   1      42.342  22.981  26.222  1.00  0.00     0.010 A 
ATOM     49  C   UNL A   1      41.531  22.414  28.427  1.00  0.00     0.010 A 
ATOM     50  C   UNL A   1      42.131  23.342  27.563  1.00  0.00    -0.014 A 
BRANCH  50  51
ATOM     51  C   UNL A   1      42.529  24.688  28.055  1.00  0.00     0.031 A 
ATOM     52  C   UNL A   1      41.503  25.774  28.248  1.00  0.00     0.074 A 
ATOM     53  C   UNL A   1      43.829  24.941  28.314  1.00  0.00     0.049 A 
ATOM     54  N   UNL A   1      41.670  27.003  28.671  1.00  0.00    -0.248 NA
ATOM     55  C   UNL A   1      40.111  25.445  27.905  1.00  0.00     0.031 C 
ATOM     56  C   UNL A   1      44.926  23.989  28.130  1.00  0.00     0.029 A 
ATOM     57  N   UNL A   1      44.446  26.070  28.793  1.00  0.00    -0.354 N 
ATOM     58  C   UNL A   1      40.410  27.588  28.651  1.00  0.00     0.074 A 
ATOM     59  C   UNL A   1      39.498  26.602  28.113  1.00  0.00     0.031 C 
ATOM     60  C   UNL A   1      46.075  24.561  28.526  1.00  0.00     0.029 A 
ATOM     61  C   UNL A   1      45.804  25.929  28.952  1.00  0.00     0.049 A 
ATOM     62  H   UNL A   1      43.962  26.901  29.001  1.00  0.00     0.167 HD
ATOM     63  C   UNL A   1      40.038  28.822  29.070  1.00  0.00     0.037 A 
ATOM     64  C   UNL A   1      46.728  26.805  29.392  1.00  0.00     0.037 A 
ATOM     65  C   UNL A   1      40.944  29.802  29.612  1.00  0.00     0.049 A 
ATOM     66  C   UNL A   1      46.290  28.181  29.815  1.00  0.00     0.074 A 
ATOM     67  C   UNL A   1      40.658  31.071  30.087  1.00  0.00     0.029 A 
ATOM     68  N   UNL A   1      42.312  29.625  29.749  1.00  0.00    -0.354 N 
ATOM     69  N   UNL A   1      45.085  28.694  29.848  1.00  0.00    -0.248 NA
ATOM     70  C   UNL A   1      47.345  29.097  30.271  1.00  0.00     0.031 C 
ATOM     71  C   UNL A   1      41.859  31.678  30.469  1.00  0.00     0.029 A 
ATOM     72  C   UNL A   1      42.886  30.768  30.285  1.00  0.00     0.049 A 
ATOM     73  H   UNL A   1      42.803  28.808  29.502  1.00  0.00     0.167 HD
ATOM     74  C   UNL A   1      45.232  29.978  30.362  1.00  0.00     0.074 A 
ATOM     75  C   UNL A   1      46.640  30.154  30.646  1.00  0.00     0.031 C 
ATOM     76  C   UNL A   1      44.288  30.926  30.576  1.00  0.00     0.037 A 
BRANCH  63  77
ATOM     77  C   UNL A   1      38.582  29.182  28.976  1.00  0.00     0.057 A 
ATOM     78  C   UNL A   1      37.733  29.101  30.088  1.00  0.00     0.134 A 
ATOM     79  C   UNL A   1      38.035  29.670  27.782  1.00  0.00     0.134 A 
ATOM     80  F   UNL A   1      38.189  28.633  31.260  1.00  0.00    -0.206 F 
ATOM     81  C   UNL A   1      36.389  29.474  30.012  1.00  0.00     0.040 A 
ATOM     82  C   UNL A   1      36.701  30.073  27.701  1.00  0.00     0.040 A 
ATOM     83  F   UNL A   1      38.793  29.781  26.681  1.00  0.00    -0.206 F 
ATOM     84  C   UNL A   1      35.873  29.972  28.817  1.00  0.00     0.006 A 
ENDBRANCH  63  77
BRANCH  64  85
ATOM     85  C   UNL A   1      48.160  26.415  29.476  1.00  0.00     0.057 A 
ATOM     86  C   UNL A   1      49.032  26.623  28.401  1.00  0.00     0.134 A 
ATOM     87  C   UNL A   1      48.680  25.779  30.611  1.00  0.00     0.134 A 
ATOM     88  F   UNL A   1      48.591  27.211  27.279  1.00  0.00    -0.206 F 
ATOM     89  C   UNL A   1      50.357  26.182  28.434  1.00  0.00     0.040 A 
ATOM     90  C   UNL A   1      50.010  25.361  30.670  1.00  0.00     0.040 A 
ATOM     91  F   UNL A   1      47.902  25.556  31.680  1.00  0.00    -0.206 F 
ATOM     92  C   UNL A   1      50.849  25.549  29.574  1.00  0.00     0.006 A 
ENDBRANCH  64  85
BRANCH  76  93
ATOM     93  C   UNL A   1      44.742  32.219  31.191  1.00  0.00     0.057 A 
ATOM     94  C   UNL A   1      45.141  33.314  30.412  1.00  0.00     0.134 A 
ATOM     95  C   UNL A   1      44.769  32.374  32.583  1.00  0.00     0.134 A 
ATOM     96  F   UNL A   1      45.151  33.229  29.073  1.00  0.00    -0.206 F 
ATOM     97  C   UNL A   1      45.586  34.502  30.996  1.00  0.00     0.040 A 
ATOM     98  C   UNL A   1      45.180  33.568  33.178  1.00  0.00     0.040 A 
ATOM     99  F   UNL A   1      44.390  31.371  33.389  1.00  0.00    -0.206 F 
ATOM    100  C   UNL A   1      45.600  34.632  32.383  1.00  0.00     0.006 A 
ENDBRANCH  76  93
ENDBRANCH  50  51
ENDBRANCH  42  45
ENDBRANCH  40  41
ENDBRANCH  39  40
ENDBRANCH  38  39
ENDBRANCH  37  38
ENDBRANCH  36  37
ENDBRANCH   1  36
TORSDOF 20
ENDMDL
