MODEL 1
REMARK VINA RESULT:     -11.4      0.000      0.000
REMARK SMILES C#Cc1cccc(NS(=O)(=O)c2cc(C)c(C(=O)NCCCCCCNC(=O)c3ccc(-c4c5nc(c(-c6c(F)cccc6F)c6ccc([nH]6)c(-c6c(F)cccc6F)c6nc(c(-c7c(F)cccc7F)c7ccc4[nH]7)C=C6)C=C5)cc3)s2)c1
REMARK SMILES IDX 21 1 20 2 19 3 17 4 18 5 16 7 12 8 13 9 83 10 14 11 15 12
REMARK SMILES IDX 9 13 10 14 11 15 8 16 7 18 3 19 4 20 84 21 5 22 6 23 2 24
REMARK SMILES IDX 1 25 22 26 23 27 24 28 25 29 26 30 27 31 28 33 29 34 30 35
REMARK SMILES IDX 82 36 31 37 81 38 32 39 33 40 34 41 75 42 35 43 80 44 74 45
REMARK SMILES IDX 76 46 36 47 79 48 73 49 72 50 37 52 63 53 46 54 62 55 47 56
REMARK SMILES IDX 50 57 61 58 77 59 48 60 49 61 60 63 78 64 51 65 38 66 39 67
REMARK SMILES IDX 44 68 40 69 41 70 43 71 45 72 42 73 64 74 65 75 70 76 66 77
REMARK SMILES IDX 67 78 69 79 71 80 68 81 52 82 53 83 58 84 54 85 55 86 57 87
REMARK SMILES IDX 59 88 56 89
REMARK H PARENT 19 6 8 17 26 32 76 51 50 62
REMARK Flexibility Score: inf
ROOT
ATOM      1  C   UNL A   1      35.546  21.830  26.099  1.00  0.00     0.021 C 
ENDROOT
BRANCH   1   2
ATOM      2  C   UNL A   1      34.394  21.339  26.982  1.00  0.00     0.116 C 
BRANCH   2   3
ATOM      3  N   UNL A   1      33.551  20.445  26.247  1.00  0.00    -0.351 N 
ATOM      4  C   UNL A   1      32.492  20.624  25.401  1.00  0.00     0.261 C 
ATOM      5  O   UNL A   1      32.032  19.548  24.997  1.00  0.00    -0.268 OA
ATOM      6  H   UNL A   1      33.782  19.498  26.380  1.00  0.00     0.163 HD
BRANCH   4   7
ATOM      7  C   UNL A   1      31.978  21.929  24.961  1.00  0.00     0.096 A 
ATOM      8  C   UNL A   1      30.638  24.040  25.160  1.00  0.00     0.141 A 
ATOM      9  C   UNL A   1      31.131  23.824  23.894  1.00  0.00     0.038 A 
ATOM     10  S   UNL A   1      30.807  22.621  26.074  1.00  0.00    -0.116 S 
ATOM     11  C   UNL A   1      32.209  22.866  23.948  1.00  0.00    -0.026 A 
ATOM     12  C   UNL A   1      33.377  23.087  23.045  1.00  0.00     0.046 C 
BRANCH   8  13
ATOM     13  S   UNL A   1      29.889  25.445  25.942  1.00  0.00     0.271 S 
ATOM     14  O   UNL A   1      28.892  24.922  26.852  1.00  0.00    -0.200 OA
ATOM     15  O   UNL A   1      29.524  26.316  24.846  1.00  0.00    -0.200 OA
BRANCH  13  16
ATOM     16  N   UNL A   1      30.967  26.347  26.891  1.00  0.00    -0.279 N 
ATOM     17  H   UNL A   1      30.858  26.295  27.868  1.00  0.00     0.180 HD
BRANCH  16  18
ATOM     18  C   UNL A   1      32.020  27.177  26.394  1.00  0.00     0.050 A 
ATOM     19  C   UNL A   1      33.194  29.306  26.504  1.00  0.00     0.026 A 
ATOM     20  C   UNL A   1      34.032  28.904  25.468  1.00  0.00     0.017 A 
ATOM     21  C   UNL A   1      32.174  28.457  26.951  1.00  0.00     0.044 A 
ATOM     22  C   UNL A   1      33.964  27.598  25.005  1.00  0.00     0.003 A 
ATOM     23  C   UNL A   1      33.004  26.720  25.518  1.00  0.00     0.027 A 
BRANCH  19  24
ATOM     24  C   UNL A   1      33.505  30.540  27.161  1.00  0.00    -0.070 C 
ATOM     25  C   UNL A   1      33.573  31.598  27.720  1.00  0.00     0.010 C 
ENDBRANCH  19  24
ENDBRANCH  16  18
ENDBRANCH  13  16
ENDBRANCH   8  13
ENDBRANCH   4   7
ENDBRANCH   2   3
ENDBRANCH   1   2
BRANCH   1  26
ATOM     26  C   UNL A   1      35.896  20.805  25.021  1.00  0.00     0.002 C 
BRANCH  26  27
ATOM     27  C   UNL A   1      37.346  20.925  24.537  1.00  0.00     0.002 C 
BRANCH  27  28
ATOM     28  C   UNL A   1      38.238  19.744  24.923  1.00  0.00     0.021 C 
BRANCH  28  29
ATOM     29  C   UNL A   1      39.237  20.063  26.027  1.00  0.00     0.116 C 
BRANCH  29  30
ATOM     30  N   UNL A   1      40.390  19.177  25.973  1.00  0.00    -0.352 N 
ATOM     31  C   UNL A   1      41.726  19.483  26.008  1.00  0.00     0.251 C 
ATOM     32  H   UNL A   1      40.181  18.217  25.902  1.00  0.00     0.163 HD
ATOM     33  O   UNL A   1      42.561  18.656  25.659  1.00  0.00    -0.269 OA
BRANCH  31  34
ATOM     34  C   UNL A   1      42.149  20.819  26.468  1.00  0.00     0.039 A 
ATOM     35  C   UNL A   1      42.478  21.792  25.524  1.00  0.00     0.014 A 
ATOM     36  C   UNL A   1      42.225  21.101  27.835  1.00  0.00     0.014 A 
ATOM     37  C   UNL A   1      42.834  23.069  25.954  1.00  0.00     0.010 A 
ATOM     38  C   UNL A   1      42.483  22.398  28.256  1.00  0.00     0.010 A 
ATOM     39  C   UNL A   1      42.803  23.393  27.322  1.00  0.00    -0.014 A 
BRANCH  39  40
ATOM     40  C   UNL A   1      43.105  24.765  27.791  1.00  0.00     0.031 A 
ATOM     41  C   UNL A   1      44.528  25.191  28.018  1.00  0.00     0.074 A 
ATOM     42  C   UNL A   1      42.091  25.606  28.070  1.00  0.00     0.049 A 
ATOM     43  N   UNL A   1      44.987  26.332  28.466  1.00  0.00    -0.248 NA
ATOM     44  C   UNL A   1      45.573  24.196  27.730  1.00  0.00     0.031 C 
ATOM     45  C   UNL A   1      40.668  25.291  27.931  1.00  0.00     0.029 A 
ATOM     46  N   UNL A   1      42.103  26.898  28.531  1.00  0.00    -0.354 N 
ATOM     47  C   UNL A   1      46.367  26.188  28.521  1.00  0.00     0.074 A 
ATOM     48  C   UNL A   1      46.666  24.828  28.128  1.00  0.00     0.031 C 
ATOM     49  C   UNL A   1      39.946  26.373  28.261  1.00  0.00     0.029 A 
ATOM     50  C   UNL A   1      40.849  27.437  28.684  1.00  0.00     0.049 A 
ATOM     51  H   UNL A   1      42.931  27.392  28.731  1.00  0.00     0.167 HD
ATOM     52  C   UNL A   1      47.303  27.110  28.849  1.00  0.00     0.037 A 
ATOM     53  C   UNL A   1      40.471  28.651  29.124  1.00  0.00     0.037 A 
ATOM     54  C   UNL A   1      46.995  28.463  29.237  1.00  0.00     0.049 A 
ATOM     55  C   UNL A   1      41.525  29.647  29.521  1.00  0.00     0.074 A 
ATOM     56  C   UNL A   1      47.869  29.492  29.537  1.00  0.00     0.029 A 
ATOM     57  N   UNL A   1      45.712  28.968  29.395  1.00  0.00    -0.354 N 
ATOM     58  N   UNL A   1      42.830  29.522  29.500  1.00  0.00    -0.248 NA
ATOM     59  C   UNL A   1      41.054  30.952  29.999  1.00  0.00     0.031 C 
ATOM     60  C   UNL A   1      47.117  30.597  29.950  1.00  0.00     0.029 A 
ATOM     61  C   UNL A   1      45.772  30.283  29.828  1.00  0.00     0.049 A 
ATOM     62  H   UNL A   1      44.882  28.468  29.224  1.00  0.00     0.167 HD
ATOM     63  C   UNL A   1      43.337  30.743  29.928  1.00  0.00     0.074 A 
ATOM     64  C   UNL A   1      42.196  31.597  30.189  1.00  0.00     0.031 C 
ATOM     65  C   UNL A   1      44.628  31.123  30.087  1.00  0.00     0.037 A 
BRANCH  52  66
ATOM     66  C   UNL A   1      48.742  26.678  28.820  1.00  0.00     0.057 A 
ATOM     67  C   UNL A   1      49.379  26.126  29.940  1.00  0.00     0.134 A 
ATOM     68  C   UNL A   1      49.501  26.803  27.648  1.00  0.00     0.134 A 
ATOM     69  F   UNL A   1      48.717  25.985  31.099  1.00  0.00    -0.206 F 
ATOM     70  C   UNL A   1      50.724  25.755  29.910  1.00  0.00     0.040 A 
ATOM     71  C   UNL A   1      50.837  26.400  27.594  1.00  0.00     0.040 A 
ATOM     72  F   UNL A   1      48.956  27.315  26.534  1.00  0.00    -0.206 F 
ATOM     73  C   UNL A   1      51.456  25.886  28.731  1.00  0.00     0.006 A 
ENDBRANCH  52  66
BRANCH  53  74
ATOM     74  C   UNL A   1      39.028  28.998  29.192  1.00  0.00     0.057 A 
ATOM     75  C   UNL A   1      38.307  28.856  30.384  1.00  0.00     0.134 A 
ATOM     76  C   UNL A   1      38.335  29.481  28.075  1.00  0.00     0.134 A 
ATOM     77  F   UNL A   1      38.910  28.383  31.485  1.00  0.00    -0.206 F 
ATOM     78  C   UNL A   1      36.947  29.160  30.458  1.00  0.00     0.040 A 
ATOM     79  C   UNL A   1      36.983  29.819  28.142  1.00  0.00     0.040 A 
ATOM     80  F   UNL A   1      38.970  29.652  26.906  1.00  0.00    -0.206 F 
ATOM     81  C   UNL A   1      36.283  29.649  29.335  1.00  0.00     0.006 A 
ENDBRANCH  53  74
BRANCH  65  82
ATOM     82  C   UNL A   1      44.883  32.538  30.525  1.00  0.00     0.057 A 
ATOM     83  C   UNL A   1      45.048  32.886  31.872  1.00  0.00     0.134 A 
ATOM     84  C   UNL A   1      45.001  33.565  29.577  1.00  0.00     0.134 A 
ATOM     85  F   UNL A   1      44.936  31.956  32.833  1.00  0.00    -0.206 F 
ATOM     86  C   UNL A   1      45.292  34.204  32.262  1.00  0.00     0.040 A 
ATOM     87  C   UNL A   1      45.281  34.879  29.952  1.00  0.00     0.040 A 
ATOM     88  F   UNL A   1      44.866  33.303  28.269  1.00  0.00    -0.206 F 
ATOM     89  C   UNL A   1      45.417  35.203  31.299  1.00  0.00     0.006 A 
ENDBRANCH  65  82
ENDBRANCH  39  40
ENDBRANCH  31  34
ENDBRANCH  29  30
ENDBRANCH  28  29
ENDBRANCH  27  28
ENDBRANCH  26  27
ENDBRANCH   1  26
TORSDOF 17
ENDMDL
MODEL 2
REMARK VINA RESULT:     -11.3      0.425      6.139
REMARK SMILES C#Cc1cccc(NS(=O)(=O)c2cc(C)c(C(=O)NCCCCCCNC(=O)c3ccc(-c4c5nc(c(-c6c(F)cccc6F)c6ccc([nH]6)c(-c6c(F)cccc6F)c6nc(c(-c7c(F)cccc7F)c7ccc4[nH]7)C=C6)C=C5)cc3)s2)c1
REMARK SMILES IDX 21 1 20 2 19 3 17 4 18 5 16 7 12 8 13 9 83 10 14 11 15 12
REMARK SMILES IDX 9 13 10 14 11 15 8 16 7 18 3 19 4 20 84 21 5 22 6 23 2 24
REMARK SMILES IDX 1 25 22 26 23 27 24 28 25 29 26 30 27 31 28 33 29 34 30 35
REMARK SMILES IDX 82 36 31 37 81 38 32 39 33 40 34 41 75 42 35 43 80 44 74 45
REMARK SMILES IDX 76 46 36 47 79 48 73 49 72 50 37 52 63 53 46 54 62 55 47 56
REMARK SMILES IDX 50 57 61 58 77 59 48 60 49 61 60 63 78 64 51 65 38 66 39 67
REMARK SMILES IDX 44 68 40 69 41 70 43 71 45 72 42 73 64 74 65 75 70 76 66 77
REMARK SMILES IDX 67 78 69 79 71 80 68 81 52 82 53 83 58 84 54 85 55 86 57 87
REMARK SMILES IDX 59 88 56 89
REMARK H PARENT 19 6 8 17 26 32 76 51 50 62
REMARK Flexibility Score: inf
ROOT
ATOM      1  C   UNL A   1      35.432  22.155  25.899  1.00  0.00     0.021 C 
ENDROOT
BRANCH   1   2
ATOM      2  C   UNL A   1      34.474  21.456  26.868  1.00  0.00     0.116 C 
BRANCH   2   3
ATOM      3  N   UNL A   1      33.652  20.517  26.164  1.00  0.00    -0.351 N 
ATOM      4  C   UNL A   1      32.565  20.641  25.345  1.00  0.00     0.261 C 
ATOM      5  O   UNL A   1      32.142  19.541  24.963  1.00  0.00    -0.268 OA
ATOM      6  H   UNL A   1      33.928  19.583  26.300  1.00  0.00     0.163 HD
BRANCH   4   7
ATOM      7  C   UNL A   1      31.983  21.917  24.905  1.00  0.00     0.096 A 
ATOM      8  C   UNL A   1      30.623  24.011  25.149  1.00  0.00     0.141 A 
ATOM      9  C   UNL A   1      30.996  23.751  23.851  1.00  0.00     0.038 A 
ATOM     10  S   UNL A   1      30.911  22.634  26.099  1.00  0.00    -0.116 S 
ATOM     11  C   UNL A   1      32.094  22.815  23.838  1.00  0.00    -0.026 A 
ATOM     12  C   UNL A   1      33.165  23.018  22.816  1.00  0.00     0.046 C 
BRANCH   8  13
ATOM     13  S   UNL A   1      29.923  25.434  25.944  1.00  0.00     0.271 S 
ATOM     14  O   UNL A   1      28.945  24.935  26.887  1.00  0.00    -0.200 OA
ATOM     15  O   UNL A   1      29.541  26.305  24.854  1.00  0.00    -0.200 OA
BRANCH  13  16
ATOM     16  N   UNL A   1      31.046  26.322  26.855  1.00  0.00    -0.279 N 
ATOM     17  H   UNL A   1      30.996  26.239  27.835  1.00  0.00     0.180 HD
BRANCH  16  18
ATOM     18  C   UNL A   1      32.058  27.180  26.322  1.00  0.00     0.050 A 
ATOM     19  C   UNL A   1      33.245  29.300  26.460  1.00  0.00     0.026 A 
ATOM     20  C   UNL A   1      33.993  28.960  25.336  1.00  0.00     0.017 A 
ATOM     21  C   UNL A   1      32.262  28.425  26.939  1.00  0.00     0.044 A 
ATOM     22  C   UNL A   1      33.880  27.684  24.804  1.00  0.00     0.003 A 
ATOM     23  C   UNL A   1      32.963  26.777  25.342  1.00  0.00     0.027 A 
BRANCH  19  24
ATOM     24  C   UNL A   1      33.614  30.493  27.160  1.00  0.00    -0.070 C 
ATOM     25  C   UNL A   1      33.735  31.508  27.786  1.00  0.00     0.010 C 
ENDBRANCH  19  24
ENDBRANCH  16  18
ENDBRANCH  13  16
ENDBRANCH   8  13
ENDBRANCH   4   7
ENDBRANCH   2   3
ENDBRANCH   1   2
BRANCH   1  26
ATOM     26  C   UNL A   1      35.880  21.212  24.782  1.00  0.00     0.002 C 
BRANCH  26  27
ATOM     27  C   UNL A   1      37.384  21.303  24.497  1.00  0.00     0.002 C 
BRANCH  27  28
ATOM     28  C   UNL A   1      38.173  20.049  24.879  1.00  0.00     0.021 C 
BRANCH  28  29
ATOM     29  C   UNL A   1      39.150  20.265  26.027  1.00  0.00     0.116 C 
BRANCH  29  30
ATOM     30  N   UNL A   1      40.235  19.296  25.992  1.00  0.00    -0.352 N 
ATOM     31  C   UNL A   1      41.589  19.503  26.033  1.00  0.00     0.251 C 
ATOM     32  H   UNL A   1      39.957  18.353  25.929  1.00  0.00     0.163 HD
ATOM     33  O   UNL A   1      42.364  18.612  25.699  1.00  0.00    -0.269 OA
BRANCH  31  34
ATOM     34  C   UNL A   1      42.107  20.809  26.482  1.00  0.00     0.039 A 
ATOM     35  C   UNL A   1      42.531  21.737  25.532  1.00  0.00     0.014 A 
ATOM     36  C   UNL A   1      42.176  21.107  27.847  1.00  0.00     0.014 A 
ATOM     37  C   UNL A   1      42.978  22.989  25.950  1.00  0.00     0.010 A 
ATOM     38  C   UNL A   1      42.528  22.387  28.254  1.00  0.00     0.010 A 
ATOM     39  C   UNL A   1      42.944  23.337  27.311  1.00  0.00    -0.014 A 
BRANCH  39  40
ATOM     40  C   UNL A   1      43.344  24.689  27.767  1.00  0.00     0.031 A 
ATOM     41  C   UNL A   1      42.298  25.717  28.094  1.00  0.00     0.074 A 
ATOM     42  C   UNL A   1      44.651  25.006  27.829  1.00  0.00     0.049 A 
ATOM     43  N   UNL A   1      42.451  26.962  28.466  1.00  0.00    -0.248 NA
ATOM     44  C   UNL A   1      40.893  25.301  27.958  1.00  0.00     0.031 C 
ATOM     45  C   UNL A   1      45.756  24.106  27.495  1.00  0.00     0.029 A 
ATOM     46  N   UNL A   1      45.271  26.175  28.192  1.00  0.00    -0.354 N 
ATOM     47  C   UNL A   1      41.169  27.477  28.599  1.00  0.00     0.074 A 
ATOM     48  C   UNL A   1      40.251  26.432  28.203  1.00  0.00     0.031 C 
ATOM     49  C   UNL A   1      46.918  24.743  27.706  1.00  0.00     0.029 A 
ATOM     50  C   UNL A   1      46.641  26.109  28.138  1.00  0.00     0.049 A 
ATOM     51  H   UNL A   1      44.780  26.983  28.466  1.00  0.00     0.167 HD
ATOM     52  C   UNL A   1      40.789  28.702  29.035  1.00  0.00     0.037 A 
ATOM     53  C   UNL A   1      47.570  27.047  28.400  1.00  0.00     0.037 A 
ATOM     54  C   UNL A   1      41.711  29.735  29.429  1.00  0.00     0.049 A 
ATOM     55  C   UNL A   1      47.125  28.413  28.843  1.00  0.00     0.074 A 
ATOM     56  C   UNL A   1      41.431  30.992  29.936  1.00  0.00     0.029 A 
ATOM     57  N   UNL A   1      43.093  29.636  29.348  1.00  0.00    -0.354 N 
ATOM     58  N   UNL A   1      45.909  28.865  29.035  1.00  0.00    -0.248 NA
ATOM     59  C   UNL A   1      48.181  29.397  29.109  1.00  0.00     0.031 C 
ATOM     60  C   UNL A   1      42.639  31.681  30.087  1.00  0.00     0.029 A 
ATOM     61  C   UNL A   1      43.677  30.825  29.755  1.00  0.00     0.049 A 
ATOM     62  H   UNL A   1      43.586  28.840  29.046  1.00  0.00     0.167 HD
ATOM     63  C   UNL A   1      46.054  30.174  29.477  1.00  0.00     0.074 A 
ATOM     64  C   UNL A   1      47.478  30.436  29.536  1.00  0.00     0.031 C 
ATOM     65  C   UNL A   1      45.097  31.075  29.808  1.00  0.00     0.037 A 
BRANCH  52  66
ATOM     66  C   UNL A   1      39.315  28.993  29.083  1.00  0.00     0.057 A 
ATOM     67  C   UNL A   1      38.566  28.861  30.261  1.00  0.00     0.134 A 
ATOM     68  C   UNL A   1      38.636  29.427  27.937  1.00  0.00     0.134 A 
ATOM     69  F   UNL A   1      39.148  28.440  31.395  1.00  0.00    -0.206 F 
ATOM     70  C   UNL A   1      37.191  29.106  30.287  1.00  0.00     0.040 A 
ATOM     71  C   UNL A   1      37.269  29.712  27.960  1.00  0.00     0.040 A 
ATOM     72  F   UNL A   1      39.289  29.586  26.776  1.00  0.00    -0.206 F 
ATOM     73  C   UNL A   1      36.540  29.540  29.133  1.00  0.00     0.006 A 
ENDBRANCH  52  66
BRANCH  53  74
ATOM     74  C   UNL A   1      49.012  26.718  28.270  1.00  0.00     0.057 A 
ATOM     75  C   UNL A   1      49.678  26.859  27.047  1.00  0.00     0.134 A 
ATOM     76  C   UNL A   1      49.762  26.258  29.361  1.00  0.00     0.134 A 
ATOM     77  F   UNL A   1      49.011  27.280  25.961  1.00  0.00    -0.206 F 
ATOM     78  C   UNL A   1      51.029  26.536  26.906  1.00  0.00     0.040 A 
ATOM     79  C   UNL A   1      51.121  25.961  29.242  1.00  0.00     0.040 A 
ATOM     80  F   UNL A   1      49.188  26.112  30.564  1.00  0.00    -0.206 F 
ATOM     81  C   UNL A   1      51.755  26.092  28.008  1.00  0.00     0.006 A 
ENDBRANCH  53  74
BRANCH  65  82
ATOM     82  C   UNL A   1      45.554  32.418  30.304  1.00  0.00     0.057 A 
ATOM     83  C   UNL A   1      45.734  33.511  29.446  1.00  0.00     0.134 A 
ATOM     84  C   UNL A   1      45.783  32.629  31.671  1.00  0.00     0.134 A 
ATOM     85  F   UNL A   1      45.543  33.377  28.124  1.00  0.00    -0.206 F 
ATOM     86  C   UNL A   1      46.151  34.754  29.925  1.00  0.00     0.040 A 
ATOM     87  C   UNL A   1      46.164  33.876  32.166  1.00  0.00     0.040 A 
ATOM     88  F   UNL A   1      45.619  31.631  32.552  1.00  0.00    -0.206 F 
ATOM     89  C   UNL A   1      46.360  34.941  31.289  1.00  0.00     0.006 A 
ENDBRANCH  65  82
ENDBRANCH  39  40
ENDBRANCH  31  34
ENDBRANCH  29  30
ENDBRANCH  28  29
ENDBRANCH  27  28
ENDBRANCH  26  27
ENDBRANCH   1  26
TORSDOF 17
ENDMDL
MODEL 3
REMARK VINA RESULT:     -11.1      4.513      8.267
REMARK SMILES C#Cc1cccc(NS(=O)(=O)c2cc(C)c(C(=O)NCCCCCCNC(=O)c3ccc(-c4c5nc(c(-c6c(F)cccc6F)c6ccc([nH]6)c(-c6c(F)cccc6F)c6nc(c(-c7c(F)cccc7F)c7ccc4[nH]7)C=C6)C=C5)cc3)s2)c1
REMARK SMILES IDX 21 1 20 2 19 3 17 4 18 5 16 7 12 8 13 9 83 10 14 11 15 12
REMARK SMILES IDX 9 13 10 14 11 15 8 16 7 18 3 19 4 20 84 21 5 22 6 23 2 24
REMARK SMILES IDX 1 25 22 26 23 27 24 28 25 29 26 30 27 31 28 33 29 34 30 35
REMARK SMILES IDX 82 36 31 37 81 38 32 39 33 40 34 41 75 42 35 43 80 44 74 45
REMARK SMILES IDX 76 46 36 47 79 48 73 49 72 50 37 52 63 53 46 54 62 55 47 56
REMARK SMILES IDX 50 57 61 58 77 59 48 60 49 61 60 63 78 64 51 65 38 66 39 67
REMARK SMILES IDX 44 68 40 69 41 70 43 71 45 72 42 73 64 74 65 75 70 76 66 77
REMARK SMILES IDX 67 78 69 79 71 80 68 81 52 82 53 83 58 84 54 85 55 86 57 87
REMARK SMILES IDX 59 88 56 89
REMARK H PARENT 19 6 8 17 26 32 76 51 50 62
REMARK Flexibility Score: inf
ROOT
ATOM      1  C   UNL A   1      35.806  20.329  25.001  1.00  0.00     0.021 C 
ENDROOT
BRANCH   1   2
ATOM      2  C   UNL A   1      34.406  20.586  25.567  1.00  0.00     0.116 C 
BRANCH   2   3
ATOM      3  N   UNL A   1      33.432  20.552  24.516  1.00  0.00    -0.351 N 
ATOM      4  C   UNL A   1      32.824  21.514  23.759  1.00  0.00     0.261 C 
ATOM      5  O   UNL A   1      32.008  21.032  22.962  1.00  0.00    -0.268 OA
ATOM      6  H   UNL A   1      33.137  19.641  24.292  1.00  0.00     0.163 HD
BRANCH   4   7
ATOM      7  C   UNL A   1      33.126  22.951  23.822  1.00  0.00     0.096 A 
ATOM      8  C   UNL A   1      33.214  25.306  22.962  1.00  0.00     0.141 A 
ATOM      9  C   UNL A   1      33.952  25.115  24.106  1.00  0.00     0.038 A 
ATOM     10  S   UNL A   1      32.779  23.796  22.321  1.00  0.00    -0.116 S 
ATOM     11  C   UNL A   1      33.526  23.904  24.765  1.00  0.00    -0.026 A 
ATOM     12  C   UNL A   1      33.478  23.908  26.258  1.00  0.00     0.046 C 
BRANCH   8  13
ATOM     13  S   UNL A   1      32.689  26.758  22.089  1.00  0.00     0.271 S 
ATOM     14  O   UNL A   1      31.683  26.324  21.143  1.00  0.00    -0.200 OA
ATOM     15  O   UNL A   1      33.920  27.378  21.648  1.00  0.00    -0.200 OA
BRANCH  13  16
ATOM     16  N   UNL A   1      31.938  27.911  23.081  1.00  0.00    -0.279 N 
ATOM     17  H   UNL A   1      31.363  28.577  22.639  1.00  0.00     0.180 HD
BRANCH  16  18
ATOM     18  C   UNL A   1      32.068  27.999  24.502  1.00  0.00     0.050 A 
ATOM     19  C   UNL A   1      33.113  29.085  26.413  1.00  0.00     0.026 A 
ATOM     20  C   UNL A   1      32.430  28.233  27.277  1.00  0.00     0.017 A 
ATOM     21  C   UNL A   1      32.954  28.954  25.028  1.00  0.00     0.044 A 
ATOM     22  C   UNL A   1      31.464  27.378  26.767  1.00  0.00     0.003 A 
ATOM     23  C   UNL A   1      31.239  27.314  25.389  1.00  0.00     0.027 A 
BRANCH  19  24
ATOM     24  C   UNL A   1      33.859  30.157  26.999  1.00  0.00    -0.070 C 
ATOM     25  C   UNL A   1      34.531  30.926  27.627  1.00  0.00     0.010 C 
ENDBRANCH  19  24
ENDBRANCH  16  18
ENDBRANCH  13  16
ENDBRANCH   8  13
ENDBRANCH   4   7
ENDBRANCH   2   3
ENDBRANCH   1   2
BRANCH   1  26
ATOM     26  C   UNL A   1      36.851  21.220  25.673  1.00  0.00     0.002 C 
BRANCH  26  27
ATOM     27  C   UNL A   1      37.444  22.263  24.718  1.00  0.00     0.002 C 
BRANCH  27  28
ATOM     28  C   UNL A   1      37.251  23.712  25.170  1.00  0.00     0.021 C 
BRANCH  28  29
ATOM     29  C   UNL A   1      38.081  24.091  26.388  1.00  0.00     0.116 C 
BRANCH  29  30
ATOM     30  N   UNL A   1      39.500  23.871  26.154  1.00  0.00    -0.352 N 
ATOM     31  C   UNL A   1      40.571  24.653  26.503  1.00  0.00     0.251 C 
ATOM     32  H   UNL A   1      39.725  23.040  25.677  1.00  0.00     0.163 HD
ATOM     33  O   UNL A   1      41.666  24.475  25.978  1.00  0.00    -0.269 OA
BRANCH  31  34
ATOM     34  C   UNL A   1      40.394  25.712  27.514  1.00  0.00     0.039 A 
ATOM     35  C   UNL A   1      39.476  25.522  28.546  1.00  0.00     0.014 A 
ATOM     36  C   UNL A   1      41.137  26.894  27.432  1.00  0.00     0.014 A 
ATOM     37  C   UNL A   1      39.339  26.500  29.529  1.00  0.00     0.010 A 
ATOM     38  C   UNL A   1      41.070  27.820  28.464  1.00  0.00     0.010 A 
ATOM     39  C   UNL A   1      40.162  27.640  29.516  1.00  0.00    -0.014 A 
BRANCH  39  40
ATOM     40  C   UNL A   1      40.085  28.653  30.594  1.00  0.00     0.031 A 
ATOM     41  C   UNL A   1      39.093  29.779  30.504  1.00  0.00     0.074 A 
ATOM     42  C   UNL A   1      40.950  28.591  31.624  1.00  0.00     0.049 A 
ATOM     43  N   UNL A   1      38.906  30.782  31.324  1.00  0.00    -0.248 NA
ATOM     44  C   UNL A   1      38.215  29.797  29.324  1.00  0.00     0.031 C 
ATOM     45  C   UNL A   1      41.985  27.570  31.798  1.00  0.00     0.029 A 
ATOM     46  N   UNL A   1      41.097  29.405  32.718  1.00  0.00    -0.354 N 
ATOM     47  C   UNL A   1      37.899  31.550  30.755  1.00  0.00     0.074 A 
ATOM     48  C   UNL A   1      37.563  30.937  29.489  1.00  0.00     0.031 C 
ATOM     49  C   UNL A   1      42.634  27.797  32.950  1.00  0.00     0.029 A 
ATOM     50  C   UNL A   1      42.099  29.005  33.569  1.00  0.00     0.049 A 
ATOM     51  H   UNL A   1      40.538  30.199  32.879  1.00  0.00     0.167 HD
ATOM     52  C   UNL A   1      37.292  32.654  31.253  1.00  0.00     0.037 A 
ATOM     53  C   UNL A   1      42.540  29.555  34.715  1.00  0.00     0.037 A 
ATOM     54  C   UNL A   1      37.633  33.256  32.516  1.00  0.00     0.049 A 
ATOM     55  C   UNL A   1      41.879  30.804  35.228  1.00  0.00     0.074 A 
ATOM     56  C   UNL A   1      37.045  34.343  33.138  1.00  0.00     0.029 A 
ATOM     57  N   UNL A   1      38.662  32.831  33.344  1.00  0.00    -0.354 N 
ATOM     58  N   UNL A   1      40.879  31.480  34.717  1.00  0.00    -0.248 NA
ATOM     59  C   UNL A   1      42.406  31.363  36.479  1.00  0.00     0.031 C 
ATOM     60  C   UNL A   1      37.767  34.623  34.303  1.00  0.00     0.029 A 
ATOM     61  C   UNL A   1      38.753  33.660  34.450  1.00  0.00     0.049 A 
ATOM     62  H   UNL A   1      39.243  32.055  33.171  1.00  0.00     0.167 HD
ATOM     63  C   UNL A   1      40.634  32.524  35.601  1.00  0.00     0.074 A 
ATOM     64  C   UNL A   1      41.584  32.381  36.686  1.00  0.00     0.031 C 
ATOM     65  C   UNL A   1      39.705  33.509  35.524  1.00  0.00     0.037 A 
BRANCH  52  66
ATOM     66  C   UNL A   1      36.217  33.290  30.417  1.00  0.00     0.057 A 
ATOM     67  C   UNL A   1      36.509  34.059  29.282  1.00  0.00     0.134 A 
ATOM     68  C   UNL A   1      34.865  33.119  30.745  1.00  0.00     0.134 A 
ATOM     69  F   UNL A   1      37.782  34.273  28.914  1.00  0.00    -0.206 F 
ATOM     70  C   UNL A   1      35.503  34.669  28.531  1.00  0.00     0.040 A 
ATOM     71  C   UNL A   1      33.848  33.693  29.980  1.00  0.00     0.040 A 
ATOM     72  F   UNL A   1      34.509  32.389  31.813  1.00  0.00    -0.206 F 
ATOM     73  C   UNL A   1      34.166  34.480  28.876  1.00  0.00     0.006 A 
ENDBRANCH  52  66
BRANCH  53  74
ATOM     74  C   UNL A   1      43.652  28.916  35.463  1.00  0.00     0.057 A 
ATOM     75  C   UNL A   1      44.981  29.306  35.256  1.00  0.00     0.134 A 
ATOM     76  C   UNL A   1      43.419  27.904  36.404  1.00  0.00     0.134 A 
ATOM     77  F   UNL A   1      45.271  30.259  34.357  1.00  0.00    -0.206 F 
ATOM     78  C   UNL A   1      46.037  28.701  35.938  1.00  0.00     0.040 A 
ATOM     79  C   UNL A   1      44.463  27.312  37.117  1.00  0.00     0.040 A 
ATOM     80  F   UNL A   1      42.168  27.491  36.658  1.00  0.00    -0.206 F 
ATOM     81  C   UNL A   1      45.778  27.705  36.877  1.00  0.00     0.006 A 
ENDBRANCH  53  74
BRANCH  65  82
ATOM     82  C   UNL A   1      39.639  34.487  36.662  1.00  0.00     0.057 A 
ATOM     83  C   UNL A   1      38.912  34.228  37.831  1.00  0.00     0.134 A 
ATOM     84  C   UNL A   1      40.348  35.696  36.601  1.00  0.00     0.134 A 
ATOM     85  F   UNL A   1      38.201  33.096  37.952  1.00  0.00    -0.206 F 
ATOM     86  C   UNL A   1      38.868  35.144  38.883  1.00  0.00     0.040 A 
ATOM     87  C   UNL A   1      40.342  36.602  37.661  1.00  0.00     0.040 A 
ATOM     88  F   UNL A   1      41.076  36.005  35.518  1.00  0.00    -0.206 F 
ATOM     89  C   UNL A   1      39.591  36.332  38.803  1.00  0.00     0.006 A 
ENDBRANCH  65  82
ENDBRANCH  39  40
ENDBRANCH  31  34
ENDBRANCH  29  30
ENDBRANCH  28  29
ENDBRANCH  27  28
ENDBRANCH  26  27
ENDBRANCH   1  26
TORSDOF 17
ENDMDL
