MODEL 1
REMARK VINA RESULT:     -11.0      0.000      0.000
REMARK SMILES O=C(NCCCCCCNC(=O)c1cc(-c2ccc(F)c(C(F)(F)F)c2)cnc1O)c1ccc(-c2c3nc(c(-c4c(F)cccc4F)c4ccc([nH]4)c(-c4c(F)cccc4F)c4nc(c(-c5c(F)cccc5F)c5ccc2[nH]5)C=C4)C=C3)cc1
REMARK SMILES IDX 6 1 5 2 4 3 3 4 1 5 2 6 31 8 32 9 84 10 33 11 83 12 34 13
REMARK SMILES IDX 35 14 36 15 77 16 37 17 82 18 76 19 78 20 38 21 81 22 75 23
REMARK SMILES IDX 74 24 39 26 65 27 48 28 64 29 49 30 52 31 63 32 79 33 50 34
REMARK SMILES IDX 51 35 62 37 80 38 53 39 40 40 41 41 46 42 42 43 43 44 45 45
REMARK SMILES IDX 47 46 44 47 66 48 67 49 72 50 68 51 69 52 71 53 73 54 70 55
REMARK SMILES IDX 54 56 55 57 60 58 56 59 57 60 59 61 61 62 58 63 7 64 8 65
REMARK SMILES IDX 9 66 10 67 11 68 12 70 13 71 14 72 29 73 15 74 28 75 27 76
REMARK SMILES IDX 30 77 16 79 17 80 26 81 18 82 21 83 19 84 20 85 22 86 23 87
REMARK SMILES IDX 24 88 25 89
REMARK H PARENT 3 7 78 25 52 36 10 69 30 78
REMARK Flexibility Score: inf
ROOT
ATOM      1  C   UNL A   1      35.080  23.742  24.925  1.00  0.00     0.002 C 
ENDROOT
BRANCH   1   2
ATOM      2  C   UNL A   1      36.582  23.480  24.818  1.00  0.00     0.021 C 
BRANCH   2   3
ATOM      3  C   UNL A   1      37.353  23.550  26.130  1.00  0.00     0.116 C 
BRANCH   3   4
ATOM      4  N   UNL A   1      38.420  22.570  26.201  1.00  0.00    -0.352 N 
ATOM      5  O   UNL A   1      40.521  21.788  26.333  1.00  0.00    -0.269 OA
ATOM      6  C   UNL A   1      39.754  22.737  26.475  1.00  0.00     0.251 C 
ATOM      7  H   UNL A   1      38.144  21.642  26.027  1.00  0.00     0.163 HD
BRANCH   6   8
ATOM      8  C   UNL A   1      40.285  24.043  26.930  1.00  0.00     0.039 A 
ATOM      9  C   UNL A   1      40.716  24.159  28.255  1.00  0.00     0.014 A 
ATOM     10  C   UNL A   1      40.294  25.168  26.099  1.00  0.00     0.014 A 
ATOM     11  C   UNL A   1      41.157  25.391  28.742  1.00  0.00     0.010 A 
ATOM     12  C   UNL A   1      40.814  26.377  26.559  1.00  0.00     0.010 A 
ATOM     13  C   UNL A   1      41.209  26.511  27.898  1.00  0.00    -0.014 A 
BRANCH  13  14
ATOM     14  C   UNL A   1      41.558  27.850  28.439  1.00  0.00     0.031 A 
ATOM     15  C   UNL A   1      42.997  28.299  28.442  1.00  0.00     0.074 A 
ATOM     16  C   UNL A   1      40.599  28.664  28.917  1.00  0.00     0.049 A 
ATOM     17  N   UNL A   1      43.517  29.423  28.868  1.00  0.00    -0.248 NA
ATOM     18  C   UNL A   1      43.988  27.344  27.919  1.00  0.00     0.031 C 
ATOM     19  C   UNL A   1      39.175  28.339  29.008  1.00  0.00     0.029 A 
ATOM     20  N   UNL A   1      40.682  29.941  29.414  1.00  0.00    -0.354 N 
ATOM     21  C   UNL A   1      44.887  29.306  28.667  1.00  0.00     0.074 A 
ATOM     22  C   UNL A   1      45.127  27.975  28.156  1.00  0.00     0.031 C 
ATOM     23  C   UNL A   1      38.513  29.400  29.500  1.00  0.00     0.029 A 
ATOM     24  C   UNL A   1      39.468  30.470  29.779  1.00  0.00     0.049 A 
ATOM     25  H   UNL A   1      41.531  30.431  29.501  1.00  0.00     0.167 HD
ATOM     26  C   UNL A   1      45.859  30.231  28.852  1.00  0.00     0.037 A 
ATOM     27  C   UNL A   1      39.162  31.684  30.271  1.00  0.00     0.037 A 
ATOM     28  C   UNL A   1      45.625  31.563  29.340  1.00  0.00     0.049 A 
ATOM     29  C   UNL A   1      40.258  32.698  30.462  1.00  0.00     0.074 A 
ATOM     30  C   UNL A   1      46.537  32.581  29.554  1.00  0.00     0.029 A 
ATOM     31  N   UNL A   1      44.378  32.066  29.677  1.00  0.00    -0.354 N 
ATOM     32  N   UNL A   1      41.543  32.584  30.233  1.00  0.00    -0.248 NA
ATOM     33  C   UNL A   1      39.852  34.017  30.966  1.00  0.00     0.031 C 
ATOM     34  C   UNL A   1      45.844  33.695  30.042  1.00  0.00     0.029 A 
ATOM     35  C   UNL A   1      44.496  33.380  30.097  1.00  0.00     0.049 A 
ATOM     36  H   UNL A   1      43.533  31.563  29.627  1.00  0.00     0.167 HD
ATOM     37  C   UNL A   1      42.096  33.821  30.541  1.00  0.00     0.074 A 
ATOM     38  C   UNL A   1      41.001  34.677  30.949  1.00  0.00     0.031 C 
ATOM     39  C   UNL A   1      43.392  34.215  30.496  1.00  0.00     0.037 A 
BRANCH  26  40
ATOM     40  C   UNL A   1      47.260  29.823  28.501  1.00  0.00     0.057 A 
ATOM     41  C   UNL A   1      47.765  30.006  27.209  1.00  0.00     0.134 A 
ATOM     42  C   UNL A   1      48.118  29.258  29.456  1.00  0.00     0.134 A 
ATOM     43  F   UNL A   1      46.998  30.540  26.246  1.00  0.00    -0.206 F 
ATOM     44  C   UNL A   1      49.076  29.651  26.881  1.00  0.00     0.040 A 
ATOM     45  C   UNL A   1      49.438  28.925  29.148  1.00  0.00     0.040 A 
ATOM     46  F   UNL A   1      47.702  29.074  30.718  1.00  0.00    -0.206 F 
ATOM     47  C   UNL A   1      49.918  29.118  27.854  1.00  0.00     0.006 A 
ENDBRANCH  26  40
BRANCH  27  48
ATOM     48  C   UNL A   1      37.755  32.032  30.588  1.00  0.00     0.057 A 
ATOM     49  C   UNL A   1      36.954  32.733  29.679  1.00  0.00     0.134 A 
ATOM     50  C   UNL A   1      37.166  31.635  31.795  1.00  0.00     0.134 A 
ATOM     51  F   UNL A   1      37.461  33.146  28.508  1.00  0.00    -0.206 F 
ATOM     52  C   UNL A   1      35.617  33.020  29.955  1.00  0.00     0.040 A 
ATOM     53  C   UNL A   1      35.823  31.894  32.074  1.00  0.00     0.040 A 
ATOM     54  F   UNL A   1      37.878  30.944  32.697  1.00  0.00    -0.206 F 
ATOM     55  C   UNL A   1      35.045  32.590  31.152  1.00  0.00     0.006 A 
ENDBRANCH  27  48
BRANCH  39  56
ATOM     56  C   UNL A   1      43.678  35.639  30.867  1.00  0.00     0.057 A 
ATOM     57  C   UNL A   1      43.707  36.640  29.887  1.00  0.00     0.134 A 
ATOM     58  C   UNL A   1      43.919  36.024  32.193  1.00  0.00     0.134 A 
ATOM     59  F   UNL A   1      43.492  36.338  28.598  1.00  0.00    -0.206 F 
ATOM     60  C   UNL A   1      43.955  37.973  30.214  1.00  0.00     0.040 A 
ATOM     61  C   UNL A   1      44.143  37.359  32.535  1.00  0.00     0.040 A 
ATOM     62  F   UNL A   1      43.891  35.115  33.179  1.00  0.00    -0.206 F 
ATOM     63  C   UNL A   1      44.163  38.337  31.543  1.00  0.00     0.006 A 
ENDBRANCH  39  56
ENDBRANCH  13  14
ENDBRANCH   6   8
ENDBRANCH   3   4
ENDBRANCH   2   3
ENDBRANCH   1   2
BRANCH   1  64
ATOM     64  C   UNL A   1      34.522  23.859  26.346  1.00  0.00     0.002 C 
BRANCH  64  65
ATOM     65  C   UNL A   1      33.694  22.669  26.842  1.00  0.00     0.021 C 
BRANCH  65  66
ATOM     66  C   UNL A   1      32.549  22.242  25.926  1.00  0.00     0.116 C 
BRANCH  66  67
ATOM     67  N   UNL A   1      31.246  22.493  26.523  1.00  0.00    -0.352 N 
ATOM     68  C   UNL A   1      30.520  23.653  26.539  1.00  0.00     0.256 C 
ATOM     69  H   UNL A   1      30.831  21.724  26.977  1.00  0.00     0.163 HD
ATOM     70  O   UNL A   1      29.524  23.756  27.251  1.00  0.00    -0.269 OA
BRANCH  68  71
ATOM     71  C   UNL A   1      30.919  24.778  25.687  1.00  0.00     0.102 A 
ATOM     72  C   UNL A   1      31.402  25.942  26.293  1.00  0.00     0.029 A 
ATOM     73  C   UNL A   1      30.797  24.745  24.303  1.00  0.00     0.223 A 
ATOM     74  C   UNL A   1      31.788  27.028  25.501  1.00  0.00     0.001 A 
ATOM     75  N   UNL A   1      31.186  25.758  23.507  1.00  0.00    -0.221 NA
ATOM     76  C   UNL A   1      31.668  26.867  24.119  1.00  0.00     0.124 A 
BRANCH  73  77
ATOM     77  O   UNL A   1      30.277  23.686  23.618  1.00  0.00    -0.493 OA
ATOM     78  H   UNL A   1      30.832  23.162  23.074  1.00  0.00     0.295 HD
ENDBRANCH  73  77
BRANCH  74  79
ATOM     79  C   UNL A   1      32.283  28.278  26.084  1.00  0.00    -0.016 A 
ATOM     80  C   UNL A   1      31.486  29.435  26.068  1.00  0.00     0.012 A 
ATOM     81  C   UNL A   1      33.565  28.359  26.656  1.00  0.00     0.025 A 
ATOM     82  C   UNL A   1      31.958  30.636  26.596  1.00  0.00     0.040 A 
ATOM     83  C   UNL A   1      34.050  29.568  27.188  1.00  0.00     0.092 A 
ATOM     84  C   UNL A   1      33.234  30.692  27.145  1.00  0.00     0.135 A 
ATOM     85  F   UNL A   1      33.675  31.860  27.633  1.00  0.00    -0.206 F 
BRANCH  83  86
ATOM     86  C   UNL A   1      35.426  29.686  27.770  1.00  0.00     0.419 C 
ATOM     87  F   UNL A   1      36.129  30.730  27.250  1.00  0.00    -0.166 F 
ATOM     88  F   UNL A   1      35.426  29.857  29.120  1.00  0.00    -0.166 F 
ATOM     89  F   UNL A   1      36.195  28.581  27.544  1.00  0.00    -0.166 F 
ENDBRANCH  83  86
ENDBRANCH  74  79
ENDBRANCH  68  71
ENDBRANCH  66  67
ENDBRANCH  65  66
ENDBRANCH  64  65
ENDBRANCH   1  64
TORSDOF 16
ENDMDL
MODEL 2
REMARK VINA RESULT:     -11.0      4.942     10.465
REMARK SMILES O=C(NCCCCCCNC(=O)c1cc(-c2ccc(F)c(C(F)(F)F)c2)cnc1O)c1ccc(-c2c3nc(c(-c4c(F)cccc4F)c4ccc([nH]4)c(-c4c(F)cccc4F)c4nc(c(-c5c(F)cccc5F)c5ccc2[nH]5)C=C4)C=C3)cc1
REMARK SMILES IDX 6 1 5 2 4 3 3 4 1 5 2 6 31 8 32 9 84 10 33 11 83 12 34 13
REMARK SMILES IDX 35 14 36 15 77 16 37 17 82 18 76 19 78 20 38 21 81 22 75 23
REMARK SMILES IDX 74 24 39 26 65 27 48 28 64 29 49 30 52 31 63 32 79 33 50 34
REMARK SMILES IDX 51 35 62 37 80 38 53 39 40 40 41 41 46 42 42 43 43 44 45 45
REMARK SMILES IDX 47 46 44 47 66 48 67 49 72 50 68 51 69 52 71 53 73 54 70 55
REMARK SMILES IDX 54 56 55 57 60 58 56 59 57 60 59 61 61 62 58 63 7 64 8 65
REMARK SMILES IDX 9 66 10 67 11 68 12 70 13 71 14 72 29 73 15 74 28 75 27 76
REMARK SMILES IDX 30 77 16 79 17 80 26 81 18 82 21 83 19 84 20 85 22 86 23 87
REMARK SMILES IDX 24 88 25 89
REMARK H PARENT 3 7 78 25 52 36 10 69 30 78
REMARK Flexibility Score: inf
ROOT
ATOM      1  C   UNL A   1      33.959  36.107  32.870  1.00  0.00     0.002 C 
ENDROOT
BRANCH   1   2
ATOM      2  C   UNL A   1      32.883  36.177  31.785  1.00  0.00     0.021 C 
BRANCH   2   3
ATOM      3  C   UNL A   1      33.395  36.416  30.370  1.00  0.00     0.116 C 
BRANCH   3   4
ATOM      4  N   UNL A   1      32.648  35.672  29.375  1.00  0.00    -0.352 N 
ATOM      5  O   UNL A   1      32.285  34.216  27.705  1.00  0.00    -0.269 OA
ATOM      6  C   UNL A   1      33.027  34.603  28.604  1.00  0.00     0.251 C 
ATOM      7  H   UNL A   1      31.725  35.983  29.231  1.00  0.00     0.163 HD
BRANCH   6   8
ATOM      8  C   UNL A   1      34.319  33.914  28.832  1.00  0.00     0.039 A 
ATOM      9  C   UNL A   1      34.338  32.807  29.686  1.00  0.00     0.014 A 
ATOM     10  C   UNL A   1      35.515  34.385  28.283  1.00  0.00     0.014 A 
ATOM     11  C   UNL A   1      35.547  32.174  29.983  1.00  0.00     0.010 A 
ATOM     12  C   UNL A   1      36.709  33.701  28.510  1.00  0.00     0.010 A 
ATOM     13  C   UNL A   1      36.743  32.617  29.398  1.00  0.00    -0.014 A 
BRANCH  13  14
ATOM     14  C   UNL A   1      38.046  32.029  29.802  1.00  0.00     0.031 A 
ATOM     15  C   UNL A   1      38.923  32.765  30.782  1.00  0.00     0.074 A 
ATOM     16  C   UNL A   1      38.442  30.842  29.306  1.00  0.00     0.049 A 
ATOM     17  N   UNL A   1      40.094  32.432  31.265  1.00  0.00    -0.248 NA
ATOM     18  C   UNL A   1      38.428  34.065  31.265  1.00  0.00     0.031 C 
ATOM     19  C   UNL A   1      37.709  30.044  28.322  1.00  0.00     0.029 A 
ATOM     20  N   UNL A   1      39.565  30.097  29.569  1.00  0.00    -0.354 N 
ATOM     21  C   UNL A   1      40.471  33.477  32.098  1.00  0.00     0.074 A 
ATOM     22  C   UNL A   1      39.445  34.490  31.998  1.00  0.00     0.031 C 
ATOM     23  C   UNL A   1      38.385  28.907  28.088  1.00  0.00     0.029 A 
ATOM     24  C   UNL A   1      39.608  28.906  28.887  1.00  0.00     0.049 A 
ATOM     25  H   UNL A   1      40.272  30.390  30.187  1.00  0.00     0.167 HD
ATOM     26  C   UNL A   1      41.552  33.575  32.909  1.00  0.00     0.037 A 
ATOM     27  C   UNL A   1      40.525  27.922  28.914  1.00  0.00     0.037 A 
ATOM     28  C   UNL A   1      42.565  32.562  33.031  1.00  0.00     0.049 A 
ATOM     29  C   UNL A   1      41.715  28.050  29.826  1.00  0.00     0.074 A 
ATOM     30  C   UNL A   1      43.696  32.559  33.829  1.00  0.00     0.029 A 
ATOM     31  N   UNL A   1      42.560  31.361  32.339  1.00  0.00    -0.354 N 
ATOM     32  N   UNL A   1      42.038  29.029  30.636  1.00  0.00    -0.248 NA
ATOM     33  C   UNL A   1      42.659  26.924  29.838  1.00  0.00     0.031 C 
ATOM     34  C   UNL A   1      44.387  31.362  33.604  1.00  0.00     0.029 A 
ATOM     35  C   UNL A   1      43.667  30.607  32.692  1.00  0.00     0.049 A 
ATOM     36  H   UNL A   1      41.872  31.085  31.691  1.00  0.00     0.167 HD
ATOM     37  C   UNL A   1      43.207  28.628  31.271  1.00  0.00     0.074 A 
ATOM     38  C   UNL A   1      43.521  27.306  30.769  1.00  0.00     0.031 C 
ATOM     39  C   UNL A   1      43.958  29.292  32.182  1.00  0.00     0.037 A 
BRANCH  26  40
ATOM     40  C   UNL A   1      41.669  34.822  33.737  1.00  0.00     0.057 A 
ATOM     41  C   UNL A   1      42.611  35.809  33.427  1.00  0.00     0.134 A 
ATOM     42  C   UNL A   1      40.832  35.050  34.839  1.00  0.00     0.134 A 
ATOM     43  F   UNL A   1      43.445  35.655  32.387  1.00  0.00    -0.206 F 
ATOM     44  C   UNL A   1      42.711  36.984  34.178  1.00  0.00     0.040 A 
ATOM     45  C   UNL A   1      40.902  36.232  35.579  1.00  0.00     0.040 A 
ATOM     46  F   UNL A   1      39.894  34.152  35.177  1.00  0.00    -0.206 F 
ATOM     47  C   UNL A   1      41.848  37.201  35.251  1.00  0.00     0.006 A 
ENDBRANCH  26  40
BRANCH  27  48
ATOM     48  C   UNL A   1      40.348  26.708  28.080  1.00  0.00     0.057 A 
ATOM     49  C   UNL A   1      39.513  25.660  28.486  1.00  0.00     0.134 A 
ATOM     50  C   UNL A   1      40.978  26.586  26.836  1.00  0.00     0.134 A 
ATOM     51  F   UNL A   1      38.885  25.714  29.670  1.00  0.00    -0.206 F 
ATOM     52  C   UNL A   1      39.307  24.538  27.682  1.00  0.00     0.040 A 
ATOM     53  C   UNL A   1      40.762  25.481  26.011  1.00  0.00     0.040 A 
ATOM     54  F   UNL A   1      41.774  27.566  26.385  1.00  0.00    -0.206 F 
ATOM     55  C   UNL A   1      39.925  24.452  26.435  1.00  0.00     0.006 A 
ENDBRANCH  27  48
BRANCH  39  56
ATOM     56  C   UNL A   1      45.167  28.579  32.711  1.00  0.00     0.057 A 
ATOM     57  C   UNL A   1      46.410  28.715  32.078  1.00  0.00     0.134 A 
ATOM     58  C   UNL A   1      45.106  27.763  33.849  1.00  0.00     0.134 A 
ATOM     59  F   UNL A   1      46.535  29.475  30.980  1.00  0.00    -0.206 F 
ATOM     60  C   UNL A   1      47.549  28.074  32.564  1.00  0.00     0.040 A 
ATOM     61  C   UNL A   1      46.244  27.137  34.358  1.00  0.00     0.040 A 
ATOM     62  F   UNL A   1      43.948  27.604  34.508  1.00  0.00    -0.206 F 
ATOM     63  C   UNL A   1      47.470  27.290  33.713  1.00  0.00     0.006 A 
ENDBRANCH  39  56
ENDBRANCH  13  14
ENDBRANCH   6   8
ENDBRANCH   3   4
ENDBRANCH   2   3
ENDBRANCH   1   2
BRANCH   1  64
ATOM     64  C   UNL A   1      35.064  35.071  32.648  1.00  0.00     0.002 C 
BRANCH  64  65
ATOM     65  C   UNL A   1      34.812  33.682  33.245  1.00  0.00     0.021 C 
BRANCH  65  66
ATOM     66  C   UNL A   1      36.064  32.908  33.651  1.00  0.00     0.116 C 
BRANCH  66  67
ATOM     67  N   UNL A   1      36.116  31.590  33.036  1.00  0.00    -0.352 N 
ATOM     68  C   UNL A   1      37.096  30.639  33.130  1.00  0.00     0.256 C 
ATOM     69  H   UNL A   1      35.341  31.351  32.478  1.00  0.00     0.163 HD
ATOM     70  O   UNL A   1      37.081  29.654  32.396  1.00  0.00    -0.269 OA
BRANCH  68  71
ATOM     71  C   UNL A   1      38.164  30.783  34.124  1.00  0.00     0.102 A 
ATOM     72  C   UNL A   1      37.858  31.360  35.361  1.00  0.00     0.029 A 
ATOM     73  C   UNL A   1      39.477  30.404  33.868  1.00  0.00     0.223 A 
ATOM     74  C   UNL A   1      38.861  31.508  36.325  1.00  0.00     0.001 A 
ATOM     75  N   UNL A   1      40.461  30.504  34.781  1.00  0.00    -0.221 NA
ATOM     76  C   UNL A   1      40.134  31.049  35.977  1.00  0.00     0.124 A 
BRANCH  73  77
ATOM     77  O   UNL A   1      39.894  29.893  32.674  1.00  0.00    -0.493 OA
ATOM     78  H   UNL A   1      39.274  29.503  32.089  1.00  0.00     0.295 HD
ENDBRANCH  73  77
BRANCH  74  79
ATOM     79  C   UNL A   1      38.601  32.122  37.629  1.00  0.00    -0.016 A 
ATOM     80  C   UNL A   1      39.490  33.074  38.157  1.00  0.00     0.012 A 
ATOM     81  C   UNL A   1      37.473  31.769  38.390  1.00  0.00     0.025 A 
ATOM     82  C   UNL A   1      39.266  33.645  39.410  1.00  0.00     0.040 A 
ATOM     83  C   UNL A   1      37.241  32.338  39.656  1.00  0.00     0.092 A 
ATOM     84  C   UNL A   1      38.149  33.269  40.147  1.00  0.00     0.135 A 
ATOM     85  F   UNL A   1      37.960  33.817  41.355  1.00  0.00    -0.206 F 
BRANCH  83  86
ATOM     86  C   UNL A   1      36.065  31.950  40.500  1.00  0.00     0.419 C 
ATOM     87  F   UNL A   1      36.430  31.424  41.702  1.00  0.00    -0.166 F 
ATOM     88  F   UNL A   1      35.232  32.990  40.772  1.00  0.00    -0.166 F 
ATOM     89  F   UNL A   1      35.280  31.001  39.911  1.00  0.00    -0.166 F 
ENDBRANCH  83  86
ENDBRANCH  74  79
ENDBRANCH  68  71
ENDBRANCH  66  67
ENDBRANCH  65  66
ENDBRANCH  64  65
ENDBRANCH   1  64
TORSDOF 16
ENDMDL
MODEL 3
REMARK VINA RESULT:     -10.9      3.862      7.063
REMARK SMILES O=C(NCCCCCCNC(=O)c1cc(-c2ccc(F)c(C(F)(F)F)c2)cnc1O)c1ccc(-c2c3nc(c(-c4c(F)cccc4F)c4ccc([nH]4)c(-c4c(F)cccc4F)c4nc(c(-c5c(F)cccc5F)c5ccc2[nH]5)C=C4)C=C3)cc1
REMARK SMILES IDX 6 1 5 2 4 3 3 4 1 5 2 6 31 8 32 9 84 10 33 11 83 12 34 13
REMARK SMILES IDX 35 14 36 15 77 16 37 17 82 18 76 19 78 20 38 21 81 22 75 23
REMARK SMILES IDX 74 24 39 26 65 27 48 28 64 29 49 30 52 31 63 32 79 33 50 34
REMARK SMILES IDX 51 35 62 37 80 38 53 39 40 40 41 41 46 42 42 43 43 44 45 45
REMARK SMILES IDX 47 46 44 47 66 48 67 49 72 50 68 51 69 52 71 53 73 54 70 55
REMARK SMILES IDX 54 56 55 57 60 58 56 59 57 60 59 61 61 62 58 63 7 64 8 65
REMARK SMILES IDX 9 66 10 67 11 68 12 70 13 71 14 72 29 73 15 74 28 75 27 76
REMARK SMILES IDX 30 77 16 79 17 80 26 81 18 82 21 83 19 84 20 85 22 86 23 87
REMARK SMILES IDX 24 88 25 89
REMARK H PARENT 3 7 78 25 52 36 10 69 30 78
REMARK Flexibility Score: inf
ROOT
ATOM      1  C   UNL A   1      37.963  23.736  26.405  1.00  0.00     0.002 C 
ENDROOT
BRANCH   1   2
ATOM      2  C   UNL A   1      38.983  22.606  26.267  1.00  0.00     0.021 C 
BRANCH   2   3
ATOM      3  C   UNL A   1      40.304  22.823  26.995  1.00  0.00     0.116 C 
BRANCH   3   4
ATOM      4  N   UNL A   1      41.333  23.367  26.131  1.00  0.00    -0.352 N 
ATOM      5  O   UNL A   1      42.630  24.926  25.166  1.00  0.00    -0.269 OA
ATOM      6  C   UNL A   1      41.870  24.628  26.084  1.00  0.00     0.251 C 
ATOM      7  H   UNL A   1      41.705  22.732  25.477  1.00  0.00     0.163 HD
BRANCH   6   8
ATOM      8  C   UNL A   1      41.541  25.639  27.117  1.00  0.00     0.039 A 
ATOM      9  C   UNL A   1      42.209  26.867  27.079  1.00  0.00     0.014 A 
ATOM     10  C   UNL A   1      40.649  25.369  28.159  1.00  0.00     0.014 A 
ATOM     11  C   UNL A   1      41.980  27.818  28.076  1.00  0.00     0.010 A 
ATOM     12  C   UNL A   1      40.355  26.351  29.104  1.00  0.00     0.010 A 
ATOM     13  C   UNL A   1      41.052  27.568  29.097  1.00  0.00    -0.014 A 
BRANCH  13  14
ATOM     14  C   UNL A   1      40.893  28.521  30.226  1.00  0.00     0.031 A 
ATOM     15  C   UNL A   1      39.817  29.575  30.165  1.00  0.00     0.074 A 
ATOM     16  C   UNL A   1      41.698  28.444  31.302  1.00  0.00     0.049 A 
ATOM     17  N   UNL A   1      39.510  30.502  31.037  1.00  0.00    -0.248 NA
ATOM     18  C   UNL A   1      38.990  29.605  28.947  1.00  0.00     0.031 C 
ATOM     19  C   UNL A   1      42.802  27.498  31.471  1.00  0.00     0.029 A 
ATOM     20  N   UNL A   1      41.704  29.176  32.463  1.00  0.00    -0.354 N 
ATOM     21  C   UNL A   1      38.465  31.222  30.472  1.00  0.00     0.074 A 
ATOM     22  C   UNL A   1      38.241  30.676  29.152  1.00  0.00     0.031 C 
ATOM     23  C   UNL A   1      43.359  27.687  32.680  1.00  0.00     0.029 A 
ATOM     24  C   UNL A   1      42.666  28.779  33.359  1.00  0.00     0.049 A 
ATOM     25  H   UNL A   1      41.079  29.915  32.636  1.00  0.00     0.167 HD
ATOM     26  C   UNL A   1      37.727  32.221  31.011  1.00  0.00     0.037 A 
ATOM     27  C   UNL A   1      42.947  29.239  34.592  1.00  0.00     0.037 A 
ATOM     28  C   UNL A   1      37.930  32.754  32.331  1.00  0.00     0.049 A 
ATOM     29  C   UNL A   1      42.111  30.346  35.173  1.00  0.00     0.074 A 
ATOM     30  C   UNL A   1      37.232  33.760  32.977  1.00  0.00     0.029 A 
ATOM     31  N   UNL A   1      38.902  32.310  33.215  1.00  0.00    -0.354 N 
ATOM     32  N   UNL A   1      41.102  30.992  34.640  1.00  0.00    -0.248 NA
ATOM     33  C   UNL A   1      42.444  30.776  36.538  1.00  0.00     0.031 C 
ATOM     34  C   UNL A   1      37.797  33.938  34.246  1.00  0.00     0.029 A 
ATOM     35  C   UNL A   1      38.822  33.020  34.401  1.00  0.00     0.049 A 
ATOM     36  H   UNL A   1      39.553  31.596  33.026  1.00  0.00     0.167 HD
ATOM     37  C   UNL A   1      40.665  31.885  35.610  1.00  0.00     0.074 A 
ATOM     38  C   UNL A   1      41.504  31.679  36.773  1.00  0.00     0.031 C 
ATOM     39  C   UNL A   1      39.665  32.797  35.547  1.00  0.00     0.037 A 
BRANCH  26  40
ATOM     40  C   UNL A   1      36.620  32.780  30.165  1.00  0.00     0.057 A 
ATOM     41  C   UNL A   1      35.286  32.424  30.392  1.00  0.00     0.134 A 
ATOM     42  C   UNL A   1      36.879  33.690  29.129  1.00  0.00     0.134 A 
ATOM     43  F   UNL A   1      34.966  31.558  31.366  1.00  0.00    -0.206 F 
ATOM     44  C   UNL A   1      34.248  32.958  29.625  1.00  0.00     0.040 A 
ATOM     45  C   UNL A   1      35.848  34.252  28.374  1.00  0.00     0.040 A 
ATOM     46  F   UNL A   1      38.134  34.088  28.873  1.00  0.00    -0.206 F 
ATOM     47  C   UNL A   1      34.528  33.882  28.619  1.00  0.00     0.006 A 
ENDBRANCH  26  40
BRANCH  27  48
ATOM     48  C   UNL A   1      44.048  28.637  35.384  1.00  0.00     0.057 A 
ATOM     49  C   UNL A   1      45.347  29.158  35.341  1.00  0.00     0.134 A 
ATOM     50  C   UNL A   1      43.817  27.550  36.236  1.00  0.00     0.134 A 
ATOM     51  F   UNL A   1      45.635  30.195  34.541  1.00  0.00    -0.206 F 
ATOM     52  C   UNL A   1      46.374  28.623  36.120  1.00  0.00     0.040 A 
ATOM     53  C   UNL A   1      44.828  27.021  37.039  1.00  0.00     0.040 A 
ATOM     54  F   UNL A   1      42.589  27.021  36.334  1.00  0.00    -0.206 F 
ATOM     55  C   UNL A   1      46.112  27.558  36.981  1.00  0.00     0.006 A 
ENDBRANCH  27  48
BRANCH  39  56
ATOM     56  C   UNL A   1      39.412  33.609  36.782  1.00  0.00     0.057 A 
ATOM     57  C   UNL A   1      39.991  34.877  36.933  1.00  0.00     0.134 A 
ATOM     58  C   UNL A   1      38.593  33.144  37.819  1.00  0.00     0.134 A 
ATOM     59  F   UNL A   1      40.792  35.378  35.981  1.00  0.00    -0.206 F 
ATOM     60  C   UNL A   1      39.754  35.655  38.066  1.00  0.00     0.040 A 
ATOM     61  C   UNL A   1      38.329  33.924  38.945  1.00  0.00     0.040 A 
ATOM     62  F   UNL A   1      37.998  31.944  37.728  1.00  0.00    -0.206 F 
ATOM     63  C   UNL A   1      38.913  35.184  39.071  1.00  0.00     0.006 A 
ENDBRANCH  39  56
ENDBRANCH  13  14
ENDBRANCH   6   8
ENDBRANCH   3   4
ENDBRANCH   2   3
ENDBRANCH   1   2
BRANCH   1  64
ATOM     64  C   UNL A   1      36.780  23.690  25.434  1.00  0.00     0.002 C 
BRANCH  64  65
ATOM     65  C   UNL A   1      36.947  22.775  24.216  1.00  0.00     0.021 C 
BRANCH  65  66
ATOM     66  C   UNL A   1      35.903  22.953  23.117  1.00  0.00     0.116 C 
BRANCH  66  67
ATOM     67  N   UNL A   1      34.595  22.454  23.517  1.00  0.00    -0.352 N 
ATOM     68  C   UNL A   1      33.429  23.148  23.686  1.00  0.00     0.256 C 
ATOM     69  H   UNL A   1      34.545  21.485  23.689  1.00  0.00     0.163 HD
ATOM     70  O   UNL A   1      32.456  22.614  24.214  1.00  0.00    -0.269 OA
BRANCH  68  71
ATOM     71  C   UNL A   1      33.327  24.535  23.220  1.00  0.00     0.102 A 
ATOM     72  C   UNL A   1      33.245  25.559  24.168  1.00  0.00     0.029 A 
ATOM     73  C   UNL A   1      33.271  24.865  21.871  1.00  0.00     0.223 A 
ATOM     74  C   UNL A   1      33.147  26.889  23.747  1.00  0.00     0.001 A 
ATOM     75  N   UNL A   1      33.207  26.134  21.428  1.00  0.00    -0.221 NA
ATOM     76  C   UNL A   1      33.147  27.108  22.367  1.00  0.00     0.124 A 
BRANCH  73  77
ATOM     77  O   UNL A   1      33.278  23.940  20.868  1.00  0.00    -0.493 OA
ATOM     78  H   UNL A   1      33.049  23.050  21.051  1.00  0.00     0.295 HD
ENDBRANCH  73  77
BRANCH  74  79
ATOM     79  C   UNL A   1      33.039  28.000  24.696  1.00  0.00    -0.016 A 
ATOM     80  C   UNL A   1      31.883  28.800  24.726  1.00  0.00     0.012 A 
ATOM     81  C   UNL A   1      34.084  28.304  25.586  1.00  0.00     0.025 A 
ATOM     82  C   UNL A   1      31.781  29.875  25.608  1.00  0.00     0.040 A 
ATOM     83  C   UNL A   1      33.990  29.389  26.476  1.00  0.00     0.092 A 
ATOM     84  C   UNL A   1      32.834  30.162  26.468  1.00  0.00     0.135 A 
ATOM     85  F   UNL A   1      32.723  31.210  27.297  1.00  0.00    -0.206 F 
BRANCH  83  86
ATOM     86  C   UNL A   1      35.106  29.753  27.407  1.00  0.00     0.419 C 
ATOM     87  F   UNL A   1      36.199  28.955  27.256  1.00  0.00    -0.166 F 
ATOM     88  F   UNL A   1      35.540  31.033  27.252  1.00  0.00    -0.166 F 
ATOM     89  F   UNL A   1      34.756  29.646  28.722  1.00  0.00    -0.166 F 
ENDBRANCH  83  86
ENDBRANCH  74  79
ENDBRANCH  68  71
ENDBRANCH  66  67
ENDBRANCH  65  66
ENDBRANCH  64  65
ENDBRANCH   1  64
TORSDOF 16
ENDMDL
