MODEL 1
REMARK VINA RESULT:      -8.7      0.000      0.000
REMARK SMILES CCCCOC(=O)c1ccc(N2C[C@H](C(=O)NCCCCCCNC(=O)c3ccc(-c4c5nc(c(-c6c(F)cccc6F)c6ccc([nH]6)c(-c6c(F)cccc6F)c6nc(c(-c7c(F)cccc7F)c7ccc4[nH]7)C=C6)C=C5)cc3)CC2=O)cc1
REMARK SMILES IDX 18 1 17 2 15 3 16 4 14 6 12 7 13 8 82 9 81 10 83 11 11 12
REMARK SMILES IDX 8 13 9 14 85 15 10 16 84 17 6 18 7 19 5 20 4 21 3 22 2 23
REMARK SMILES IDX 1 24 19 25 20 26 21 27 22 28 23 29 24 30 25 31 26 33 27 34
REMARK SMILES IDX 28 35 80 36 29 37 79 38 30 39 31 40 32 41 73 42 33 43 78 44
REMARK SMILES IDX 72 45 74 46 34 47 77 48 71 49 70 50 35 52 61 53 44 54 60 55
REMARK SMILES IDX 45 56 48 57 59 58 75 59 46 60 47 61 58 63 76 64 49 65 36 66
REMARK SMILES IDX 37 67 42 68 38 69 39 70 41 71 43 72 40 73 62 74 63 75 68 76
REMARK SMILES IDX 64 77 65 78 67 79 69 80 66 81 50 82 51 83 56 84 52 85 53 86
REMARK SMILES IDX 55 87 57 88 54 89
REMARK H PARENT 17 5 24 32 74 51 48 62
REMARK Flexibility Score: inf
ROOT
ATOM      1  C   UNL A   1      36.945  34.284  34.558  1.00  0.00     0.116 C 
ENDROOT
BRANCH   1   2
ATOM      2  N   UNL A   1      37.121  33.166  35.466  1.00  0.00    -0.356 N 
ATOM      3  C   UNL A   1      37.797  31.995  35.359  1.00  0.00     0.225 C 
ATOM      4  O   UNL A   1      37.765  31.241  36.336  1.00  0.00    -0.275 OA
ATOM      5  H   UNL A   1      36.659  33.280  36.328  1.00  0.00     0.163 HD
BRANCH   3   6
ATOM      6  C   UNL A   1      38.572  31.573  34.120  1.00  0.00     0.107 C 
ATOM      7  N   UNL A   1      40.065  29.739  34.051  1.00  0.00    -0.312 N 
ATOM      8  C   UNL A   1      39.991  31.136  34.413  1.00  0.00     0.139 C 
ATOM      9  C   UNL A   1      38.915  29.319  33.369  1.00  0.00     0.227 C 
ATOM     10  C   UNL A   1      37.930  30.456  33.322  1.00  0.00     0.116 C 
ATOM     11  O   UNL A   1      38.647  28.214  32.922  1.00  0.00    -0.274 OA
BRANCH   7  12
ATOM     12  C   UNL A   1      41.142  28.894  34.442  1.00  0.00     0.044 A 
ATOM     13  C   UNL A   1      43.086  27.019  35.232  1.00  0.00     0.060 A 
ATOM     14  C   UNL A   1      42.418  27.766  36.199  1.00  0.00     0.018 A 
ATOM     15  C   UNL A   1      42.834  27.225  33.880  1.00  0.00     0.018 A 
ATOM     16  C   UNL A   1      41.465  28.713  35.800  1.00  0.00     0.027 A 
ATOM     17  C   UNL A   1      41.871  28.160  33.494  1.00  0.00     0.027 A 
BRANCH  13  18
ATOM     18  C   UNL A   1      43.992  25.936  35.621  1.00  0.00     0.338 C 
ATOM     19  O   UNL A   1      45.174  26.120  35.872  1.00  0.00    -0.246 OA
BRANCH  18  20
ATOM     20  O   UNL A   1      43.289  24.787  35.686  1.00  0.00    -0.462 OA
BRANCH  20  21
ATOM     21  C   UNL A   1      44.058  23.593  35.908  1.00  0.00     0.233 C 
BRANCH  21  22
ATOM     22  C   UNL A   1      44.541  23.013  34.582  1.00  0.00     0.041 C 
BRANCH  22  23
ATOM     23  C   UNL A   1      44.838  21.511  34.610  1.00  0.00     0.000 C 
ATOM     24  C   UNL A   1      45.705  21.091  35.788  1.00  0.00     0.004 C 
ENDBRANCH  22  23
ENDBRANCH  21  22
ENDBRANCH  20  21
ENDBRANCH  18  20
ENDBRANCH  13  18
ENDBRANCH   7  12
ENDBRANCH   3   6
ENDBRANCH   1   2
BRANCH   1  25
ATOM     25  C   UNL A   1      35.814  34.040  33.560  1.00  0.00     0.021 C 
BRANCH  25  26
ATOM     26  C   UNL A   1      35.344  35.292  32.811  1.00  0.00     0.002 C 
BRANCH  26  27
ATOM     27  C   UNL A   1      34.014  35.888  33.288  1.00  0.00     0.002 C 
BRANCH  27  28
ATOM     28  C   UNL A   1      32.934  36.050  32.213  1.00  0.00     0.021 C 
BRANCH  28  29
ATOM     29  C   UNL A   1      33.450  36.306  30.799  1.00  0.00     0.116 C 
BRANCH  29  30
ATOM     30  N   UNL A   1      32.752  35.512  29.800  1.00  0.00    -0.352 N 
ATOM     31  C   UNL A   1      33.197  34.457  29.043  1.00  0.00     0.251 C 
ATOM     32  H   UNL A   1      31.816  35.771  29.644  1.00  0.00     0.163 HD
ATOM     33  O   UNL A   1      32.493  34.020  28.138  1.00  0.00    -0.269 OA
BRANCH  31  34
ATOM     34  C   UNL A   1      34.526  33.855  29.290  1.00  0.00     0.039 A 
ATOM     35  C   UNL A   1      35.613  34.303  28.532  1.00  0.00     0.014 A 
ATOM     36  C   UNL A   1      34.703  32.832  30.227  1.00  0.00     0.014 A 
ATOM     37  C   UNL A   1      36.883  33.768  28.751  1.00  0.00     0.010 A 
ATOM     38  C   UNL A   1      35.981  32.339  30.486  1.00  0.00     0.010 A 
ATOM     39  C   UNL A   1      37.083  32.801  29.750  1.00  0.00    -0.014 A 
BRANCH  39  40
ATOM     40  C   UNL A   1      38.441  32.279  30.042  1.00  0.00     0.031 A 
ATOM     41  C   UNL A   1      38.882  30.950  29.500  1.00  0.00     0.074 A 
ATOM     42  C   UNL A   1      39.258  32.979  30.852  1.00  0.00     0.049 A 
ATOM     43  N   UNL A   1      40.016  30.319  29.680  1.00  0.00    -0.248 NA
ATOM     44  C   UNL A   1      37.915  30.222  28.665  1.00  0.00     0.031 C 
ATOM     45  C   UNL A   1      38.926  34.254  31.490  1.00  0.00     0.029 A 
ATOM     46  N   UNL A   1      40.531  32.710  31.288  1.00  0.00    -0.354 N 
ATOM     47  C   UNL A   1      39.891  29.115  28.999  1.00  0.00     0.074 A 
ATOM     48  C   UNL A   1      38.560  29.087  28.432  1.00  0.00     0.031 C 
ATOM     49  C   UNL A   1      39.972  34.661  32.226  1.00  0.00     0.029 A 
ATOM     50  C   UNL A   1      41.037  33.668  32.130  1.00  0.00     0.049 A 
ATOM     51  H   UNL A   1      41.032  31.905  31.022  1.00  0.00     0.167 HD
ATOM     52  C   UNL A   1      40.809  28.130  28.848  1.00  0.00     0.037 A 
ATOM     53  C   UNL A   1      42.225  33.737  32.759  1.00  0.00     0.037 A 
ATOM     54  C   UNL A   1      42.142  28.170  29.387  1.00  0.00     0.049 A 
ATOM     55  C   UNL A   1      43.237  32.647  32.552  1.00  0.00     0.074 A 
ATOM     56  C   UNL A   1      43.172  27.262  29.211  1.00  0.00     0.029 A 
ATOM     57  N   UNL A   1      42.629  29.172  30.213  1.00  0.00    -0.354 N 
ATOM     58  N   UNL A   1      43.136  31.555  31.836  1.00  0.00    -0.248 NA
ATOM     59  C   UNL A   1      44.529  32.804  33.235  1.00  0.00     0.031 C 
ATOM     60  C   UNL A   1      44.272  27.697  29.960  1.00  0.00     0.029 A 
ATOM     61  C   UNL A   1      43.937  28.893  30.574  1.00  0.00     0.049 A 
ATOM     62  H   UNL A   1      42.121  29.964  30.500  1.00  0.00     0.167 HD
ATOM     63  C   UNL A   1      44.353  30.901  31.968  1.00  0.00     0.074 A 
ATOM     64  C   UNL A   1      45.183  31.727  32.821  1.00  0.00     0.031 C 
ATOM     65  C   UNL A   1      44.748  29.721  31.430  1.00  0.00     0.037 A 
BRANCH  52  66
ATOM     66  C   UNL A   1      40.394  26.922  28.062  1.00  0.00     0.057 A 
ATOM     67  C   UNL A   1      39.533  25.954  28.596  1.00  0.00     0.134 A 
ATOM     68  C   UNL A   1      40.841  26.735  26.748  1.00  0.00     0.134 A 
ATOM     69  F   UNL A   1      39.078  26.069  29.853  1.00  0.00    -0.206 F 
ATOM     70  C   UNL A   1      39.154  24.830  27.861  1.00  0.00     0.040 A 
ATOM     71  C   UNL A   1      40.451  25.627  25.996  1.00  0.00     0.040 A 
ATOM     72  F   UNL A   1      41.662  27.628  26.175  1.00  0.00    -0.206 F 
ATOM     73  C   UNL A   1      39.609  24.667  26.555  1.00  0.00     0.006 A 
ENDBRANCH  52  66
BRANCH  53  74
ATOM     74  C   UNL A   1      42.528  34.902  33.623  1.00  0.00     0.057 A 
ATOM     75  C   UNL A   1      43.047  36.084  33.082  1.00  0.00     0.134 A 
ATOM     76  C   UNL A   1      42.287  34.871  35.001  1.00  0.00     0.134 A 
ATOM     77  F   UNL A   1      43.313  36.164  31.770  1.00  0.00    -0.206 F 
ATOM     78  C   UNL A   1      43.323  37.193  33.882  1.00  0.00     0.040 A 
ATOM     79  C   UNL A   1      42.541  35.979  35.810  1.00  0.00     0.040 A 
ATOM     80  F   UNL A   1      41.785  33.768  35.575  1.00  0.00    -0.206 F 
ATOM     81  C   UNL A   1      43.064  37.143  35.250  1.00  0.00     0.006 A 
ENDBRANCH  53  74
BRANCH  65  82
ATOM     82  C   UNL A   1      46.139  29.261  31.743  1.00  0.00     0.057 A 
ATOM     83  C   UNL A   1      47.176  29.370  30.809  1.00  0.00     0.134 A 
ATOM     84  C   UNL A   1      46.452  28.731  33.001  1.00  0.00     0.134 A 
ATOM     85  F   UNL A   1      46.936  29.857  29.581  1.00  0.00    -0.206 F 
ATOM     86  C   UNL A   1      48.473  28.951  31.108  1.00  0.00     0.040 A 
ATOM     87  C   UNL A   1      47.749  28.327  33.319  1.00  0.00     0.040 A 
ATOM     88  F   UNL A   1      45.504  28.605  33.942  1.00  0.00    -0.206 F 
ATOM     89  C   UNL A   1      48.763  28.433  32.370  1.00  0.00     0.006 A 
ENDBRANCH  65  82
ENDBRANCH  39  40
ENDBRANCH  31  34
ENDBRANCH  29  30
ENDBRANCH  28  29
ENDBRANCH  27  28
ENDBRANCH  26  27
ENDBRANCH  25  26
ENDBRANCH   1  25
TORSDOF 19
ENDMDL
MODEL 2
REMARK VINA RESULT:      -8.5      4.436      9.042
REMARK SMILES CCCCOC(=O)c1ccc(N2C[C@H](C(=O)NCCCCCCNC(=O)c3ccc(-c4c5nc(c(-c6c(F)cccc6F)c6ccc([nH]6)c(-c6c(F)cccc6F)c6nc(c(-c7c(F)cccc7F)c7ccc4[nH]7)C=C6)C=C5)cc3)CC2=O)cc1
REMARK SMILES IDX 18 1 17 2 15 3 16 4 14 6 12 7 13 8 82 9 81 10 83 11 11 12
REMARK SMILES IDX 8 13 9 14 85 15 10 16 84 17 6 18 7 19 5 20 4 21 3 22 2 23
REMARK SMILES IDX 1 24 19 25 20 26 21 27 22 28 23 29 24 30 25 31 26 33 27 34
REMARK SMILES IDX 28 35 80 36 29 37 79 38 30 39 31 40 32 41 73 42 33 43 78 44
REMARK SMILES IDX 72 45 74 46 34 47 77 48 71 49 70 50 35 52 61 53 44 54 60 55
REMARK SMILES IDX 45 56 48 57 59 58 75 59 46 60 47 61 58 63 76 64 49 65 36 66
REMARK SMILES IDX 37 67 42 68 38 69 39 70 41 71 43 72 40 73 62 74 63 75 68 76
REMARK SMILES IDX 64 77 65 78 67 79 69 80 66 81 50 82 51 83 56 84 52 85 53 86
REMARK SMILES IDX 55 87 57 88 54 89
REMARK H PARENT 17 5 24 32 74 51 48 62
REMARK Flexibility Score: inf
ROOT
ATOM      1  C   UNL A   1      29.962  26.094  24.856  1.00  0.00     0.116 C 
ENDROOT
BRANCH   1   2
ATOM      2  N   UNL A   1      30.529  25.477  26.042  1.00  0.00    -0.356 N 
ATOM      3  C   UNL A   1      31.347  24.410  26.218  1.00  0.00     0.225 C 
ATOM      4  O   UNL A   1      31.671  24.141  27.379  1.00  0.00    -0.275 OA
ATOM      5  H   UNL A   1      30.269  25.921  26.881  1.00  0.00     0.163 HD
BRANCH   3   6
ATOM      6  C   UNL A   1      31.870  23.544  25.081  1.00  0.00     0.107 C 
ATOM      7  N   UNL A   1      33.975  22.465  25.097  1.00  0.00    -0.312 N 
ATOM      8  C   UNL A   1      33.347  23.733  24.807  1.00  0.00     0.139 C 
ATOM      9  C   UNL A   1      33.028  21.455  25.315  1.00  0.00     0.227 C 
ATOM     10  C   UNL A   1      31.649  22.057  25.266  1.00  0.00     0.116 C 
ATOM     11  O   UNL A   1      33.208  20.276  25.580  1.00  0.00    -0.274 OA
BRANCH   7  12
ATOM     12  C   UNL A   1      35.384  22.313  25.240  1.00  0.00     0.044 A 
ATOM     13  C   UNL A   1      38.115  21.885  25.759  1.00  0.00     0.060 A 
ATOM     14  C   UNL A   1      37.508  23.060  26.196  1.00  0.00     0.018 A 
ATOM     15  C   UNL A   1      37.396  20.946  25.029  1.00  0.00     0.018 A 
ATOM     16  C   UNL A   1      36.152  23.277  25.918  1.00  0.00     0.027 A 
ATOM     17  C   UNL A   1      36.041  21.165  24.771  1.00  0.00     0.027 A 
BRANCH  13  18
ATOM     18  C   UNL A   1      39.494  21.573  26.143  1.00  0.00     0.338 C 
ATOM     19  O   UNL A   1      40.054  20.537  25.816  1.00  0.00    -0.246 OA
BRANCH  18  20
ATOM     20  O   UNL A   1      39.994  22.613  26.841  1.00  0.00    -0.462 OA
BRANCH  20  21
ATOM     21  C   UNL A   1      40.802  22.273  27.980  1.00  0.00     0.233 C 
BRANCH  21  22
ATOM     22  C   UNL A   1      42.273  22.570  27.702  1.00  0.00     0.041 C 
BRANCH  22  23
ATOM     23  C   UNL A   1      42.925  23.552  28.679  1.00  0.00     0.000 C 
ATOM     24  C   UNL A   1      44.246  24.115  28.175  1.00  0.00     0.004 C 
ENDBRANCH  22  23
ENDBRANCH  21  22
ENDBRANCH  20  21
ENDBRANCH  18  20
ENDBRANCH  13  18
ENDBRANCH   7  12
ENDBRANCH   3   6
ENDBRANCH   1   2
BRANCH   1  25
ATOM     25  C   UNL A   1      30.989  26.939  24.104  1.00  0.00     0.021 C 
BRANCH  25  26
ATOM     26  C   UNL A   1      30.741  28.450  24.171  1.00  0.00     0.002 C 
BRANCH  26  27
ATOM     27  C   UNL A   1      31.783  29.257  24.956  1.00  0.00     0.002 C 
BRANCH  27  28
ATOM     28  C   UNL A   1      31.342  30.654  25.405  1.00  0.00     0.021 C 
BRANCH  28  29
ATOM     29  C   UNL A   1      31.821  31.078  26.792  1.00  0.00     0.116 C 
BRANCH  29  30
ATOM     30  N   UNL A   1      31.928  32.521  26.926  1.00  0.00    -0.352 N 
ATOM     31  C   UNL A   1      32.860  33.280  27.590  1.00  0.00     0.251 C 
ATOM     32  H   UNL A   1      31.223  33.034  26.470  1.00  0.00     0.163 HD
ATOM     33  O   UNL A   1      32.683  34.488  27.713  1.00  0.00    -0.269 OA
BRANCH  31  34
ATOM     34  C   UNL A   1      34.065  32.654  28.178  1.00  0.00     0.039 A 
ATOM     35  C   UNL A   1      35.184  33.459  28.419  1.00  0.00     0.014 A 
ATOM     36  C   UNL A   1      34.118  31.285  28.455  1.00  0.00     0.014 A 
ATOM     37  C   UNL A   1      36.331  32.905  28.989  1.00  0.00     0.010 A 
ATOM     38  C   UNL A   1      35.242  30.743  29.078  1.00  0.00     0.010 A 
ATOM     39  C   UNL A   1      36.360  31.547  29.348  1.00  0.00    -0.014 A 
BRANCH  39  40
ATOM     40  C   UNL A   1      37.547  30.964  30.022  1.00  0.00     0.031 A 
ATOM     41  C   UNL A   1      37.843  31.282  31.460  1.00  0.00     0.074 A 
ATOM     42  C   UNL A   1      38.396  30.194  29.315  1.00  0.00     0.049 A 
ATOM     43  N   UNL A   1      38.851  30.894  32.201  1.00  0.00    -0.248 NA
ATOM     44  C   UNL A   1      36.895  32.170  32.149  1.00  0.00     0.031 C 
ATOM     45  C   UNL A   1      38.253  29.860  27.898  1.00  0.00     0.029 A 
ATOM     46  N   UNL A   1      39.556  29.565  29.691  1.00  0.00    -0.354 N 
ATOM     47  C   UNL A   1      38.670  31.505  33.435  1.00  0.00     0.074 A 
ATOM     48  C   UNL A   1      37.476  32.317  33.332  1.00  0.00     0.031 C 
ATOM     49  C   UNL A   1      39.278  29.078  27.526  1.00  0.00     0.029 A 
ATOM     50  C   UNL A   1      40.161  28.874  28.670  1.00  0.00     0.049 A 
ATOM     51  H   UNL A   1      39.918  29.605  30.605  1.00  0.00     0.167 HD
ATOM     52  C   UNL A   1      39.422  31.387  34.555  1.00  0.00     0.037 A 
ATOM     53  C   UNL A   1      41.302  28.161  28.657  1.00  0.00     0.037 A 
ATOM     54  C   UNL A   1      40.592  30.558  34.666  1.00  0.00     0.049 A 
ATOM     55  C   UNL A   1      42.103  28.021  29.918  1.00  0.00     0.074 A 
ATOM     56  C   UNL A   1      41.367  30.303  35.785  1.00  0.00     0.029 A 
ATOM     57  N   UNL A   1      41.159  29.850  33.618  1.00  0.00    -0.354 N 
ATOM     58  N   UNL A   1      41.874  28.536  31.102  1.00  0.00    -0.248 NA
ATOM     59  C   UNL A   1      43.317  27.195  29.846  1.00  0.00     0.031 C 
ATOM     60  C   UNL A   1      42.424  29.469  35.405  1.00  0.00     0.029 A 
ATOM     61  C   UNL A   1      42.288  29.177  34.057  1.00  0.00     0.049 A 
ATOM     62  H   UNL A   1      40.812  29.828  32.697  1.00  0.00     0.167 HD
ATOM     63  C   UNL A   1      42.903  28.086  31.917  1.00  0.00     0.074 A 
ATOM     64  C   UNL A   1      43.750  27.243  31.098  1.00  0.00     0.031 C 
ATOM     65  C   UNL A   1      43.125  28.348  33.228  1.00  0.00     0.037 A 
BRANCH  52  66
ATOM     66  C   UNL A   1      38.994  32.181  35.754  1.00  0.00     0.057 A 
ATOM     67  C   UNL A   1      39.343  33.528  35.911  1.00  0.00     0.134 A 
ATOM     68  C   UNL A   1      38.204  31.597  36.753  1.00  0.00     0.134 A 
ATOM     69  F   UNL A   1      40.107  34.143  34.994  1.00  0.00    -0.206 F 
ATOM     70  C   UNL A   1      38.946  34.260  37.030  1.00  0.00     0.040 A 
ATOM     71  C   UNL A   1      37.782  32.324  37.866  1.00  0.00     0.040 A 
ATOM     72  F   UNL A   1      37.830  30.312  36.661  1.00  0.00    -0.206 F 
ATOM     73  C   UNL A   1      38.158  33.659  38.010  1.00  0.00     0.006 A 
ENDBRANCH  52  66
BRANCH  53  74
ATOM     74  C   UNL A   1      41.736  27.500  27.403  1.00  0.00     0.057 A 
ATOM     75  C   UNL A   1      42.692  28.092  26.571  1.00  0.00     0.134 A 
ATOM     76  C   UNL A   1      41.225  26.255  27.020  1.00  0.00     0.134 A 
ATOM     77  F   UNL A   1      43.204  29.294  26.881  1.00  0.00    -0.206 F 
ATOM     78  C   UNL A   1      43.121  27.475  25.396  1.00  0.00     0.040 A 
ATOM     79  C   UNL A   1      41.658  25.617  25.857  1.00  0.00     0.040 A 
ATOM     80  F   UNL A   1      40.311  25.636  27.781  1.00  0.00    -0.206 F 
ATOM     81  C   UNL A   1      42.607  26.229  25.040  1.00  0.00     0.006 A 
ENDBRANCH  53  74
BRANCH  65  82
ATOM     82  C   UNL A   1      44.327  27.709  33.856  1.00  0.00     0.057 A 
ATOM     83  C   UNL A   1      44.279  26.413  34.382  1.00  0.00     0.134 A 
ATOM     84  C   UNL A   1      45.552  28.387  33.909  1.00  0.00     0.134 A 
ATOM     85  F   UNL A   1      43.131  25.718  34.373  1.00  0.00    -0.206 F 
ATOM     86  C   UNL A   1      45.403  25.818  34.956  1.00  0.00     0.040 A 
ATOM     87  C   UNL A   1      46.688  27.795  34.463  1.00  0.00     0.040 A 
ATOM     88  F   UNL A   1      45.665  29.630  33.418  1.00  0.00    -0.206 F 
ATOM     89  C   UNL A   1      46.614  26.508  34.992  1.00  0.00     0.006 A 
ENDBRANCH  65  82
ENDBRANCH  39  40
ENDBRANCH  31  34
ENDBRANCH  29  30
ENDBRANCH  28  29
ENDBRANCH  27  28
ENDBRANCH  26  27
ENDBRANCH  25  26
ENDBRANCH   1  25
TORSDOF 19
ENDMDL
MODEL 3
REMARK VINA RESULT:      -8.4      4.396      7.509
REMARK SMILES CCCCOC(=O)c1ccc(N2C[C@H](C(=O)NCCCCCCNC(=O)c3ccc(-c4c5nc(c(-c6c(F)cccc6F)c6ccc([nH]6)c(-c6c(F)cccc6F)c6nc(c(-c7c(F)cccc7F)c7ccc4[nH]7)C=C6)C=C5)cc3)CC2=O)cc1
REMARK SMILES IDX 18 1 17 2 15 3 16 4 14 6 12 7 13 8 82 9 81 10 83 11 11 12
REMARK SMILES IDX 8 13 9 14 85 15 10 16 84 17 6 18 7 19 5 20 4 21 3 22 2 23
REMARK SMILES IDX 1 24 19 25 20 26 21 27 22 28 23 29 24 30 25 31 26 33 27 34
REMARK SMILES IDX 28 35 80 36 29 37 79 38 30 39 31 40 32 41 73 42 33 43 78 44
REMARK SMILES IDX 72 45 74 46 34 47 77 48 71 49 70 50 35 52 61 53 44 54 60 55
REMARK SMILES IDX 45 56 48 57 59 58 75 59 46 60 47 61 58 63 76 64 49 65 36 66
REMARK SMILES IDX 37 67 42 68 38 69 39 70 41 71 43 72 40 73 62 74 63 75 68 76
REMARK SMILES IDX 64 77 65 78 67 79 69 80 66 81 50 82 51 83 56 84 52 85 53 86
REMARK SMILES IDX 55 87 57 88 54 89
REMARK H PARENT 17 5 24 32 74 51 48 62
REMARK Flexibility Score: inf
ROOT
ATOM      1  C   UNL A   1      29.644  28.019  23.144  1.00  0.00     0.116 C 
ENDROOT
BRANCH   1   2
ATOM      2  N   UNL A   1      30.201  27.273  24.257  1.00  0.00    -0.356 N 
ATOM      3  C   UNL A   1      31.336  26.543  24.396  1.00  0.00     0.225 C 
ATOM      4  O   UNL A   1      31.539  26.031  25.501  1.00  0.00    -0.275 OA
ATOM      5  H   UNL A   1      29.647  27.302  25.070  1.00  0.00     0.163 HD
BRANCH   3   6
ATOM      6  C   UNL A   1      32.348  26.327  23.280  1.00  0.00     0.107 C 
ATOM      7  N   UNL A   1      34.095  24.735  23.364  1.00  0.00    -0.312 N 
ATOM      8  C   UNL A   1      33.754  26.077  23.778  1.00  0.00     0.139 C 
ATOM      9  C   UNL A   1      33.141  24.206  22.485  1.00  0.00     0.227 C 
ATOM     10  C   UNL A   1      32.012  25.192  22.334  1.00  0.00     0.116 C 
ATOM     11  O   UNL A   1      33.115  23.110  21.946  1.00  0.00    -0.274 OA
BRANCH   7  12
ATOM     12  C   UNL A   1      35.215  24.025  23.883  1.00  0.00     0.044 A 
ATOM     13  C   UNL A   1      37.251  22.423  24.981  1.00  0.00     0.060 A 
ATOM     14  C   UNL A   1      36.605  23.361  25.783  1.00  0.00     0.018 A 
ATOM     15  C   UNL A   1      36.931  22.306  23.633  1.00  0.00     0.018 A 
ATOM     16  C   UNL A   1      35.605  24.169  25.227  1.00  0.00     0.027 A 
ATOM     17  C   UNL A   1      35.922  23.107  23.092  1.00  0.00     0.027 A 
BRANCH  13  18
ATOM     18  C   UNL A   1      38.208  21.479  25.561  1.00  0.00     0.338 C 
ATOM     19  O   UNL A   1      38.265  20.304  25.229  1.00  0.00    -0.246 OA
BRANCH  18  20
ATOM     20  O   UNL A   1      38.989  22.141  26.440  1.00  0.00    -0.462 OA
BRANCH  20  21
ATOM     21  C   UNL A   1      40.400  21.891  26.337  1.00  0.00     0.233 C 
BRANCH  21  22
ATOM     22  C   UNL A   1      40.930  21.271  27.626  1.00  0.00     0.041 C 
BRANCH  22  23
ATOM     23  C   UNL A   1      42.007  20.200  27.427  1.00  0.00     0.000 C 
ATOM     24  C   UNL A   1      42.466  20.069  25.983  1.00  0.00     0.004 C 
ENDBRANCH  22  23
ENDBRANCH  21  22
ENDBRANCH  20  21
ENDBRANCH  18  20
ENDBRANCH  13  18
ENDBRANCH   7  12
ENDBRANCH   3   6
ENDBRANCH   1   2
BRANCH   1  25
ATOM     25  C   UNL A   1      30.297  29.393  22.992  1.00  0.00     0.021 C 
BRANCH  25  26
ATOM     26  C   UNL A   1      29.946  30.391  24.101  1.00  0.00     0.002 C 
BRANCH  26  27
ATOM     27  C   UNL A   1      31.015  30.579  25.185  1.00  0.00     0.002 C 
BRANCH  27  28
ATOM     28  C   UNL A   1      30.915  31.870  26.002  1.00  0.00     0.021 C 
BRANCH  28  29
ATOM     29  C   UNL A   1      32.137  32.203  26.855  1.00  0.00     0.116 C 
BRANCH  29  30
ATOM     30  N   UNL A   1      32.194  33.609  27.220  1.00  0.00    -0.352 N 
ATOM     31  C   UNL A   1      33.039  34.265  28.080  1.00  0.00     0.251 C 
ATOM     32  H   UNL A   1      31.522  34.180  26.783  1.00  0.00     0.163 HD
ATOM     33  O   UNL A   1      32.820  35.437  28.371  1.00  0.00    -0.269 OA
BRANCH  31  34
ATOM     34  C   UNL A   1      34.199  33.569  28.678  1.00  0.00     0.039 A 
ATOM     35  C   UNL A   1      35.424  34.244  28.738  1.00  0.00     0.014 A 
ATOM     36  C   UNL A   1      34.104  32.253  29.142  1.00  0.00     0.014 A 
ATOM     37  C   UNL A   1      36.535  33.622  29.312  1.00  0.00     0.010 A 
ATOM     38  C   UNL A   1      35.198  31.654  29.767  1.00  0.00     0.010 A 
ATOM     39  C   UNL A   1      36.423  32.332  29.855  1.00  0.00    -0.014 A 
BRANCH  39  40
ATOM     40  C   UNL A   1      37.578  31.691  30.533  1.00  0.00     0.031 A 
ATOM     41  C   UNL A   1      38.408  30.663  29.820  1.00  0.00     0.074 A 
ATOM     42  C   UNL A   1      37.839  31.992  31.820  1.00  0.00     0.049 A 
ATOM     43  N   UNL A   1      39.429  29.973  30.264  1.00  0.00    -0.248 NA
ATOM     44  C   UNL A   1      38.029  30.352  28.434  1.00  0.00     0.031 C 
ATOM     45  C   UNL A   1      37.071  32.928  32.641  1.00  0.00     0.029 A 
ATOM     46  N   UNL A   1      38.816  31.530  32.665  1.00  0.00    -0.354 N 
ATOM     47  C   UNL A   1      39.801  29.134  29.222  1.00  0.00     0.074 A 
ATOM     48  C   UNL A   1      38.875  29.376  28.136  1.00  0.00     0.031 C 
ATOM     49  C   UNL A   1      37.612  32.981  33.868  1.00  0.00     0.029 A 
ATOM     50  C   UNL A   1      38.749  32.067  33.927  1.00  0.00     0.049 A 
ATOM     51  H   UNL A   1      39.500  30.876  32.392  1.00  0.00     0.167 HD
ATOM     52  C   UNL A   1      40.830  28.255  29.169  1.00  0.00     0.037 A 
ATOM     53  C   UNL A   1      39.515  31.845  35.010  1.00  0.00     0.037 A 
ATOM     54  C   UNL A   1      41.768  28.036  30.237  1.00  0.00     0.049 A 
ATOM     55  C   UNL A   1      40.667  30.887  34.920  1.00  0.00     0.074 A 
ATOM     56  C   UNL A   1      42.895  27.233  30.245  1.00  0.00     0.029 A 
ATOM     57  N   UNL A   1      41.684  28.619  31.492  1.00  0.00    -0.354 N 
ATOM     58  N   UNL A   1      41.059  30.164  33.899  1.00  0.00    -0.248 NA
ATOM     59  C   UNL A   1      41.489  30.721  36.127  1.00  0.00     0.031 C 
ATOM     60  C   UNL A   1      43.475  27.303  31.518  1.00  0.00     0.029 A 
ATOM     61  C   UNL A   1      42.727  28.176  32.290  1.00  0.00     0.049 A 
ATOM     62  H   UNL A   1      40.988  29.255  31.775  1.00  0.00     0.167 HD
ATOM     63  C   UNL A   1      42.179  29.468  34.335  1.00  0.00     0.074 A 
ATOM     64  C   UNL A   1      42.414  29.868  35.707  1.00  0.00     0.031 C 
ATOM     65  C   UNL A   1      42.944  28.578  33.657  1.00  0.00     0.037 A 
BRANCH  52  66
ATOM     66  C   UNL A   1      40.991  27.463  27.906  1.00  0.00     0.057 A 
ATOM     67  C   UNL A   1      40.276  26.280  27.680  1.00  0.00     0.134 A 
ATOM     68  C   UNL A   1      41.853  27.901  26.892  1.00  0.00     0.134 A 
ATOM     69  F   UNL A   1      39.442  25.801  28.616  1.00  0.00    -0.206 F 
ATOM     70  C   UNL A   1      40.433  25.545  26.504  1.00  0.00     0.040 A 
ATOM     71  C   UNL A   1      42.002  27.187  25.703  1.00  0.00     0.040 A 
ATOM     72  F   UNL A   1      42.562  29.029  27.042  1.00  0.00    -0.206 F 
ATOM     73  C   UNL A   1      41.295  26.001  25.509  1.00  0.00     0.006 A 
ENDBRANCH  52  66
BRANCH  53  74
ATOM     74  C   UNL A   1      39.227  32.570  36.270  1.00  0.00     0.057 A 
ATOM     75  C   UNL A   1      39.843  33.794  36.552  1.00  0.00     0.134 A 
ATOM     76  C   UNL A   1      38.317  32.071  37.209  1.00  0.00     0.134 A 
ATOM     77  F   UNL A   1      40.737  34.313  35.697  1.00  0.00    -0.206 F 
ATOM     78  C   UNL A   1      39.570  34.495  37.728  1.00  0.00     0.040 A 
ATOM     79  C   UNL A   1      38.021  32.770  38.379  1.00  0.00     0.040 A 
ATOM     80  F   UNL A   1      37.692  30.905  36.989  1.00  0.00    -0.206 F 
ATOM     81  C   UNL A   1      38.651  33.985  38.642  1.00  0.00     0.006 A 
ENDBRANCH  53  74
BRANCH  65  82
ATOM     82  C   UNL A   1      44.109  27.985  34.389  1.00  0.00     0.057 A 
ATOM     83  C   UNL A   1      44.001  26.774  35.083  1.00  0.00     0.134 A 
ATOM     84  C   UNL A   1      45.360  28.616  34.374  1.00  0.00     0.134 A 
ATOM     85  F   UNL A   1      42.826  26.129  35.146  1.00  0.00    -0.206 F 
ATOM     86  C   UNL A   1      45.092  26.220  35.755  1.00  0.00     0.040 A 
ATOM     87  C   UNL A   1      46.463  28.061  35.024  1.00  0.00     0.040 A 
ATOM     88  F   UNL A   1      45.530  29.776  33.722  1.00  0.00    -0.206 F 
ATOM     89  C   UNL A   1      46.330  26.862  35.720  1.00  0.00     0.006 A 
ENDBRANCH  65  82
ENDBRANCH  39  40
ENDBRANCH  31  34
ENDBRANCH  29  30
ENDBRANCH  28  29
ENDBRANCH  27  28
ENDBRANCH  26  27
ENDBRANCH  25  26
ENDBRANCH   1  25
TORSDOF 19
ENDMDL
