MODEL 1
REMARK VINA RESULT:     -11.5      0.000      0.000
REMARK SMILES O=C(COc1ccccc1C[NH+]1CCC2(CC[NH2+]CC2)CC1)NCCCCCCNC(=O)c1ccc(-c2c3nc(c(-c4c(F)cccc4F)c4ccc([nH]4)c(-c4c(F)cccc4F)c4nc(c(-c5c(F)cccc5F)c5ccc2[nH]5)C=C4)C=C3)cc1
REMARK SMILES IDX 25 1 24 2 23 3 1 4 2 5 3 7 4 8 5 9 6 10 10 11 7 12 9 13 8 14
REMARK SMILES IDX 11 15 12 16 13 17 22 18 14 20 21 21 15 22 16 23 20 24 17 25
REMARK SMILES IDX 19 26 18 27 26 30 27 31 28 32 29 33 30 34 31 35 32 37 33 38
REMARK SMILES IDX 34 39 86 40 35 41 85 42 36 43 37 44 38 45 79 46 39 47 84 48
REMARK SMILES IDX 78 49 80 50 40 51 83 52 77 53 76 54 41 56 67 57 50 58 66 59
REMARK SMILES IDX 51 60 54 61 65 62 81 63 52 64 53 65 64 67 82 68 55 69 42 70
REMARK SMILES IDX 43 71 48 72 44 73 45 74 47 75 49 76 46 77 68 78 69 79 74 80
REMARK SMILES IDX 70 81 71 82 73 83 75 84 72 85 56 86 57 87 62 88 58 89 59 90
REMARK SMILES IDX 61 91 63 92 60 93
REMARK H PARENT 23 6 12 19 18 28 18 29 30 36 80 55 54 66
REMARK Flexibility Score: inf
ROOT
ATOM      1  C   UNL A   1      34.567  32.296  29.223  1.00  0.00     0.021 C 
ENDROOT
BRANCH   1   2
ATOM      2  C   UNL A   1      34.731  31.456  27.963  1.00  0.00     0.116 C 
BRANCH   2   3
ATOM      3  N   UNL A   1      33.779  30.369  27.835  1.00  0.00    -0.353 N 
ATOM      4  O   UNL A   1      32.069  31.590  26.887  1.00  0.00    -0.271 OA
ATOM      5  C   UNL A   1      32.591  30.508  27.137  1.00  0.00     0.257 C 
ATOM      6  H   UNL A   1      33.983  29.505  28.259  1.00  0.00     0.163 HD
BRANCH   5   7
ATOM      7  C   UNL A   1      32.007  29.179  26.641  1.00  0.00     0.329 C 
BRANCH   7   8
ATOM      8  O   UNL A   1      32.387  28.921  25.275  1.00  0.00    -0.483 OA
BRANCH   8   9
ATOM      9  C   UNL A   1      31.291  28.769  24.463  1.00  0.00     0.128 A 
ATOM     10  C   UNL A   1      30.536  29.915  24.186  1.00  0.00     0.047 A 
ATOM     11  C   UNL A   1      30.873  27.519  23.982  1.00  0.00     0.048 A 
ATOM     12  C   UNL A   1      29.409  29.837  23.364  1.00  0.00     0.004 A 
ATOM     13  C   UNL A   1      29.818  27.487  23.051  1.00  0.00     0.013 A 
ATOM     14  C   UNL A   1      29.073  28.629  22.765  1.00  0.00     0.001 A 
BRANCH  11  15
ATOM     15  C   UNL A   1      31.432  26.201  24.463  1.00  0.00     0.302 C 
BRANCH  15  16
ATOM     16  N   UNL A   1      32.881  26.110  24.672  1.00  0.00    -0.331 N 
ATOM     17  C   UNL A   1      33.340  25.648  25.975  1.00  0.00     0.263 C 
ATOM     18  C   UNL A   1      33.668  25.608  23.560  1.00  0.00     0.263 C 
ATOM     19  H   UNL A   1      33.100  27.106  24.697  1.00  0.00     0.348 HD
ATOM     20  C   UNL A   1      33.679  24.163  26.094  1.00  0.00     0.069 C 
ATOM     21  C   UNL A   1      33.916  24.098  23.601  1.00  0.00     0.069 C 
ATOM     22  C   UNL A   1      34.534  23.615  24.928  1.00  0.00    -0.008 C 
ATOM     23  C   UNL A   1      36.007  24.088  24.996  1.00  0.00     0.069 C 
ATOM     24  C   UNL A   1      34.490  22.065  24.959  1.00  0.00     0.069 C 
ATOM     25  C   UNL A   1      36.840  23.365  26.052  1.00  0.00     0.261 C 
ATOM     26  C   UNL A   1      35.365  21.468  26.059  1.00  0.00     0.261 C 
ATOM     27  N   UNL A   1      36.751  21.911  25.920  1.00  0.00    -0.346 N 
ATOM     28  H   UNL A   1      37.318  21.473  26.646  1.00  0.00     0.346 HD
ATOM     29  H   UNL A   1      37.093  21.643  24.997  1.00  0.00     0.346 HD
ENDBRANCH  15  16
ENDBRANCH  11  15
ENDBRANCH   8   9
ENDBRANCH   7   8
ENDBRANCH   5   7
ENDBRANCH   2   3
ENDBRANCH   1   2
BRANCH   1  30
ATOM     30  C   UNL A   1      35.236  33.673  29.216  1.00  0.00     0.002 C 
BRANCH  30  31
ATOM     31  C   UNL A   1      34.648  34.728  28.276  1.00  0.00     0.002 C 
BRANCH  31  32
ATOM     32  C   UNL A   1      33.354  35.402  28.733  1.00  0.00     0.021 C 
BRANCH  32  33
ATOM     33  C   UNL A   1      33.504  36.408  29.869  1.00  0.00     0.116 C 
BRANCH  33  34
ATOM     34  N   UNL A   1      32.453  36.305  30.871  1.00  0.00    -0.352 N 
ATOM     35  C   UNL A   1      32.450  35.625  32.064  1.00  0.00     0.251 C 
ATOM     36  H   UNL A   1      31.625  36.794  30.663  1.00  0.00     0.163 HD
ATOM     37  O   UNL A   1      31.419  35.557  32.732  1.00  0.00    -0.269 OA
BRANCH  35  38
ATOM     38  C   UNL A   1      33.675  34.944  32.535  1.00  0.00     0.039 A 
ATOM     39  C   UNL A   1      33.588  33.615  32.962  1.00  0.00     0.014 A 
ATOM     40  C   UNL A   1      34.906  35.605  32.553  1.00  0.00     0.014 A 
ATOM     41  C   UNL A   1      34.745  32.931  33.341  1.00  0.00     0.010 A 
ATOM     42  C   UNL A   1      36.068  34.899  32.854  1.00  0.00     0.010 A 
ATOM     43  C   UNL A   1      36.001  33.555  33.252  1.00  0.00    -0.014 A 
BRANCH  43  44
ATOM     44  C   UNL A   1      37.252  32.821  33.570  1.00  0.00     0.031 A 
ATOM     45  C   UNL A   1      38.010  33.128  34.833  1.00  0.00     0.074 A 
ATOM     46  C   UNL A   1      37.743  31.925  32.691  1.00  0.00     0.049 A 
ATOM     47  N   UNL A   1      39.154  32.648  35.249  1.00  0.00    -0.248 NA
ATOM     48  C   UNL A   1      37.416  34.129  35.734  1.00  0.00     0.031 C 
ATOM     49  C   UNL A   1      37.127  31.571  31.411  1.00  0.00     0.029 A 
ATOM     50  N   UNL A   1      38.878  31.155  32.737  1.00  0.00    -0.354 N 
ATOM     51  C   UNL A   1      39.421  33.295  36.449  1.00  0.00     0.074 A 
ATOM     52  C   UNL A   1      38.351  34.244  36.665  1.00  0.00     0.031 C 
ATOM     53  C   UNL A   1      37.878  30.638  30.805  1.00  0.00     0.029 A 
ATOM     54  C   UNL A   1      39.049  30.359  31.630  1.00  0.00     0.049 A 
ATOM     55  H   UNL A   1      39.511  31.173  33.491  1.00  0.00     0.167 HD
ATOM     56  C   UNL A   1      40.452  33.100  37.306  1.00  0.00     0.037 A 
ATOM     57  C   UNL A   1      40.042  29.507  31.312  1.00  0.00     0.037 A 
ATOM     58  C   UNL A   1      41.505  32.141  37.097  1.00  0.00     0.049 A 
ATOM     59  C   UNL A   1      41.185  29.321  32.271  1.00  0.00     0.074 A 
ATOM     60  C   UNL A   1      42.564  31.828  37.932  1.00  0.00     0.029 A 
ATOM     61  N   UNL A   1      41.637  31.345  35.969  1.00  0.00    -0.354 N 
ATOM     62  N   UNL A   1      41.389  29.889  33.435  1.00  0.00    -0.248 NA
ATOM     63  C   UNL A   1      42.234  28.371  31.876  1.00  0.00     0.031 C 
ATOM     64  C   UNL A   1      43.365  30.882  37.285  1.00  0.00     0.029 A 
ATOM     65  C   UNL A   1      42.774  30.560  36.075  1.00  0.00     0.049 A 
ATOM     66  H   UNL A   1      41.015  31.338  35.206  1.00  0.00     0.167 HD
ATOM     67  C   UNL A   1      42.569  29.343  33.924  1.00  0.00     0.074 A 
ATOM     68  C   UNL A   1      43.028  28.389  32.937  1.00  0.00     0.031 C 
ATOM     69  C   UNL A   1      43.215  29.608  35.087  1.00  0.00     0.037 A 
BRANCH  56  70
ATOM     70  C   UNL A   1      40.489  33.941  38.550  1.00  0.00     0.057 A 
ATOM     71  C   UNL A   1      39.815  33.563  39.720  1.00  0.00     0.134 A 
ATOM     72  C   UNL A   1      41.235  35.126  38.592  1.00  0.00     0.134 A 
ATOM     73  F   UNL A   1      39.072  32.446  39.746  1.00  0.00    -0.206 F 
ATOM     74  C   UNL A   1      39.856  34.348  40.873  1.00  0.00     0.040 A 
ATOM     75  C   UNL A   1      41.310  35.903  39.749  1.00  0.00     0.040 A 
ATOM     76  F   UNL A   1      41.911  35.544  37.512  1.00  0.00    -0.206 F 
ATOM     77  C   UNL A   1      40.612  35.519  40.893  1.00  0.00     0.006 A 
ENDBRANCH  56  70
BRANCH  57  78
ATOM     78  C   UNL A   1      39.994  28.748  30.035  1.00  0.00     0.057 A 
ATOM     79  C   UNL A   1      40.626  29.229  28.884  1.00  0.00     0.134 A 
ATOM     80  C   UNL A   1      39.306  27.532  29.931  1.00  0.00     0.134 A 
ATOM     81  F   UNL A   1      41.285  30.397  28.913  1.00  0.00    -0.206 F 
ATOM     82  C   UNL A   1      40.557  28.545  27.669  1.00  0.00     0.040 A 
ATOM     83  C   UNL A   1      39.253  26.822  28.730  1.00  0.00     0.040 A 
ATOM     84  F   UNL A   1      38.687  27.011  31.000  1.00  0.00    -0.206 F 
ATOM     85  C   UNL A   1      39.873  27.334  27.592  1.00  0.00     0.006 A 
ENDBRANCH  57  78
BRANCH  69  86
ATOM     86  C   UNL A   1      44.464  28.826  35.375  1.00  0.00     0.057 A 
ATOM     87  C   UNL A   1      44.431  27.574  36.002  1.00  0.00     0.134 A 
ATOM     88  C   UNL A   1      45.716  29.319  34.983  1.00  0.00     0.134 A 
ATOM     89  F   UNL A   1      43.265  27.050  36.414  1.00  0.00    -0.206 F 
ATOM     90  C   UNL A   1      45.599  26.851  36.250  1.00  0.00     0.040 A 
ATOM     91  C   UNL A   1      46.887  28.592  35.198  1.00  0.00     0.040 A 
ATOM     92  F   UNL A   1      45.819  30.508  34.370  1.00  0.00    -0.206 F 
ATOM     93  C   UNL A   1      46.831  27.356  35.840  1.00  0.00     0.006 A 
ENDBRANCH  69  86
ENDBRANCH  43  44
ENDBRANCH  35  38
ENDBRANCH  33  34
ENDBRANCH  32  33
ENDBRANCH  31  32
ENDBRANCH  30  31
ENDBRANCH   1  30
TORSDOF 17
ENDMDL
MODEL 2
REMARK VINA RESULT:     -11.4      2.211      3.838
REMARK SMILES O=C(COc1ccccc1C[NH+]1CCC2(CC[NH2+]CC2)CC1)NCCCCCCNC(=O)c1ccc(-c2c3nc(c(-c4c(F)cccc4F)c4ccc([nH]4)c(-c4c(F)cccc4F)c4nc(c(-c5c(F)cccc5F)c5ccc2[nH]5)C=C4)C=C3)cc1
REMARK SMILES IDX 25 1 24 2 23 3 1 4 2 5 3 7 4 8 5 9 6 10 10 11 7 12 9 13 8 14
REMARK SMILES IDX 11 15 12 16 13 17 22 18 14 20 21 21 15 22 16 23 20 24 17 25
REMARK SMILES IDX 19 26 18 27 26 30 27 31 28 32 29 33 30 34 31 35 32 37 33 38
REMARK SMILES IDX 34 39 86 40 35 41 85 42 36 43 37 44 38 45 79 46 39 47 84 48
REMARK SMILES IDX 78 49 80 50 40 51 83 52 77 53 76 54 41 56 67 57 50 58 66 59
REMARK SMILES IDX 51 60 54 61 65 62 81 63 52 64 53 65 64 67 82 68 55 69 42 70
REMARK SMILES IDX 43 71 48 72 44 73 45 74 47 75 49 76 46 77 68 78 69 79 74 80
REMARK SMILES IDX 70 81 71 82 73 83 75 84 72 85 56 86 57 87 62 88 58 89 59 90
REMARK SMILES IDX 61 91 63 92 60 93
REMARK H PARENT 23 6 12 19 18 28 18 29 30 36 80 55 54 66
REMARK Flexibility Score: inf
ROOT
ATOM      1  C   UNL A   1      30.417  29.598  22.630  1.00  0.00     0.021 C 
ENDROOT
BRANCH   1   2
ATOM      2  C   UNL A   1      29.900  28.177  22.438  1.00  0.00     0.116 C 
BRANCH   2   3
ATOM      3  N   UNL A   1      29.487  27.517  23.662  1.00  0.00    -0.353 N 
ATOM      4  O   UNL A   1      30.318  25.426  23.159  1.00  0.00    -0.271 OA
ATOM      5  C   UNL A   1      29.899  26.234  23.983  1.00  0.00     0.257 C 
ATOM      6  H   UNL A   1      28.894  27.995  24.285  1.00  0.00     0.163 HD
BRANCH   5   7
ATOM      7  C   UNL A   1      29.845  25.925  25.484  1.00  0.00     0.329 C 
BRANCH   7   8
ATOM      8  O   UNL A   1      31.132  25.503  25.975  1.00  0.00    -0.483 OA
BRANCH   8   9
ATOM      9  C   UNL A   1      31.924  26.573  26.309  1.00  0.00     0.128 A 
ATOM     10  C   UNL A   1      31.456  27.425  27.317  1.00  0.00     0.047 A 
ATOM     11  C   UNL A   1      33.115  26.872  25.632  1.00  0.00     0.048 A 
ATOM     12  C   UNL A   1      32.212  28.533  27.711  1.00  0.00     0.004 A 
ATOM     13  C   UNL A   1      33.920  27.911  26.136  1.00  0.00     0.013 A 
ATOM     14  C   UNL A   1      33.462  28.753  27.147  1.00  0.00     0.001 A 
BRANCH  11  15
ATOM     15  C   UNL A   1      33.547  26.202  24.349  1.00  0.00     0.302 C 
BRANCH  15  16
ATOM     16  N   UNL A   1      34.497  25.088  24.448  1.00  0.00    -0.331 N 
ATOM     17  C   UNL A   1      34.472  24.296  25.670  1.00  0.00     0.263 C 
ATOM     18  C   UNL A   1      34.706  24.304  23.244  1.00  0.00     0.263 C 
ATOM     19  H   UNL A   1      35.359  25.623  24.545  1.00  0.00     0.348 HD
ATOM     20  C   UNL A   1      33.650  23.008  25.634  1.00  0.00     0.069 C 
ATOM     21  C   UNL A   1      33.804  23.072  23.135  1.00  0.00     0.069 C 
ATOM     22  C   UNL A   1      33.875  22.150  24.368  1.00  0.00    -0.008 C 
ATOM     23  C   UNL A   1      35.245  21.427  24.375  1.00  0.00     0.069 C 
ATOM     24  C   UNL A   1      32.740  21.099  24.266  1.00  0.00     0.069 C 
ATOM     25  C   UNL A   1      35.300  20.216  25.303  1.00  0.00     0.261 C 
ATOM     26  C   UNL A   1      32.914  19.940  25.246  1.00  0.00     0.261 C 
ATOM     27  N   UNL A   1      34.204  19.281  25.050  1.00  0.00    -0.346 N 
ATOM     28  H   UNL A   1      34.280  18.494  25.693  1.00  0.00     0.346 HD
ATOM     29  H   UNL A   1      34.265  18.955  24.085  1.00  0.00     0.346 HD
ENDBRANCH  15  16
ENDBRANCH  11  15
ENDBRANCH   8   9
ENDBRANCH   7   8
ENDBRANCH   5   7
ENDBRANCH   2   3
ENDBRANCH   1   2
BRANCH   1  30
ATOM     30  C   UNL A   1      29.938  30.333  23.886  1.00  0.00     0.002 C 
BRANCH  30  31
ATOM     31  C   UNL A   1      30.960  30.534  25.007  1.00  0.00     0.002 C 
BRANCH  31  32
ATOM     32  C   UNL A   1      30.835  31.822  25.821  1.00  0.00     0.021 C 
BRANCH  32  33
ATOM     33  C   UNL A   1      31.988  32.110  26.776  1.00  0.00     0.116 C 
BRANCH  33  34
ATOM     34  N   UNL A   1      32.061  33.504  27.186  1.00  0.00    -0.352 N 
ATOM     35  C   UNL A   1      32.979  34.129  27.993  1.00  0.00     0.251 C 
ATOM     36  H   UNL A   1      31.348  34.084  26.833  1.00  0.00     0.163 HD
ATOM     37  O   UNL A   1      32.812  35.302  28.325  1.00  0.00    -0.269 OA
BRANCH  35  38
ATOM     38  C   UNL A   1      34.156  33.387  28.493  1.00  0.00     0.039 A 
ATOM     39  C   UNL A   1      35.372  34.064  28.634  1.00  0.00     0.014 A 
ATOM     40  C   UNL A   1      34.067  32.033  28.826  1.00  0.00     0.014 A 
ATOM     41  C   UNL A   1      36.476  33.401  29.174  1.00  0.00     0.010 A 
ATOM     42  C   UNL A   1      35.144  31.397  29.438  1.00  0.00     0.010 A 
ATOM     43  C   UNL A   1      36.361  32.073  29.617  1.00  0.00    -0.014 A 
BRANCH  43  44
ATOM     44  C   UNL A   1      37.498  31.375  30.270  1.00  0.00     0.031 A 
ATOM     45  C   UNL A   1      37.837  31.661  31.707  1.00  0.00     0.074 A 
ATOM     46  C   UNL A   1      38.267  30.534  29.551  1.00  0.00     0.049 A 
ATOM     47  N   UNL A   1      38.831  31.209  32.429  1.00  0.00    -0.248 NA
ATOM     48  C   UNL A   1      36.958  32.602  32.420  1.00  0.00     0.031 C 
ATOM     49  C   UNL A   1      38.070  30.207  28.138  1.00  0.00     0.029 A 
ATOM     50  N   UNL A   1      39.375  29.806  29.908  1.00  0.00    -0.354 N 
ATOM     51  C   UNL A   1      38.704  31.818  33.671  1.00  0.00     0.074 A 
ATOM     52  C   UNL A   1      37.573  32.716  33.588  1.00  0.00     0.031 C 
ATOM     53  C   UNL A   1      39.010  29.328  27.754  1.00  0.00     0.029 A 
ATOM     54  C   UNL A   1      39.900  29.061  28.880  1.00  0.00     0.049 A 
ATOM     55  H   UNL A   1      39.757  29.818  30.815  1.00  0.00     0.167 HD
ATOM     56  C   UNL A   1      39.447  31.629  34.788  1.00  0.00     0.037 A 
ATOM     57  C   UNL A   1      40.982  28.261  28.846  1.00  0.00     0.037 A 
ATOM     58  C   UNL A   1      40.560  30.719  34.873  1.00  0.00     0.049 A 
ATOM     59  C   UNL A   1      41.802  28.081  30.093  1.00  0.00     0.074 A 
ATOM     60  C   UNL A   1      41.342  30.414  35.973  1.00  0.00     0.029 A 
ATOM     61  N   UNL A   1      41.055  29.974  33.812  1.00  0.00    -0.354 N 
ATOM     62  N   UNL A   1      41.629  28.610  31.280  1.00  0.00    -0.248 NA
ATOM     63  C   UNL A   1      42.965  27.188  29.999  1.00  0.00     0.031 C 
ATOM     64  C   UNL A   1      42.342  29.525  35.566  1.00  0.00     0.029 A 
ATOM     65  C   UNL A   1      42.147  29.229  34.227  1.00  0.00     0.049 A 
ATOM     66  H   UNL A   1      40.684  29.973  32.901  1.00  0.00     0.167 HD
ATOM     67  C   UNL A   1      42.639  28.091  32.080  1.00  0.00     0.074 A 
ATOM     68  C   UNL A   1      43.412  27.194  31.247  1.00  0.00     0.031 C 
ATOM     69  C   UNL A   1      42.902  28.334  33.388  1.00  0.00     0.037 A 
BRANCH  56  70
ATOM     70  C   UNL A   1      39.078  32.420  36.010  1.00  0.00     0.057 A 
ATOM     71  C   UNL A   1      38.240  31.899  37.005  1.00  0.00     0.134 A 
ATOM     72  C   UNL A   1      39.593  33.708  36.212  1.00  0.00     0.134 A 
ATOM     73  F   UNL A   1      37.704  30.676  36.871  1.00  0.00    -0.206 F 
ATOM     74  C   UNL A   1      37.904  32.639  38.140  1.00  0.00     0.040 A 
ATOM     75  C   UNL A   1      39.289  34.446  37.356  1.00  0.00     0.040 A 
ATOM     76  F   UNL A   1      40.407  34.267  35.303  1.00  0.00    -0.206 F 
ATOM     77  C   UNL A   1      38.436  33.915  38.322  1.00  0.00     0.006 A 
ENDBRANCH  56  70
BRANCH  57  78
ATOM     78  C   UNL A   1      41.346  27.551  27.591  1.00  0.00     0.057 A 
ATOM     79  C   UNL A   1      42.142  28.166  26.618  1.00  0.00     0.134 A 
ATOM     80  C   UNL A   1      40.900  26.250  27.330  1.00  0.00     0.134 A 
ATOM     81  F   UNL A   1      42.585  29.418  26.800  1.00  0.00    -0.206 F 
ATOM     82  C   UNL A   1      42.460  27.525  25.419  1.00  0.00     0.040 A 
ATOM     83  C   UNL A   1      41.234  25.585  26.149  1.00  0.00     0.040 A 
ATOM     84  F   UNL A   1      40.142  25.601  28.226  1.00  0.00    -0.206 F 
ATOM     85  C   UNL A   1      42.009  26.227  25.185  1.00  0.00     0.006 A 
ENDBRANCH  57  78
BRANCH  69  86
ATOM     86  C   UNL A   1      44.049  27.590  34.010  1.00  0.00     0.057 A 
ATOM     87  C   UNL A   1      43.876  26.353  34.645  1.00  0.00     0.134 A 
ATOM     88  C   UNL A   1      45.351  28.102  33.937  1.00  0.00     0.134 A 
ATOM     89  F   UNL A   1      42.654  25.812  34.760  1.00  0.00    -0.206 F 
ATOM     90  C   UNL A   1      44.954  25.665  35.206  1.00  0.00     0.040 A 
ATOM     91  C   UNL A   1      46.440  27.409  34.467  1.00  0.00     0.040 A 
ATOM     92  F   UNL A   1      45.589  29.278  33.335  1.00  0.00    -0.206 F 
ATOM     93  C   UNL A   1      46.241  26.189  35.110  1.00  0.00     0.006 A 
ENDBRANCH  69  86
ENDBRANCH  43  44
ENDBRANCH  35  38
ENDBRANCH  33  34
ENDBRANCH  32  33
ENDBRANCH  31  32
ENDBRANCH  30  31
ENDBRANCH   1  30
TORSDOF 17
ENDMDL
MODEL 3
REMARK VINA RESULT:     -11.4      1.087      2.132
REMARK SMILES O=C(COc1ccccc1C[NH+]1CCC2(CC[NH2+]CC2)CC1)NCCCCCCNC(=O)c1ccc(-c2c3nc(c(-c4c(F)cccc4F)c4ccc([nH]4)c(-c4c(F)cccc4F)c4nc(c(-c5c(F)cccc5F)c5ccc2[nH]5)C=C4)C=C3)cc1
REMARK SMILES IDX 25 1 24 2 23 3 1 4 2 5 3 7 4 8 5 9 6 10 10 11 7 12 9 13 8 14
REMARK SMILES IDX 11 15 12 16 13 17 22 18 14 20 21 21 15 22 16 23 20 24 17 25
REMARK SMILES IDX 19 26 18 27 26 30 27 31 28 32 29 33 30 34 31 35 32 37 33 38
REMARK SMILES IDX 34 39 86 40 35 41 85 42 36 43 37 44 38 45 79 46 39 47 84 48
REMARK SMILES IDX 78 49 80 50 40 51 83 52 77 53 76 54 41 56 67 57 50 58 66 59
REMARK SMILES IDX 51 60 54 61 65 62 81 63 52 64 53 65 64 67 82 68 55 69 42 70
REMARK SMILES IDX 43 71 48 72 44 73 45 74 47 75 49 76 46 77 68 78 69 79 74 80
REMARK SMILES IDX 70 81 71 82 73 83 75 84 72 85 56 86 57 87 62 88 58 89 59 90
REMARK SMILES IDX 61 91 63 92 60 93
REMARK H PARENT 23 6 12 19 18 28 18 29 30 36 80 55 54 66
REMARK Flexibility Score: inf
ROOT
ATOM      1  C   UNL A   1      34.035  31.574  27.935  1.00  0.00     0.021 C 
ENDROOT
BRANCH   1   2
ATOM      2  C   UNL A   1      34.792  30.283  27.651  1.00  0.00     0.116 C 
BRANCH   2   3
ATOM      3  N   UNL A   1      34.466  29.660  26.382  1.00  0.00    -0.353 N 
ATOM      4  O   UNL A   1      32.727  28.351  27.140  1.00  0.00    -0.271 OA
ATOM      5  C   UNL A   1      33.334  28.879  26.214  1.00  0.00     0.257 C 
ATOM      6  H   UNL A   1      35.067  29.797  25.615  1.00  0.00     0.163 HD
BRANCH   5   7
ATOM      7  C   UNL A   1      32.863  28.780  24.757  1.00  0.00     0.329 C 
BRANCH   7   8
ATOM      8  O   UNL A   1      32.382  27.456  24.455  1.00  0.00    -0.483 OA
BRANCH   8   9
ATOM      9  C   UNL A   1      31.046  27.460  24.139  1.00  0.00     0.128 A 
ATOM     10  C   UNL A   1      30.576  28.526  23.361  1.00  0.00     0.047 A 
ATOM     11  C   UNL A   1      30.150  26.498  24.627  1.00  0.00     0.048 A 
ATOM     12  C   UNL A   1      29.229  28.595  22.998  1.00  0.00     0.004 A 
ATOM     13  C   UNL A   1      28.830  26.515  24.138  1.00  0.00     0.013 A 
ATOM     14  C   UNL A   1      28.363  27.568  23.354  1.00  0.00     0.001 A 
BRANCH  11  15
ATOM     15  C   UNL A   1      30.492  25.496  25.704  1.00  0.00     0.302 C 
BRANCH  15  16
ATOM     16  N   UNL A   1      30.536  24.079  25.328  1.00  0.00    -0.331 N 
ATOM     17  C   UNL A   1      31.397  23.711  24.213  1.00  0.00     0.263 C 
ATOM     18  C   UNL A   1      30.540  23.117  26.416  1.00  0.00     0.263 C 
ATOM     19  H   UNL A   1      29.602  23.992  24.928  1.00  0.00     0.348 HD
ATOM     20  C   UNL A   1      32.794  23.200  24.566  1.00  0.00     0.069 C 
ATOM     21  C   UNL A   1      31.938  22.686  26.864  1.00  0.00     0.069 C 
ATOM     22  C   UNL A   1      32.816  22.160  25.710  1.00  0.00    -0.008 C 
ATOM     23  C   UNL A   1      32.283  20.776  25.266  1.00  0.00     0.069 C 
ATOM     24  C   UNL A   1      34.271  22.010  26.225  1.00  0.00     0.069 C 
ATOM     25  C   UNL A   1      33.268  19.978  24.415  1.00  0.00     0.261 C 
ATOM     26  C   UNL A   1      35.152  21.192  25.282  1.00  0.00     0.261 C 
ATOM     27  N   UNL A   1      34.579  19.866  25.054  1.00  0.00    -0.346 N 
ATOM     28  H   UNL A   1      35.202  19.331  24.449  1.00  0.00     0.346 HD
ATOM     29  H   UNL A   1      34.469  19.395  25.951  1.00  0.00     0.346 HD
ENDBRANCH  15  16
ENDBRANCH  11  15
ENDBRANCH   8   9
ENDBRANCH   7   8
ENDBRANCH   5   7
ENDBRANCH   2   3
ENDBRANCH   1   2
BRANCH   1  30
ATOM     30  C   UNL A   1      34.426  32.326  29.211  1.00  0.00     0.002 C 
BRANCH  30  31
ATOM     31  C   UNL A   1      34.626  33.839  29.093  1.00  0.00     0.002 C 
BRANCH  31  32
ATOM     32  C   UNL A   1      33.359  34.687  28.973  1.00  0.00     0.021 C 
BRANCH  32  33
ATOM     33  C   UNL A   1      33.433  36.070  29.612  1.00  0.00     0.116 C 
BRANCH  33  34
ATOM     34  N   UNL A   1      32.490  36.249  30.706  1.00  0.00    -0.352 N 
ATOM     35  C   UNL A   1      32.557  35.790  31.998  1.00  0.00     0.251 C 
ATOM     36  H   UNL A   1      31.688  36.775  30.487  1.00  0.00     0.163 HD
ATOM     37  O   UNL A   1      31.602  35.944  32.758  1.00  0.00    -0.269 OA
BRANCH  35  38
ATOM     38  C   UNL A   1      33.765  35.082  32.474  1.00  0.00     0.039 A 
ATOM     39  C   UNL A   1      33.640  33.764  32.925  1.00  0.00     0.014 A 
ATOM     40  C   UNL A   1      35.015  35.706  32.473  1.00  0.00     0.014 A 
ATOM     41  C   UNL A   1      34.780  33.052  33.309  1.00  0.00     0.010 A 
ATOM     42  C   UNL A   1      36.157  34.971  32.778  1.00  0.00     0.010 A 
ATOM     43  C   UNL A   1      36.052  33.637  33.201  1.00  0.00    -0.014 A 
BRANCH  43  44
ATOM     44  C   UNL A   1      37.283  32.871  33.524  1.00  0.00     0.031 A 
ATOM     45  C   UNL A   1      38.048  33.165  34.786  1.00  0.00     0.074 A 
ATOM     46  C   UNL A   1      37.750  31.957  32.651  1.00  0.00     0.049 A 
ATOM     47  N   UNL A   1      39.179  32.657  35.206  1.00  0.00    -0.248 NA
ATOM     48  C   UNL A   1      37.481  34.186  35.681  1.00  0.00     0.031 C 
ATOM     49  C   UNL A   1      37.126  31.612  31.373  1.00  0.00     0.029 A 
ATOM     50  N   UNL A   1      38.865  31.157  32.702  1.00  0.00    -0.354 N 
ATOM     51  C   UNL A   1      39.462  33.304  36.402  1.00  0.00     0.074 A 
ATOM     52  C   UNL A   1      38.418  34.282  36.612  1.00  0.00     0.031 C 
ATOM     53  C   UNL A   1      37.853  30.656  30.772  1.00  0.00     0.029 A 
ATOM     54  C   UNL A   1      39.015  30.350  31.600  1.00  0.00     0.049 A 
ATOM     55  H   UNL A   1      39.497  31.162  33.457  1.00  0.00     0.167 HD
ATOM     56  C   UNL A   1      40.487  33.086  37.261  1.00  0.00     0.037 A 
ATOM     57  C   UNL A   1      39.985  29.470  31.288  1.00  0.00     0.037 A 
ATOM     58  C   UNL A   1      41.515  32.098  37.058  1.00  0.00     0.049 A 
ATOM     59  C   UNL A   1      41.122  29.259  32.249  1.00  0.00     0.074 A 
ATOM     60  C   UNL A   1      42.564  31.761  37.896  1.00  0.00     0.029 A 
ATOM     61  N   UNL A   1      41.626  31.292  35.935  1.00  0.00    -0.354 N 
ATOM     62  N   UNL A   1      41.341  29.829  33.409  1.00  0.00    -0.248 NA
ATOM     63  C   UNL A   1      42.145  28.279  31.860  1.00  0.00     0.031 C 
ATOM     64  C   UNL A   1      43.340  30.790  37.255  1.00  0.00     0.029 A 
ATOM     65  C   UNL A   1      42.741  30.477  36.046  1.00  0.00     0.049 A 
ATOM     66  H   UNL A   1      41.005  31.298  35.172  1.00  0.00     0.167 HD
ATOM     67  C   UNL A   1      42.505  29.254  33.902  1.00  0.00     0.074 A 
ATOM     68  C   UNL A   1      42.939  28.282  32.921  1.00  0.00     0.031 C 
ATOM     69  C   UNL A   1      43.157  29.508  35.065  1.00  0.00     0.037 A 
BRANCH  56  70
ATOM     70  C   UNL A   1      40.547  33.933  38.501  1.00  0.00     0.057 A 
ATOM     71  C   UNL A   1      41.296  35.116  38.554  1.00  0.00     0.134 A 
ATOM     72  C   UNL A   1      39.820  33.579  39.645  1.00  0.00     0.134 A 
ATOM     73  F   UNL A   1      42.025  35.508  37.498  1.00  0.00    -0.206 F 
ATOM     74  C   UNL A   1      41.345  35.899  39.708  1.00  0.00     0.040 A 
ATOM     75  C   UNL A   1      39.836  34.370  40.795  1.00  0.00     0.040 A 
ATOM     76  F   UNL A   1      39.076  32.463  39.663  1.00  0.00    -0.206 F 
ATOM     77  C   UNL A   1      40.606  35.531  40.832  1.00  0.00     0.006 A 
ENDBRANCH  56  70
BRANCH  57  78
ATOM     78  C   UNL A   1      39.917  28.705  30.015  1.00  0.00     0.057 A 
ATOM     79  C   UNL A   1      39.244  27.481  29.943  1.00  0.00     0.134 A 
ATOM     80  C   UNL A   1      40.532  29.171  28.847  1.00  0.00     0.134 A 
ATOM     81  F   UNL A   1      38.651  26.971  31.032  1.00  0.00    -0.206 F 
ATOM     82  C   UNL A   1      39.205  26.734  28.764  1.00  0.00     0.040 A 
ATOM     83  C   UNL A   1      40.476  28.450  27.653  1.00  0.00     0.040 A 
ATOM     84  F   UNL A   1      41.185  30.343  28.846  1.00  0.00    -0.206 F 
ATOM     85  C   UNL A   1      39.818  27.223  27.612  1.00  0.00     0.006 A 
ENDBRANCH  57  78
BRANCH  69  86
ATOM     86  C   UNL A   1      44.384  28.695  35.358  1.00  0.00     0.057 A 
ATOM     87  C   UNL A   1      45.664  29.110  34.966  1.00  0.00     0.134 A 
ATOM     88  C   UNL A   1      44.287  27.497  36.079  1.00  0.00     0.134 A 
ATOM     89  F   UNL A   1      45.825  30.241  34.262  1.00  0.00    -0.206 F 
ATOM     90  C   UNL A   1      46.798  28.351  35.258  1.00  0.00     0.040 A 
ATOM     91  C   UNL A   1      45.418  26.746  36.404  1.00  0.00     0.040 A 
ATOM     92  F   UNL A   1      43.094  27.046  36.494  1.00  0.00    -0.206 F 
ATOM     93  C   UNL A   1      46.677  27.170  35.987  1.00  0.00     0.006 A 
ENDBRANCH  69  86
ENDBRANCH  43  44
ENDBRANCH  35  38
ENDBRANCH  33  34
ENDBRANCH  32  33
ENDBRANCH  31  32
ENDBRANCH  30  31
ENDBRANCH   1  30
TORSDOF 17
ENDMDL
