MODEL 1
REMARK VINA RESULT:      -9.7      0.000      0.000
REMARK SMILES CC(C)C[C@@H]([NH3+])C(=O)N1CC[C@H](C(=O)NCCCCCCNC(=O)c2ccc(-c3c4nc(c(-c5c(F)cccc5F)c5ccc([nH]5)c(-c5c(F)cccc5F)c5nc(c(-c6c(F)cccc6F)c6ccc3[nH]6)C=C5)C=C4)cc2)[C@@H]1C
REMARK SMILES IDX 17 1 16 2 15 3 13 4 14 5 12 7 9 8 10 9 79 10 11 11 80 12
REMARK SMILES IDX 7 13 8 14 5 15 4 16 2 17 1 18 3 19 6 20 18 24 19 25 20 26
REMARK SMILES IDX 21 27 22 28 23 29 24 31 25 32 26 33 78 34 27 35 77 36 28 37
REMARK SMILES IDX 29 38 30 39 71 40 31 41 76 42 70 43 72 44 32 45 75 46 69 47
REMARK SMILES IDX 68 48 33 50 59 51 42 52 58 53 43 54 46 55 57 56 73 57 44 58
REMARK SMILES IDX 45 59 56 61 74 62 47 63 34 64 35 65 40 66 36 67 37 68 39 69
REMARK SMILES IDX 41 70 38 71 60 72 61 73 66 74 62 75 63 76 65 77 67 78 64 79
REMARK SMILES IDX 48 80 49 81 54 82 50 83 51 84 53 85 55 86 52 87
REMARK H PARENT 15 6 6 21 6 22 6 23 22 30 72 49 46 60
REMARK Flexibility Score: inf
ROOT
ATOM      1  C   UNL A   1      34.451  32.505  29.150  1.00  0.00     0.021 C 
ENDROOT
BRANCH   1   2
ATOM      2  C   UNL A   1      34.534  31.426  28.074  1.00  0.00     0.116 C 
BRANCH   2   3
ATOM      3  N   UNL A   1      33.341  31.406  27.250  1.00  0.00    -0.356 N 
ATOM      4  C   UNL A   1      32.592  30.351  26.817  1.00  0.00     0.225 C 
ATOM      5  O   UNL A   1      31.606  30.609  26.133  1.00  0.00    -0.275 OA
ATOM      6  H   UNL A   1      33.022  32.290  26.958  1.00  0.00     0.163 HD
BRANCH   4   7
ATOM      7  C   UNL A   1      33.010  28.952  27.252  1.00  0.00     0.102 C 
ATOM      8  N   UNL A   1      32.510  26.968  26.000  1.00  0.00    -0.334 N 
ATOM      9  C   UNL A   1      31.280  27.431  26.606  1.00  0.00     0.121 C 
ATOM     10  C   UNL A   1      33.571  27.959  26.202  1.00  0.00     0.094 C 
ATOM     11  C   UNL A   1      31.776  28.223  27.805  1.00  0.00     0.037 C 
ATOM     12  C   UNL A   1      34.018  28.579  24.879  1.00  0.00     0.032 C 
BRANCH   8  13
ATOM     13  C   UNL A   1      32.560  25.697  25.471  1.00  0.00     0.280 C 
ATOM     14  O   UNL A   1      33.530  24.965  25.714  1.00  0.00    -0.268 OA
BRANCH  13  15
ATOM     15  C   UNL A   1      31.564  25.243  24.360  1.00  0.00     0.271 C 
BRANCH  15  16
ATOM     16  C   UNL A   1      31.487  26.059  23.066  1.00  0.00     0.078 C 
BRANCH  16  17
ATOM     17  C   UNL A   1      30.261  26.989  22.926  1.00  0.00    -0.011 C 
ATOM     18  C   UNL A   1      29.122  26.599  23.866  1.00  0.00     0.007 C 
ATOM     19  C   UNL A   1      30.686  28.438  23.190  1.00  0.00     0.007 C 
ENDBRANCH  16  17
ENDBRANCH  15  16
BRANCH  15  20
ATOM     20  N   UNL A   1      31.820  23.807  24.090  1.00  0.00    -0.347 N 
ATOM     21  H   UNL A   1      31.827  23.292  24.970  1.00  0.00     0.345 HD
ATOM     22  H   UNL A   1      32.724  23.704  23.628  1.00  0.00     0.345 HD
ATOM     23  H   UNL A   1      31.085  23.439  23.485  1.00  0.00     0.345 HD
ENDBRANCH  15  20
ENDBRANCH  13  15
ENDBRANCH   8  13
ENDBRANCH   4   7
ENDBRANCH   2   3
ENDBRANCH   1   2
BRANCH   1  24
ATOM     24  C   UNL A   1      35.260  33.770  28.845  1.00  0.00     0.002 C 
BRANCH  24  25
ATOM     25  C   UNL A   1      34.475  34.902  28.175  1.00  0.00     0.002 C 
BRANCH  25  26
ATOM     26  C   UNL A   1      33.176  35.296  28.881  1.00  0.00     0.021 C 
BRANCH  26  27
ATOM     27  C   UNL A   1      33.282  36.534  29.762  1.00  0.00     0.116 C 
BRANCH  27  28
ATOM     28  N   UNL A   1      32.418  36.460  30.928  1.00  0.00    -0.352 N 
ATOM     29  C   UNL A   1      32.550  35.693  32.057  1.00  0.00     0.251 C 
ATOM     30  H   UNL A   1      31.624  37.042  30.904  1.00  0.00     0.163 HD
ATOM     31  O   UNL A   1      31.632  35.631  32.871  1.00  0.00    -0.269 OA
BRANCH  29  32
ATOM     32  C   UNL A   1      33.788  34.918  32.282  1.00  0.00     0.039 A 
ATOM     33  C   UNL A   1      35.019  35.567  32.154  1.00  0.00     0.014 A 
ATOM     34  C   UNL A   1      33.743  33.561  32.614  1.00  0.00     0.014 A 
ATOM     35  C   UNL A   1      36.198  34.868  32.409  1.00  0.00     0.010 A 
ATOM     36  C   UNL A   1      34.915  32.886  32.945  1.00  0.00     0.010 A 
ATOM     37  C   UNL A   1      36.156  33.530  32.839  1.00  0.00    -0.014 A 
BRANCH  37  38
ATOM     38  C   UNL A   1      37.406  32.806  33.184  1.00  0.00     0.031 A 
ATOM     39  C   UNL A   1      38.133  33.102  34.468  1.00  0.00     0.074 A 
ATOM     40  C   UNL A   1      37.905  31.901  32.320  1.00  0.00     0.049 A 
ATOM     41  N   UNL A   1      39.228  32.562  34.939  1.00  0.00    -0.248 NA
ATOM     42  C   UNL A   1      37.571  34.158  35.323  1.00  0.00     0.031 C 
ATOM     43  C   UNL A   1      37.327  31.569  31.015  1.00  0.00     0.029 A 
ATOM     44  N   UNL A   1      39.008  31.091  32.409  1.00  0.00    -0.354 N 
ATOM     45  C   UNL A   1      39.487  33.214  36.138  1.00  0.00     0.074 A 
ATOM     46  C   UNL A   1      38.471  34.231  36.292  1.00  0.00     0.031 C 
ATOM     47  C   UNL A   1      38.059  30.599  30.445  1.00  0.00     0.029 A 
ATOM     48  C   UNL A   1      39.173  30.264  31.325  1.00  0.00     0.049 A 
ATOM     49  H   UNL A   1      39.624  31.101  33.177  1.00  0.00     0.167 HD
ATOM     50  C   UNL A   1      40.465  32.969  37.043  1.00  0.00     0.037 A 
ATOM     51  C   UNL A   1      40.114  29.335  31.071  1.00  0.00     0.037 A 
ATOM     52  C   UNL A   1      41.466  31.944  36.894  1.00  0.00     0.049 A 
ATOM     53  C   UNL A   1      41.184  29.078  32.095  1.00  0.00     0.074 A 
ATOM     54  C   UNL A   1      42.470  31.584  37.778  1.00  0.00     0.029 A 
ATOM     55  N   UNL A   1      41.592  31.116  35.789  1.00  0.00    -0.354 N 
ATOM     56  N   UNL A   1      41.372  29.652  33.259  1.00  0.00    -0.248 NA
ATOM     57  C   UNL A   1      42.166  28.033  31.774  1.00  0.00     0.031 C 
ATOM     58  C   UNL A   1      43.232  30.571  37.185  1.00  0.00     0.029 A 
ATOM     59  C   UNL A   1      42.668  30.259  35.959  1.00  0.00     0.049 A 
ATOM     60  H   UNL A   1      41.004  31.135  34.999  1.00  0.00     0.167 HD
ATOM     61  C   UNL A   1      42.471  29.016  33.824  1.00  0.00     0.074 A 
ATOM     62  C   UNL A   1      42.894  28.000  32.881  1.00  0.00     0.031 C 
ATOM     63  C   UNL A   1      43.076  29.251  35.014  1.00  0.00     0.037 A 
BRANCH  50  64
ATOM     64  C   UNL A   1      40.493  33.820  38.281  1.00  0.00     0.057 A 
ATOM     65  C   UNL A   1      39.713  33.516  39.405  1.00  0.00     0.134 A 
ATOM     66  C   UNL A   1      41.338  34.935  38.365  1.00  0.00     0.134 A 
ATOM     67  F   UNL A   1      38.874  32.469  39.387  1.00  0.00    -0.206 F 
ATOM     68  C   UNL A   1      39.752  34.303  40.557  1.00  0.00     0.040 A 
ATOM     69  C   UNL A   1      41.407  35.712  39.523  1.00  0.00     0.040 A 
ATOM     70  F   UNL A   1      42.116  35.281  37.329  1.00  0.00    -0.206 F 
ATOM     71  C   UNL A   1      40.608  35.402  40.620  1.00  0.00     0.006 A 
ENDBRANCH  50  64
BRANCH  51  72
ATOM     72  C   UNL A   1      40.068  28.551  29.810  1.00  0.00     0.057 A 
ATOM     73  C   UNL A   1      39.302  27.382  29.712  1.00  0.00     0.134 A 
ATOM     74  C   UNL A   1      40.800  28.938  28.681  1.00  0.00     0.134 A 
ATOM     75  F   UNL A   1      38.592  26.951  30.765  1.00  0.00    -0.206 F 
ATOM     76  C   UNL A   1      39.287  26.612  28.548  1.00  0.00     0.040 A 
ATOM     77  C   UNL A   1      40.772  28.193  27.501  1.00  0.00     0.040 A 
ATOM     78  F   UNL A   1      41.544  30.054  28.706  1.00  0.00    -0.206 F 
ATOM     79  C   UNL A   1      40.022  27.020  27.437  1.00  0.00     0.006 A 
ENDBRANCH  51  72
BRANCH  63  80
ATOM     80  C   UNL A   1      44.231  28.363  35.378  1.00  0.00     0.057 A 
ATOM     81  C   UNL A   1      45.553  28.686  35.042  1.00  0.00     0.134 A 
ATOM     82  C   UNL A   1      44.017  27.170  36.080  1.00  0.00     0.134 A 
ATOM     83  F   UNL A   1      45.827  29.808  34.360  1.00  0.00    -0.206 F 
ATOM     84  C   UNL A   1      46.613  27.834  35.355  1.00  0.00     0.040 A 
ATOM     85  C   UNL A   1      45.072  26.326  36.427  1.00  0.00     0.040 A 
ATOM     86  F   UNL A   1      42.778  26.806  36.443  1.00  0.00    -0.206 F 
ATOM     87  C   UNL A   1      46.375  26.652  36.054  1.00  0.00     0.006 A 
ENDBRANCH  63  80
ENDBRANCH  37  38
ENDBRANCH  29  32
ENDBRANCH  27  28
ENDBRANCH  26  27
ENDBRANCH  25  26
ENDBRANCH  24  25
ENDBRANCH   1  24
TORSDOF 18
ENDMDL
MODEL 2
REMARK VINA RESULT:      -9.7      1.115      2.222
REMARK SMILES CC(C)C[C@@H]([NH3+])C(=O)N1CC[C@H](C(=O)NCCCCCCNC(=O)c2ccc(-c3c4nc(c(-c5c(F)cccc5F)c5ccc([nH]5)c(-c5c(F)cccc5F)c5nc(c(-c6c(F)cccc6F)c6ccc3[nH]6)C=C5)C=C4)cc2)[C@@H]1C
REMARK SMILES IDX 17 1 16 2 15 3 13 4 14 5 12 7 9 8 10 9 79 10 11 11 80 12
REMARK SMILES IDX 7 13 8 14 5 15 4 16 2 17 1 18 3 19 6 20 18 24 19 25 20 26
REMARK SMILES IDX 21 27 22 28 23 29 24 31 25 32 26 33 78 34 27 35 77 36 28 37
REMARK SMILES IDX 29 38 30 39 71 40 31 41 76 42 70 43 72 44 32 45 75 46 69 47
REMARK SMILES IDX 68 48 33 50 59 51 42 52 58 53 43 54 46 55 57 56 73 57 44 58
REMARK SMILES IDX 45 59 56 61 74 62 47 63 34 64 35 65 40 66 36 67 37 68 39 69
REMARK SMILES IDX 41 70 38 71 60 72 61 73 66 74 62 75 63 76 65 77 67 78 64 79
REMARK SMILES IDX 48 80 49 81 54 82 50 83 51 84 53 85 55 86 52 87
REMARK H PARENT 15 6 6 21 6 22 6 23 22 30 72 49 46 60
REMARK Flexibility Score: inf
ROOT
ATOM      1  C   UNL A   1      34.365  32.017  28.887  1.00  0.00     0.021 C 
ENDROOT
BRANCH   1   2
ATOM      2  C   UNL A   1      33.806  31.421  27.599  1.00  0.00     0.116 C 
BRANCH   2   3
ATOM      3  N   UNL A   1      34.319  30.085  27.366  1.00  0.00    -0.356 N 
ATOM      4  C   UNL A   1      33.874  29.109  26.523  1.00  0.00     0.225 C 
ATOM      5  O   UNL A   1      34.505  28.056  26.505  1.00  0.00    -0.275 OA
ATOM      6  H   UNL A   1      35.110  29.844  27.901  1.00  0.00     0.163 HD
BRANCH   4   7
ATOM      7  C   UNL A   1      32.669  29.419  25.644  1.00  0.00     0.102 C 
ATOM      8  N   UNL A   1      31.486  27.759  24.380  1.00  0.00    -0.334 N 
ATOM      9  C   UNL A   1      32.760  27.983  23.733  1.00  0.00     0.121 C 
ATOM     10  C   UNL A   1      31.444  28.469  25.662  1.00  0.00     0.094 C 
ATOM     11  C   UNL A   1      33.115  29.393  24.175  1.00  0.00     0.037 C 
ATOM     12  C   UNL A   1      31.378  27.497  26.839  1.00  0.00     0.032 C 
BRANCH   8  13
ATOM     13  C   UNL A   1      30.501  27.074  23.703  1.00  0.00     0.280 C 
ATOM     14  O   UNL A   1      30.801  26.344  22.747  1.00  0.00    -0.268 OA
BRANCH  13  15
ATOM     15  C   UNL A   1      28.991  27.393  23.931  1.00  0.00     0.271 C 
BRANCH  15  16
ATOM     16  C   UNL A   1      28.334  28.480  23.076  1.00  0.00     0.078 C 
BRANCH  16  17
ATOM     17  C   UNL A   1      29.008  29.870  23.114  1.00  0.00    -0.011 C 
ATOM     18  C   UNL A   1      29.706  30.217  21.801  1.00  0.00     0.007 C 
ATOM     19  C   UNL A   1      27.960  30.937  23.448  1.00  0.00     0.007 C 
ENDBRANCH  16  17
ENDBRANCH  15  16
BRANCH  15  20
ATOM     20  N   UNL A   1      28.247  26.112  23.859  1.00  0.00    -0.347 N 
ATOM     21  H   UNL A   1      27.578  26.149  23.091  1.00  0.00     0.345 HD
ATOM     22  H   UNL A   1      27.749  25.959  24.736  1.00  0.00     0.345 HD
ATOM     23  H   UNL A   1      28.904  25.347  23.703  1.00  0.00     0.345 HD
ENDBRANCH  15  20
ENDBRANCH  13  15
ENDBRANCH   8  13
ENDBRANCH   4   7
ENDBRANCH   2   3
ENDBRANCH   1   2
BRANCH   1  24
ATOM     24  C   UNL A   1      35.079  33.362  28.708  1.00  0.00     0.002 C 
BRANCH  24  25
ATOM     25  C   UNL A   1      34.273  34.436  27.972  1.00  0.00     0.002 C 
BRANCH  25  26
ATOM     26  C   UNL A   1      33.050  34.961  28.729  1.00  0.00     0.021 C 
BRANCH  26  27
ATOM     27  C   UNL A   1      33.296  36.235  29.527  1.00  0.00     0.116 C 
BRANCH  27  28
ATOM     28  N   UNL A   1      32.494  36.292  30.737  1.00  0.00    -0.352 N 
ATOM     29  C   UNL A   1      32.675  35.636  31.928  1.00  0.00     0.251 C 
ATOM     30  H   UNL A   1      31.709  36.886  30.698  1.00  0.00     0.163 HD
ATOM     31  O   UNL A   1      31.800  35.673  32.791  1.00  0.00    -0.269 OA
BRANCH  29  32
ATOM     32  C   UNL A   1      33.911  34.862  32.164  1.00  0.00     0.039 A 
ATOM     33  C   UNL A   1      35.143  35.487  31.961  1.00  0.00     0.014 A 
ATOM     34  C   UNL A   1      33.861  33.527  32.578  1.00  0.00     0.014 A 
ATOM     35  C   UNL A   1      36.323  34.789  32.224  1.00  0.00     0.010 A 
ATOM     36  C   UNL A   1      35.036  32.860  32.915  1.00  0.00     0.010 A 
ATOM     37  C   UNL A   1      36.279  33.481  32.734  1.00  0.00    -0.014 A 
BRANCH  37  38
ATOM     38  C   UNL A   1      37.532  32.764  33.086  1.00  0.00     0.031 A 
ATOM     39  C   UNL A   1      38.251  33.064  34.373  1.00  0.00     0.074 A 
ATOM     40  C   UNL A   1      38.039  31.860  32.226  1.00  0.00     0.049 A 
ATOM     41  N   UNL A   1      39.347  32.531  34.850  1.00  0.00    -0.248 NA
ATOM     42  C   UNL A   1      37.679  34.119  35.225  1.00  0.00     0.031 C 
ATOM     43  C   UNL A   1      37.469  31.524  30.918  1.00  0.00     0.029 A 
ATOM     44  N   UNL A   1      39.147  31.056  32.321  1.00  0.00    -0.354 N 
ATOM     45  C   UNL A   1      39.597  33.185  36.049  1.00  0.00     0.074 A 
ATOM     46  C   UNL A   1      38.575  34.198  36.197  1.00  0.00     0.031 C 
ATOM     47  C   UNL A   1      38.209  30.557  30.353  1.00  0.00     0.029 A 
ATOM     48  C   UNL A   1      39.321  30.228  31.239  1.00  0.00     0.049 A 
ATOM     49  H   UNL A   1      39.758  31.070  33.092  1.00  0.00     0.167 HD
ATOM     50  C   UNL A   1      40.571  32.947  36.959  1.00  0.00     0.037 A 
ATOM     51  C   UNL A   1      40.267  29.304  30.990  1.00  0.00     0.037 A 
ATOM     52  C   UNL A   1      41.579  31.927  36.816  1.00  0.00     0.049 A 
ATOM     53  C   UNL A   1      41.334  29.054  32.019  1.00  0.00     0.074 A 
ATOM     54  C   UNL A   1      42.580  31.574  37.705  1.00  0.00     0.029 A 
ATOM     55  N   UNL A   1      41.714  31.099  35.712  1.00  0.00    -0.354 N 
ATOM     56  N   UNL A   1      41.514  29.630  33.184  1.00  0.00    -0.248 NA
ATOM     57  C   UNL A   1      42.323  28.014  31.704  1.00  0.00     0.031 C 
ATOM     58  C   UNL A   1      43.350  30.563  37.117  1.00  0.00     0.029 A 
ATOM     59  C   UNL A   1      42.794  30.248  35.889  1.00  0.00     0.049 A 
ATOM     60  H   UNL A   1      41.130  31.114  34.920  1.00  0.00     0.167 HD
ATOM     61  C   UNL A   1      42.613  29.001  33.754  1.00  0.00     0.074 A 
ATOM     62  C   UNL A   1      43.046  27.986  32.815  1.00  0.00     0.031 C 
ATOM     63  C   UNL A   1      43.211  29.240  34.947  1.00  0.00     0.037 A 
BRANCH  50  64
ATOM     64  C   UNL A   1      40.590  33.800  38.196  1.00  0.00     0.057 A 
ATOM     65  C   UNL A   1      41.413  34.929  38.303  1.00  0.00     0.134 A 
ATOM     66  C   UNL A   1      39.748  33.511  39.278  1.00  0.00     0.134 A 
ATOM     67  F   UNL A   1      42.252  35.256  37.308  1.00  0.00    -0.206 F 
ATOM     68  C   UNL A   1      41.418  35.725  39.450  1.00  0.00     0.040 A 
ATOM     69  C   UNL A   1      39.723  34.317  40.418  1.00  0.00     0.040 A 
ATOM     70  F   UNL A   1      38.930  32.449  39.242  1.00  0.00    -0.206 F 
ATOM     71  C   UNL A   1      40.564  35.423  40.510  1.00  0.00     0.006 A 
ENDBRANCH  50  64
BRANCH  51  72
ATOM     72  C   UNL A   1      40.231  28.519  29.730  1.00  0.00     0.057 A 
ATOM     73  C   UNL A   1      40.936  28.937  28.595  1.00  0.00     0.134 A 
ATOM     74  C   UNL A   1      39.478  27.343  29.622  1.00  0.00     0.134 A 
ATOM     75  F   UNL A   1      41.663  30.065  28.630  1.00  0.00    -0.206 F 
ATOM     76  C   UNL A   1      40.873  28.233  27.392  1.00  0.00     0.040 A 
ATOM     77  C   UNL A   1      39.428  26.613  28.434  1.00  0.00     0.040 A 
ATOM     78  F   UNL A   1      38.788  26.882  30.676  1.00  0.00    -0.206 F 
ATOM     79  C   UNL A   1      40.119  27.064  27.311  1.00  0.00     0.006 A 
ENDBRANCH  51  72
BRANCH  63  80
ATOM     80  C   UNL A   1      44.370  28.359  35.317  1.00  0.00     0.057 A 
ATOM     81  C   UNL A   1      44.198  27.158  36.019  1.00  0.00     0.134 A 
ATOM     82  C   UNL A   1      45.677  28.717  34.961  1.00  0.00     0.134 A 
ATOM     83  F   UNL A   1      42.974  26.762  36.401  1.00  0.00    -0.206 F 
ATOM     84  C   UNL A   1      45.287  26.367  36.388  1.00  0.00     0.040 A 
ATOM     85  C   UNL A   1      46.770  27.918  35.296  1.00  0.00     0.040 A 
ATOM     86  F   UNL A   1      45.912  29.847  34.279  1.00  0.00    -0.206 F 
ATOM     87  C   UNL A   1      46.578  26.744  36.022  1.00  0.00     0.006 A 
ENDBRANCH  63  80
ENDBRANCH  37  38
ENDBRANCH  29  32
ENDBRANCH  27  28
ENDBRANCH  26  27
ENDBRANCH  25  26
ENDBRANCH  24  25
ENDBRANCH   1  24
TORSDOF 18
ENDMDL
MODEL 3
REMARK VINA RESULT:      -9.6      1.036      2.303
REMARK SMILES CC(C)C[C@@H]([NH3+])C(=O)N1CC[C@H](C(=O)NCCCCCCNC(=O)c2ccc(-c3c4nc(c(-c5c(F)cccc5F)c5ccc([nH]5)c(-c5c(F)cccc5F)c5nc(c(-c6c(F)cccc6F)c6ccc3[nH]6)C=C5)C=C4)cc2)[C@@H]1C
REMARK SMILES IDX 17 1 16 2 15 3 13 4 14 5 12 7 9 8 10 9 79 10 11 11 80 12
REMARK SMILES IDX 7 13 8 14 5 15 4 16 2 17 1 18 3 19 6 20 18 24 19 25 20 26
REMARK SMILES IDX 21 27 22 28 23 29 24 31 25 32 26 33 78 34 27 35 77 36 28 37
REMARK SMILES IDX 29 38 30 39 71 40 31 41 76 42 70 43 72 44 32 45 75 46 69 47
REMARK SMILES IDX 68 48 33 50 59 51 42 52 58 53 43 54 46 55 57 56 73 57 44 58
REMARK SMILES IDX 45 59 56 61 74 62 47 63 34 64 35 65 40 66 36 67 37 68 39 69
REMARK SMILES IDX 41 70 38 71 60 72 61 73 66 74 62 75 63 76 65 77 67 78 64 79
REMARK SMILES IDX 48 80 49 81 54 82 50 83 51 84 53 85 55 86 52 87
REMARK H PARENT 15 6 6 21 6 22 6 23 22 30 72 49 46 60
REMARK Flexibility Score: inf
ROOT
ATOM      1  C   UNL A   1      34.424  31.503  28.724  1.00  0.00     0.021 C 
ENDROOT
BRANCH   1   2
ATOM      2  C   UNL A   1      35.008  30.551  27.684  1.00  0.00     0.116 C 
BRANCH   2   3
ATOM      3  N   UNL A   1      34.165  30.469  26.507  1.00  0.00    -0.356 N 
ATOM      4  C   UNL A   1      33.352  29.461  26.079  1.00  0.00     0.225 C 
ATOM      5  O   UNL A   1      32.725  29.652  25.041  1.00  0.00    -0.275 OA
ATOM      6  H   UNL A   1      34.182  31.265  25.928  1.00  0.00     0.163 HD
BRANCH   4   7
ATOM      7  C   UNL A   1      33.254  28.207  26.939  1.00  0.00     0.102 C 
ATOM      8  N   UNL A   1      31.985  26.269  26.320  1.00  0.00    -0.334 N 
ATOM      9  C   UNL A   1      31.051  27.311  26.688  1.00  0.00     0.121 C 
ATOM     10  C   UNL A   1      33.346  26.811  26.271  1.00  0.00     0.094 C 
ATOM     11  C   UNL A   1      31.876  28.186  27.617  1.00  0.00     0.037 C 
ATOM     12  C   UNL A   1      33.905  26.793  24.850  1.00  0.00     0.032 C 
BRANCH   8  13
ATOM     13  C   UNL A   1      31.533  24.972  26.205  1.00  0.00     0.280 C 
ATOM     14  O   UNL A   1      31.207  24.339  27.219  1.00  0.00    -0.268 OA
BRANCH  13  15
ATOM     15  C   UNL A   1      31.669  24.184  24.866  1.00  0.00     0.271 C 
BRANCH  15  16
ATOM     16  C   UNL A   1      32.203  22.750  24.909  1.00  0.00     0.078 C 
BRANCH  16  17
ATOM     17  C   UNL A   1      33.727  22.590  24.714  1.00  0.00    -0.011 C 
ATOM     18  C   UNL A   1      34.530  23.209  25.856  1.00  0.00     0.007 C 
ATOM     19  C   UNL A   1      34.072  21.103  24.578  1.00  0.00     0.007 C 
ENDBRANCH  16  17
ENDBRANCH  15  16
BRANCH  15  20
ATOM     20  N   UNL A   1      30.364  24.265  24.165  1.00  0.00    -0.347 N 
ATOM     21  H   UNL A   1      30.028  25.227  24.181  1.00  0.00     0.345 HD
ATOM     22  H   UNL A   1      29.688  23.661  24.635  1.00  0.00     0.345 HD
ATOM     23  H   UNL A   1      30.479  23.959  23.198  1.00  0.00     0.345 HD
ENDBRANCH  15  20
ENDBRANCH  13  15
ENDBRANCH   8  13
ENDBRANCH   4   7
ENDBRANCH   2   3
ENDBRANCH   1   2
BRANCH   1  24
ATOM     24  C   UNL A   1      35.131  32.861  28.808  1.00  0.00     0.002 C 
BRANCH  24  25
ATOM     25  C   UNL A   1      34.461  33.996  28.027  1.00  0.00     0.002 C 
BRANCH  25  26
ATOM     26  C   UNL A   1      33.203  34.576  28.679  1.00  0.00     0.021 C 
BRANCH  26  27
ATOM     27  C   UNL A   1      33.427  35.868  29.455  1.00  0.00     0.116 C 
BRANCH  27  28
ATOM     28  N   UNL A   1      32.508  36.009  30.570  1.00  0.00    -0.352 N 
ATOM     29  C   UNL A   1      32.607  35.510  31.843  1.00  0.00     0.251 C 
ATOM     30  H   UNL A   1      31.698  36.539  30.387  1.00  0.00     0.163 HD
ATOM     31  O   UNL A   1      31.650  35.586  32.612  1.00  0.00    -0.269 OA
BRANCH  29  32
ATOM     32  C   UNL A   1      33.856  34.855  32.284  1.00  0.00     0.039 A 
ATOM     33  C   UNL A   1      33.815  33.506  32.643  1.00  0.00     0.014 A 
ATOM     34  C   UNL A   1      35.061  35.562  32.349  1.00  0.00     0.014 A 
ATOM     35  C   UNL A   1      34.991  32.855  33.017  1.00  0.00     0.010 A 
ATOM     36  C   UNL A   1      36.245  34.891  32.644  1.00  0.00     0.010 A 
ATOM     37  C   UNL A   1      36.222  33.532  32.989  1.00  0.00    -0.014 A 
BRANCH  37  38
ATOM     38  C   UNL A   1      37.485  32.821  33.312  1.00  0.00     0.031 A 
ATOM     39  C   UNL A   1      38.230  33.123  34.584  1.00  0.00     0.074 A 
ATOM     40  C   UNL A   1      37.978  31.921  32.440  1.00  0.00     0.049 A 
ATOM     41  N   UNL A   1      39.339  32.594  35.036  1.00  0.00    -0.248 NA
ATOM     42  C   UNL A   1      37.672  34.174  35.449  1.00  0.00     0.031 C 
ATOM     43  C   UNL A   1      37.382  31.583  31.144  1.00  0.00     0.029 A 
ATOM     44  N   UNL A   1      39.091  31.122  32.509  1.00  0.00    -0.354 N 
ATOM     45  C   UNL A   1      39.611  33.249  36.231  1.00  0.00     0.074 A 
ATOM     46  C   UNL A   1      38.588  34.256  36.402  1.00  0.00     0.031 C 
ATOM     47  C   UNL A   1      38.114  30.621  30.561  1.00  0.00     0.029 A 
ATOM     48  C   UNL A   1      39.246  30.297  31.423  1.00  0.00     0.049 A 
ATOM     49  H   UNL A   1      39.719  31.138  33.267  1.00  0.00     0.167 HD
ATOM     50  C   UNL A   1      40.607  33.014  37.118  1.00  0.00     0.037 A 
ATOM     51  C   UNL A   1      40.191  29.378  31.152  1.00  0.00     0.037 A 
ATOM     52  C   UNL A   1      41.616  32.000  36.953  1.00  0.00     0.049 A 
ATOM     53  C   UNL A   1      41.282  29.132  32.157  1.00  0.00     0.074 A 
ATOM     54  C   UNL A   1      42.638  31.650  37.819  1.00  0.00     0.029 A 
ATOM     55  N   UNL A   1      41.732  31.173  35.845  1.00  0.00    -0.354 N 
ATOM     56  N   UNL A   1      41.484  29.707  33.319  1.00  0.00    -0.248 NA
ATOM     57  C   UNL A   1      42.268  28.097  31.820  1.00  0.00     0.031 C 
ATOM     58  C   UNL A   1      43.400  30.644  37.213  1.00  0.00     0.029 A 
ATOM     59  C   UNL A   1      42.819  30.327  35.997  1.00  0.00     0.049 A 
ATOM     60  H   UNL A   1      41.130  31.186  35.065  1.00  0.00     0.167 HD
ATOM     61  C   UNL A   1      42.598  29.082  33.864  1.00  0.00     0.074 A 
ATOM     62  C   UNL A   1      43.015  28.071  32.914  1.00  0.00     0.031 C 
ATOM     63  C   UNL A   1      43.220  29.323  35.044  1.00  0.00     0.037 A 
BRANCH  50  64
ATOM     64  C   UNL A   1      40.648  33.865  38.356  1.00  0.00     0.057 A 
ATOM     65  C   UNL A   1      41.440  35.019  38.434  1.00  0.00     0.134 A 
ATOM     66  C   UNL A   1      39.858  33.550  39.470  1.00  0.00     0.134 A 
ATOM     67  F   UNL A   1      42.229  35.372  37.408  1.00  0.00    -0.206 F 
ATOM     68  C   UNL A   1      41.465  35.813  39.582  1.00  0.00     0.040 A 
ATOM     69  C   UNL A   1      39.853  34.352  40.612  1.00  0.00     0.040 A 
ATOM     70  F   UNL A   1      39.072  32.463  39.462  1.00  0.00    -0.206 F 
ATOM     71  C   UNL A   1      40.664  35.483  40.674  1.00  0.00     0.006 A 
ENDBRANCH  50  64
BRANCH  51  72
ATOM     72  C   UNL A   1      40.132  28.594  29.892  1.00  0.00     0.057 A 
ATOM     73  C   UNL A   1      40.816  29.013  28.745  1.00  0.00     0.134 A 
ATOM     74  C   UNL A   1      39.376  27.419  29.797  1.00  0.00     0.134 A 
ATOM     75  F   UNL A   1      41.544  30.140  28.769  1.00  0.00    -0.206 F 
ATOM     76  C   UNL A   1      40.731  28.310  27.542  1.00  0.00     0.040 A 
ATOM     77  C   UNL A   1      39.304  26.690  28.609  1.00  0.00     0.040 A 
ATOM     78  F   UNL A   1      38.705  26.957  30.863  1.00  0.00    -0.206 F 
ATOM     79  C   UNL A   1      39.975  27.142  27.474  1.00  0.00     0.006 A 
ENDBRANCH  51  72
BRANCH  63  80
ATOM     80  C   UNL A   1      44.391  28.447  35.388  1.00  0.00     0.057 A 
ATOM     81  C   UNL A   1      44.241  27.247  36.097  1.00  0.00     0.134 A 
ATOM     82  C   UNL A   1      45.687  28.809  35.000  1.00  0.00     0.134 A 
ATOM     83  F   UNL A   1      43.029  26.848  36.510  1.00  0.00    -0.206 F 
ATOM     84  C   UNL A   1      45.342  26.461  36.441  1.00  0.00     0.040 A 
ATOM     85  C   UNL A   1      46.792  28.015  35.309  1.00  0.00     0.040 A 
ATOM     86  F   UNL A   1      45.902  29.938  34.308  1.00  0.00    -0.206 F 
ATOM     87  C   UNL A   1      46.622  26.842  36.042  1.00  0.00     0.006 A 
ENDBRANCH  63  80
ENDBRANCH  37  38
ENDBRANCH  29  32
ENDBRANCH  27  28
ENDBRANCH  26  27
ENDBRANCH  25  26
ENDBRANCH  24  25
ENDBRANCH   1  24
TORSDOF 18
ENDMDL
