MODEL 1
REMARK VINA RESULT:     -11.5      0.000      0.000
REMARK SMILES C[C@@H]1[C@H](C)CCC[C@H]1NC(=O)C[N@@H+]1CCC[C@@H]1C(=O)NCCCCCCNC(=O)c1ccc(-c2c3nc(c(-c4c(F)cccc4F)c4ccc([nH]4)c(-c4c(F)cccc4F)c4nc(c(-c5c(F)cccc5F)c5ccc2[nH]5)C=C4)C=C3)cc1
REMARK SMILES IDX 23 1 22 2 21 3 20 4 18 5 19 6 17 8 13 9 14 10 15 12 16 13
REMARK SMILES IDX 12 14 10 15 9 16 11 18 8 19 1 20 2 21 3 22 4 23 5 24 7 25
REMARK SMILES IDX 6 26 24 27 25 28 26 29 27 30 28 31 29 33 30 34 31 35 83 36
REMARK SMILES IDX 32 37 82 38 33 39 34 40 35 41 76 42 36 43 81 44 75 45 77 46
REMARK SMILES IDX 37 47 80 48 74 49 73 50 38 52 64 53 47 54 63 55 48 56 51 57
REMARK SMILES IDX 62 58 78 59 49 60 50 61 61 63 79 64 52 65 39 66 40 67 45 68
REMARK SMILES IDX 41 69 42 70 44 71 46 72 43 73 65 74 66 75 71 76 67 77 68 78
REMARK SMILES IDX 70 79 72 80 69 81 53 82 54 83 59 84 55 85 56 86 58 87 60 88
REMARK SMILES IDX 57 89
REMARK H PARENT 20 7 13 11 9 17 27 32 77 51 51 62
REMARK Flexibility Score: inf
ROOT
ATOM      1  C   UNL A   1      36.955  22.231  25.295  1.00  0.00     0.002 C 
ENDROOT
BRANCH   1   2
ATOM      2  C   UNL A   1      35.972  23.316  24.819  1.00  0.00     0.021 C 
BRANCH   2   3
ATOM      3  C   UNL A   1      35.110  22.901  23.628  1.00  0.00     0.116 C 
BRANCH   3   4
ATOM      4  N   UNL A   1      33.837  23.560  23.721  1.00  0.00    -0.351 N 
ATOM      5  C   UNL A   1      32.608  23.006  23.660  1.00  0.00     0.278 C 
ATOM      6  O   UNL A   1      31.765  23.656  23.034  1.00  0.00    -0.268 OA
ATOM      7  H   UNL A   1      33.865  24.536  23.845  1.00  0.00     0.163 HD
BRANCH   5   8
ATOM      8  C   UNL A   1      32.239  21.721  24.420  1.00  0.00     0.274 C 
ATOM      9  N   UNL A   1      32.316  21.808  25.911  1.00  0.00    -0.317 N 
ATOM     10  C   UNL A   1      33.452  20.941  26.292  1.00  0.00     0.263 C 
ATOM     11  H   UNL A   1      31.392  21.537  26.248  1.00  0.00     0.349 HD
ATOM     12  C   UNL A   1      33.699  19.939  25.178  1.00  0.00     0.068 C 
ATOM     13  C   UNL A   1      32.901  20.422  23.988  1.00  0.00     0.081 C 
BRANCH   9  14
ATOM     14  C   UNL A   1      32.519  23.142  26.549  1.00  0.00     0.364 C 
BRANCH  14  15
ATOM     15  C   UNL A   1      31.385  24.157  26.794  1.00  0.00     0.275 C 
ATOM     16  N   UNL A   1      31.400  25.499  26.621  1.00  0.00    -0.348 N 
ATOM     17  H   UNL A   1      30.585  25.957  26.933  1.00  0.00     0.163 HD
ATOM     18  O   UNL A   1      30.338  23.724  27.311  1.00  0.00    -0.268 OA
BRANCH  16  19
ATOM     19  C   UNL A   1      32.400  26.377  26.061  1.00  0.00     0.085 C 
ATOM     20  C   UNL A   1      33.336  27.079  23.836  1.00  0.00     0.010 C 
ATOM     21  C   UNL A   1      32.041  26.816  24.627  1.00  0.00     0.011 C 
ATOM     22  C   UNL A   1      31.057  28.005  24.657  1.00  0.00    -0.009 C 
ATOM     23  C   UNL A   1      30.642  28.468  23.261  1.00  0.00     0.008 C 
ATOM     24  C   UNL A   1      31.607  29.168  25.487  1.00  0.00     0.004 C 
ATOM     25  C   UNL A   1      32.768  27.528  27.009  1.00  0.00     0.025 C 
ATOM     26  C   UNL A   1      31.841  28.732  26.929  1.00  0.00     0.002 C 
ENDBRANCH  16  19
ENDBRANCH  14  15
ENDBRANCH   9  14
ENDBRANCH   5   8
ENDBRANCH   3   4
ENDBRANCH   2   3
ENDBRANCH   1   2
BRANCH   1  27
ATOM     27  C   UNL A   1      37.106  21.017  24.369  1.00  0.00     0.002 C 
BRANCH  27  28
ATOM     28  C   UNL A   1      37.908  19.854  24.946  1.00  0.00     0.021 C 
BRANCH  28  29
ATOM     29  C   UNL A   1      39.105  20.282  25.768  1.00  0.00     0.116 C 
BRANCH  29  30
ATOM     30  N   UNL A   1      40.151  19.279  25.780  1.00  0.00    -0.352 N 
ATOM     31  C   UNL A   1      41.472  19.475  26.091  1.00  0.00     0.251 C 
ATOM     32  H   UNL A   1      39.887  18.363  25.538  1.00  0.00     0.163 HD
ATOM     33  O   UNL A   1      42.308  18.597  25.920  1.00  0.00    -0.269 OA
BRANCH  31  34
ATOM     34  C   UNL A   1      41.860  20.796  26.613  1.00  0.00     0.039 A 
ATOM     35  C   UNL A   1      42.268  21.782  25.717  1.00  0.00     0.014 A 
ATOM     36  C   UNL A   1      41.722  21.072  27.978  1.00  0.00     0.014 A 
ATOM     37  C   UNL A   1      42.517  23.068  26.191  1.00  0.00     0.010 A 
ATOM     38  C   UNL A   1      41.885  22.373  28.432  1.00  0.00     0.010 A 
ATOM     39  C   UNL A   1      42.310  23.375  27.547  1.00  0.00    -0.014 A 
BRANCH  39  40
ATOM     40  C   UNL A   1      42.589  24.730  28.071  1.00  0.00     0.031 A 
ATOM     41  C   UNL A   1      43.994  25.104  28.446  1.00  0.00     0.074 A 
ATOM     42  C   UNL A   1      41.579  25.602  28.249  1.00  0.00     0.049 A 
ATOM     43  N   UNL A   1      44.448  26.222  28.951  1.00  0.00    -0.248 NA
ATOM     44  C   UNL A   1      45.024  24.069  28.258  1.00  0.00     0.031 C 
ATOM     45  C   UNL A   1      40.168  25.335  27.961  1.00  0.00     0.029 A 
ATOM     46  N   UNL A   1      41.586  26.890  28.715  1.00  0.00    -0.354 N 
ATOM     47  C   UNL A   1      45.806  26.017  29.153  1.00  0.00     0.074 A 
ATOM     48  C   UNL A   1      46.090  24.649  28.785  1.00  0.00     0.031 C 
ATOM     49  C   UNL A   1      39.452  26.440  28.220  1.00  0.00     0.029 A 
ATOM     50  C   UNL A   1      40.345  27.478  28.726  1.00  0.00     0.049 A 
ATOM     51  H   UNL A   1      42.403  27.352  29.014  1.00  0.00     0.167 HD
ATOM     52  C   UNL A   1      46.740  26.900  29.580  1.00  0.00     0.037 A 
ATOM     53  C   UNL A   1      39.974  28.716  29.101  1.00  0.00     0.037 A 
ATOM     54  C   UNL A   1      46.450  28.266  29.923  1.00  0.00     0.049 A 
ATOM     55  C   UNL A   1      41.025  29.676  29.587  1.00  0.00     0.074 A 
ATOM     56  C   UNL A   1      47.328  29.263  30.309  1.00  0.00     0.029 A 
ATOM     57  N   UNL A   1      45.180  28.824  29.927  1.00  0.00    -0.354 N 
ATOM     58  N   UNL A   1      42.318  29.495  29.709  1.00  0.00    -0.248 NA
ATOM     59  C   UNL A   1      40.563  31.013  29.983  1.00  0.00     0.031 C 
ATOM     60  C   UNL A   1      46.581  30.411  30.597  1.00  0.00     0.029 A 
ATOM     61  C   UNL A   1      45.245  30.146  30.336  1.00  0.00     0.049 A 
ATOM     62  H   UNL A   1      44.354  28.351  29.675  1.00  0.00     0.167 HD
ATOM     63  C   UNL A   1      42.830  30.703  30.166  1.00  0.00     0.074 A 
ATOM     64  C   UNL A   1      41.707  31.610  30.291  1.00  0.00     0.031 C 
ATOM     65  C   UNL A   1      44.114  31.032  30.453  1.00  0.00     0.037 A 
BRANCH  52  66
ATOM     66  C   UNL A   1      48.150  26.398  29.702  1.00  0.00     0.057 A 
ATOM     67  C   UNL A   1      49.063  26.475  28.640  1.00  0.00     0.134 A 
ATOM     68  C   UNL A   1      48.601  25.817  30.895  1.00  0.00     0.134 A 
ATOM     69  F   UNL A   1      48.693  27.006  27.464  1.00  0.00    -0.206 F 
ATOM     70  C   UNL A   1      50.354  25.955  28.744  1.00  0.00     0.040 A 
ATOM     71  C   UNL A   1      49.900  25.323  31.022  1.00  0.00     0.040 A 
ATOM     72  F   UNL A   1      47.784  25.714  31.954  1.00  0.00    -0.206 F 
ATOM     73  C   UNL A   1      50.776  25.380  29.941  1.00  0.00     0.006 A 
ENDBRANCH  52  66
BRANCH  53  74
ATOM     74  C   UNL A   1      38.554  29.128  28.986  1.00  0.00     0.057 A 
ATOM     75  C   UNL A   1      37.688  29.036  30.083  1.00  0.00     0.134 A 
ATOM     76  C   UNL A   1      38.032  29.642  27.794  1.00  0.00     0.134 A 
ATOM     77  F   UNL A   1      38.127  28.537  31.248  1.00  0.00    -0.206 F 
ATOM     78  C   UNL A   1      36.352  29.429  29.995  1.00  0.00     0.040 A 
ATOM     79  C   UNL A   1      36.703  30.060  27.699  1.00  0.00     0.040 A 
ATOM     80  F   UNL A   1      38.812  29.765  26.710  1.00  0.00    -0.206 F 
ATOM     81  C   UNL A   1      35.858  29.949  28.801  1.00  0.00     0.006 A 
ENDBRANCH  53  74
BRANCH  65  82
ATOM     82  C   UNL A   1      44.377  32.441  30.898  1.00  0.00     0.057 A 
ATOM     83  C   UNL A   1      44.324  32.815  32.247  1.00  0.00     0.134 A 
ATOM     84  C   UNL A   1      44.731  33.426  29.966  1.00  0.00     0.134 A 
ATOM     85  F   UNL A   1      43.979  31.923  33.187  1.00  0.00    -0.206 F 
ATOM     86  C   UNL A   1      44.593  34.125  32.651  1.00  0.00     0.040 A 
ATOM     87  C   UNL A   1      45.030  34.731  30.362  1.00  0.00     0.040 A 
ATOM     88  F   UNL A   1      44.810  33.132  28.660  1.00  0.00    -0.206 F 
ATOM     89  C   UNL A   1      44.954  35.084  31.706  1.00  0.00     0.006 A 
ENDBRANCH  65  82
ENDBRANCH  39  40
ENDBRANCH  31  34
ENDBRANCH  29  30
ENDBRANCH  28  29
ENDBRANCH  27  28
ENDBRANCH   1  27
TORSDOF 16
ENDMDL
MODEL 2
REMARK VINA RESULT:     -11.4      4.170      9.024
REMARK SMILES C[C@@H]1[C@H](C)CCC[C@H]1NC(=O)C[N@@H+]1CCC[C@@H]1C(=O)NCCCCCCNC(=O)c1ccc(-c2c3nc(c(-c4c(F)cccc4F)c4ccc([nH]4)c(-c4c(F)cccc4F)c4nc(c(-c5c(F)cccc5F)c5ccc2[nH]5)C=C4)C=C3)cc1
REMARK SMILES IDX 23 1 22 2 21 3 20 4 18 5 19 6 17 8 13 9 14 10 15 12 16 13
REMARK SMILES IDX 12 14 10 15 9 16 11 18 8 19 1 20 2 21 3 22 4 23 5 24 7 25
REMARK SMILES IDX 6 26 24 27 25 28 26 29 27 30 28 31 29 33 30 34 31 35 83 36
REMARK SMILES IDX 32 37 82 38 33 39 34 40 35 41 76 42 36 43 81 44 75 45 77 46
REMARK SMILES IDX 37 47 80 48 74 49 73 50 38 52 64 53 47 54 63 55 48 56 51 57
REMARK SMILES IDX 62 58 78 59 49 60 50 61 61 63 79 64 52 65 39 66 40 67 45 68
REMARK SMILES IDX 41 69 42 70 44 71 46 72 43 73 65 74 66 75 71 76 67 77 68 78
REMARK SMILES IDX 70 79 72 80 69 81 53 82 54 83 59 84 55 85 56 86 58 87 60 88
REMARK SMILES IDX 57 89
REMARK H PARENT 20 7 13 11 9 17 27 32 77 51 51 62
REMARK Flexibility Score: inf
ROOT
ATOM      1  C   UNL A   1      33.551  30.099  27.135  1.00  0.00     0.002 C 
ENDROOT
BRANCH   1   2
ATOM      2  C   UNL A   1      34.058  28.807  26.470  1.00  0.00     0.021 C 
BRANCH   2   3
ATOM      3  C   UNL A   1      32.952  27.916  25.908  1.00  0.00     0.116 C 
BRANCH   3   4
ATOM      4  N   UNL A   1      33.053  26.614  26.506  1.00  0.00    -0.351 N 
ATOM      5  C   UNL A   1      33.261  25.431  25.892  1.00  0.00     0.278 C 
ATOM      6  O   UNL A   1      32.616  24.479  26.342  1.00  0.00    -0.268 OA
ATOM      7  H   UNL A   1      32.959  26.581  27.486  1.00  0.00     0.163 HD
BRANCH   5   8
ATOM      8  C   UNL A   1      34.320  25.243  24.793  1.00  0.00     0.274 C 
ATOM      9  N   UNL A   1      33.791  25.126  23.399  1.00  0.00    -0.317 N 
ATOM     10  C   UNL A   1      34.058  23.727  22.999  1.00  0.00     0.263 C 
ATOM     11  H   UNL A   1      34.259  25.859  22.866  1.00  0.00     0.349 HD
ATOM     12  C   UNL A   1      35.183  23.178  23.858  1.00  0.00     0.068 C 
ATOM     13  C   UNL A   1      35.371  24.162  24.990  1.00  0.00     0.081 C 
BRANCH   9  14
ATOM     14  C   UNL A   1      32.346  25.410  23.147  1.00  0.00     0.364 C 
BRANCH  14  15
ATOM     15  C   UNL A   1      31.835  26.284  21.985  1.00  0.00     0.275 C 
ATOM     16  N   UNL A   1      31.023  27.365  22.034  1.00  0.00    -0.348 N 
ATOM     17  H   UNL A   1      30.752  27.710  21.152  1.00  0.00     0.163 HD
ATOM     18  O   UNL A   1      32.111  25.910  20.829  1.00  0.00    -0.268 OA
BRANCH  16  19
ATOM     19  C   UNL A   1      30.484  28.102  23.153  1.00  0.00     0.085 C 
ATOM     20  C   UNL A   1      30.028  30.465  23.880  1.00  0.00     0.010 C 
ATOM     21  C   UNL A   1      29.900  29.461  22.719  1.00  0.00     0.011 C 
ATOM     22  C   UNL A   1      28.463  29.285  22.181  1.00  0.00    -0.009 C 
ATOM     23  C   UNL A   1      27.840  30.598  21.709  1.00  0.00     0.008 C 
ATOM     24  C   UNL A   1      27.565  28.579  23.202  1.00  0.00     0.004 C 
ATOM     25  C   UNL A   1      29.544  27.249  24.019  1.00  0.00     0.025 C 
ATOM     26  C   UNL A   1      28.108  27.191  23.521  1.00  0.00     0.002 C 
ENDBRANCH  16  19
ENDBRANCH  14  15
ENDBRANCH   9  14
ENDBRANCH   5   8
ENDBRANCH   3   4
ENDBRANCH   2   3
ENDBRANCH   1   2
BRANCH   1  27
ATOM     27  C   UNL A   1      32.073  30.435  26.897  1.00  0.00     0.002 C 
BRANCH  27  28
ATOM     28  C   UNL A   1      31.737  31.924  26.886  1.00  0.00     0.021 C 
BRANCH  28  29
ATOM     29  C   UNL A   1      32.939  32.826  27.070  1.00  0.00     0.116 C 
BRANCH  29  30
ATOM     30  N   UNL A   1      32.577  34.120  27.612  1.00  0.00    -0.352 N 
ATOM     31  C   UNL A   1      33.111  34.724  28.721  1.00  0.00     0.251 C 
ATOM     32  H   UNL A   1      31.874  34.617  27.135  1.00  0.00     0.163 HD
ATOM     33  O   UNL A   1      32.629  35.749  29.188  1.00  0.00    -0.269 OA
BRANCH  31  34
ATOM     34  C   UNL A   1      34.273  34.078  29.354  1.00  0.00     0.039 A 
ATOM     35  C   UNL A   1      34.057  33.045  30.264  1.00  0.00     0.014 A 
ATOM     36  C   UNL A   1      35.568  34.441  28.965  1.00  0.00     0.014 A 
ATOM     37  C   UNL A   1      35.153  32.350  30.772  1.00  0.00     0.010 A 
ATOM     38  C   UNL A   1      36.648  33.690  29.404  1.00  0.00     0.010 A 
ATOM     39  C   UNL A   1      36.452  32.656  30.332  1.00  0.00    -0.014 A 
BRANCH  39  40
ATOM     40  C   UNL A   1      37.627  31.941  30.875  1.00  0.00     0.031 A 
ATOM     41  C   UNL A   1      38.126  32.276  32.252  1.00  0.00     0.074 A 
ATOM     42  C   UNL A   1      38.267  31.029  30.120  1.00  0.00     0.049 A 
ATOM     43  N   UNL A   1      39.153  31.793  32.902  1.00  0.00    -0.248 NA
ATOM     44  C   UNL A   1      37.388  33.318  32.985  1.00  0.00     0.031 C 
ATOM     45  C   UNL A   1      37.900  30.654  28.753  1.00  0.00     0.029 A 
ATOM     46  N   UNL A   1      39.361  30.253  30.397  1.00  0.00    -0.354 N 
ATOM     47  C   UNL A   1      39.191  32.482  34.107  1.00  0.00     0.074 A 
ATOM     48  C   UNL A   1      38.130  33.463  34.070  1.00  0.00     0.031 C 
ATOM     49  C   UNL A   1      38.732  29.691  28.326  1.00  0.00     0.029 A 
ATOM     50  C   UNL A   1      39.710  29.409  29.372  1.00  0.00     0.049 A 
ATOM     51  H   UNL A   1      39.852  30.296  31.250  1.00  0.00     0.167 HD
ATOM     52  C   UNL A   1      40.017  32.294  35.163  1.00  0.00     0.037 A 
ATOM     53  C   UNL A   1      40.706  28.507  29.290  1.00  0.00     0.037 A 
ATOM     54  C   UNL A   1      41.055  31.299  35.198  1.00  0.00     0.049 A 
ATOM     55  C   UNL A   1      41.623  28.325  30.469  1.00  0.00     0.074 A 
ATOM     56  C   UNL A   1      41.910  30.981  36.237  1.00  0.00     0.029 A 
ATOM     57  N   UNL A   1      41.381  30.465  34.139  1.00  0.00    -0.354 N 
ATOM     58  N   UNL A   1      41.607  28.932  31.631  1.00  0.00    -0.248 NA
ATOM     59  C   UNL A   1      42.691  27.327  30.324  1.00  0.00     0.031 C 
ATOM     60  C   UNL A   1      42.790  29.990  35.787  1.00  0.00     0.029 A 
ATOM     61  C   UNL A   1      42.446  29.650  34.488  1.00  0.00     0.049 A 
ATOM     62  H   UNL A   1      40.924  30.454  33.267  1.00  0.00     0.167 HD
ATOM     63  C   UNL A   1      42.642  28.372  32.367  1.00  0.00     0.074 A 
ATOM     64  C   UNL A   1      43.259  27.369  31.521  1.00  0.00     0.031 C 
ATOM     65  C   UNL A   1      43.044  28.658  33.630  1.00  0.00     0.037 A 
BRANCH  52  66
ATOM     66  C   UNL A   1      39.825  33.193  36.350  1.00  0.00     0.057 A 
ATOM     67  C   UNL A   1      38.918  32.888  37.376  1.00  0.00     0.134 A 
ATOM     68  C   UNL A   1      40.547  34.388  36.466  1.00  0.00     0.134 A 
ATOM     69  F   UNL A   1      38.183  31.767  37.322  1.00  0.00    -0.206 F 
ATOM     70  C   UNL A   1      38.705  33.757  38.447  1.00  0.00     0.040 A 
ATOM     71  C   UNL A   1      40.366  35.249  37.550  1.00  0.00     0.040 A 
ATOM     72  F   UNL A   1      41.434  34.741  35.524  1.00  0.00    -0.206 F 
ATOM     73  C   UNL A   1      39.434  34.940  38.537  1.00  0.00     0.006 A 
ENDBRANCH  52  66
BRANCH  53  74
ATOM     74  C   UNL A   1      40.855  27.680  28.067  1.00  0.00     0.057 A 
ATOM     75  C   UNL A   1      40.230  26.432  27.964  1.00  0.00     0.134 A 
ATOM     76  C   UNL A   1      41.602  28.121  26.969  1.00  0.00     0.134 A 
ATOM     77  F   UNL A   1      39.512  25.950  28.990  1.00  0.00    -0.206 F 
ATOM     78  C   UNL A   1      40.351  25.646  26.817  1.00  0.00     0.040 A 
ATOM     79  C   UNL A   1      41.713  27.355  25.807  1.00  0.00     0.040 A 
ATOM     80  F   UNL A   1      42.218  29.312  27.001  1.00  0.00    -0.206 F 
ATOM     81  C   UNL A   1      41.090  26.111  25.731  1.00  0.00     0.006 A 
ENDBRANCH  53  74
BRANCH  65  82
ATOM     82  C   UNL A   1      44.183  27.854  34.186  1.00  0.00     0.057 A 
ATOM     83  C   UNL A   1      43.985  26.607  34.793  1.00  0.00     0.134 A 
ATOM     84  C   UNL A   1      45.501  28.317  34.073  1.00  0.00     0.134 A 
ATOM     85  F   UNL A   1      42.747  26.114  34.944  1.00  0.00    -0.206 F 
ATOM     86  C   UNL A   1      45.056  25.859  35.287  1.00  0.00     0.040 A 
ATOM     87  C   UNL A   1      46.581  27.564  34.537  1.00  0.00     0.040 A 
ATOM     88  F   UNL A   1      45.761  29.499  33.494  1.00  0.00    -0.206 F 
ATOM     89  C   UNL A   1      46.358  26.335  35.152  1.00  0.00     0.006 A 
ENDBRANCH  65  82
ENDBRANCH  39  40
ENDBRANCH  31  34
ENDBRANCH  29  30
ENDBRANCH  28  29
ENDBRANCH  27  28
ENDBRANCH   1  27
TORSDOF 16
ENDMDL
MODEL 3
REMARK VINA RESULT:     -11.4      4.008      9.256
REMARK SMILES C[C@@H]1[C@H](C)CCC[C@H]1NC(=O)C[N@@H+]1CCC[C@@H]1C(=O)NCCCCCCNC(=O)c1ccc(-c2c3nc(c(-c4c(F)cccc4F)c4ccc([nH]4)c(-c4c(F)cccc4F)c4nc(c(-c5c(F)cccc5F)c5ccc2[nH]5)C=C4)C=C3)cc1
REMARK SMILES IDX 23 1 22 2 21 3 20 4 18 5 19 6 17 8 13 9 14 10 15 12 16 13
REMARK SMILES IDX 12 14 10 15 9 16 11 18 8 19 1 20 2 21 3 22 4 23 5 24 7 25
REMARK SMILES IDX 6 26 24 27 25 28 26 29 27 30 28 31 29 33 30 34 31 35 83 36
REMARK SMILES IDX 32 37 82 38 33 39 34 40 35 41 76 42 36 43 81 44 75 45 77 46
REMARK SMILES IDX 37 47 80 48 74 49 73 50 38 52 64 53 47 54 63 55 48 56 51 57
REMARK SMILES IDX 62 58 78 59 49 60 50 61 61 63 79 64 52 65 39 66 40 67 45 68
REMARK SMILES IDX 41 69 42 70 44 71 46 72 43 73 65 74 66 75 71 76 67 77 68 78
REMARK SMILES IDX 70 79 72 80 69 81 53 82 54 83 59 84 55 85 56 86 58 87 60 88
REMARK SMILES IDX 57 89
REMARK H PARENT 20 7 13 11 9 17 27 32 77 51 51 62
REMARK Flexibility Score: inf
ROOT
ATOM      1  C   UNL A   1      32.409  29.784  27.254  1.00  0.00     0.002 C 
ENDROOT
BRANCH   1   2
ATOM      2  C   UNL A   1      33.860  29.378  26.940  1.00  0.00     0.021 C 
BRANCH   2   3
ATOM      3  C   UNL A   1      34.014  27.947  26.429  1.00  0.00     0.116 C 
BRANCH   3   4
ATOM      4  N   UNL A   1      33.788  27.930  25.011  1.00  0.00    -0.351 N 
ATOM      5  C   UNL A   1      32.782  27.335  24.336  1.00  0.00     0.278 C 
ATOM      6  O   UNL A   1      33.104  26.795  23.274  1.00  0.00    -0.268 OA
ATOM      7  H   UNL A   1      34.448  28.414  24.464  1.00  0.00     0.163 HD
BRANCH   5   8
ATOM      8  C   UNL A   1      31.315  27.426  24.785  1.00  0.00     0.274 C 
ATOM      9  N   UNL A   1      30.755  26.194  25.420  1.00  0.00    -0.317 N 
ATOM     10  C   UNL A   1      29.757  25.680  24.457  1.00  0.00     0.263 C 
ATOM     11  H   UNL A   1      30.410  26.489  26.333  1.00  0.00     0.349 HD
ATOM     12  C   UNL A   1      29.314  26.819  23.556  1.00  0.00     0.068 C 
ATOM     13  C   UNL A   1      30.293  27.948  23.787  1.00  0.00     0.081 C 
BRANCH   9  14
ATOM     14  C   UNL A   1      31.680  25.074  25.767  1.00  0.00     0.364 C 
BRANCH  14  15
ATOM     15  C   UNL A   1      31.207  23.688  26.249  1.00  0.00     0.275 C 
ATOM     16  N   UNL A   1      31.396  22.481  25.668  1.00  0.00    -0.348 N 
ATOM     17  H   UNL A   1      30.920  21.740  26.108  1.00  0.00     0.163 HD
ATOM     18  O   UNL A   1      30.468  23.659  27.251  1.00  0.00    -0.268 OA
BRANCH  16  19
ATOM     19  C   UNL A   1      32.173  22.090  24.516  1.00  0.00     0.085 C 
ATOM     20  C   UNL A   1      33.912  23.006  22.947  1.00  0.00     0.010 C 
ATOM     21  C   UNL A   1      33.500  22.869  24.425  1.00  0.00     0.011 C 
ATOM     22  C   UNL A   1      34.570  22.221  25.330  1.00  0.00    -0.009 C 
ATOM     23  C   UNL A   1      35.903  22.968  25.303  1.00  0.00     0.008 C 
ATOM     24  C   UNL A   1      34.758  20.737  25.001  1.00  0.00     0.004 C 
ATOM     25  C   UNL A   1      32.317  20.565  24.396  1.00  0.00     0.025 C 
ATOM     26  C   UNL A   1      33.456  19.974  25.213  1.00  0.00     0.002 C 
ENDBRANCH  16  19
ENDBRANCH  14  15
ENDBRANCH   9  14
ENDBRANCH   5   8
ENDBRANCH   3   4
ENDBRANCH   2   3
ENDBRANCH   1   2
BRANCH   1  27
ATOM     27  C   UNL A   1      31.744  30.719  26.236  1.00  0.00     0.002 C 
BRANCH  27  28
ATOM     28  C   UNL A   1      31.446  32.128  26.743  1.00  0.00     0.021 C 
BRANCH  28  29
ATOM     29  C   UNL A   1      32.666  32.868  27.249  1.00  0.00     0.116 C 
BRANCH  29  30
ATOM     30  N   UNL A   1      32.358  34.228  27.645  1.00  0.00    -0.352 N 
ATOM     31  C   UNL A   1      32.965  34.951  28.640  1.00  0.00     0.251 C 
ATOM     32  H   UNL A   1      31.639  34.680  27.149  1.00  0.00     0.163 HD
ATOM     33  O   UNL A   1      32.528  36.036  29.002  1.00  0.00    -0.269 OA
BRANCH  31  34
ATOM     34  C   UNL A   1      34.149  34.359  29.286  1.00  0.00     0.039 A 
ATOM     35  C   UNL A   1      33.970  33.520  30.384  1.00  0.00     0.014 A 
ATOM     36  C   UNL A   1      35.418  34.567  28.734  1.00  0.00     0.014 A 
ATOM     37  C   UNL A   1      35.074  32.862  30.921  1.00  0.00     0.010 A 
ATOM     38  C   UNL A   1      36.499  33.842  29.215  1.00  0.00     0.010 A 
ATOM     39  C   UNL A   1      36.341  33.005  30.329  1.00  0.00    -0.014 A 
BRANCH  39  40
ATOM     40  C   UNL A   1      37.527  32.328  30.898  1.00  0.00     0.031 A 
ATOM     41  C   UNL A   1      38.134  32.844  32.171  1.00  0.00     0.074 A 
ATOM     42  C   UNL A   1      38.080  31.285  30.251  1.00  0.00     0.049 A 
ATOM     43  N   UNL A   1      39.188  32.420  32.819  1.00  0.00    -0.248 NA
ATOM     44  C   UNL A   1      37.486  34.018  32.781  1.00  0.00     0.031 C 
ATOM     45  C   UNL A   1      37.603  30.723  28.986  1.00  0.00     0.029 A 
ATOM     46  N   UNL A   1      39.164  30.511  30.572  1.00  0.00    -0.354 N 
ATOM     47  C   UNL A   1      39.335  33.281  33.898  1.00  0.00     0.074 A 
ATOM     48  C   UNL A   1      38.309  34.291  33.780  1.00  0.00     0.031 C 
ATOM     49  C   UNL A   1      38.369  29.671  28.658  1.00  0.00     0.029 A 
ATOM     50  C   UNL A   1      39.409  29.507  29.669  1.00  0.00     0.049 A 
ATOM     51  H   UNL A   1      39.715  30.661  31.374  1.00  0.00     0.167 HD
ATOM     52  C   UNL A   1      40.228  33.218  34.914  1.00  0.00     0.037 A 
ATOM     53  C   UNL A   1      40.365  28.560  29.662  1.00  0.00     0.037 A 
ATOM     54  C   UNL A   1      41.232  32.195  35.033  1.00  0.00     0.049 A 
ATOM     55  C   UNL A   1      41.357  28.516  30.792  1.00  0.00     0.074 A 
ATOM     56  C   UNL A   1      42.148  32.000  36.051  1.00  0.00     0.029 A 
ATOM     57  N   UNL A   1      41.452  31.196  34.096  1.00  0.00    -0.354 N 
ATOM     58  N   UNL A   1      41.446  29.293  31.845  1.00  0.00    -0.248 NA
ATOM     59  C   UNL A   1      42.378  27.462  30.732  1.00  0.00     0.031 C 
ATOM     60  C   UNL A   1      42.959  30.913  35.703  1.00  0.00     0.029 A 
ATOM     61  C   UNL A   1      42.511  30.397  34.496  1.00  0.00     0.049 A 
ATOM     62  H   UNL A   1      40.934  31.073  33.268  1.00  0.00     0.167 HD
ATOM     63  C   UNL A   1      42.511  28.805  32.590  1.00  0.00     0.074 A 
ATOM     64  C   UNL A   1      43.031  27.659  31.870  1.00  0.00     0.031 C 
ATOM     65  C   UNL A   1      43.012  29.260  33.764  1.00  0.00     0.037 A 
BRANCH  52  66
ATOM     66  C   UNL A   1      40.153  34.294  35.959  1.00  0.00     0.057 A 
ATOM     67  C   UNL A   1      40.889  35.483  35.858  1.00  0.00     0.134 A 
ATOM     68  C   UNL A   1      39.342  34.135  37.091  1.00  0.00     0.134 A 
ATOM     69  F   UNL A   1      41.697  35.694  34.807  1.00  0.00    -0.206 F 
ATOM     70  C   UNL A   1      40.857  36.452  36.861  1.00  0.00     0.040 A 
ATOM     71  C   UNL A   1      39.277  35.112  38.086  1.00  0.00     0.040 A 
ATOM     72  F   UNL A   1      38.607  33.025  37.252  1.00  0.00    -0.206 F 
ATOM     73  C   UNL A   1      40.045  36.269  37.978  1.00  0.00     0.006 A 
ENDBRANCH  52  66
BRANCH  53  74
ATOM     74  C   UNL A   1      40.398  27.551  28.574  1.00  0.00     0.057 A 
ATOM     75  C   UNL A   1      39.654  26.369  28.667  1.00  0.00     0.134 A 
ATOM     76  C   UNL A   1      41.150  27.750  27.410  1.00  0.00     0.134 A 
ATOM     77  F   UNL A   1      38.925  26.117  29.764  1.00  0.00    -0.206 F 
ATOM     78  C   UNL A   1      39.665  25.415  27.648  1.00  0.00     0.040 A 
ATOM     79  C   UNL A   1      41.152  26.815  26.374  1.00  0.00     0.040 A 
ATOM     80  F   UNL A   1      41.877  28.867  27.255  1.00  0.00    -0.206 F 
ATOM     81  C   UNL A   1      40.411  25.641  26.494  1.00  0.00     0.006 A 
ENDBRANCH  53  74
BRANCH  65  82
ATOM     82  C   UNL A   1      44.160  28.499  34.362  1.00  0.00     0.057 A 
ATOM     83  C   UNL A   1      43.962  27.395  35.200  1.00  0.00     0.134 A 
ATOM     84  C   UNL A   1      45.481  28.853  34.058  1.00  0.00     0.134 A 
ATOM     85  F   UNL A   1      42.722  27.013  35.539  1.00  0.00    -0.206 F 
ATOM     86  C   UNL A   1      45.038  26.682  35.731  1.00  0.00     0.040 A 
ATOM     87  C   UNL A   1      46.564  28.130  34.560  1.00  0.00     0.040 A 
ATOM     88  F   UNL A   1      45.740  29.895  33.253  1.00  0.00    -0.206 F 
ATOM     89  C   UNL A   1      46.343  27.046  35.405  1.00  0.00     0.006 A 
ENDBRANCH  65  82
ENDBRANCH  39  40
ENDBRANCH  31  34
ENDBRANCH  29  30
ENDBRANCH  28  29
ENDBRANCH  27  28
ENDBRANCH   1  27
TORSDOF 16
ENDMDL
