MODEL 1
REMARK VINA RESULT:     -11.4      0.000      0.000
REMARK SMILES NS(=O)(=O)c1ccc(C#Cc2cc(Cl)cc3c2O[C@H](C(F)(F)F)C(C(=O)NCCCCCCNC(=O)c2ccc(-c4c5nc(c(-c6c(F)cccc6F)c6ccc([nH]6)c(-c6c(F)cccc6F)c6nc(c(-c7c(F)cccc7F)c7ccc4[nH]7)C=C6)C=C5)cc2)=C3)cc1
REMARK SMILES IDX 29 1 28 2 27 3 25 4 26 5 24 7 11 8 12 9 17 10 13 11 16 12
REMARK SMILES IDX 18 13 14 14 15 15 91 16 19 17 10 18 9 19 8 20 5 21 6 22
REMARK SMILES IDX 93 23 7 24 92 25 2 26 3 27 4 28 1 29 20 32 21 33 22 34 23 35
REMARK SMILES IDX 30 36 31 37 32 38 33 39 34 40 35 41 36 43 37 44 38 45 90 46
REMARK SMILES IDX 39 47 89 48 40 49 41 50 42 51 83 52 43 53 88 54 82 55 84 56
REMARK SMILES IDX 44 57 87 58 81 59 80 60 45 62 71 63 54 64 70 65 55 66 58 67
REMARK SMILES IDX 69 68 85 69 56 70 57 71 68 73 86 74 59 75 46 76 47 77 52 78
REMARK SMILES IDX 48 79 49 80 51 81 53 82 50 83 72 84 73 85 78 86 74 87 75 88
REMARK SMILES IDX 77 89 79 90 76 91 60 92 61 93 66 94 62 95 63 96 65 97 67 98
REMARK SMILES IDX 64 99
REMARK H PARENT 27 6 1 30 1 31 34 42 84 61 58 72
REMARK Flexibility Score: inf
ROOT
ATOM      1  C   UNL A   1      40.929  28.464  28.023  1.00  0.00     0.021 C 
ENDROOT
BRANCH   1   2
ATOM      2  C   UNL A   1      40.975  28.453  29.545  1.00  0.00     0.116 C 
BRANCH   2   3
ATOM      3  N   UNL A   1      41.135  29.789  30.090  1.00  0.00    -0.352 N 
ATOM      4  C   UNL A   1      40.382  30.909  30.207  1.00  0.00     0.251 C 
ATOM      5  O   UNL A   1      40.917  31.854  30.792  1.00  0.00    -0.270 OA
ATOM      6  H   UNL A   1      42.031  29.915  30.478  1.00  0.00     0.163 HD
BRANCH   4   7
ATOM      7  C   UNL A   1      38.990  31.055  29.685  1.00  0.00     0.067 C 
ATOM      8  C   UNL A   1      35.165  31.563  28.017  1.00  0.00     0.069 A 
ATOM      9  C   UNL A   1      34.611  32.838  27.929  1.00  0.00     0.041 A 
ATOM     10  C   UNL A   1      36.454  31.408  28.545  1.00  0.00     0.143 A 
ATOM     11  C   UNL A   1      35.347  33.940  28.368  1.00  0.00     0.043 A 
ATOM     12  C   UNL A   1      37.195  32.510  28.985  1.00  0.00     0.020 A 
ATOM     13  O   UNL A   1      36.962  30.143  28.555  1.00  0.00    -0.474 OA
ATOM     14  Cl  UNL A   1      34.667  35.516  28.248  1.00  0.00    -0.084 Cl
ATOM     15  C   UNL A   1      36.633  33.784  28.894  1.00  0.00     0.032 A 
ATOM     16  C   UNL A   1      38.552  32.312  29.486  1.00  0.00     0.025 C 
ATOM     17  C   UNL A   1      38.091  29.888  29.416  1.00  0.00     0.314 C 
BRANCH   8  18
ATOM     18  C   UNL A   1      34.432  30.419  27.561  1.00  0.00    -0.058 C 
ATOM     19  C   UNL A   1      33.773  29.466  27.231  1.00  0.00    -0.062 C 
BRANCH  19  20
ATOM     20  C   UNL A   1      33.015  28.300  26.899  1.00  0.00     0.025 A 
ATOM     21  C   UNL A   1      31.624  25.930  26.414  1.00  0.00     0.082 A 
ATOM     22  C   UNL A   1      32.951  26.053  25.993  1.00  0.00     0.023 A 
ATOM     23  C   UNL A   1      30.973  27.002  27.034  1.00  0.00     0.023 A 
ATOM     24  C   UNL A   1      33.642  27.241  26.236  1.00  0.00     0.018 A 
ATOM     25  C   UNL A   1      31.674  28.187  27.280  1.00  0.00     0.018 A 
BRANCH  21  26
ATOM     26  S   UNL A   1      30.738  24.416  26.197  1.00  0.00     0.238 S 
ATOM     27  O   UNL A   1      31.103  23.509  27.259  1.00  0.00    -0.207 OA
ATOM     28  O   UNL A   1      30.798  24.056  24.800  1.00  0.00    -0.207 OA
BRANCH  26  29
ATOM     29  N   UNL A   1      29.131  24.816  26.495  1.00  0.00    -0.225 NA
ATOM     30  H   UNL A   1      28.792  24.286  27.299  1.00  0.00     0.137 HD
ATOM     31  H   UNL A   1      28.566  24.590  25.677  1.00  0.00     0.137 HD
ENDBRANCH  26  29
ENDBRANCH  21  26
ENDBRANCH  19  20
ENDBRANCH   8  18
BRANCH  17  32
ATOM     32  C   UNL A   1      37.594  29.208  30.704  1.00  0.00     0.429 C 
ATOM     33  F   UNL A   1      36.239  29.126  30.705  1.00  0.00    -0.167 F 
ATOM     34  F   UNL A   1      38.049  27.939  30.838  1.00  0.00    -0.167 F 
ATOM     35  F   UNL A   1      37.965  29.877  31.818  1.00  0.00    -0.167 F 
ENDBRANCH  17  32
ENDBRANCH   4   7
ENDBRANCH   2   3
ENDBRANCH   1   2
BRANCH   1  36
ATOM     36  C   UNL A   1      40.257  27.220  27.440  1.00  0.00     0.002 C 
BRANCH  36  37
ATOM     37  C   UNL A   1      39.832  26.174  28.481  1.00  0.00     0.002 C 
BRANCH  37  38
ATOM     38  C   UNL A   1      39.387  24.832  27.900  1.00  0.00     0.021 C 
BRANCH  38  39
ATOM     39  C   UNL A   1      39.824  24.614  26.458  1.00  0.00     0.116 C 
BRANCH  39  40
ATOM     40  N   UNL A   1      40.747  23.495  26.329  1.00  0.00    -0.352 N 
ATOM     41  C   UNL A   1      42.114  23.506  26.189  1.00  0.00     0.251 C 
ATOM     42  H   UNL A   1      40.333  22.602  26.344  1.00  0.00     0.163 HD
ATOM     43  O   UNL A   1      42.721  22.485  25.887  1.00  0.00    -0.269 OA
BRANCH  41  44
ATOM     44  C   UNL A   1      42.838  24.779  26.375  1.00  0.00     0.039 A 
ATOM     45  C   UNL A   1      43.093  25.598  25.276  1.00  0.00     0.014 A 
ATOM     46  C   UNL A   1      43.329  25.116  27.638  1.00  0.00     0.014 A 
ATOM     47  C   UNL A   1      44.020  26.622  25.394  1.00  0.00     0.010 A 
ATOM     48  C   UNL A   1      44.165  26.227  27.776  1.00  0.00     0.010 A 
ATOM     49  C   UNL A   1      44.575  26.947  26.643  1.00  0.00    -0.014 A 
BRANCH  49  50
ATOM     50  C   UNL A   1      45.607  28.017  26.712  1.00  0.00     0.031 A 
ATOM     51  C   UNL A   1      47.072  27.693  26.564  1.00  0.00     0.074 A 
ATOM     52  C   UNL A   1      45.212  29.300  26.818  1.00  0.00     0.049 A 
ATOM     53  N   UNL A   1      48.098  28.508  26.524  1.00  0.00    -0.248 NA
ATOM     54  C   UNL A   1      47.436  26.273  26.453  1.00  0.00     0.031 C 
ATOM     55  C   UNL A   1      43.824  29.749  26.958  1.00  0.00     0.029 A 
ATOM     56  N   UNL A   1      45.934  30.465  26.786  1.00  0.00    -0.354 N 
ATOM     57  C   UNL A   1      49.223  27.701  26.393  1.00  0.00     0.074 A 
ATOM     58  C   UNL A   1      48.759  26.331  26.415  1.00  0.00     0.031 C 
ATOM     59  C   UNL A   1      43.789  31.088  26.932  1.00  0.00     0.029 A 
ATOM     60  C   UNL A   1      45.155  31.594  26.853  1.00  0.00     0.049 A 
ATOM     61  H   UNL A   1      46.917  30.490  26.722  1.00  0.00     0.167 HD
ATOM     62  C   UNL A   1      50.521  28.064  26.248  1.00  0.00     0.037 A 
ATOM     63  C   UNL A   1      45.500  32.894  26.864  1.00  0.00     0.037 A 
ATOM     64  C   UNL A   1      50.986  29.429  26.233  1.00  0.00     0.049 A 
ATOM     65  C   UNL A   1      46.954  33.262  26.783  1.00  0.00     0.074 A 
ATOM     66  C   UNL A   1      52.279  29.900  26.083  1.00  0.00     0.029 A 
ATOM     67  N   UNL A   1      50.173  30.543  26.382  1.00  0.00    -0.354 N 
ATOM     68  N   UNL A   1      48.002  32.488  26.634  1.00  0.00    -0.248 NA
ATOM     69  C   UNL A   1      47.271  34.693  26.873  1.00  0.00     0.031 C 
ATOM     70  C   UNL A   1      52.257  31.294  26.210  1.00  0.00     0.029 A 
ATOM     71  C   UNL A   1      50.940  31.698  26.364  1.00  0.00     0.049 A 
ATOM     72  H   UNL A   1      49.193  30.517  26.487  1.00  0.00     0.167 HD
ATOM     73  C   UNL A   1      49.098  33.339  26.587  1.00  0.00     0.074 A 
ATOM     74  C   UNL A   1      48.580  34.689  26.686  1.00  0.00     0.031 C 
ATOM     75  C   UNL A   1      50.416  33.036  26.479  1.00  0.00     0.037 A 
BRANCH  62  76
ATOM     76  C   UNL A   1      51.537  26.960  26.127  1.00  0.00     0.057 A 
ATOM     77  C   UNL A   1      51.790  26.356  24.888  1.00  0.00     0.134 A 
ATOM     78  C   UNL A   1      52.261  26.486  27.230  1.00  0.00     0.134 A 
ATOM     79  F   UNL A   1      51.127  26.749  23.789  1.00  0.00    -0.206 F 
ATOM     80  C   UNL A   1      52.727  25.330  24.750  1.00  0.00     0.040 A 
ATOM     81  C   UNL A   1      53.224  25.484  27.099  1.00  0.00     0.040 A 
ATOM     82  F   UNL A   1      52.078  27.026  28.445  1.00  0.00    -0.206 F 
ATOM     83  C   UNL A   1      53.457  24.900  25.856  1.00  0.00     0.006 A 
ENDBRANCH  62  76
BRANCH  63  84
ATOM     84  C   UNL A   1      44.459  33.948  26.981  1.00  0.00     0.057 A 
ATOM     85  C   UNL A   1      44.124  34.506  28.220  1.00  0.00     0.134 A 
ATOM     86  C   UNL A   1      43.814  34.459  25.849  1.00  0.00     0.134 A 
ATOM     87  F   UNL A   1      44.698  34.056  29.346  1.00  0.00    -0.206 F 
ATOM     88  C   UNL A   1      43.188  35.535  28.331  1.00  0.00     0.040 A 
ATOM     89  C   UNL A   1      42.904  35.513  25.940  1.00  0.00     0.040 A 
ATOM     90  F   UNL A   1      44.103  33.978  24.631  1.00  0.00    -0.206 F 
ATOM     91  C   UNL A   1      42.587  36.053  27.185  1.00  0.00     0.006 A 
ENDBRANCH  63  84
BRANCH  75  92
ATOM     92  C   UNL A   1      51.374  34.195  26.429  1.00  0.00     0.057 A 
ATOM     93  C   UNL A   1      51.922  34.720  27.605  1.00  0.00     0.134 A 
ATOM     94  C   UNL A   1      51.785  34.769  25.217  1.00  0.00     0.134 A 
ATOM     95  F   UNL A   1      51.564  34.232  28.803  1.00  0.00    -0.206 F 
ATOM     96  C   UNL A   1      52.856  35.757  27.578  1.00  0.00     0.040 A 
ATOM     97  C   UNL A   1      52.748  35.778  25.175  1.00  0.00     0.040 A 
ATOM     98  F   UNL A   1      51.308  34.309  24.049  1.00  0.00    -0.206 F 
ATOM     99  C   UNL A   1      53.286  36.276  26.360  1.00  0.00     0.006 A 
ENDBRANCH  75  92
ENDBRANCH  49  50
ENDBRANCH  41  44
ENDBRANCH  39  40
ENDBRANCH  38  39
ENDBRANCH  37  38
ENDBRANCH  36  37
ENDBRANCH   1  36
TORSDOF 18
ENDMDL
MODEL 2
REMARK VINA RESULT:     -11.4      0.471      5.783
REMARK SMILES NS(=O)(=O)c1ccc(C#Cc2cc(Cl)cc3c2O[C@H](C(F)(F)F)C(C(=O)NCCCCCCNC(=O)c2ccc(-c4c5nc(c(-c6c(F)cccc6F)c6ccc([nH]6)c(-c6c(F)cccc6F)c6nc(c(-c7c(F)cccc7F)c7ccc4[nH]7)C=C6)C=C5)cc2)=C3)cc1
REMARK SMILES IDX 29 1 28 2 27 3 25 4 26 5 24 7 11 8 12 9 17 10 13 11 16 12
REMARK SMILES IDX 18 13 14 14 15 15 91 16 19 17 10 18 9 19 8 20 5 21 6 22
REMARK SMILES IDX 93 23 7 24 92 25 2 26 3 27 4 28 1 29 20 32 21 33 22 34 23 35
REMARK SMILES IDX 30 36 31 37 32 38 33 39 34 40 35 41 36 43 37 44 38 45 90 46
REMARK SMILES IDX 39 47 89 48 40 49 41 50 42 51 83 52 43 53 88 54 82 55 84 56
REMARK SMILES IDX 44 57 87 58 81 59 80 60 45 62 71 63 54 64 70 65 55 66 58 67
REMARK SMILES IDX 69 68 85 69 56 70 57 71 68 73 86 74 59 75 46 76 47 77 52 78
REMARK SMILES IDX 48 79 49 80 51 81 53 82 50 83 72 84 73 85 78 86 74 87 75 88
REMARK SMILES IDX 77 89 79 90 76 91 60 92 61 93 66 94 62 95 63 96 65 97 67 98
REMARK SMILES IDX 64 99
REMARK H PARENT 27 6 1 30 1 31 34 42 84 61 58 72
REMARK Flexibility Score: inf
ROOT
ATOM      1  C   UNL A   1      40.875  28.721  27.966  1.00  0.00     0.021 C 
ENDROOT
BRANCH   1   2
ATOM      2  C   UNL A   1      41.046  28.642  29.477  1.00  0.00     0.116 C 
BRANCH   2   3
ATOM      3  N   UNL A   1      41.140  29.960  30.080  1.00  0.00    -0.352 N 
ATOM      4  C   UNL A   1      40.339  31.041  30.229  1.00  0.00     0.251 C 
ATOM      5  O   UNL A   1      40.823  31.983  30.862  1.00  0.00    -0.270 OA
ATOM      6  H   UNL A   1      42.023  30.107  30.489  1.00  0.00     0.163 HD
BRANCH   4   7
ATOM      7  C   UNL A   1      38.951  31.151  29.687  1.00  0.00     0.067 C 
ATOM      8  C   UNL A   1      35.137  31.564  27.968  1.00  0.00     0.069 A 
ATOM      9  C   UNL A   1      34.540  32.821  27.898  1.00  0.00     0.041 A 
ATOM     10  C   UNL A   1      36.422  31.442  28.514  1.00  0.00     0.143 A 
ATOM     11  C   UNL A   1      35.231  33.938  28.373  1.00  0.00     0.043 A 
ATOM     12  C   UNL A   1      37.117  32.558  28.989  1.00  0.00     0.020 A 
ATOM     13  O   UNL A   1      36.973  30.195  28.504  1.00  0.00    -0.474 OA
ATOM     14  Cl  UNL A   1      34.498  35.492  28.276  1.00  0.00    -0.084 Cl
ATOM     15  C   UNL A   1      36.513  33.814  28.917  1.00  0.00     0.032 A 
ATOM     16  C   UNL A   1      38.472  32.396  29.507  1.00  0.00     0.025 C 
ATOM     17  C   UNL A   1      38.096  29.960  29.378  1.00  0.00     0.314 C 
BRANCH   8  18
ATOM     18  C   UNL A   1      34.451  30.406  27.476  1.00  0.00    -0.058 C 
ATOM     19  C   UNL A   1      33.831  29.438  27.115  1.00  0.00    -0.062 C 
BRANCH  19  20
ATOM     20  C   UNL A   1      33.121  28.252  26.746  1.00  0.00     0.025 A 
ATOM     21  C   UNL A   1      31.818  25.848  26.193  1.00  0.00     0.082 A 
ATOM     22  C   UNL A   1      33.160  26.006  25.837  1.00  0.00     0.023 A 
ATOM     23  C   UNL A   1      31.110  26.901  26.782  1.00  0.00     0.023 A 
ATOM     24  C   UNL A   1      33.807  27.212  26.113  1.00  0.00     0.018 A 
ATOM     25  C   UNL A   1      31.766  28.104  27.062  1.00  0.00     0.018 A 
BRANCH  21  26
ATOM     26  S   UNL A   1      30.983  24.312  25.932  1.00  0.00     0.238 S 
ATOM     27  O   UNL A   1      29.872  24.228  26.850  1.00  0.00    -0.207 OA
ATOM     28  O   UNL A   1      31.978  23.274  25.805  1.00  0.00    -0.207 OA
BRANCH  26  29
ATOM     29  N   UNL A   1      30.283  24.460  24.409  1.00  0.00    -0.225 NA
ATOM     30  H   UNL A   1      29.665  23.665  24.240  1.00  0.00     0.137 HD
ATOM     31  H   UNL A   1      31.014  24.478  23.699  1.00  0.00     0.137 HD
ENDBRANCH  26  29
ENDBRANCH  21  26
ENDBRANCH  19  20
ENDBRANCH   8  18
BRANCH  17  32
ATOM     32  C   UNL A   1      37.604  29.235  30.644  1.00  0.00     0.429 C 
ATOM     33  F   UNL A   1      38.170  28.005  30.734  1.00  0.00    -0.167 F 
ATOM     34  F   UNL A   1      37.931  29.887  31.785  1.00  0.00    -0.167 F 
ATOM     35  F   UNL A   1      36.262  29.072  30.656  1.00  0.00    -0.167 F 
ENDBRANCH  17  32
ENDBRANCH   4   7
ENDBRANCH   2   3
ENDBRANCH   1   2
BRANCH   1  36
ATOM     36  C   UNL A   1      40.225  27.469  27.376  1.00  0.00     0.002 C 
BRANCH  36  37
ATOM     37  C   UNL A   1      39.870  26.387  28.405  1.00  0.00     0.002 C 
BRANCH  37  38
ATOM     38  C   UNL A   1      39.199  25.142  27.823  1.00  0.00     0.021 C 
BRANCH  38  39
ATOM     39  C   UNL A   1      39.699  24.769  26.435  1.00  0.00     0.116 C 
BRANCH  39  40
ATOM     40  N   UNL A   1      40.595  23.621  26.466  1.00  0.00    -0.352 N 
ATOM     41  C   UNL A   1      41.965  23.583  26.360  1.00  0.00     0.251 C 
ATOM     42  H   UNL A   1      40.157  22.747  26.579  1.00  0.00     0.163 HD
ATOM     43  O   UNL A   1      42.551  22.519  26.199  1.00  0.00    -0.269 OA
BRANCH  41  44
ATOM     44  C   UNL A   1      42.717  24.852  26.407  1.00  0.00     0.039 A 
ATOM     45  C   UNL A   1      42.915  25.586  25.238  1.00  0.00     0.014 A 
ATOM     46  C   UNL A   1      43.291  25.270  27.610  1.00  0.00     0.014 A 
ATOM     47  C   UNL A   1      43.861  26.598  25.224  1.00  0.00     0.010 A 
ATOM     48  C   UNL A   1      44.151  26.372  27.614  1.00  0.00     0.010 A 
ATOM     49  C   UNL A   1      44.499  27.001  26.409  1.00  0.00    -0.014 A 
BRANCH  49  50
ATOM     50  C   UNL A   1      45.549  28.053  26.336  1.00  0.00     0.031 A 
ATOM     51  C   UNL A   1      45.207  29.506  26.547  1.00  0.00     0.074 A 
ATOM     52  C   UNL A   1      46.833  27.684  26.170  1.00  0.00     0.049 A 
ATOM     53  N   UNL A   1      46.006  30.544  26.592  1.00  0.00    -0.248 NA
ATOM     54  C   UNL A   1      43.786  29.841  26.722  1.00  0.00     0.031 C 
ATOM     55  C   UNL A   1      47.299  26.310  25.966  1.00  0.00     0.029 A 
ATOM     56  N   UNL A   1      47.987  28.425  26.184  1.00  0.00    -0.354 N 
ATOM     57  C   UNL A   1      45.186  31.650  26.791  1.00  0.00     0.074 A 
ATOM     58  C   UNL A   1      43.824  31.163  26.803  1.00  0.00     0.031 C 
ATOM     59  C   UNL A   1      48.639  26.298  25.941  1.00  0.00     0.029 A 
ATOM     60  C   UNL A   1      49.125  27.668  26.049  1.00  0.00     0.049 A 
ATOM     61  H   UNL A   1      47.998  29.405  26.281  1.00  0.00     0.167 HD
ATOM     62  C   UNL A   1      45.534  32.949  26.967  1.00  0.00     0.037 A 
ATOM     63  C   UNL A   1      50.418  28.036  26.002  1.00  0.00     0.037 A 
ATOM     64  C   UNL A   1      46.890  33.436  26.948  1.00  0.00     0.049 A 
ATOM     65  C   UNL A   1      50.765  29.493  26.120  1.00  0.00     0.074 A 
ATOM     66  C   UNL A   1      47.345  34.731  27.125  1.00  0.00     0.029 A 
ATOM     67  N   UNL A   1      48.011  32.648  26.731  1.00  0.00    -0.354 N 
ATOM     68  N   UNL A   1      49.980  30.522  26.333  1.00  0.00    -0.248 NA
ATOM     69  C   UNL A   1      52.186  29.837  25.989  1.00  0.00     0.031 C 
ATOM     70  C   UNL A   1      48.734  34.738  26.947  1.00  0.00     0.029 A 
ATOM     71  C   UNL A   1      49.153  33.435  26.733  1.00  0.00     0.049 A 
ATOM     72  H   UNL A   1      47.997  31.673  26.594  1.00  0.00     0.167 HD
ATOM     73  C   UNL A   1      50.815  31.630  26.387  1.00  0.00     0.074 A 
ATOM     74  C   UNL A   1      52.168  31.140  26.221  1.00  0.00     0.031 C 
ATOM     75  C   UNL A   1      50.494  32.938  26.551  1.00  0.00     0.037 A 
BRANCH  62  76
ATOM     76  C   UNL A   1      44.418  33.940  27.164  1.00  0.00     0.057 A 
ATOM     77  C   UNL A   1      43.808  34.557  26.063  1.00  0.00     0.134 A 
ATOM     78  C   UNL A   1      43.949  34.293  28.437  1.00  0.00     0.134 A 
ATOM     79  F   UNL A   1      44.212  34.278  24.814  1.00  0.00    -0.206 F 
ATOM     80  C   UNL A   1      42.772  35.480  26.221  1.00  0.00     0.040 A 
ATOM     81  C   UNL A   1      42.891  35.188  28.606  1.00  0.00     0.040 A 
ATOM     82  F   UNL A   1      44.478  33.733  29.536  1.00  0.00    -0.206 F 
ATOM     83  C   UNL A   1      42.302  35.788  27.495  1.00  0.00     0.006 A 
ENDBRANCH  62  76
BRANCH  63  84
ATOM     84  C   UNL A   1      51.483  27.019  25.812  1.00  0.00     0.057 A 
ATOM     85  C   UNL A   1      52.024  26.318  26.897  1.00  0.00     0.134 A 
ATOM     86  C   UNL A   1      51.948  26.684  24.534  1.00  0.00     0.134 A 
ATOM     87  F   UNL A   1      51.630  26.595  28.148  1.00  0.00    -0.206 F 
ATOM     88  C   UNL A   1      52.985  25.322  26.720  1.00  0.00     0.040 A 
ATOM     89  C   UNL A   1      52.880  25.665  24.339  1.00  0.00     0.040 A 
ATOM     90  F   UNL A   1      51.457  27.308  23.452  1.00  0.00    -0.206 F 
ATOM     91  C   UNL A   1      53.403  24.982  25.435  1.00  0.00     0.006 A 
ENDBRANCH  63  84
BRANCH  75  92
ATOM     92  C   UNL A   1      51.638  33.914  26.592  1.00  0.00     0.057 A 
ATOM     93  C   UNL A   1      52.075  34.553  25.425  1.00  0.00     0.134 A 
ATOM     94  C   UNL A   1      52.287  34.252  27.789  1.00  0.00     0.134 A 
ATOM     95  F   UNL A   1      51.512  34.269  24.240  1.00  0.00    -0.206 F 
ATOM     96  C   UNL A   1      53.096  35.504  25.449  1.00  0.00     0.040 A 
ATOM     97  C   UNL A   1      53.281  35.230  27.832  1.00  0.00     0.040 A 
ATOM     98  F   UNL A   1      51.915  33.686  28.948  1.00  0.00    -0.206 F 
ATOM     99  C   UNL A   1      53.689  35.859  26.657  1.00  0.00     0.006 A 
ENDBRANCH  75  92
ENDBRANCH  49  50
ENDBRANCH  41  44
ENDBRANCH  39  40
ENDBRANCH  38  39
ENDBRANCH  37  38
ENDBRANCH  36  37
ENDBRANCH   1  36
TORSDOF 18
ENDMDL
MODEL 3
REMARK VINA RESULT:     -11.4      3.640      7.521
REMARK SMILES NS(=O)(=O)c1ccc(C#Cc2cc(Cl)cc3c2O[C@H](C(F)(F)F)C(C(=O)NCCCCCCNC(=O)c2ccc(-c4c5nc(c(-c6c(F)cccc6F)c6ccc([nH]6)c(-c6c(F)cccc6F)c6nc(c(-c7c(F)cccc7F)c7ccc4[nH]7)C=C6)C=C5)cc2)=C3)cc1
REMARK SMILES IDX 29 1 28 2 27 3 25 4 26 5 24 7 11 8 12 9 17 10 13 11 16 12
REMARK SMILES IDX 18 13 14 14 15 15 91 16 19 17 10 18 9 19 8 20 5 21 6 22
REMARK SMILES IDX 93 23 7 24 92 25 2 26 3 27 4 28 1 29 20 32 21 33 22 34 23 35
REMARK SMILES IDX 30 36 31 37 32 38 33 39 34 40 35 41 36 43 37 44 38 45 90 46
REMARK SMILES IDX 39 47 89 48 40 49 41 50 42 51 83 52 43 53 88 54 82 55 84 56
REMARK SMILES IDX 44 57 87 58 81 59 80 60 45 62 71 63 54 64 70 65 55 66 58 67
REMARK SMILES IDX 69 68 85 69 56 70 57 71 68 73 86 74 59 75 46 76 47 77 52 78
REMARK SMILES IDX 48 79 49 80 51 81 53 82 50 83 72 84 73 85 78 86 74 87 75 88
REMARK SMILES IDX 77 89 79 90 76 91 60 92 61 93 66 94 62 95 63 96 65 97 67 98
REMARK SMILES IDX 64 99
REMARK H PARENT 27 6 1 30 1 31 34 42 84 61 58 72
REMARK Flexibility Score: inf
ROOT
ATOM      1  C   UNL A   1      34.126  22.433  23.875  1.00  0.00     0.021 C 
ENDROOT
BRANCH   1   2
ATOM      2  C   UNL A   1      32.722  22.820  23.432  1.00  0.00     0.116 C 
BRANCH   2   3
ATOM      3  N   UNL A   1      31.772  22.754  24.528  1.00  0.00    -0.352 N 
ATOM      4  C   UNL A   1      31.034  23.627  25.254  1.00  0.00     0.251 C 
ATOM      5  O   UNL A   1      30.302  23.125  26.111  1.00  0.00    -0.270 OA
ATOM      6  H   UNL A   1      31.626  21.827  24.824  1.00  0.00     0.163 HD
BRANCH   4   7
ATOM      7  C   UNL A   1      31.058  25.110  25.080  1.00  0.00     0.067 C 
ATOM      8  C   UNL A   1      30.898  29.290  24.655  1.00  0.00     0.069 A 
ATOM      9  C   UNL A   1      30.227  29.851  23.570  1.00  0.00     0.041 A 
ATOM     10  C   UNL A   1      30.919  27.896  24.805  1.00  0.00     0.143 A 
ATOM     11  C   UNL A   1      29.586  29.017  22.652  1.00  0.00     0.043 A 
ATOM     12  C   UNL A   1      30.276  27.059  23.888  1.00  0.00     0.020 A 
ATOM     13  O   UNL A   1      31.545  27.411  25.914  1.00  0.00    -0.474 OA
ATOM     14  Cl  UNL A   1      28.747  29.711  21.320  1.00  0.00    -0.084 Cl
ATOM     15  C   UNL A   1      29.607  27.628  22.803  1.00  0.00     0.032 A 
ATOM     16  C   UNL A   1      30.281  25.615  24.105  1.00  0.00     0.025 C 
ATOM     17  C   UNL A   1      31.915  26.017  25.910  1.00  0.00     0.314 C 
BRANCH   8  18
ATOM     18  C   UNL A   1      31.553  30.126  25.616  1.00  0.00    -0.058 C 
ATOM     19  C   UNL A   1      32.141  30.856  26.373  1.00  0.00    -0.062 C 
BRANCH  19  20
ATOM     20  C   UNL A   1      32.901  31.681  27.261  1.00  0.00     0.025 A 
ATOM     21  C   UNL A   1      34.228  33.270  29.132  1.00  0.00     0.082 A 
ATOM     22  C   UNL A   1      33.201  33.820  28.361  1.00  0.00     0.023 A 
ATOM     23  C   UNL A   1      34.627  31.943  28.941  1.00  0.00     0.023 A 
ATOM     24  C   UNL A   1      32.541  33.022  27.424  1.00  0.00     0.018 A 
ATOM     25  C   UNL A   1      33.957  31.148  28.006  1.00  0.00     0.018 A 
BRANCH  21  26
ATOM     26  S   UNL A   1      35.036  34.222  30.383  1.00  0.00     0.238 S 
ATOM     27  O   UNL A   1      36.395  34.474  29.966  1.00  0.00    -0.207 OA
ATOM     28  O   UNL A   1      34.700  33.655  31.668  1.00  0.00    -0.207 OA
BRANCH  26  29
ATOM     29  N   UNL A   1      34.278  35.723  30.335  1.00  0.00    -0.225 NA
ATOM     30  H   UNL A   1      34.010  35.938  29.374  1.00  0.00     0.137 HD
ATOM     31  H   UNL A   1      34.917  36.439  30.678  1.00  0.00     0.137 HD
ENDBRANCH  26  29
ENDBRANCH  21  26
ENDBRANCH  19  20
ENDBRANCH   8  18
BRANCH  17  32
ATOM     32  C   UNL A   1      33.412  25.897  25.572  1.00  0.00     0.429 C 
ATOM     33  F   UNL A   1      33.593  25.865  24.228  1.00  0.00    -0.167 F 
ATOM     34  F   UNL A   1      34.140  26.945  26.026  1.00  0.00    -0.167 F 
ATOM     35  F   UNL A   1      33.971  24.780  26.088  1.00  0.00    -0.167 F 
ENDBRANCH  17  32
ENDBRANCH   4   7
ENDBRANCH   2   3
ENDBRANCH   1   2
BRANCH   1  36
ATOM     36  C   UNL A   1      35.216  23.230  23.159  1.00  0.00     0.002 C 
BRANCH  36  37
ATOM     37  C   UNL A   1      36.651  22.791  23.485  1.00  0.00     0.002 C 
BRANCH  37  38
ATOM     38  C   UNL A   1      36.766  21.424  24.160  1.00  0.00     0.021 C 
BRANCH  38  39
ATOM     39  C   UNL A   1      37.416  21.472  25.535  1.00  0.00     0.116 C 
BRANCH  39  40
ATOM     40  N   UNL A   1      38.454  20.462  25.687  1.00  0.00    -0.352 N 
ATOM     41  C   UNL A   1      39.743  20.599  26.143  1.00  0.00     0.251 C 
ATOM     42  H   UNL A   1      38.195  19.549  25.424  1.00  0.00     0.163 HD
ATOM     43  O   UNL A   1      40.553  19.688  26.015  1.00  0.00    -0.269 OA
BRANCH  41  44
ATOM     44  C   UNL A   1      40.146  21.878  26.760  1.00  0.00     0.039 A 
ATOM     45  C   UNL A   1      39.506  23.060  26.387  1.00  0.00     0.014 A 
ATOM     46  C   UNL A   1      41.217  21.905  27.655  1.00  0.00     0.014 A 
ATOM     47  C   UNL A   1      40.077  24.276  26.729  1.00  0.00     0.010 A 
ATOM     48  C   UNL A   1      41.712  23.135  28.097  1.00  0.00     0.010 A 
ATOM     49  C   UNL A   1      41.192  24.332  27.581  1.00  0.00    -0.014 A 
BRANCH  49  50
ATOM     50  C   UNL A   1      41.804  25.657  27.875  1.00  0.00     0.031 A 
ATOM     51  C   UNL A   1      43.140  26.040  27.292  1.00  0.00     0.074 A 
ATOM     52  C   UNL A   1      41.106  26.553  28.598  1.00  0.00     0.049 A 
ATOM     53  N   UNL A   1      43.784  27.178  27.382  1.00  0.00    -0.248 NA
ATOM     54  C   UNL A   1      43.850  25.015  26.512  1.00  0.00     0.031 C 
ATOM     55  C   UNL A   1      39.797  26.310  29.210  1.00  0.00     0.029 A 
ATOM     56  N   UNL A   1      41.380  27.860  28.910  1.00  0.00    -0.354 N 
ATOM     57  C   UNL A   1      44.973  27.002  26.683  1.00  0.00     0.074 A 
ATOM     58  C   UNL A   1      44.986  25.631  26.219  1.00  0.00     0.031 C 
ATOM     59  C   UNL A   1      39.353  27.447  29.765  1.00  0.00     0.029 A 
ATOM     60  C   UNL A   1      40.376  28.475  29.617  1.00  0.00     0.049 A 
ATOM     61  H   UNL A   1      42.216  28.313  28.654  1.00  0.00     0.167 HD
ATOM     62  C   UNL A   1      45.956  27.901  26.431  1.00  0.00     0.037 A 
ATOM     63  C   UNL A   1      40.292  29.726  30.105  1.00  0.00     0.037 A 
ATOM     64  C   UNL A   1      45.948  29.265  26.897  1.00  0.00     0.049 A 
ATOM     65  C   UNL A   1      41.434  30.675  29.877  1.00  0.00     0.074 A 
ATOM     66  C   UNL A   1      46.892  30.255  26.688  1.00  0.00     0.029 A 
ATOM     67  N   UNL A   1      44.948  29.828  27.676  1.00  0.00    -0.354 N 
ATOM     68  N   UNL A   1      42.538  30.500  29.192  1.00  0.00    -0.248 NA
ATOM     69  C   UNL A   1      41.313  32.000  30.497  1.00  0.00     0.031 C 
ATOM     70  C   UNL A   1      46.498  31.396  27.397  1.00  0.00     0.029 A 
ATOM     71  C   UNL A   1      45.270  31.142  27.986  1.00  0.00     0.049 A 
ATOM     72  H   UNL A   1      44.130  29.363  27.968  1.00  0.00     0.167 HD
ATOM     73  C   UNL A   1      43.230  31.700  29.277  1.00  0.00     0.074 A 
ATOM     74  C   UNL A   1      42.402  32.604  30.048  1.00  0.00     0.031 C 
ATOM     75  C   UNL A   1      44.445  32.027  28.769  1.00  0.00     0.037 A 
BRANCH  62  76
ATOM     76  C   UNL A   1      47.142  27.422  25.635  1.00  0.00     0.057 A 
ATOM     77  C   UNL A   1      48.216  26.786  26.269  1.00  0.00     0.134 A 
ATOM     78  C   UNL A   1      47.227  27.594  24.247  1.00  0.00     0.134 A 
ATOM     79  F   UNL A   1      48.210  26.596  27.598  1.00  0.00    -0.206 F 
ATOM     80  C   UNL A   1      49.327  26.333  25.554  1.00  0.00     0.040 A 
ATOM     81  C   UNL A   1      48.317  27.116  23.515  1.00  0.00     0.040 A 
ATOM     82  F   UNL A   1      46.229  28.185  23.571  1.00  0.00    -0.206 F 
ATOM     83  C   UNL A   1      49.373  26.486  24.170  1.00  0.00     0.006 A 
ENDBRANCH  62  76
BRANCH  63  84
ATOM     84  C   UNL A   1      39.098  30.152  30.879  1.00  0.00     0.057 A 
ATOM     85  C   UNL A   1      37.927  30.575  30.238  1.00  0.00     0.134 A 
ATOM     86  C   UNL A   1      39.081  30.096  32.278  1.00  0.00     0.134 A 
ATOM     87  F   UNL A   1      37.878  30.661  28.900  1.00  0.00    -0.206 F 
ATOM     88  C   UNL A   1      36.783  30.924  30.957  1.00  0.00     0.040 A 
ATOM     89  C   UNL A   1      37.933  30.406  33.008  1.00  0.00     0.040 A 
ATOM     90  F   UNL A   1      40.166  29.683  32.951  1.00  0.00    -0.206 F 
ATOM     91  C   UNL A   1      36.780  30.823  32.347  1.00  0.00     0.006 A 
ENDBRANCH  63  84
BRANCH  75  92
ATOM     92  C   UNL A   1      44.922  33.434  29.011  1.00  0.00     0.057 A 
ATOM     93  C   UNL A   1      44.560  34.471  28.143  1.00  0.00     0.134 A 
ATOM     94  C   UNL A   1      45.710  33.772  30.122  1.00  0.00     0.134 A 
ATOM     95  F   UNL A   1      43.821  34.220  27.050  1.00  0.00    -0.206 F 
ATOM     96  C   UNL A   1      44.943  35.792  28.379  1.00  0.00     0.040 A 
ATOM     97  C   UNL A   1      46.065  35.095  30.391  1.00  0.00     0.040 A 
ATOM     98  F   UNL A   1      46.086  32.831  31.002  1.00  0.00    -0.206 F 
ATOM     99  C   UNL A   1      45.682  36.109  29.515  1.00  0.00     0.006 A 
ENDBRANCH  75  92
ENDBRANCH  49  50
ENDBRANCH  41  44
ENDBRANCH  39  40
ENDBRANCH  38  39
ENDBRANCH  37  38
ENDBRANCH  36  37
ENDBRANCH   1  36
TORSDOF 18
ENDMDL
