MODEL 1
REMARK VINA RESULT:     -13.1      0.000      0.000
REMARK SMILES NC(=O)COc1ccc(/C=C2\SC(=S)N(CCC(=O)NCCCCCCNC(=O)c3ccc(-c4c5nc(c(-c6c(F)cccc6F)c6ccc([nH]6)c(-c6c(F)cccc6F)c6nc(c(-c7c(F)cccc7F)c7ccc4[nH]7)C=C6)C=C5)cc3)C2=O)cc1
REMARK SMILES IDX 21 1 20 2 18 3 19 4 17 6 16 7 15 8 10 9 11 10 12 11 84 12
REMARK SMILES IDX 13 13 85 14 14 15 9 16 6 17 7 18 87 19 8 20 86 21 5 22 4 23
REMARK SMILES IDX 2 24 1 25 3 28 22 29 23 30 24 31 25 32 26 33 27 34 28 35
REMARK SMILES IDX 29 37 30 38 31 39 83 40 32 41 82 42 33 43 34 44 35 45 76 46
REMARK SMILES IDX 36 47 81 48 75 49 77 50 37 51 80 52 74 53 73 54 38 56 64 57
REMARK SMILES IDX 47 58 63 59 48 60 51 61 62 62 78 63 49 64 50 65 61 67 79 68
REMARK SMILES IDX 52 69 39 70 40 71 45 72 41 73 42 74 44 75 46 76 43 77 65 78
REMARK SMILES IDX 66 79 71 80 67 81 68 82 70 83 72 84 69 85 53 86 54 87 59 88
REMARK SMILES IDX 55 89 56 90 58 91 60 92 57 93
REMARK H PARENT 20 5 1 26 1 27 27 36 77 55 51 66
REMARK Flexibility Score: inf
ROOT
ATOM      1  C   UNL A   1      44.472  20.608  24.351  1.00  0.00     0.116 C 
ENDROOT
BRANCH   1   2
ATOM      2  N   UNL A   1      43.605  19.543  24.860  1.00  0.00    -0.356 N 
ATOM      3  C   UNL A   1      42.566  19.563  25.746  1.00  0.00     0.221 C 
ATOM      4  O   UNL A   1      42.073  18.489  26.096  1.00  0.00    -0.275 OA
ATOM      5  H   UNL A   1      43.809  18.650  24.498  1.00  0.00     0.163 HD
BRANCH   3   6
ATOM      6  C   UNL A   1      41.996  20.862  26.265  1.00  0.00     0.122 C 
BRANCH   6   7
ATOM      7  C   UNL A   1      40.661  20.665  26.992  1.00  0.00     0.137 C 
BRANCH   7   8
ATOM      8  N   UNL A   1      39.549  21.219  26.231  1.00  0.00    -0.292 N 
ATOM      9  C   UNL A   1      36.329  20.376  25.106  1.00  0.00     0.029 C 
ATOM     10  C   UNL A   1      37.486  21.076  25.129  1.00  0.00     0.081 C 
ATOM     11  S   UNL A   1      37.768  22.767  25.313  1.00  0.00    -0.054 SA
ATOM     12  C   UNL A   1      38.765  20.380  25.438  1.00  0.00     0.266 C 
ATOM     13  C   UNL A   1      39.178  22.544  26.293  1.00  0.00     0.148 C 
ATOM     14  O   UNL A   1      39.008  19.230  25.112  1.00  0.00    -0.268 OA
ATOM     15  S   UNL A   1      39.850  23.800  27.160  1.00  0.00    -0.052 S 
BRANCH   9  16
ATOM     16  C   UNL A   1      34.976  20.928  25.348  1.00  0.00    -0.024 A 
ATOM     17  C   UNL A   1      32.022  22.964  26.062  1.00  0.00     0.120 A 
ATOM     18  C   UNL A   1      32.086  21.991  24.520  1.00  0.00     0.047 A 
ATOM     19  C   UNL A   1      33.306  22.767  27.250  1.00  0.00     0.047 A 
ATOM     20  C   UNL A   1      33.614  21.018  24.107  1.00  0.00     0.012 A 
ATOM     21  C   UNL A   1      34.778  21.869  26.874  1.00  0.00     0.012 A 
BRANCH  17  22
ATOM     22  O   UNL A   1      31.339  24.366  26.299  1.00  0.00    -0.484 OA
BRANCH  22  23
ATOM     23  C   UNL A   1      29.839  25.636  25.835  1.00  0.00     0.329 C 
BRANCH  23  24
ATOM     24  C   UNL A   1      29.269  26.296  24.323  1.00  0.00     0.255 C 
ATOM     25  N   UNL A   1      27.939  26.294  23.995  1.00  0.00    -0.367 N 
ATOM     26  H   UNL A   1      27.644  26.673  23.135  1.00  0.00     0.159 HD
ATOM     27  H   UNL A   1      27.279  25.914  24.618  1.00  0.00     0.159 HD
ATOM     28  O   UNL A   1      30.055  26.782  23.507  1.00  0.00    -0.271 OA
ENDBRANCH  23  24
ENDBRANCH  22  23
ENDBRANCH  17  22
ENDBRANCH   9  16
ENDBRANCH   7   8
ENDBRANCH   6   7
ENDBRANCH   3   6
ENDBRANCH   1   2
BRANCH   1  29
ATOM     29  C   UNL A   1      45.652  20.867  25.293  1.00  0.00     0.021 C 
BRANCH  29  30
ATOM     30  C   UNL A   1      46.039  22.326  25.582  1.00  0.00     0.002 C 
BRANCH  30  31
ATOM     31  C   UNL A   1      45.725  22.889  27.021  1.00  0.00     0.002 C 
BRANCH  31  32
ATOM     32  C   UNL A   1      45.094  24.525  27.488  1.00  0.00     0.021 C 
BRANCH  32  33
ATOM     33  C   UNL A   1      45.215  26.503  26.533  1.00  0.00     0.116 C 
BRANCH  33  34
ATOM     34  N   UNL A   1      44.369  27.150  25.257  1.00  0.00    -0.352 N 
ATOM     35  C   UNL A   1      43.151  27.783  25.259  1.00  0.00     0.251 C 
ATOM     36  H   UNL A   1      44.802  27.068  24.376  1.00  0.00     0.163 HD
ATOM     37  O   UNL A   1      42.447  27.956  24.280  1.00  0.00    -0.269 OA
BRANCH  35  38
ATOM     38  C   UNL A   1      42.715  28.113  26.596  1.00  0.00     0.039 A 
ATOM     39  C   UNL A   1      42.059  26.884  27.764  1.00  0.00     0.014 A 
ATOM     40  C   UNL A   1      43.243  29.740  27.209  1.00  0.00     0.014 A 
ATOM     41  C   UNL A   1      41.864  27.351  29.498  1.00  0.00     0.010 A 
ATOM     42  C   UNL A   1      43.086  30.131  28.956  1.00  0.00     0.010 A 
ATOM     43  C   UNL A   1      42.373  28.972  30.093  1.00  0.00    -0.014 A 
BRANCH  43  44
ATOM     44  C   UNL A   1      41.923  29.576  31.409  1.00  0.00     0.031 A 
ATOM     45  C   UNL A   1      40.579  30.295  31.540  1.00  0.00     0.074 A 
ATOM     46  C   UNL A   1      42.720  29.589  32.485  1.00  0.00     0.049 A 
ATOM     47  N   UNL A   1      40.212  31.303  32.300  1.00  0.00    -0.248 NA
ATOM     48  C   UNL A   1      39.506  29.862  30.651  1.00  0.00     0.031 C 
ATOM     49  C   UNL A   1      44.027  28.954  32.586  1.00  0.00     0.029 A 
ATOM     50  N   UNL A   1      42.533  30.190  33.707  1.00  0.00    -0.354 N 
ATOM     51  C   UNL A   1      38.952  31.704  31.835  1.00  0.00     0.074 A 
ATOM     52  C   UNL A   1      38.654  30.873  30.700  1.00  0.00     0.031 C 
ATOM     53  C   UNL A   1      44.524  29.183  33.814  1.00  0.00     0.029 A 
ATOM     54  C   UNL A   1      43.589  30.024  34.566  1.00  0.00     0.049 A 
ATOM     55  H   UNL A   1      41.720  30.692  33.943  1.00  0.00     0.167 HD
ATOM     56  C   UNL A   1      38.065  32.596  32.346  1.00  0.00     0.037 A 
ATOM     57  C   UNL A   1      43.779  30.508  35.807  1.00  0.00     0.037 A 
ATOM     58  C   UNL A   1      38.188  33.143  33.671  1.00  0.00     0.049 A 
ATOM     59  C   UNL A   1      42.726  31.383  36.442  1.00  0.00     0.074 A 
ATOM     60  C   UNL A   1      37.293  33.937  34.368  1.00  0.00     0.029 A 
ATOM     61  N   UNL A   1      39.227  32.852  34.538  1.00  0.00    -0.354 N 
ATOM     62  N   UNL A   1      41.612  31.851  35.929  1.00  0.00    -0.248 NA
ATOM     63  C   UNL A   1      42.955  31.787  37.837  1.00  0.00     0.031 C 
ATOM     64  C   UNL A   1      37.793  34.123  35.661  1.00  0.00     0.029 A 
ATOM     65  C   UNL A   1      38.982  33.421  35.774  1.00  0.00     0.049 A 
ATOM     66  H   UNL A   1      40.023  32.320  34.308  1.00  0.00     0.167 HD
ATOM     67  C   UNL A   1      40.996  32.574  36.946  1.00  0.00     0.074 A 
ATOM     68  C   UNL A   1      41.853  32.470  38.109  1.00  0.00     0.031 C 
ATOM     69  C   UNL A   1      39.832  33.269  36.924  1.00  0.00     0.037 A 
BRANCH  56  70
ATOM     70  C   UNL A   1      36.856  32.999  31.525  1.00  0.00     0.057 A 
ATOM     71  C   UNL A   1      36.914  33.876  30.432  1.00  0.00     0.134 A 
ATOM     72  C   UNL A   1      35.597  32.447  31.820  1.00  0.00     0.134 A 
ATOM     73  F   UNL A   1      38.078  34.427  30.062  1.00  0.00    -0.206 F 
ATOM     74  C   UNL A   1      35.767  34.246  29.719  1.00  0.00     0.040 A 
ATOM     75  C   UNL A   1      34.453  32.768  31.081  1.00  0.00     0.040 A 
ATOM     76  F   UNL A   1      35.457  31.569  32.825  1.00  0.00    -0.206 F 
ATOM     77  C   UNL A   1      34.533  33.687  30.038  1.00  0.00     0.006 A 
ENDBRANCH  56  70
BRANCH  57  78
ATOM     78  C   UNL A   1      45.000  30.121  36.555  1.00  0.00     0.057 A 
ATOM     79  C   UNL A   1      46.125  30.955  36.567  1.00  0.00     0.134 A 
ATOM     80  C   UNL A   1      45.064  28.941  37.304  1.00  0.00     0.134 A 
ATOM     81  F   UNL A   1      46.128  32.092  35.855  1.00  0.00    -0.206 F 
ATOM     82  C   UNL A   1      47.273  30.624  37.285  1.00  0.00     0.040 A 
ATOM     83  C   UNL A   1      46.196  28.611  38.050  1.00  0.00     0.040 A 
ATOM     84  F   UNL A   1      44.014  28.108  37.344  1.00  0.00    -0.206 F 
ATOM     85  C   UNL A   1      47.307  29.453  38.038  1.00  0.00     0.006 A 
ENDBRANCH  57  78
BRANCH  69  86
ATOM     86  C   UNL A   1      39.384  33.916  38.201  1.00  0.00     0.057 A 
ATOM     87  C   UNL A   1      38.557  33.250  39.113  1.00  0.00     0.134 A 
ATOM     88  C   UNL A   1      39.833  35.197  38.547  1.00  0.00     0.134 A 
ATOM     89  F   UNL A   1      38.091  32.023  38.838  1.00  0.00    -0.206 F 
ATOM     90  C   UNL A   1      38.169  33.848  40.313  1.00  0.00     0.040 A 
ATOM     91  C   UNL A   1      39.474  35.794  39.756  1.00  0.00     0.040 A 
ATOM     92  F   UNL A   1      40.644  35.881  37.724  1.00  0.00    -0.206 F 
ATOM     93  C   UNL A   1      38.633  35.121  40.640  1.00  0.00     0.006 A 
ENDBRANCH  69  86
ENDBRANCH  43  44
ENDBRANCH  35  38
ENDBRANCH  33  34
ENDBRANCH  32  33
ENDBRANCH  31  32
ENDBRANCH  30  31
ENDBRANCH  29  30
ENDBRANCH   1  29
TORSDOF 19
ENDMDL
MODEL 2
REMARK VINA RESULT:     -13.1      4.618      9.573
REMARK SMILES NC(=O)COc1ccc(/C=C2\SC(=S)N(CCC(=O)NCCCCCCNC(=O)c3ccc(-c4c5nc(c(-c6c(F)cccc6F)c6ccc([nH]6)c(-c6c(F)cccc6F)c6nc(c(-c7c(F)cccc7F)c7ccc4[nH]7)C=C6)C=C5)cc3)C2=O)cc1
REMARK SMILES IDX 21 1 20 2 18 3 19 4 17 6 16 7 15 8 10 9 11 10 12 11 84 12
REMARK SMILES IDX 13 13 85 14 14 15 9 16 6 17 7 18 87 19 8 20 86 21 5 22 4 23
REMARK SMILES IDX 2 24 1 25 3 28 22 29 23 30 24 31 25 32 26 33 27 34 28 35
REMARK SMILES IDX 29 37 30 38 31 39 83 40 32 41 82 42 33 43 34 44 35 45 76 46
REMARK SMILES IDX 36 47 81 48 75 49 77 50 37 51 80 52 74 53 73 54 38 56 64 57
REMARK SMILES IDX 47 58 63 59 48 60 51 61 62 62 78 63 49 64 50 65 61 67 79 68
REMARK SMILES IDX 52 69 39 70 40 71 45 72 41 73 42 74 44 75 46 76 43 77 65 78
REMARK SMILES IDX 66 79 71 80 67 81 68 82 70 83 72 84 69 85 53 86 54 87 59 88
REMARK SMILES IDX 55 89 56 90 58 91 60 92 57 93
REMARK H PARENT 20 5 1 26 1 27 27 36 77 55 51 66
REMARK Flexibility Score: inf
ROOT
ATOM      1  C   UNL A   1      46.676  26.834  30.601  1.00  0.00     0.116 C 
ENDROOT
BRANCH   1   2
ATOM      2  N   UNL A   1      45.732  27.926  30.355  1.00  0.00    -0.356 N 
ATOM      3  C   UNL A   1      45.917  29.272  30.208  1.00  0.00     0.221 C 
ATOM      4  O   UNL A   1      44.922  29.995  30.126  1.00  0.00    -0.275 OA
ATOM      5  H   UNL A   1      44.793  27.639  30.283  1.00  0.00     0.163 HD
BRANCH   3   6
ATOM      6  C   UNL A   1      47.300  29.872  30.108  1.00  0.00     0.122 C 
BRANCH   6   7
ATOM      7  C   UNL A   1      47.505  30.652  28.805  1.00  0.00     0.137 C 
BRANCH   7   8
ATOM      8  N   UNL A   1      47.245  29.822  27.636  1.00  0.00    -0.292 N 
ATOM      9  C   UNL A   1      47.257  26.458  26.624  1.00  0.00     0.029 C 
ATOM     10  C   UNL A   1      47.268  27.800  26.453  1.00  0.00     0.081 C 
ATOM     11  S   UNL A   1      46.216  28.823  25.550  1.00  0.00    -0.054 SA
ATOM     12  C   UNL A   1      47.991  28.662  27.428  1.00  0.00     0.266 C 
ATOM     13  C   UNL A   1      46.241  30.090  26.730  1.00  0.00     0.148 C 
ATOM     14  O   UNL A   1      49.016  28.329  28.000  1.00  0.00    -0.268 OA
ATOM     15  S   UNL A   1      45.144  31.344  26.694  1.00  0.00    -0.052 S 
BRANCH   9  16
ATOM     16  C   UNL A   1      46.217  25.530  26.123  1.00  0.00    -0.024 A 
ATOM     17  C   UNL A   1      44.172  22.685  25.071  1.00  0.00     0.120 A 
ATOM     18  C   UNL A   1      43.485  23.891  26.254  1.00  0.00     0.047 A 
ATOM     19  C   UNL A   1      45.736  23.009  24.333  1.00  0.00     0.047 A 
ATOM     20  C   UNL A   1      44.541  25.295  26.859  1.00  0.00     0.012 A 
ATOM     21  C   UNL A   1      46.770  24.321  24.905  1.00  0.00     0.012 A 
BRANCH  17  22
ATOM     22  O   UNL A   1      43.904  21.131  25.001  1.00  0.00    -0.484 OA
BRANCH  22  23
ATOM     23  C   UNL A   1      42.745  19.572  25.550  1.00  0.00     0.329 C 
BRANCH  23  24
ATOM     24  C   UNL A   1      42.838  18.433  26.870  1.00  0.00     0.255 C 
ATOM     25  N   UNL A   1      42.385  18.751  28.124  1.00  0.00    -0.367 N 
ATOM     26  H   UNL A   1      42.449  18.091  28.852  1.00  0.00     0.159 HD
ATOM     27  H   UNL A   1      41.996  19.639  28.297  1.00  0.00     0.159 HD
ATOM     28  O   UNL A   1      43.317  17.310  26.708  1.00  0.00    -0.271 OA
ENDBRANCH  23  24
ENDBRANCH  22  23
ENDBRANCH  17  22
ENDBRANCH   9  16
ENDBRANCH   7   8
ENDBRANCH   6   7
ENDBRANCH   3   6
ENDBRANCH   1   2
BRANCH   1  29
ATOM     29  C   UNL A   1      46.136  25.499  30.079  1.00  0.00     0.021 C 
BRANCH  29  30
ATOM     30  C   UNL A   1      44.734  25.060  30.529  1.00  0.00     0.002 C 
BRANCH  30  31
ATOM     31  C   UNL A   1      44.631  24.186  31.836  1.00  0.00     0.002 C 
BRANCH  31  32
ATOM     32  C   UNL A   1      45.198  24.580  33.515  1.00  0.00     0.021 C 
BRANCH  32  33
ATOM     33  C   UNL A   1      47.026  24.080  34.630  1.00  0.00     0.116 C 
BRANCH  33  34
ATOM     34  N   UNL A   1      47.726  24.801  35.956  1.00  0.00    -0.352 N 
ATOM     35  C   UNL A   1      47.515  26.056  36.469  1.00  0.00     0.251 C 
ATOM     36  H   UNL A   1      48.383  24.250  36.440  1.00  0.00     0.163 HD
ATOM     37  O   UNL A   1      48.263  26.636  37.236  1.00  0.00    -0.269 OA
BRANCH  35  38
ATOM     38  C   UNL A   1      46.355  26.691  35.888  1.00  0.00     0.039 A 
ATOM     39  C   UNL A   1      44.705  26.641  36.648  1.00  0.00     0.014 A 
ATOM     40  C   UNL A   1      46.702  27.901  34.578  1.00  0.00     0.014 A 
ATOM     41  C   UNL A   1      43.421  27.740  36.011  1.00  0.00     0.010 A 
ATOM     42  C   UNL A   1      45.406  29.015  34.024  1.00  0.00     0.010 A 
ATOM     43  C   UNL A   1      43.769  28.923  34.699  1.00  0.00    -0.014 A 
BRANCH  43  44
ATOM     44  C   UNL A   1      42.704  29.608  33.866  1.00  0.00     0.031 A 
ATOM     45  C   UNL A   1      41.992  30.869  34.358  1.00  0.00     0.074 A 
ATOM     46  C   UNL A   1      42.274  29.087  32.709  1.00  0.00     0.049 A 
ATOM     47  N   UNL A   1      40.769  31.304  34.151  1.00  0.00    -0.248 NA
ATOM     48  C   UNL A   1      42.737  31.741  35.262  1.00  0.00     0.031 C 
ATOM     49  C   UNL A   1      42.819  27.909  32.050  1.00  0.00     0.029 A 
ATOM     50  N   UNL A   1      41.247  29.497  31.891  1.00  0.00    -0.354 N 
ATOM     51  C   UNL A   1      40.581  32.376  35.036  1.00  0.00     0.074 A 
ATOM     52  C   UNL A   1      41.787  32.478  35.812  1.00  0.00     0.031 C 
ATOM     53  C   UNL A   1      42.132  27.693  30.914  1.00  0.00     0.029 A 
ATOM     54  C   UNL A   1      41.067  28.692  30.796  1.00  0.00     0.049 A 
ATOM     55  H   UNL A   1      40.695  30.290  32.075  1.00  0.00     0.167 HD
ATOM     56  C   UNL A   1      39.562  33.267  35.139  1.00  0.00     0.037 A 
ATOM     57  C   UNL A   1      40.139  28.752  29.822  1.00  0.00     0.037 A 
ATOM     58  C   UNL A   1      38.545  33.406  34.131  1.00  0.00     0.049 A 
ATOM     59  C   UNL A   1      39.089  29.834  29.851  1.00  0.00     0.074 A 
ATOM     60  C   UNL A   1      37.544  34.357  34.034  1.00  0.00     0.029 A 
ATOM     61  N   UNL A   1      38.476  32.631  32.985  1.00  0.00    -0.354 N 
ATOM     62  N   UNL A   1      38.857  30.746  30.766  1.00  0.00    -0.248 NA
ATOM     63  C   UNL A   1      38.176  29.900  28.699  1.00  0.00     0.031 C 
ATOM     64  C   UNL A   1      36.871  34.159  32.823  1.00  0.00     0.029 A 
ATOM     65  C   UNL A   1      37.474  33.103  32.159  1.00  0.00     0.049 A 
ATOM     66  H   UNL A   1      39.055  31.859  32.789  1.00  0.00     0.167 HD
ATOM     67  C   UNL A   1      37.798  31.511  30.286  1.00  0.00     0.074 A 
ATOM     68  C   UNL A   1      37.443  30.964  28.992  1.00  0.00     0.031 C 
ATOM     69  C   UNL A   1      37.167  32.565  30.861  1.00  0.00     0.037 A 
BRANCH  56  70
ATOM     70  C   UNL A   1      39.510  34.205  36.329  1.00  0.00     0.057 A 
ATOM     71  C   UNL A   1      39.993  35.521  36.305  1.00  0.00     0.134 A 
ATOM     72  C   UNL A   1      38.911  33.780  37.527  1.00  0.00     0.134 A 
ATOM     73  F   UNL A   1      40.555  36.021  35.195  1.00  0.00    -0.206 F 
ATOM     74  C   UNL A   1      39.954  36.345  37.436  1.00  0.00     0.040 A 
ATOM     75  C   UNL A   1      38.817  34.612  38.648  1.00  0.00     0.040 A 
ATOM     76  F   UNL A   1      38.387  32.548  37.626  1.00  0.00    -0.206 F 
ATOM     77  C   UNL A   1      39.358  35.893  38.611  1.00  0.00     0.006 A 
ENDBRANCH  56  70
BRANCH  57  78
ATOM     78  C   UNL A   1      40.205  27.784  28.701  1.00  0.00     0.057 A 
ATOM     79  C   UNL A   1      40.923  28.086  27.537  1.00  0.00     0.134 A 
ATOM     80  C   UNL A   1      39.594  26.527  28.774  1.00  0.00     0.134 A 
ATOM     81  F   UNL A   1      41.516  29.282  27.403  1.00  0.00    -0.206 F 
ATOM     82  C   UNL A   1      41.021  27.180  26.482  1.00  0.00     0.040 A 
ATOM     83  C   UNL A   1      39.708  25.600  27.737  1.00  0.00     0.040 A 
ATOM     84  F   UNL A   1      38.904  26.173  29.868  1.00  0.00    -0.206 F 
ATOM     85  C   UNL A   1      40.421  25.928  26.584  1.00  0.00     0.006 A 
ENDBRANCH  57  78
BRANCH  69  86
ATOM     86  C   UNL A   1      36.077  33.234  30.077  1.00  0.00     0.057 A 
ATOM     87  C   UNL A   1      34.726  33.049  30.390  1.00  0.00     0.134 A 
ATOM     88  C   UNL A   1      36.388  34.119  29.037  1.00  0.00     0.134 A 
ATOM     89  F   UNL A   1      34.363  32.213  31.374  1.00  0.00    -0.206 F 
ATOM     90  C   UNL A   1      33.718  33.700  29.675  1.00  0.00     0.040 A 
ATOM     91  C   UNL A   1      35.391  34.795  28.332  1.00  0.00     0.040 A 
ATOM     92  F   UNL A   1      37.665  34.354  28.700  1.00  0.00    -0.206 F 
ATOM     93  C   UNL A   1      34.051  34.580  28.648  1.00  0.00     0.006 A 
ENDBRANCH  69  86
ENDBRANCH  43  44
ENDBRANCH  35  38
ENDBRANCH  33  34
ENDBRANCH  32  33
ENDBRANCH  31  32
ENDBRANCH  30  31
ENDBRANCH  29  30
ENDBRANCH   1  29
TORSDOF 19
ENDMDL
MODEL 3
REMARK VINA RESULT:     -13.0      5.439     11.656
REMARK SMILES NC(=O)COc1ccc(/C=C2\SC(=S)N(CCC(=O)NCCCCCCNC(=O)c3ccc(-c4c5nc(c(-c6c(F)cccc6F)c6ccc([nH]6)c(-c6c(F)cccc6F)c6nc(c(-c7c(F)cccc7F)c7ccc4[nH]7)C=C6)C=C5)cc3)C2=O)cc1
REMARK SMILES IDX 21 1 20 2 18 3 19 4 17 6 16 7 15 8 10 9 11 10 12 11 84 12
REMARK SMILES IDX 13 13 85 14 14 15 9 16 6 17 7 18 87 19 8 20 86 21 5 22 4 23
REMARK SMILES IDX 2 24 1 25 3 28 22 29 23 30 24 31 25 32 26 33 27 34 28 35
REMARK SMILES IDX 29 37 30 38 31 39 83 40 32 41 82 42 33 43 34 44 35 45 76 46
REMARK SMILES IDX 36 47 81 48 75 49 77 50 37 51 80 52 74 53 73 54 38 56 64 57
REMARK SMILES IDX 47 58 63 59 48 60 51 61 62 62 78 63 49 64 50 65 61 67 79 68
REMARK SMILES IDX 52 69 39 70 40 71 45 72 41 73 42 74 44 75 46 76 43 77 65 78
REMARK SMILES IDX 66 79 71 80 67 81 68 82 70 83 72 84 69 85 53 86 54 87 59 88
REMARK SMILES IDX 55 89 56 90 58 91 60 92 57 93
REMARK H PARENT 20 5 1 26 1 27 27 36 77 55 51 66
REMARK Flexibility Score: inf
ROOT
ATOM      1  C   UNL A   1      46.455  30.163  29.713  1.00  0.00     0.116 C 
ENDROOT
BRANCH   1   2
ATOM      2  N   UNL A   1      45.015  30.405  29.824  1.00  0.00    -0.356 N 
ATOM      3  C   UNL A   1      44.156  31.146  29.062  1.00  0.00     0.221 C 
ATOM      4  O   UNL A   1      42.994  31.279  29.450  1.00  0.00    -0.275 OA
ATOM      5  H   UNL A   1      44.588  29.952  30.587  1.00  0.00     0.163 HD
BRANCH   3   6
ATOM      6  C   UNL A   1      44.593  31.762  27.754  1.00  0.00     0.122 C 
BRANCH   6   7
ATOM      7  C   UNL A   1      45.148  33.180  27.933  1.00  0.00     0.137 C 
BRANCH   7   8
ATOM      8  N   UNL A   1      44.164  34.192  27.572  1.00  0.00    -0.292 N 
ATOM      9  C   UNL A   1      43.149  37.439  28.445  1.00  0.00     0.029 C 
ATOM     10  C   UNL A   1      43.022  36.213  27.890  1.00  0.00     0.081 C 
ATOM     11  S   UNL A   1      42.649  35.749  26.272  1.00  0.00    -0.054 SA
ATOM     12  C   UNL A   1      43.642  35.033  28.554  1.00  0.00     0.266 C 
ATOM     13  C   UNL A   1      43.750  34.412  26.277  1.00  0.00     0.148 C 
ATOM     14  O   UNL A   1      43.741  34.910  29.764  1.00  0.00    -0.268 OA
ATOM     15  S   UNL A   1      44.194  33.636  24.869  1.00  0.00    -0.052 S 
BRANCH   9  16
ATOM     16  C   UNL A   1      43.089  38.729  27.720  1.00  0.00    -0.024 A 
ATOM     17  C   UNL A   1      43.412  41.554  25.419  1.00  0.00     0.120 A 
ATOM     18  C   UNL A   1      41.750  40.963  25.880  1.00  0.00     0.047 A 
ATOM     19  C   UNL A   1      44.818  40.864  26.222  1.00  0.00     0.047 A 
ATOM     20  C   UNL A   1      41.572  39.479  26.983  1.00  0.00     0.012 A 
ATOM     21  C   UNL A   1      44.680  39.439  27.255  1.00  0.00     0.012 A 
BRANCH  17  22
ATOM     22  O   UNL A   1      43.879  42.162  24.039  1.00  0.00    -0.484 OA
BRANCH  22  23
ATOM     23  C   UNL A   1      45.388  42.478  22.736  1.00  0.00     0.329 C 
BRANCH  23  24
ATOM     24  C   UNL A   1      46.937  41.706  22.504  1.00  0.00     0.255 C 
ATOM     25  N   UNL A   1      47.245  40.520  23.117  1.00  0.00    -0.367 N 
ATOM     26  H   UNL A   1      48.126  40.105  22.970  1.00  0.00     0.159 HD
ATOM     27  H   UNL A   1      46.587  40.084  23.704  1.00  0.00     0.159 HD
ATOM     28  O   UNL A   1      47.796  42.212  21.781  1.00  0.00    -0.271 OA
ENDBRANCH  23  24
ENDBRANCH  22  23
ENDBRANCH  17  22
ENDBRANCH   9  16
ENDBRANCH   7   8
ENDBRANCH   6   7
ENDBRANCH   3   6
ENDBRANCH   1   2
BRANCH   1  29
ATOM     29  C   UNL A   1      46.746  28.794  29.090  1.00  0.00     0.021 C 
BRANCH  29  30
ATOM     30  C   UNL A   1      46.020  28.424  27.787  1.00  0.00     0.002 C 
BRANCH  30  31
ATOM     31  C   UNL A   1      46.579  27.197  26.968  1.00  0.00     0.002 C 
BRANCH  31  32
ATOM     32  C   UNL A   1      46.407  25.425  27.317  1.00  0.00     0.021 C 
BRANCH  32  33
ATOM     33  C   UNL A   1      46.405  23.642  26.029  1.00  0.00     0.116 C 
BRANCH  33  34
ATOM     34  N   UNL A   1      45.314  23.123  24.887  1.00  0.00    -0.352 N 
ATOM     35  C   UNL A   1      43.973  23.396  24.786  1.00  0.00     0.251 C 
ATOM     36  H   UNL A   1      45.682  22.538  24.185  1.00  0.00     0.163 HD
ATOM     37  O   UNL A   1      43.173  22.755  24.127  1.00  0.00    -0.269 OA
BRANCH  35  38
ATOM     38  C   UNL A   1      43.570  24.467  25.668  1.00  0.00     0.039 A 
ATOM     39  C   UNL A   1      43.543  26.214  25.170  1.00  0.00     0.014 A 
ATOM     40  C   UNL A   1      42.687  23.949  27.170  1.00  0.00     0.014 A 
ATOM     41  C   UNL A   1      42.712  27.410  26.238  1.00  0.00     0.010 A 
ATOM     42  C   UNL A   1      41.822  25.171  28.164  1.00  0.00     0.010 A 
ATOM     43  C   UNL A   1      41.856  26.891  27.734  1.00  0.00    -0.014 A 
BRANCH  43  44
ATOM     44  C   UNL A   1      41.459  27.829  28.857  1.00  0.00     0.031 A 
ATOM     45  C   UNL A   1      42.199  27.831  30.196  1.00  0.00     0.074 A 
ATOM     46  C   UNL A   1      40.386  28.626  28.761  1.00  0.00     0.049 A 
ATOM     47  N   UNL A   1      41.775  28.084  31.414  1.00  0.00    -0.248 NA
ATOM     48  C   UNL A   1      43.604  27.437  30.177  1.00  0.00     0.031 C 
ATOM     49  C   UNL A   1      39.551  28.793  27.580  1.00  0.00     0.029 A 
ATOM     50  N   UNL A   1      39.812  29.441  29.708  1.00  0.00    -0.354 N 
ATOM     51  C   UNL A   1      42.813  27.702  32.276  1.00  0.00     0.074 A 
ATOM     52  C   UNL A   1      43.849  27.151  31.445  1.00  0.00     0.031 C 
ATOM     53  C   UNL A   1      38.574  29.672  27.863  1.00  0.00     0.029 A 
ATOM     54  C   UNL A   1      38.689  30.089  29.262  1.00  0.00     0.049 A 
ATOM     55  H   UNL A   1      40.172  29.547  30.618  1.00  0.00     0.167 HD
ATOM     56  C   UNL A   1      42.960  27.879  33.614  1.00  0.00     0.037 A 
ATOM     57  C   UNL A   1      37.849  30.912  29.917  1.00  0.00     0.037 A 
ATOM     58  C   UNL A   1      42.115  28.756  34.380  1.00  0.00     0.049 A 
ATOM     59  C   UNL A   1      38.091  31.231  31.372  1.00  0.00     0.074 A 
ATOM     60  C   UNL A   1      42.239  29.141  35.704  1.00  0.00     0.029 A 
ATOM     61  N   UNL A   1      41.056  29.473  33.849  1.00  0.00    -0.354 N 
ATOM     62  N   UNL A   1      38.999  30.752  32.190  1.00  0.00    -0.248 NA
ATOM     63  C   UNL A   1      37.194  32.219  31.990  1.00  0.00     0.031 C 
ATOM     64  C   UNL A   1      41.253  30.096  35.973  1.00  0.00     0.029 A 
ATOM     65  C   UNL A   1      40.538  30.324  34.808  1.00  0.00     0.049 A 
ATOM     66  H   UNL A   1      40.722  29.389  32.927  1.00  0.00     0.167 HD
ATOM     67  C   UNL A   1      38.802  31.403  33.404  1.00  0.00     0.074 A 
ATOM     68  C   UNL A   1      37.698  32.320  33.211  1.00  0.00     0.031 C 
ATOM     69  C   UNL A   1      39.465  31.253  34.578  1.00  0.00     0.037 A 
BRANCH  56  70
ATOM     70  C   UNL A   1      44.092  27.177  34.338  1.00  0.00     0.057 A 
ATOM     71  C   UNL A   1      45.339  27.767  34.590  1.00  0.00     0.134 A 
ATOM     72  C   UNL A   1      43.901  25.878  34.838  1.00  0.00     0.134 A 
ATOM     73  F   UNL A   1      45.600  29.015  34.174  1.00  0.00    -0.206 F 
ATOM     74  C   UNL A   1      46.369  27.072  35.235  1.00  0.00     0.040 A 
ATOM     75  C   UNL A   1      44.905  25.193  35.532  1.00  0.00     0.040 A 
ATOM     76  F   UNL A   1      42.725  25.252  34.677  1.00  0.00    -0.206 F 
ATOM     77  C   UNL A   1      46.152  25.784  35.715  1.00  0.00     0.006 A 
ENDBRANCH  56  70
BRANCH  57  78
ATOM     78  C   UNL A   1      36.728  31.540  29.176  1.00  0.00     0.057 A 
ATOM     79  C   UNL A   1      36.813  32.871  28.746  1.00  0.00     0.134 A 
ATOM     80  C   UNL A   1      35.572  30.827  28.843  1.00  0.00     0.134 A 
ATOM     81  F   UNL A   1      37.890  33.609  29.050  1.00  0.00    -0.206 F 
ATOM     82  C   UNL A   1      35.783  33.473  28.025  1.00  0.00     0.040 A 
ATOM     83  C   UNL A   1      34.546  31.408  28.096  1.00  0.00     0.040 A 
ATOM     84  F   UNL A   1      35.438  29.545  29.213  1.00  0.00    -0.206 F 
ATOM     85  C   UNL A   1      34.649  32.737  27.688  1.00  0.00     0.006 A 
ENDBRANCH  57  78
BRANCH  69  86
ATOM     86  C   UNL A   1      39.063  32.137  35.721  1.00  0.00     0.057 A 
ATOM     87  C   UNL A   1      38.249  31.672  36.760  1.00  0.00     0.134 A 
ATOM     88  C   UNL A   1      39.543  33.450  35.810  1.00  0.00     0.134 A 
ATOM     89  F   UNL A   1      37.754  30.426  36.731  1.00  0.00    -0.206 F 
ATOM     90  C   UNL A   1      37.904  32.492  37.836  1.00  0.00     0.040 A 
ATOM     91  C   UNL A   1      39.227  34.270  36.893  1.00  0.00     0.040 A 
ATOM     92  F   UNL A   1      40.343  33.950  34.855  1.00  0.00    -0.206 F 
ATOM     93  C   UNL A   1      38.399  33.793  37.907  1.00  0.00     0.006 A 
ENDBRANCH  69  86
ENDBRANCH  43  44
ENDBRANCH  35  38
ENDBRANCH  33  34
ENDBRANCH  32  33
ENDBRANCH  31  32
ENDBRANCH  30  31
ENDBRANCH  29  30
ENDBRANCH   1  29
TORSDOF 19
ENDMDL
