MODEL 1
REMARK VINA RESULT:     -10.4      0.000      0.000
REMARK SMILES O=C(NCCCCCCNC(=O)c1c(F)ccc(F)c1Br)c1ccc(-c2c3nc(c(-c4c(F)cccc4F)c4ccc([nH]4)c(-c4c(F)cccc4F)c4nc(c(-c5c(F)cccc5F)c5ccc2[nH]5)C=C4)C=C3)cc1
REMARK SMILES IDX 5 1 4 2 3 3 1 4 2 5 22 7 23 8 75 9 24 10 74 11 25 12 26 13
REMARK SMILES IDX 27 14 68 15 28 16 73 17 67 18 69 19 29 20 72 21 66 22 65 23
REMARK SMILES IDX 30 25 56 26 39 27 55 28 40 29 43 30 54 31 70 32 41 33 42 34
REMARK SMILES IDX 53 36 71 37 44 38 31 39 32 40 37 41 33 42 34 43 36 44 38 45
REMARK SMILES IDX 35 46 57 47 58 48 63 49 59 50 60 51 62 52 64 53 61 54 45 55
REMARK SMILES IDX 46 56 51 57 47 58 48 59 50 60 52 61 49 62 6 63 7 64 8 65
REMARK SMILES IDX 9 66 10 67 11 68 12 70 13 71 14 72 20 73 15 74 16 75 18 76
REMARK SMILES IDX 21 77 17 78 19 79
REMARK H PARENT 3 6 69 24 43 35 10 69
REMARK Flexibility Score: inf
ROOT
ATOM      1  C   UNL A   1      38.405  19.766  24.919  1.00  0.00     0.021 C 
ENDROOT
BRANCH   1   2
ATOM      2  C   UNL A   1      39.257  19.416  26.135  1.00  0.00     0.116 C 
BRANCH   2   3
ATOM      3  N   UNL A   1      40.564  18.897  25.778  1.00  0.00    -0.352 N 
ATOM      4  O   UNL A   1      42.774  18.919  25.369  1.00  0.00    -0.269 OA
ATOM      5  C   UNL A   1      41.796  19.497  25.840  1.00  0.00     0.251 C 
ATOM      6  H   UNL A   1      40.567  17.972  25.440  1.00  0.00     0.163 HD
BRANCH   5   7
ATOM      7  C   UNL A   1      41.968  20.836  26.450  1.00  0.00     0.039 A 
ATOM      8  C   UNL A   1      42.263  21.914  25.608  1.00  0.00     0.014 A 
ATOM      9  C   UNL A   1      41.910  21.034  27.833  1.00  0.00     0.014 A 
ATOM     10  C   UNL A   1      42.472  23.186  26.145  1.00  0.00     0.010 A 
ATOM     11  C   UNL A   1      42.057  22.316  28.364  1.00  0.00     0.010 A 
ATOM     12  C   UNL A   1      42.362  23.400  27.528  1.00  0.00    -0.014 A 
BRANCH  12  13
ATOM     13  C   UNL A   1      42.625  24.741  28.108  1.00  0.00     0.031 A 
ATOM     14  C   UNL A   1      44.025  25.130  28.500  1.00  0.00     0.074 A 
ATOM     15  C   UNL A   1      41.612  25.606  28.297  1.00  0.00     0.049 A 
ATOM     16  N   UNL A   1      44.459  26.249  29.023  1.00  0.00    -0.248 NA
ATOM     17  C   UNL A   1      45.073  24.117  28.295  1.00  0.00     0.031 C 
ATOM     18  C   UNL A   1      40.206  25.343  27.989  1.00  0.00     0.029 A 
ATOM     19  N   UNL A   1      41.613  26.887  28.789  1.00  0.00    -0.354 N 
ATOM     20  C   UNL A   1      45.822  26.072  29.220  1.00  0.00     0.074 A 
ATOM     21  C   UNL A   1      46.136  24.720  28.808  1.00  0.00     0.031 C 
ATOM     22  C   UNL A   1      39.484  26.441  28.268  1.00  0.00     0.029 A 
ATOM     23  C   UNL A   1      40.372  27.474  28.795  1.00  0.00     0.049 A 
ATOM     24  H   UNL A   1      42.425  27.341  29.108  1.00  0.00     0.167 HD
ATOM     25  C   UNL A   1      46.738  26.958  29.677  1.00  0.00     0.037 A 
ATOM     26  C   UNL A   1      39.995  28.710  29.173  1.00  0.00     0.037 A 
ATOM     27  C   UNL A   1      46.439  28.313  30.056  1.00  0.00     0.049 A 
ATOM     28  C   UNL A   1      41.030  29.677  29.679  1.00  0.00     0.074 A 
ATOM     29  C   UNL A   1      47.307  29.307  30.477  1.00  0.00     0.029 A 
ATOM     30  N   UNL A   1      45.168  28.868  30.057  1.00  0.00    -0.354 N 
ATOM     31  N   UNL A   1      42.323  29.511  29.812  1.00  0.00    -0.248 NA
ATOM     32  C   UNL A   1      40.548  31.004  30.087  1.00  0.00     0.031 C 
ATOM     33  C   UNL A   1      46.556  30.454  30.761  1.00  0.00     0.029 A 
ATOM     34  C   UNL A   1      45.225  30.183  30.488  1.00  0.00     0.049 A 
ATOM     35  H   UNL A   1      44.346  28.395  29.792  1.00  0.00     0.167 HD
ATOM     36  C   UNL A   1      42.812  30.717  30.297  1.00  0.00     0.074 A 
ATOM     37  C   UNL A   1      41.678  31.610  30.422  1.00  0.00     0.031 C 
ATOM     38  C   UNL A   1      44.086  31.055  30.611  1.00  0.00     0.037 A 
BRANCH  25  39
ATOM     39  C   UNL A   1      48.156  26.480  29.783  1.00  0.00     0.057 A 
ATOM     40  C   UNL A   1      49.058  26.673  28.730  1.00  0.00     0.134 A 
ATOM     41  C   UNL A   1      48.628  25.829  30.930  1.00  0.00     0.134 A 
ATOM     42  F   UNL A   1      48.668  27.287  27.602  1.00  0.00    -0.206 F 
ATOM     43  C   UNL A   1      50.383  26.243  28.819  1.00  0.00     0.040 A 
ATOM     44  C   UNL A   1      49.957  25.416  31.039  1.00  0.00     0.040 A 
ATOM     45  F   UNL A   1      47.818  25.628  31.980  1.00  0.00    -0.206 F 
ATOM     46  C   UNL A   1      50.838  25.621  29.980  1.00  0.00     0.006 A 
ENDBRANCH  25  39
BRANCH  26  47
ATOM     47  C   UNL A   1      38.578  29.125  29.049  1.00  0.00     0.057 A 
ATOM     48  C   UNL A   1      37.700  29.071  30.138  1.00  0.00     0.134 A 
ATOM     49  C   UNL A   1      38.074  29.598  27.832  1.00  0.00     0.134 A 
ATOM     50  F   UNL A   1      38.125  28.625  31.329  1.00  0.00    -0.206 F 
ATOM     51  C   UNL A   1      36.369  29.471  30.020  1.00  0.00     0.040 A 
ATOM     52  C   UNL A   1      36.749  30.018  27.705  1.00  0.00     0.040 A 
ATOM     53  F   UNL A   1      38.876  29.690  26.761  1.00  0.00    -0.206 F 
ATOM     54  C   UNL A   1      35.891  29.951  28.801  1.00  0.00     0.006 A 
ENDBRANCH  26  47
BRANCH  38  55
ATOM     55  C   UNL A   1      44.315  32.452  31.103  1.00  0.00     0.057 A 
ATOM     56  C   UNL A   1      44.577  33.493  30.204  1.00  0.00     0.134 A 
ATOM     57  C   UNL A   1      44.287  32.762  32.469  1.00  0.00     0.134 A 
ATOM     58  F   UNL A   1      44.621  33.259  28.885  1.00  0.00    -0.206 F 
ATOM     59  C   UNL A   1      44.801  34.797  30.648  1.00  0.00     0.040 A 
ATOM     60  C   UNL A   1      44.491  34.067  32.922  1.00  0.00     0.040 A 
ATOM     61  F   UNL A   1      44.026  31.811  33.377  1.00  0.00    -0.206 F 
ATOM     62  C   UNL A   1      44.753  35.088  32.009  1.00  0.00     0.006 A 
ENDBRANCH  38  55
ENDBRANCH  12  13
ENDBRANCH   5   7
ENDBRANCH   2   3
ENDBRANCH   1   2
BRANCH   1  63
ATOM     63  C   UNL A   1      37.692  21.120  24.970  1.00  0.00     0.002 C 
BRANCH  63  64
ATOM     64  C   UNL A   1      38.372  22.206  25.807  1.00  0.00     0.002 C 
BRANCH  64  65
ATOM     65  C   UNL A   1      37.686  23.576  25.819  1.00  0.00     0.021 C 
BRANCH  65  66
ATOM     66  C   UNL A   1      36.489  23.728  24.883  1.00  0.00     0.116 C 
BRANCH  66  67
ATOM     67  N   UNL A   1      35.352  24.357  25.528  1.00  0.00    -0.352 N 
ATOM     68  C   UNL A   1      34.081  23.878  25.698  1.00  0.00     0.255 C 
ATOM     69  H   UNL A   1      35.518  25.256  25.895  1.00  0.00     0.163 HD
ATOM     70  O   UNL A   1      33.244  24.531  26.318  1.00  0.00    -0.269 OA
BRANCH  68  71
ATOM     71  C   UNL A   1      33.702  22.575  25.141  1.00  0.00     0.092 A 
ATOM     72  C   UNL A   1      33.991  21.426  25.882  1.00  0.00     0.137 A 
ATOM     73  C   UNL A   1      33.007  22.467  23.933  1.00  0.00     0.069 A 
ATOM     74  F   UNL A   1      34.653  21.509  27.044  1.00  0.00    -0.206 F 
ATOM     75  C   UNL A   1      33.616  20.165  25.423  1.00  0.00     0.043 A 
ATOM     76  C   UNL A   1      32.626  21.198  23.485  1.00  0.00     0.138 A 
ATOM     77  Br  UNL A   1      32.601  23.970  22.847  1.00  0.00    -0.047 Br
ATOM     78  C   UNL A   1      32.926  20.051  24.219  1.00  0.00     0.043 A 
ATOM     79  F   UNL A   1      31.965  21.051  22.327  1.00  0.00    -0.206 F 
ENDBRANCH  68  71
ENDBRANCH  66  67
ENDBRANCH  65  66
ENDBRANCH  64  65
ENDBRANCH  63  64
ENDBRANCH   1  63
TORSDOF 13
ENDMDL
MODEL 2
REMARK VINA RESULT:     -10.3      0.112      1.354
REMARK SMILES O=C(NCCCCCCNC(=O)c1c(F)ccc(F)c1Br)c1ccc(-c2c3nc(c(-c4c(F)cccc4F)c4ccc([nH]4)c(-c4c(F)cccc4F)c4nc(c(-c5c(F)cccc5F)c5ccc2[nH]5)C=C4)C=C3)cc1
REMARK SMILES IDX 5 1 4 2 3 3 1 4 2 5 22 7 23 8 75 9 24 10 74 11 25 12 26 13
REMARK SMILES IDX 27 14 68 15 28 16 73 17 67 18 69 19 29 20 72 21 66 22 65 23
REMARK SMILES IDX 30 25 56 26 39 27 55 28 40 29 43 30 54 31 70 32 41 33 42 34
REMARK SMILES IDX 53 36 71 37 44 38 31 39 32 40 37 41 33 42 34 43 36 44 38 45
REMARK SMILES IDX 35 46 57 47 58 48 63 49 59 50 60 51 62 52 64 53 61 54 45 55
REMARK SMILES IDX 46 56 51 57 47 58 48 59 50 60 52 61 49 62 6 63 7 64 8 65
REMARK SMILES IDX 9 66 10 67 11 68 12 70 13 71 14 72 20 73 15 74 16 75 18 76
REMARK SMILES IDX 21 77 17 78 19 79
REMARK H PARENT 3 6 69 24 43 35 10 69
REMARK Flexibility Score: inf
ROOT
ATOM      1  C   UNL A   1      38.447  19.936  24.865  1.00  0.00     0.021 C 
ENDROOT
BRANCH   1   2
ATOM      2  C   UNL A   1      39.194  19.437  26.097  1.00  0.00     0.116 C 
BRANCH   2   3
ATOM      3  N   UNL A   1      40.501  18.890  25.783  1.00  0.00    -0.352 N 
ATOM      4  O   UNL A   1      42.721  18.868  25.435  1.00  0.00    -0.269 OA
ATOM      5  C   UNL A   1      41.742  19.468  25.873  1.00  0.00     0.251 C 
ATOM      6  H   UNL A   1      40.496  17.963  25.453  1.00  0.00     0.163 HD
BRANCH   5   7
ATOM      7  C   UNL A   1      41.922  20.810  26.475  1.00  0.00     0.039 A 
ATOM      8  C   UNL A   1      42.233  21.879  25.628  1.00  0.00     0.014 A 
ATOM      9  C   UNL A   1      41.854  21.018  27.856  1.00  0.00     0.014 A 
ATOM     10  C   UNL A   1      42.450  23.153  26.158  1.00  0.00     0.010 A 
ATOM     11  C   UNL A   1      42.009  22.302  28.380  1.00  0.00     0.010 A 
ATOM     12  C   UNL A   1      42.331  23.377  27.539  1.00  0.00    -0.014 A 
BRANCH  12  13
ATOM     13  C   UNL A   1      42.603  24.720  28.112  1.00  0.00     0.031 A 
ATOM     14  C   UNL A   1      44.004  25.100  28.507  1.00  0.00     0.074 A 
ATOM     15  C   UNL A   1      41.596  25.594  28.291  1.00  0.00     0.049 A 
ATOM     16  N   UNL A   1      44.445  26.219  29.025  1.00  0.00    -0.248 NA
ATOM     17  C   UNL A   1      45.045  24.078  28.314  1.00  0.00     0.031 C 
ATOM     18  C   UNL A   1      40.189  25.341  27.979  1.00  0.00     0.029 A 
ATOM     19  N   UNL A   1      41.605  26.877  28.775  1.00  0.00    -0.354 N 
ATOM     20  C   UNL A   1      45.806  26.032  29.229  1.00  0.00     0.074 A 
ATOM     21  C   UNL A   1      46.110  24.675  28.827  1.00  0.00     0.031 C 
ATOM     22  C   UNL A   1      39.475  26.446  28.248  1.00  0.00     0.029 A 
ATOM     23  C   UNL A   1      40.369  27.475  28.772  1.00  0.00     0.049 A 
ATOM     24  H   UNL A   1      42.420  27.327  29.095  1.00  0.00     0.167 HD
ATOM     25  C   UNL A   1      46.726  26.914  29.685  1.00  0.00     0.037 A 
ATOM     26  C   UNL A   1      40.000  28.716  29.141  1.00  0.00     0.037 A 
ATOM     27  C   UNL A   1      46.437  28.273  30.055  1.00  0.00     0.049 A 
ATOM     28  C   UNL A   1      41.040  29.678  29.646  1.00  0.00     0.074 A 
ATOM     29  C   UNL A   1      47.311  29.262  30.473  1.00  0.00     0.029 A 
ATOM     30  N   UNL A   1      45.170  28.838  30.047  1.00  0.00    -0.354 N 
ATOM     31  N   UNL A   1      42.331  29.502  29.786  1.00  0.00    -0.248 NA
ATOM     32  C   UNL A   1      40.567  31.011  30.043  1.00  0.00     0.031 C 
ATOM     33  C   UNL A   1      46.568  30.417  30.747  1.00  0.00     0.029 A 
ATOM     34  C   UNL A   1      45.236  30.155  30.469  1.00  0.00     0.049 A 
ATOM     35  H   UNL A   1      44.346  28.370  29.781  1.00  0.00     0.167 HD
ATOM     36  C   UNL A   1      42.828  30.707  30.265  1.00  0.00     0.074 A 
ATOM     37  C   UNL A   1      41.700  31.610  30.380  1.00  0.00     0.031 C 
ATOM     38  C   UNL A   1      44.104  31.037  30.582  1.00  0.00     0.037 A 
BRANCH  25  39
ATOM     39  C   UNL A   1      48.140  26.425  29.800  1.00  0.00     0.057 A 
ATOM     40  C   UNL A   1      49.040  26.580  28.739  1.00  0.00     0.134 A 
ATOM     41  C   UNL A   1      48.610  25.802  30.963  1.00  0.00     0.134 A 
ATOM     42  F   UNL A   1      48.653  27.166  27.596  1.00  0.00    -0.206 F 
ATOM     43  C   UNL A   1      50.362  26.140  28.836  1.00  0.00     0.040 A 
ATOM     44  C   UNL A   1      49.935  25.379  31.080  1.00  0.00     0.040 A 
ATOM     45  F   UNL A   1      47.801  25.637  32.020  1.00  0.00    -0.206 F 
ATOM     46  C   UNL A   1      50.814  25.545  30.012  1.00  0.00     0.006 A 
ENDBRANCH  25  39
BRANCH  26  47
ATOM     47  C   UNL A   1      38.586  29.141  29.009  1.00  0.00     0.057 A 
ATOM     48  C   UNL A   1      38.074  29.615  27.797  1.00  0.00     0.134 A 
ATOM     49  C   UNL A   1      37.712  29.069  30.099  1.00  0.00     0.134 A 
ATOM     50  F   UNL A   1      38.865  29.708  26.717  1.00  0.00    -0.206 F 
ATOM     51  C   UNL A   1      36.741  30.005  27.673  1.00  0.00     0.040 A 
ATOM     52  C   UNL A   1      36.372  29.440  29.985  1.00  0.00     0.040 A 
ATOM     53  F   UNL A   1      38.144  28.603  31.280  1.00  0.00    -0.206 F 
ATOM     54  C   UNL A   1      35.883  29.914  28.769  1.00  0.00     0.006 A 
ENDBRANCH  26  47
BRANCH  38  55
ATOM     55  C   UNL A   1      44.342  32.435  31.066  1.00  0.00     0.057 A 
ATOM     56  C   UNL A   1      44.289  32.739  32.432  1.00  0.00     0.134 A 
ATOM     57  C   UNL A   1      44.613  33.483  30.176  1.00  0.00     0.134 A 
ATOM     58  F   UNL A   1      44.031  31.780  33.333  1.00  0.00    -0.206 F 
ATOM     59  C   UNL A   1      44.500  34.038  32.897  1.00  0.00     0.040 A 
ATOM     60  C   UNL A   1      44.845  34.782  30.632  1.00  0.00     0.040 A 
ATOM     61  F   UNL A   1      44.692  33.252  28.858  1.00  0.00    -0.206 F 
ATOM     62  C   UNL A   1      44.784  35.062  31.997  1.00  0.00     0.006 A 
ENDBRANCH  38  55
ENDBRANCH  12  13
ENDBRANCH   5   7
ENDBRANCH   2   3
ENDBRANCH   1   2
BRANCH   1  63
ATOM     63  C   UNL A   1      37.593  21.191  25.064  1.00  0.00     0.002 C 
BRANCH  63  64
ATOM     64  C   UNL A   1      38.269  22.354  25.796  1.00  0.00     0.002 C 
BRANCH  64  65
ATOM     65  C   UNL A   1      37.532  23.697  25.753  1.00  0.00     0.021 C 
BRANCH  65  66
ATOM     66  C   UNL A   1      36.265  23.733  24.900  1.00  0.00     0.116 C 
BRANCH  66  67
ATOM     67  N   UNL A   1      35.124  24.269  25.618  1.00  0.00    -0.352 N 
ATOM     68  C   UNL A   1      33.881  23.723  25.795  1.00  0.00     0.255 C 
ATOM     69  H   UNL A   1      35.263  25.149  26.037  1.00  0.00     0.163 HD
ATOM     70  O   UNL A   1      33.038  24.298  26.481  1.00  0.00    -0.269 OA
BRANCH  68  71
ATOM     71  C   UNL A   1      33.541  22.442  25.168  1.00  0.00     0.092 A 
ATOM     72  C   UNL A   1      33.828  21.264  25.862  1.00  0.00     0.137 A 
ATOM     73  C   UNL A   1      32.882  22.379  23.936  1.00  0.00     0.069 A 
ATOM     74  F   UNL A   1      34.455  21.302  27.047  1.00  0.00    -0.206 F 
ATOM     75  C   UNL A   1      33.487  20.020  25.335  1.00  0.00     0.043 A 
ATOM     76  C   UNL A   1      32.535  21.127  23.419  1.00  0.00     0.138 A 
ATOM     77  Br  UNL A   1      32.481  23.925  22.910  1.00  0.00    -0.047 Br
ATOM     78  C   UNL A   1      32.834  19.952  24.107  1.00  0.00     0.043 A 
ATOM     79  F   UNL A   1      31.910  21.024  22.237  1.00  0.00    -0.206 F 
ENDBRANCH  68  71
ENDBRANCH  66  67
ENDBRANCH  65  66
ENDBRANCH  64  65
ENDBRANCH  63  64
ENDBRANCH   1  63
TORSDOF 13
ENDMDL
MODEL 3
REMARK VINA RESULT:     -10.3      4.666      9.499
REMARK SMILES O=C(NCCCCCCNC(=O)c1c(F)ccc(F)c1Br)c1ccc(-c2c3nc(c(-c4c(F)cccc4F)c4ccc([nH]4)c(-c4c(F)cccc4F)c4nc(c(-c5c(F)cccc5F)c5ccc2[nH]5)C=C4)C=C3)cc1
REMARK SMILES IDX 5 1 4 2 3 3 1 4 2 5 22 7 23 8 75 9 24 10 74 11 25 12 26 13
REMARK SMILES IDX 27 14 68 15 28 16 73 17 67 18 69 19 29 20 72 21 66 22 65 23
REMARK SMILES IDX 30 25 56 26 39 27 55 28 40 29 43 30 54 31 70 32 41 33 42 34
REMARK SMILES IDX 53 36 71 37 44 38 31 39 32 40 37 41 33 42 34 43 36 44 38 45
REMARK SMILES IDX 35 46 57 47 58 48 63 49 59 50 60 51 62 52 64 53 61 54 45 55
REMARK SMILES IDX 46 56 51 57 47 58 48 59 50 60 52 61 49 62 6 63 7 64 8 65
REMARK SMILES IDX 9 66 10 67 11 68 12 70 13 71 14 72 20 73 15 74 16 75 18 76
REMARK SMILES IDX 21 77 17 78 19 79
REMARK H PARENT 3 6 69 24 43 35 10 69
REMARK Flexibility Score: inf
ROOT
ATOM      1  C   UNL A   1      31.551  31.962  26.890  1.00  0.00     0.021 C 
ENDROOT
BRANCH   1   2
ATOM      2  C   UNL A   1      32.632  33.026  26.728  1.00  0.00     0.116 C 
BRANCH   2   3
ATOM      3  N   UNL A   1      32.420  34.180  27.582  1.00  0.00    -0.352 N 
ATOM      4  O   UNL A   1      32.670  35.529  29.362  1.00  0.00    -0.269 OA
ATOM      5  C   UNL A   1      33.092  34.576  28.710  1.00  0.00     0.251 C 
ATOM      6  H   UNL A   1      31.681  34.770  27.309  1.00  0.00     0.163 HD
BRANCH   5   7
ATOM      7  C   UNL A   1      34.309  33.864  29.169  1.00  0.00     0.039 A 
ATOM      8  C   UNL A   1      34.148  32.708  29.939  1.00  0.00     0.014 A 
ATOM      9  C   UNL A   1      35.593  34.351  28.909  1.00  0.00     0.014 A 
ATOM     10  C   UNL A   1      35.268  32.029  30.425  1.00  0.00     0.010 A 
ATOM     11  C   UNL A   1      36.713  33.639  29.341  1.00  0.00     0.010 A 
ATOM     12  C   UNL A   1      36.561  32.483  30.123  1.00  0.00    -0.014 A 
BRANCH  12  13
ATOM     13  C   UNL A   1      37.753  31.791  30.672  1.00  0.00     0.031 A 
ATOM     14  C   UNL A   1      38.237  32.111  32.060  1.00  0.00     0.074 A 
ATOM     15  C   UNL A   1      38.411  30.884  29.926  1.00  0.00     0.049 A 
ATOM     16  N   UNL A   1      39.257  31.617  32.717  1.00  0.00    -0.248 NA
ATOM     17  C   UNL A   1      37.486  33.137  32.801  1.00  0.00     0.031 C 
ATOM     18  C   UNL A   1      38.065  30.504  28.556  1.00  0.00     0.029 A 
ATOM     19  N   UNL A   1      39.507  30.113  30.220  1.00  0.00    -0.354 N 
ATOM     20  C   UNL A   1      39.277  32.279  33.938  1.00  0.00     0.074 A 
ATOM     21  C   UNL A   1      38.199  33.245  33.912  1.00  0.00     0.031 C 
ATOM     22  C   UNL A   1      38.912  29.548  28.140  1.00  0.00     0.029 A 
ATOM     23  C   UNL A   1      39.871  29.265  29.204  1.00  0.00     0.049 A 
ATOM     24  H   UNL A   1      39.987  30.164  31.078  1.00  0.00     0.167 HD
ATOM     25  C   UNL A   1      40.099  32.086  34.997  1.00  0.00     0.037 A 
ATOM     26  C   UNL A   1      40.862  28.356  29.142  1.00  0.00     0.037 A 
ATOM     27  C   UNL A   1      41.150  31.106  35.041  1.00  0.00     0.049 A 
ATOM     28  C   UNL A   1      41.763  28.160  30.329  1.00  0.00     0.074 A 
ATOM     29  C   UNL A   1      41.999  30.794  36.090  1.00  0.00     0.029 A 
ATOM     30  N   UNL A   1      41.494  30.273  33.988  1.00  0.00    -0.354 N 
ATOM     31  N   UNL A   1      41.738  28.759  31.495  1.00  0.00    -0.248 NA
ATOM     32  C   UNL A   1      42.831  27.160  30.188  1.00  0.00     0.031 C 
ATOM     33  C   UNL A   1      42.878  29.792  35.659  1.00  0.00     0.029 A 
ATOM     34  C   UNL A   1      42.554  29.460  34.354  1.00  0.00     0.049 A 
ATOM     35  H   UNL A   1      41.051  30.262  33.109  1.00  0.00     0.167 HD
ATOM     36  C   UNL A   1      42.769  28.193  32.234  1.00  0.00     0.074 A 
ATOM     37  C   UNL A   1      43.392  27.195  31.388  1.00  0.00     0.031 C 
ATOM     38  C   UNL A   1      43.165  28.475  33.498  1.00  0.00     0.037 A 
BRANCH  25  39
ATOM     39  C   UNL A   1      39.880  32.959  36.197  1.00  0.00     0.057 A 
ATOM     40  C   UNL A   1      40.589  34.156  36.352  1.00  0.00     0.134 A 
ATOM     41  C   UNL A   1      38.964  32.614  37.200  1.00  0.00     0.134 A 
ATOM     42  F   UNL A   1      41.483  34.543  35.429  1.00  0.00    -0.206 F 
ATOM     43  C   UNL A   1      40.388  34.984  37.458  1.00  0.00     0.040 A 
ATOM     44  C   UNL A   1      38.738  33.445  38.298  1.00  0.00     0.040 A 
ATOM     45  F   UNL A   1      38.242  31.488  37.102  1.00  0.00    -0.206 F 
ATOM     46  C   UNL A   1      39.453  34.633  38.430  1.00  0.00     0.006 A 
ENDBRANCH  25  39
BRANCH  26  47
ATOM     47  C   UNL A   1      41.032  27.525  27.926  1.00  0.00     0.057 A 
ATOM     48  C   UNL A   1      40.403  26.282  27.793  1.00  0.00     0.134 A 
ATOM     49  C   UNL A   1      41.824  27.968  26.861  1.00  0.00     0.134 A 
ATOM     50  F   UNL A   1      39.632  25.804  28.782  1.00  0.00    -0.206 F 
ATOM     51  C   UNL A   1      40.557  25.507  26.644  1.00  0.00     0.040 A 
ATOM     52  C   UNL A   1      41.973  27.211  25.698  1.00  0.00     0.040 A 
ATOM     53  F   UNL A   1      42.434  29.161  26.925  1.00  0.00    -0.206 F 
ATOM     54  C   UNL A   1      41.341  25.974  25.589  1.00  0.00     0.006 A 
ENDBRANCH  26  47
BRANCH  38  55
ATOM     55  C   UNL A   1      44.313  27.681  34.043  1.00  0.00     0.057 A 
ATOM     56  C   UNL A   1      44.096  26.455  34.681  1.00  0.00     0.134 A 
ATOM     57  C   UNL A   1      45.634  28.139  33.943  1.00  0.00     0.134 A 
ATOM     58  F   UNL A   1      42.855  25.964  34.811  1.00  0.00    -0.206 F 
ATOM     59  C   UNL A   1      45.155  25.708  35.201  1.00  0.00     0.040 A 
ATOM     60  C   UNL A   1      46.702  27.391  34.442  1.00  0.00     0.040 A 
ATOM     61  F   UNL A   1      45.907  29.299  33.328  1.00  0.00    -0.206 F 
ATOM     62  C   UNL A   1      46.463  26.173  35.077  1.00  0.00     0.006 A 
ENDBRANCH  38  55
ENDBRANCH  12  13
ENDBRANCH   5   7
ENDBRANCH   2   3
ENDBRANCH   1   2
BRANCH   1  63
ATOM     63  C   UNL A   1      32.042  30.513  26.943  1.00  0.00     0.002 C 
BRANCH  63  64
ATOM     64  C   UNL A   1      33.560  30.320  26.994  1.00  0.00     0.002 C 
BRANCH  64  65
ATOM     65  C   UNL A   1      34.049  28.906  27.325  1.00  0.00     0.021 C 
BRANCH  65  66
ATOM     66  C   UNL A   1      33.145  27.765  26.862  1.00  0.00     0.116 C 
BRANCH  66  67
ATOM     67  N   UNL A   1      33.725  26.999  25.776  1.00  0.00    -0.352 N 
ATOM     68  C   UNL A   1      33.246  26.795  24.510  1.00  0.00     0.255 C 
ATOM     69  H   UNL A   1      34.586  26.564  25.977  1.00  0.00     0.163 HD
ATOM     70  O   UNL A   1      33.897  26.151  23.690  1.00  0.00    -0.269 OA
BRANCH  68  71
ATOM     71  C   UNL A   1      31.945  27.347  24.116  1.00  0.00     0.092 A 
ATOM     72  C   UNL A   1      31.895  28.663  23.648  1.00  0.00     0.137 A 
ATOM     73  C   UNL A   1      30.782  26.571  24.133  1.00  0.00     0.069 A 
ATOM     74  F   UNL A   1      32.999  29.422  23.619  1.00  0.00    -0.206 F 
ATOM     75  C   UNL A   1      30.694  29.225  23.218  1.00  0.00     0.043 A 
ATOM     76  C   UNL A   1      29.584  27.140  23.691  1.00  0.00     0.138 A 
ATOM     77  Br  UNL A   1      30.752  24.787  24.781  1.00  0.00    -0.047 Br
ATOM     78  C   UNL A   1      29.533  28.457  23.237  1.00  0.00     0.043 A 
ATOM     79  F   UNL A   1      28.445  26.431  23.701  1.00  0.00    -0.206 F 
ENDBRANCH  68  71
ENDBRANCH  66  67
ENDBRANCH  65  66
ENDBRANCH  64  65
ENDBRANCH  63  64
ENDBRANCH   1  63
TORSDOF 13
ENDMDL
