MODEL 1
REMARK VINA RESULT:     -11.0      0.000      0.000
REMARK SMILES C[C@@H]1CCC[C@](CCSc2ccccc2)(C(=O)NCCCCCCNC(=O)c2ccc(-c3c4nc(c(-c5c(F)cccc5F)c5ccc([nH]5)c(-c5c(F)cccc5F)c5nc(c(-c6c(F)cccc6F)c6ccc3[nH]6)C=C5)C=C4)cc2)C1
REMARK SMILES IDX 20 1 19 2 18 3 16 4 17 5 6 7 1 8 2 9 3 10 82 11 4 12 5 13
REMARK SMILES IDX 7 14 8 15 9 16 10 17 11 18 15 19 12 20 14 21 13 22 21 23
REMARK SMILES IDX 22 24 23 25 24 26 25 27 26 28 27 30 28 31 29 32 81 33 30 34
REMARK SMILES IDX 80 35 31 36 32 37 33 38 74 39 34 40 79 41 73 42 75 43 35 44
REMARK SMILES IDX 78 45 72 46 71 47 36 49 62 50 45 51 61 52 46 53 49 54 60 55
REMARK SMILES IDX 76 56 47 57 48 58 59 60 77 61 50 62 37 63 38 64 43 65 39 66
REMARK SMILES IDX 40 67 42 68 44 69 41 70 63 71 64 72 69 73 65 74 66 75 68 76
REMARK SMILES IDX 70 77 67 78 51 79 52 80 57 81 53 82 54 83 56 84 58 85 55 86
REMARK H PARENT 18 6 25 29 75 48 49 59
REMARK Flexibility Score: inf
ROOT
ATOM      1  C   UNL A   1      31.437  28.710  23.006  1.00  0.00     0.021 C 
ENDROOT
BRANCH   1   2
ATOM      2  C   UNL A   1      30.789  27.412  22.535  1.00  0.00     0.116 C 
BRANCH   2   3
ATOM      3  N   UNL A   1      31.659  26.726  21.621  1.00  0.00    -0.356 N 
ATOM      4  C   UNL A   1      32.506  25.685  21.747  1.00  0.00     0.226 C 
ATOM      5  O   UNL A   1      33.282  25.574  20.787  1.00  0.00    -0.274 OA
ATOM      6  H   UNL A   1      31.631  27.095  20.709  1.00  0.00     0.163 HD
BRANCH   4   7
ATOM      7  C   UNL A   1      32.625  24.741  22.982  1.00  0.00     0.050 C 
ATOM      8  C   UNL A   1      29.911  25.938  25.429  1.00  0.00     0.007 C 
ATOM      9  C   UNL A   1      31.285  25.262  25.259  1.00  0.00    -0.013 C 
ATOM     10  C   UNL A   1      32.449  26.144  25.722  1.00  0.00     0.003 C 
ATOM     11  C   UNL A   1      31.387  24.577  23.885  1.00  0.00     0.020 C 
ATOM     12  C   UNL A   1      33.627  26.322  24.767  1.00  0.00     0.001 C 
ATOM     13  C   UNL A   1      33.858  25.160  23.815  1.00  0.00     0.017 C 
BRANCH   7  14
ATOM     14  C   UNL A   1      32.948  23.315  22.353  1.00  0.00     0.028 C 
BRANCH  14  15
ATOM     15  C   UNL A   1      31.996  22.125  22.633  1.00  0.00     0.076 C 
BRANCH  15  16
ATOM     16  S   UNL A   1      32.566  20.754  23.706  1.00  0.00    -0.126 SA
BRANCH  16  17
ATOM     17  C   UNL A   1      33.338  21.590  25.080  1.00  0.00     0.007 A 
ATOM     18  C   UNL A   1      32.531  21.977  26.156  1.00  0.00     0.015 A 
ATOM     19  C   UNL A   1      34.711  21.854  25.140  1.00  0.00     0.015 A 
ATOM     20  C   UNL A   1      33.067  22.686  27.235  1.00  0.00     0.001 A 
ATOM     21  C   UNL A   1      35.248  22.569  26.217  1.00  0.00     0.001 A 
ATOM     22  C   UNL A   1      34.424  22.998  27.255  1.00  0.00     0.000 A 
ENDBRANCH  16  17
ENDBRANCH  15  16
ENDBRANCH  14  15
ENDBRANCH   7  14
ENDBRANCH   4   7
ENDBRANCH   2   3
ENDBRANCH   1   2
BRANCH   1  23
ATOM     23  C   UNL A   1      30.689  29.373  24.165  1.00  0.00     0.002 C 
BRANCH  23  24
ATOM     24  C   UNL A   1      31.573  29.774  25.351  1.00  0.00     0.002 C 
BRANCH  24  25
ATOM     25  C   UNL A   1      31.294  31.159  25.944  1.00  0.00     0.021 C 
BRANCH  25  26
ATOM     26  C   UNL A   1      32.299  31.634  26.991  1.00  0.00     0.116 C 
BRANCH  26  27
ATOM     27  N   UNL A   1      32.138  33.041  27.311  1.00  0.00    -0.352 N 
ATOM     28  C   UNL A   1      32.925  33.860  28.071  1.00  0.00     0.251 C 
ATOM     29  H   UNL A   1      31.343  33.471  26.921  1.00  0.00     0.163 HD
ATOM     30  O   UNL A   1      32.531  34.995  28.352  1.00  0.00    -0.269 OA
BRANCH  28  31
ATOM     31  C   UNL A   1      34.231  33.395  28.580  1.00  0.00     0.039 A 
ATOM     32  C   UNL A   1      34.246  32.579  29.713  1.00  0.00     0.014 A 
ATOM     33  C   UNL A   1      35.433  33.787  27.980  1.00  0.00     0.014 A 
ATOM     34  C   UNL A   1      35.462  32.124  30.222  1.00  0.00     0.010 A 
ATOM     35  C   UNL A   1      36.643  33.281  28.452  1.00  0.00     0.010 A 
ATOM     36  C   UNL A   1      36.669  32.452  29.583  1.00  0.00    -0.014 A 
BRANCH  36  37
ATOM     37  C   UNL A   1      37.953  31.925  30.105  1.00  0.00     0.031 A 
ATOM     38  C   UNL A   1      38.621  32.572  31.286  1.00  0.00     0.074 A 
ATOM     39  C   UNL A   1      38.516  30.860  29.505  1.00  0.00     0.049 A 
ATOM     40  N   UNL A   1      39.722  32.225  31.902  1.00  0.00    -0.248 NA
ATOM     41  C   UNL A   1      37.980  33.777  31.838  1.00  0.00     0.031 C 
ATOM     42  C   UNL A   1      37.988  30.180  28.319  1.00  0.00     0.029 A 
ATOM     43  N   UNL A   1      39.651  30.155  29.814  1.00  0.00    -0.354 N 
ATOM     44  C   UNL A   1      39.902  33.160  32.914  1.00  0.00     0.074 A 
ATOM     45  C   UNL A   1      38.831  34.124  32.794  1.00  0.00     0.031 C 
ATOM     46  C   UNL A   1      38.778  29.136  28.023  1.00  0.00     0.029 A 
ATOM     47  C   UNL A   1      39.878  29.086  28.980  1.00  0.00     0.049 A 
ATOM     48  H   UNL A   1      40.246  30.391  30.561  1.00  0.00     0.167 HD
ATOM     49  C   UNL A   1      40.857  33.194  33.874  1.00  0.00     0.037 A 
ATOM     50  C   UNL A   1      40.859  28.165  28.994  1.00  0.00     0.037 A 
ATOM     51  C   UNL A   1      41.914  32.226  33.999  1.00  0.00     0.049 A 
ATOM     52  C   UNL A   1      41.901  28.225  30.076  1.00  0.00     0.074 A 
ATOM     53  C   UNL A   1      42.914  32.156  34.954  1.00  0.00     0.029 A 
ATOM     54  N   UNL A   1      42.105  31.152  33.142  1.00  0.00    -0.354 N 
ATOM     55  N   UNL A   1      42.021  29.080  31.062  1.00  0.00    -0.248 NA
ATOM     56  C   UNL A   1      42.937  27.184  30.053  1.00  0.00     0.031 C 
ATOM     57  C   UNL A   1      43.728  31.057  34.658  1.00  0.00     0.029 A 
ATOM     58  C   UNL A   1      43.212  30.420  33.542  1.00  0.00     0.049 A 
ATOM     59  H   UNL A   1      41.538  30.941  32.367  1.00  0.00     0.167 HD
ATOM     60  C   UNL A   1      43.129  28.667  31.790  1.00  0.00     0.074 A 
ATOM     61  C   UNL A   1      43.629  27.469  31.146  1.00  0.00     0.031 C 
ATOM     62  C   UNL A   1      43.689  29.230  32.888  1.00  0.00     0.037 A 
BRANCH  49  63
ATOM     63  C   UNL A   1      40.791  34.306  34.880  1.00  0.00     0.057 A 
ATOM     64  C   UNL A   1      40.118  34.150  36.099  1.00  0.00     0.134 A 
ATOM     65  C   UNL A   1      41.448  35.523  34.656  1.00  0.00     0.134 A 
ATOM     66  F   UNL A   1      39.458  33.013  36.370  1.00  0.00    -0.206 F 
ATOM     67  C   UNL A   1      40.089  35.167  37.053  1.00  0.00     0.040 A 
ATOM     68  C   UNL A   1      41.445  36.539  35.612  1.00  0.00     0.040 A 
ATOM     69  F   UNL A   1      42.113  35.736  33.511  1.00  0.00    -0.206 F 
ATOM     70  C   UNL A   1      40.762  36.364  36.814  1.00  0.00     0.006 A 
ENDBRANCH  49  63
BRANCH  50  71
ATOM     71  C   UNL A   1      40.893  27.088  27.972  1.00  0.00     0.057 A 
ATOM     72  C   UNL A   1      41.658  27.220  26.807  1.00  0.00     0.134 A 
ATOM     73  C   UNL A   1      40.139  25.919  28.119  1.00  0.00     0.134 A 
ATOM     74  F   UNL A   1      42.390  28.326  26.602  1.00  0.00    -0.206 F 
ATOM     75  C   UNL A   1      41.647  26.245  25.810  1.00  0.00     0.040 A 
ATOM     76  C   UNL A   1      40.139  24.923  27.142  1.00  0.00     0.040 A 
ATOM     77  F   UNL A   1      39.392  25.727  29.216  1.00  0.00    -0.206 F 
ATOM     78  C   UNL A   1      40.886  25.090  25.977  1.00  0.00     0.006 A 
ENDBRANCH  50  71
BRANCH  62  79
ATOM     79  C   UNL A   1      44.886  28.535  33.468  1.00  0.00     0.057 A 
ATOM     80  C   UNL A   1      44.756  27.489  34.389  1.00  0.00     0.134 A 
ATOM     81  C   UNL A   1      46.182  28.916  33.098  1.00  0.00     0.134 A 
ATOM     82  F   UNL A   1      43.542  27.087  34.796  1.00  0.00    -0.206 F 
ATOM     83  C   UNL A   1      45.874  26.868  34.949  1.00  0.00     0.040 A 
ATOM     84  C   UNL A   1      47.305  28.285  33.629  1.00  0.00     0.040 A 
ATOM     85  F   UNL A   1      46.375  29.906  32.213  1.00  0.00    -0.206 F 
ATOM     86  C   UNL A   1      47.153  27.264  34.566  1.00  0.00     0.006 A 
ENDBRANCH  62  79
ENDBRANCH  36  37
ENDBRANCH  28  31
ENDBRANCH  26  27
ENDBRANCH  25  26
ENDBRANCH  24  25
ENDBRANCH  23  24
ENDBRANCH   1  23
TORSDOF 17
ENDMDL
MODEL 2
REMARK VINA RESULT:     -11.0      3.958      8.886
REMARK SMILES C[C@@H]1CCC[C@](CCSc2ccccc2)(C(=O)NCCCCCCNC(=O)c2ccc(-c3c4nc(c(-c5c(F)cccc5F)c5ccc([nH]5)c(-c5c(F)cccc5F)c5nc(c(-c6c(F)cccc6F)c6ccc3[nH]6)C=C5)C=C4)cc2)C1
REMARK SMILES IDX 20 1 19 2 18 3 16 4 17 5 6 7 1 8 2 9 3 10 82 11 4 12 5 13
REMARK SMILES IDX 7 14 8 15 9 16 10 17 11 18 15 19 12 20 14 21 13 22 21 23
REMARK SMILES IDX 22 24 23 25 24 26 25 27 26 28 27 30 28 31 29 32 81 33 30 34
REMARK SMILES IDX 80 35 31 36 32 37 33 38 74 39 34 40 79 41 73 42 75 43 35 44
REMARK SMILES IDX 78 45 72 46 71 47 36 49 62 50 45 51 61 52 46 53 49 54 60 55
REMARK SMILES IDX 76 56 47 57 48 58 59 60 77 61 50 62 37 63 38 64 43 65 39 66
REMARK SMILES IDX 40 67 42 68 44 69 41 70 63 71 64 72 69 73 65 74 66 75 68 76
REMARK SMILES IDX 70 77 67 78 51 79 52 80 57 81 53 82 54 83 56 84 58 85 55 86
REMARK H PARENT 18 6 25 29 75 48 49 59
REMARK Flexibility Score: inf
ROOT
ATOM      1  C   UNL A   1      33.377  20.414  25.649  1.00  0.00     0.021 C 
ENDROOT
BRANCH   1   2
ATOM      2  C   UNL A   1      32.232  21.155  24.964  1.00  0.00     0.116 C 
BRANCH   2   3
ATOM      3  N   UNL A   1      31.364  21.743  25.945  1.00  0.00    -0.356 N 
ATOM      4  C   UNL A   1      31.113  23.011  26.324  1.00  0.00     0.226 C 
ATOM      5  O   UNL A   1      30.502  23.084  27.400  1.00  0.00    -0.274 OA
ATOM      6  H   UNL A   1      30.840  21.077  26.447  1.00  0.00     0.163 HD
BRANCH   4   7
ATOM      7  C   UNL A   1      31.598  24.302  25.595  1.00  0.00     0.050 C 
ATOM      8  C   UNL A   1      33.270  23.062  22.362  1.00  0.00     0.007 C 
ATOM      9  C   UNL A   1      33.214  24.155  23.446  1.00  0.00    -0.013 C 
ATOM     10  C   UNL A   1      34.427  24.134  24.382  1.00  0.00     0.003 C 
ATOM     11  C   UNL A   1      31.810  24.230  24.070  1.00  0.00     0.020 C 
ATOM     12  C   UNL A   1      34.164  24.147  25.885  1.00  0.00     0.001 C 
ATOM     13  C   UNL A   1      32.869  24.827  26.300  1.00  0.00     0.017 C 
BRANCH   7  14
ATOM     14  C   UNL A   1      30.440  25.361  25.866  1.00  0.00     0.028 C 
BRANCH  14  15
ATOM     15  C   UNL A   1      29.737  26.044  24.666  1.00  0.00     0.076 C 
BRANCH  15  16
ATOM     16  S   UNL A   1      30.458  27.571  23.955  1.00  0.00    -0.126 SA
BRANCH  16  17
ATOM     17  C   UNL A   1      31.726  28.020  25.127  1.00  0.00     0.007 A 
ATOM     18  C   UNL A   1      33.060  27.984  24.705  1.00  0.00     0.015 A 
ATOM     19  C   UNL A   1      31.445  28.429  26.435  1.00  0.00     0.015 A 
ATOM     20  C   UNL A   1      34.100  28.269  25.594  1.00  0.00     0.001 A 
ATOM     21  C   UNL A   1      32.487  28.709  27.328  1.00  0.00     0.001 A 
ATOM     22  C   UNL A   1      33.813  28.614  26.911  1.00  0.00     0.000 A 
ENDBRANCH  16  17
ENDBRANCH  15  16
ENDBRANCH  14  15
ENDBRANCH   7  14
ENDBRANCH   4   7
ENDBRANCH   2   3
ENDBRANCH   1   2
BRANCH   1  23
ATOM     23  C   UNL A   1      34.522  20.059  24.698  1.00  0.00     0.002 C 
BRANCH  23  24
ATOM     24  C   UNL A   1      35.853  20.748  25.015  1.00  0.00     0.002 C 
BRANCH  24  25
ATOM     25  C   UNL A   1      37.099  19.866  24.886  1.00  0.00     0.021 C 
BRANCH  25  26
ATOM     26  C   UNL A   1      38.398  20.497  25.385  1.00  0.00     0.116 C 
BRANCH  26  27
ATOM     27  N   UNL A   1      39.464  19.521  25.530  1.00  0.00    -0.352 N 
ATOM     28  C   UNL A   1      40.742  19.685  25.985  1.00  0.00     0.251 C 
ATOM     29  H   UNL A   1      39.232  18.604  25.261  1.00  0.00     0.163 HD
ATOM     30  O   UNL A   1      41.549  18.757  25.885  1.00  0.00    -0.269 OA
BRANCH  28  31
ATOM     31  C   UNL A   1      41.176  20.967  26.575  1.00  0.00     0.039 A 
ATOM     32  C   UNL A   1      41.699  21.943  25.723  1.00  0.00     0.014 A 
ATOM     33  C   UNL A   1      41.113  21.199  27.954  1.00  0.00     0.014 A 
ATOM     34  C   UNL A   1      42.121  23.164  26.247  1.00  0.00     0.010 A 
ATOM     35  C   UNL A   1      41.477  22.442  28.468  1.00  0.00     0.010 A 
ATOM     36  C   UNL A   1      41.993  23.433  27.620  1.00  0.00    -0.014 A 
BRANCH  36  37
ATOM     37  C   UNL A   1      42.402  24.752  28.160  1.00  0.00     0.031 A 
ATOM     38  C   UNL A   1      43.851  25.057  28.417  1.00  0.00     0.074 A 
ATOM     39  C   UNL A   1      41.457  25.675  28.421  1.00  0.00     0.049 A 
ATOM     40  N   UNL A   1      44.397  26.166  28.847  1.00  0.00    -0.248 NA
ATOM     41  C   UNL A   1      44.815  23.970  28.176  1.00  0.00     0.031 C 
ATOM     42  C   UNL A   1      40.014  25.475  28.262  1.00  0.00     0.029 A 
ATOM     43  N   UNL A   1      41.566  26.967  28.866  1.00  0.00    -0.354 N 
ATOM     44  C   UNL A   1      45.761  25.915  28.923  1.00  0.00     0.074 A 
ATOM     45  C   UNL A   1      45.956  24.530  28.551  1.00  0.00     0.031 C 
ATOM     46  C   UNL A   1      39.376  26.616  28.570  1.00  0.00     0.029 A 
ATOM     47  C   UNL A   1      40.360  27.617  28.971  1.00  0.00     0.049 A 
ATOM     48  H   UNL A   1      42.427  27.390  29.089  1.00  0.00     0.167 HD
ATOM     49  C   UNL A   1      46.762  26.768  29.244  1.00  0.00     0.037 A 
ATOM     50  C   UNL A   1      40.081  28.881  29.339  1.00  0.00     0.037 A 
ATOM     51  C   UNL A   1      46.566  28.149  29.600  1.00  0.00     0.049 A 
ATOM     52  C   UNL A   1      41.214  29.807  29.684  1.00  0.00     0.074 A 
ATOM     53  C   UNL A   1      47.517  29.104  29.915  1.00  0.00     0.029 A 
ATOM     54  N   UNL A   1      45.330  28.773  29.685  1.00  0.00    -0.354 N 
ATOM     55  N   UNL A   1      42.504  29.570  29.689  1.00  0.00    -0.248 NA
ATOM     56  C   UNL A   1      40.853  31.180  30.060  1.00  0.00     0.031 C 
ATOM     57  C   UNL A   1      46.856  30.298  30.218  1.00  0.00     0.029 A 
ATOM     58  C   UNL A   1      45.495  30.098  30.055  1.00  0.00     0.049 A 
ATOM     59  H   UNL A   1      44.465  28.339  29.507  1.00  0.00     0.167 HD
ATOM     60  C   UNL A   1      43.107  30.768  30.046  1.00  0.00     0.074 A 
ATOM     61  C   UNL A   1      42.044  31.736  30.222  1.00  0.00     0.031 C 
ATOM     62  C   UNL A   1      44.423  31.044  30.220  1.00  0.00     0.037 A 
BRANCH  49  63
ATOM     63  C   UNL A   1      48.166  26.238  29.205  1.00  0.00     0.057 A 
ATOM     64  C   UNL A   1      48.949  26.327  28.046  1.00  0.00     0.134 A 
ATOM     65  C   UNL A   1      48.760  25.684  30.345  1.00  0.00     0.134 A 
ATOM     66  F   UNL A   1      48.434  26.837  26.916  1.00  0.00    -0.206 F 
ATOM     67  C   UNL A   1      50.268  25.872  28.019  1.00  0.00     0.040 A 
ATOM     68  C   UNL A   1      50.086  25.247  30.337  1.00  0.00     0.040 A 
ATOM     69  F   UNL A   1      48.068  25.573  31.489  1.00  0.00    -0.206 F 
ATOM     70  C   UNL A   1      50.842  25.337  29.170  1.00  0.00     0.006 A 
ENDBRANCH  49  63
BRANCH  50  71
ATOM     71  C   UNL A   1      38.677  29.360  29.375  1.00  0.00     0.057 A 
ATOM     72  C   UNL A   1      37.930  29.325  30.559  1.00  0.00     0.134 A 
ATOM     73  C   UNL A   1      38.037  29.834  28.223  1.00  0.00     0.134 A 
ATOM     74  F   UNL A   1      38.483  28.865  31.691  1.00  0.00    -0.206 F 
ATOM     75  C   UNL A   1      36.590  29.711  30.590  1.00  0.00     0.040 A 
ATOM     76  C   UNL A   1      36.705  30.249  28.247  1.00  0.00     0.040 A 
ATOM     77  F   UNL A   1      38.700  29.903  27.060  1.00  0.00    -0.206 F 
ATOM     78  C   UNL A   1      35.974  30.177  29.431  1.00  0.00     0.006 A 
ENDBRANCH  50  71
BRANCH  62  79
ATOM     79  C   UNL A   1      44.774  32.454  30.595  1.00  0.00     0.057 A 
ATOM     80  C   UNL A   1      45.012  33.436  29.626  1.00  0.00     0.134 A 
ATOM     81  C   UNL A   1      44.872  32.832  31.939  1.00  0.00     0.134 A 
ATOM     82  F   UNL A   1      44.948  33.133  28.320  1.00  0.00    -0.206 F 
ATOM     83  C   UNL A   1      45.369  34.737  29.980  1.00  0.00     0.040 A 
ATOM     84  C   UNL A   1      45.202  34.137  32.306  1.00  0.00     0.040 A 
ATOM     85  F   UNL A   1      44.648  31.941  32.917  1.00  0.00    -0.206 F 
ATOM     86  C   UNL A   1      45.462  35.091  31.324  1.00  0.00     0.006 A 
ENDBRANCH  62  79
ENDBRANCH  36  37
ENDBRANCH  28  31
ENDBRANCH  26  27
ENDBRANCH  25  26
ENDBRANCH  24  25
ENDBRANCH  23  24
ENDBRANCH   1  23
TORSDOF 17
ENDMDL
MODEL 3
REMARK VINA RESULT:     -11.0      0.905      6.096
REMARK SMILES C[C@@H]1CCC[C@](CCSc2ccccc2)(C(=O)NCCCCCCNC(=O)c2ccc(-c3c4nc(c(-c5c(F)cccc5F)c5ccc([nH]5)c(-c5c(F)cccc5F)c5nc(c(-c6c(F)cccc6F)c6ccc3[nH]6)C=C5)C=C4)cc2)C1
REMARK SMILES IDX 20 1 19 2 18 3 16 4 17 5 6 7 1 8 2 9 3 10 82 11 4 12 5 13
REMARK SMILES IDX 7 14 8 15 9 16 10 17 11 18 15 19 12 20 14 21 13 22 21 23
REMARK SMILES IDX 22 24 23 25 24 26 25 27 26 28 27 30 28 31 29 32 81 33 30 34
REMARK SMILES IDX 80 35 31 36 32 37 33 38 74 39 34 40 79 41 73 42 75 43 35 44
REMARK SMILES IDX 78 45 72 46 71 47 36 49 62 50 45 51 61 52 46 53 49 54 60 55
REMARK SMILES IDX 76 56 47 57 48 58 59 60 77 61 50 62 37 63 38 64 43 65 39 66
REMARK SMILES IDX 40 67 42 68 44 69 41 70 63 71 64 72 69 73 65 74 66 75 68 76
REMARK SMILES IDX 70 77 67 78 51 79 52 80 57 81 53 82 54 83 56 84 58 85 55 86
REMARK H PARENT 18 6 25 29 75 48 49 59
REMARK Flexibility Score: inf
ROOT
ATOM      1  C   UNL A   1      31.184  28.903  22.937  1.00  0.00     0.021 C 
ENDROOT
BRANCH   1   2
ATOM      2  C   UNL A   1      30.650  27.514  22.600  1.00  0.00     0.116 C 
BRANCH   2   3
ATOM      3  N   UNL A   1      31.505  26.872  21.642  1.00  0.00    -0.356 N 
ATOM      4  C   UNL A   1      32.422  25.888  21.726  1.00  0.00     0.226 C 
ATOM      5  O   UNL A   1      33.145  25.812  20.723  1.00  0.00    -0.274 OA
ATOM      6  H   UNL A   1      31.398  27.225  20.729  1.00  0.00     0.163 HD
BRANCH   4   7
ATOM      7  C   UNL A   1      32.675  24.970  22.961  1.00  0.00     0.050 C 
ATOM      8  C   UNL A   1      30.012  25.995  25.538  1.00  0.00     0.007 C 
ATOM      9  C   UNL A   1      31.421  25.420  25.302  1.00  0.00    -0.013 C 
ATOM     10  C   UNL A   1      32.539  26.391  25.695  1.00  0.00     0.003 C 
ATOM     11  C   UNL A   1      31.501  24.727  23.930  1.00  0.00     0.020 C 
ATOM     12  C   UNL A   1      33.649  26.643  24.678  1.00  0.00     0.001 C 
ATOM     13  C   UNL A   1      33.915  25.489  23.724  1.00  0.00     0.017 C 
BRANCH   7  14
ATOM     14  C   UNL A   1      33.069  23.564  22.328  1.00  0.00     0.028 C 
BRANCH  14  15
ATOM     15  C   UNL A   1      32.201  22.319  22.638  1.00  0.00     0.076 C 
BRANCH  15  16
ATOM     16  S   UNL A   1      32.808  21.079  23.841  1.00  0.00    -0.126 SA
BRANCH  16  17
ATOM     17  C   UNL A   1      34.107  21.940  24.709  1.00  0.00     0.007 A 
ATOM     18  C   UNL A   1      33.784  22.594  25.904  1.00  0.00     0.015 A 
ATOM     19  C   UNL A   1      35.433  21.969  24.264  1.00  0.00     0.015 A 
ATOM     20  C   UNL A   1      34.746  23.333  26.599  1.00  0.00     0.001 A 
ATOM     21  C   UNL A   1      36.396  22.714  24.956  1.00  0.00     0.001 A 
ATOM     22  C   UNL A   1      36.048  23.407  26.113  1.00  0.00     0.000 A 
ENDBRANCH  16  17
ENDBRANCH  15  16
ENDBRANCH  14  15
ENDBRANCH   7  14
ENDBRANCH   4   7
ENDBRANCH   2   3
ENDBRANCH   1   2
BRANCH   1  23
ATOM     23  C   UNL A   1      30.552  29.506  24.193  1.00  0.00     0.002 C 
BRANCH  23  24
ATOM     24  C   UNL A   1      31.550  29.884  25.293  1.00  0.00     0.002 C 
BRANCH  24  25
ATOM     25  C   UNL A   1      31.282  31.219  25.996  1.00  0.00     0.021 C 
BRANCH  25  26
ATOM     26  C   UNL A   1      32.390  31.696  26.933  1.00  0.00     0.116 C 
BRANCH  26  27
ATOM     27  N   UNL A   1      32.215  33.081  27.333  1.00  0.00    -0.352 N 
ATOM     28  C   UNL A   1      33.000  33.865  28.130  1.00  0.00     0.251 C 
ATOM     29  H   UNL A   1      31.411  33.521  26.977  1.00  0.00     0.163 HD
ATOM     30  O   UNL A   1      32.596  34.978  28.479  1.00  0.00    -0.269 OA
BRANCH  28  31
ATOM     31  C   UNL A   1      34.318  33.389  28.598  1.00  0.00     0.039 A 
ATOM     32  C   UNL A   1      34.375  32.681  29.801  1.00  0.00     0.014 A 
ATOM     33  C   UNL A   1      35.492  33.667  27.889  1.00  0.00     0.014 A 
ATOM     34  C   UNL A   1      35.603  32.220  30.274  1.00  0.00     0.010 A 
ATOM     35  C   UNL A   1      36.709  33.152  28.331  1.00  0.00     0.010 A 
ATOM     36  C   UNL A   1      36.777  32.431  29.532  1.00  0.00    -0.014 A 
BRANCH  36  37
ATOM     37  C   UNL A   1      38.070  31.896  30.020  1.00  0.00     0.031 A 
ATOM     38  C   UNL A   1      38.586  30.573  29.526  1.00  0.00     0.074 A 
ATOM     39  C   UNL A   1      38.778  32.609  30.917  1.00  0.00     0.049 A 
ATOM     40  N   UNL A   1      39.711  29.968  29.811  1.00  0.00    -0.248 NA
ATOM     41  C   UNL A   1      37.718  29.821  28.605  1.00  0.00     0.031 C 
ATOM     42  C   UNL A   1      38.355  33.881  31.509  1.00  0.00     0.029 A 
ATOM     43  N   UNL A   1      40.006  32.373  31.480  1.00  0.00    -0.354 N 
ATOM     44  C   UNL A   1      39.691  28.774  29.103  1.00  0.00     0.074 A 
ATOM     45  C   UNL A   1      38.416  28.709  28.420  1.00  0.00     0.031 C 
ATOM     46  C   UNL A   1      39.323  34.329  32.325  1.00  0.00     0.029 A 
ATOM     47  C   UNL A   1      40.421  33.368  32.332  1.00  0.00     0.049 A 
ATOM     48  H   UNL A   1      40.540  31.567  31.292  1.00  0.00     0.167 HD
ATOM     49  C   UNL A   1      40.657  27.830  29.006  1.00  0.00     0.037 A 
ATOM     50  C   UNL A   1      41.564  33.495  33.031  1.00  0.00     0.037 A 
ATOM     51  C   UNL A   1      41.930  27.904  29.675  1.00  0.00     0.049 A 
ATOM     52  C   UNL A   1      42.621  32.435  32.899  1.00  0.00     0.074 A 
ATOM     53  C   UNL A   1      42.988  27.014  29.619  1.00  0.00     0.029 A 
ATOM     54  N   UNL A   1      42.318  28.933  30.521  1.00  0.00    -0.354 N 
ATOM     55  N   UNL A   1      42.611  31.341  32.175  1.00  0.00    -0.248 NA
ATOM     56  C   UNL A   1      43.856  32.634  33.670  1.00  0.00     0.031 C 
ATOM     57  C   UNL A   1      44.005  27.489  30.454  1.00  0.00     0.029 A 
ATOM     58  C   UNL A   1      43.596  28.694  30.999  1.00  0.00     0.049 A 
ATOM     59  H   UNL A   1      41.766  29.716  30.746  1.00  0.00     0.167 HD
ATOM     60  C   UNL A   1      43.842  30.736  32.386  1.00  0.00     0.074 A 
ATOM     61  C   UNL A   1      44.584  31.598  33.283  1.00  0.00     0.031 C 
ATOM     62  C   UNL A   1      44.316  29.567  31.888  1.00  0.00     0.037 A 
BRANCH  49  63
ATOM     63  C   UNL A   1      40.386  26.644  28.128  1.00  0.00     0.057 A 
ATOM     64  C   UNL A   1      39.528  25.614  28.536  1.00  0.00     0.134 A 
ATOM     65  C   UNL A   1      40.940  26.553  26.845  1.00  0.00     0.134 A 
ATOM     66  F   UNL A   1      38.974  25.635  29.759  1.00  0.00    -0.206 F 
ATOM     67  C   UNL A   1      39.242  24.529  27.706  1.00  0.00     0.040 A 
ATOM     68  C   UNL A   1      40.643  25.485  25.997  1.00  0.00     0.040 A 
ATOM     69  F   UNL A   1      41.766  27.507  26.391  1.00  0.00    -0.206 F 
ATOM     70  C   UNL A   1      39.794  24.467  26.429  1.00  0.00     0.006 A 
ENDBRANCH  49  63
BRANCH  50  71
ATOM     71  C   UNL A   1      41.787  34.679  33.897  1.00  0.00     0.057 A 
ATOM     72  C   UNL A   1      42.443  35.817  33.412  1.00  0.00     0.134 A 
ATOM     73  C   UNL A   1      41.381  34.691  35.237  1.00  0.00     0.134 A 
ATOM     74  F   UNL A   1      42.871  35.859  32.142  1.00  0.00    -0.206 F 
ATOM     75  C   UNL A   1      42.717  36.910  34.235  1.00  0.00     0.040 A 
ATOM     76  C   UNL A   1      41.624  35.789  36.063  1.00  0.00     0.040 A 
ATOM     77  F   UNL A   1      40.738  33.637  35.759  1.00  0.00    -0.206 F 
ATOM     78  C   UNL A   1      42.304  36.898  35.566  1.00  0.00     0.006 A 
ENDBRANCH  50  71
BRANCH  62  79
ATOM     79  C   UNL A   1      45.709  29.178  32.289  1.00  0.00     0.057 A 
ATOM     80  C   UNL A   1      45.959  28.426  33.444  1.00  0.00     0.134 A 
ATOM     81  C   UNL A   1      46.809  29.556  31.510  1.00  0.00     0.134 A 
ATOM     82  F   UNL A   1      44.949  28.046  34.241  1.00  0.00    -0.206 F 
ATOM     83  C   UNL A   1      47.259  28.094  33.829  1.00  0.00     0.040 A 
ATOM     84  C   UNL A   1      48.110  29.206  31.870  1.00  0.00     0.040 A 
ATOM     85  F   UNL A   1      46.636  30.269  30.387  1.00  0.00    -0.206 F 
ATOM     86  C   UNL A   1      48.338  28.482  33.038  1.00  0.00     0.006 A 
ENDBRANCH  62  79
ENDBRANCH  36  37
ENDBRANCH  28  31
ENDBRANCH  26  27
ENDBRANCH  25  26
ENDBRANCH  24  25
ENDBRANCH  23  24
ENDBRANCH   1  23
TORSDOF 17
ENDMDL
