MODEL 1
REMARK VINA RESULT:     -10.7      0.000      0.000
REMARK SMILES O=C(/C=C/c1cc(C(=O)NCCn2cccn2)cs1)NCCCCCCNC(=O)c1ccc(-c2c3nc(c(-c4c(F)cccc4F)c4ccc([nH]4)c(-c4c(F)cccc4F)c4nc(c(-c5c(F)cccc5F)c5ccc2[nH]5)C=C4)C=C3)cc1
REMARK SMILES IDX 22 1 21 2 20 3 1 4 2 5 3 7 4 8 5 9 6 10 19 11 7 12 18 13
REMARK SMILES IDX 8 14 9 15 10 16 11 18 12 19 13 20 14 21 17 22 15 23 16 24
REMARK SMILES IDX 23 25 24 26 25 27 26 28 27 29 28 30 29 32 30 33 31 34 83 35
REMARK SMILES IDX 32 36 82 37 33 38 34 39 35 40 76 41 36 42 81 43 75 44 77 45
REMARK SMILES IDX 37 46 80 47 74 48 73 49 38 51 64 52 47 53 63 54 48 55 51 56
REMARK SMILES IDX 62 57 78 58 49 59 50 60 61 62 79 63 52 64 39 65 40 66 45 67
REMARK SMILES IDX 41 68 42 69 44 70 46 71 43 72 65 73 66 74 71 75 67 76 68 77
REMARK SMILES IDX 70 78 72 79 69 80 53 81 54 82 59 83 55 84 56 85 58 86 60 87
REMARK SMILES IDX 57 88
REMARK H PARENT 20 6 10 17 27 31 77 50 51 61
REMARK Flexibility Score: inf
ROOT
ATOM      1  C   UNL A   1      40.119  22.325  27.376  1.00  0.00     0.021 C 
ENDROOT
BRANCH   1   2
ATOM      2  C   UNL A   1      39.347  21.768  26.181  1.00  0.00     0.116 C 
BRANCH   2   3
ATOM      3  N   UNL A   1      37.960  22.175  26.216  1.00  0.00    -0.353 N 
ATOM      4  O   UNL A   1      37.294  21.013  24.347  1.00  0.00    -0.270 OA
ATOM      5  C   UNL A   1      37.063  21.802  25.255  1.00  0.00     0.244 C 
ATOM      6  H   UNL A   1      37.650  22.741  26.960  1.00  0.00     0.163 HD
BRANCH   5   7
ATOM      7  C   UNL A   1      35.704  22.365  25.409  1.00  0.00     0.072 C 
ATOM      8  C   UNL A   1      35.389  23.415  26.184  1.00  0.00     0.024 C 
BRANCH   8   9
ATOM      9  C   UNL A   1      34.049  23.890  26.186  1.00  0.00     0.028 A 
ATOM     10  C   UNL A   1      33.575  25.154  25.873  1.00  0.00     0.033 A 
ATOM     11  S   UNL A   1      32.756  22.859  26.620  1.00  0.00    -0.144 S 
ATOM     12  C   UNL A   1      32.206  25.369  26.227  1.00  0.00     0.051 A 
ATOM     13  C   UNL A   1      31.644  24.152  26.592  1.00  0.00     0.079 A 
BRANCH  12  14
ATOM     14  C   UNL A   1      31.385  26.580  26.229  1.00  0.00     0.252 C 
ATOM     15  O   UNL A   1      31.399  27.353  27.189  1.00  0.00    -0.269 OA
ATOM     16  N   UNL A   1      30.602  26.960  25.173  1.00  0.00    -0.350 N 
ATOM     17  H   UNL A   1      30.127  27.806  25.342  1.00  0.00     0.163 HD
BRANCH  16  18
ATOM     18  C   UNL A   1      30.303  26.406  23.856  1.00  0.00     0.140 C 
BRANCH  18  19
ATOM     19  C   UNL A   1      30.384  27.465  22.753  1.00  0.00     0.165 C 
BRANCH  19  20
ATOM     20  N   UNL A   1      29.553  28.643  22.958  1.00  0.00    -0.271 N 
ATOM     21  C   UNL A   1      28.225  28.819  22.690  1.00  0.00     0.108 A 
ATOM     22  N   UNL A   1      30.120  29.736  23.509  1.00  0.00    -0.181 NA
ATOM     23  C   UNL A   1      27.911  30.095  23.095  1.00  0.00     0.042 A 
ATOM     24  C   UNL A   1      29.118  30.614  23.590  1.00  0.00     0.135 A 
ENDBRANCH  19  20
ENDBRANCH  18  19
ENDBRANCH  16  18
ENDBRANCH  12  14
ENDBRANCH   8   9
ENDBRANCH   5   7
ENDBRANCH   2   3
ENDBRANCH   1   2
BRANCH   1  25
ATOM     25  C   UNL A   1      41.413  21.571  27.712  1.00  0.00     0.002 C 
BRANCH  25  26
ATOM     26  C   UNL A   1      41.330  20.037  27.697  1.00  0.00     0.002 C 
BRANCH  26  27
ATOM     27  C   UNL A   1      42.370  19.300  26.842  1.00  0.00     0.021 C 
BRANCH  27  28
ATOM     28  C   UNL A   1      42.474  19.799  25.408  1.00  0.00     0.116 C 
BRANCH  28  29
ATOM     29  N   UNL A   1      43.855  19.912  24.940  1.00  0.00    -0.352 N 
ATOM     30  C   UNL A   1      44.644  21.047  24.855  1.00  0.00     0.251 C 
ATOM     31  H   UNL A   1      44.279  19.073  24.648  1.00  0.00     0.163 HD
ATOM     32  O   UNL A   1      45.614  21.088  24.118  1.00  0.00    -0.269 OA
BRANCH  30  33
ATOM     33  C   UNL A   1      44.288  22.215  25.683  1.00  0.00     0.039 A 
ATOM     34  C   UNL A   1      44.866  22.429  26.938  1.00  0.00     0.014 A 
ATOM     35  C   UNL A   1      43.369  23.118  25.162  1.00  0.00     0.014 A 
ATOM     36  C   UNL A   1      44.573  23.609  27.620  1.00  0.00     0.010 A 
ATOM     37  C   UNL A   1      43.225  24.348  25.744  1.00  0.00     0.010 A 
ATOM     38  C   UNL A   1      43.764  24.576  27.004  1.00  0.00    -0.014 A 
BRANCH  38  39
ATOM     39  C   UNL A   1      43.551  25.888  27.607  1.00  0.00     0.031 A 
ATOM     40  C   UNL A   1      44.535  26.928  27.204  1.00  0.00     0.074 A 
ATOM     41  C   UNL A   1      42.415  26.200  28.271  1.00  0.00     0.049 A 
ATOM     42  N   UNL A   1      45.374  27.550  27.964  1.00  0.00    -0.248 NA
ATOM     43  C   UNL A   1      44.698  27.229  25.772  1.00  0.00     0.031 C 
ATOM     44  C   UNL A   1      41.231  25.357  28.488  1.00  0.00     0.029 A 
ATOM     45  N   UNL A   1      42.021  27.394  28.791  1.00  0.00    -0.354 N 
ATOM     46  C   UNL A   1      46.019  28.476  27.148  1.00  0.00     0.074 A 
ATOM     47  C   UNL A   1      45.704  28.106  25.793  1.00  0.00     0.031 C 
ATOM     48  C   UNL A   1      40.185  26.129  28.855  1.00  0.00     0.029 A 
ATOM     49  C   UNL A   1      40.661  27.482  29.067  1.00  0.00     0.049 A 
ATOM     50  H   UNL A   1      42.649  28.134  28.959  1.00  0.00     0.167 HD
ATOM     51  C   UNL A   1      46.540  29.622  27.669  1.00  0.00     0.037 A 
ATOM     52  C   UNL A   1      39.968  28.593  29.421  1.00  0.00     0.037 A 
ATOM     53  C   UNL A   1      46.671  29.527  29.103  1.00  0.00     0.049 A 
ATOM     54  C   UNL A   1      40.955  29.583  29.918  1.00  0.00     0.074 A 
ATOM     55  C   UNL A   1      47.316  28.663  29.966  1.00  0.00     0.029 A 
ATOM     56  N   UNL A   1      45.752  30.200  29.873  1.00  0.00    -0.354 N 
ATOM     57  N   UNL A   1      41.612  29.447  31.036  1.00  0.00    -0.248 NA
ATOM     58  C   UNL A   1      41.552  30.491  28.950  1.00  0.00     0.031 C 
ATOM     59  C   UNL A   1      46.419  28.502  31.064  1.00  0.00     0.029 A 
ATOM     60  C   UNL A   1      45.322  29.335  30.844  1.00  0.00     0.049 A 
ATOM     61  H   UNL A   1      45.457  31.131  29.749  1.00  0.00     0.167 HD
ATOM     62  C   UNL A   1      42.899  29.868  30.737  1.00  0.00     0.074 A 
ATOM     63  C   UNL A   1      42.776  30.596  29.473  1.00  0.00     0.031 C 
ATOM     64  C   UNL A   1      43.980  29.333  31.376  1.00  0.00     0.037 A 
BRANCH  51  65
ATOM     65  C   UNL A   1      46.551  30.955  26.959  1.00  0.00     0.057 A 
ATOM     66  C   UNL A   1      47.736  31.715  26.956  1.00  0.00     0.134 A 
ATOM     67  C   UNL A   1      45.393  31.655  26.565  1.00  0.00     0.134 A 
ATOM     68  F   UNL A   1      48.906  31.166  27.316  1.00  0.00    -0.206 F 
ATOM     69  C   UNL A   1      47.748  33.087  26.680  1.00  0.00     0.040 A 
ATOM     70  C   UNL A   1      45.404  33.014  26.235  1.00  0.00     0.040 A 
ATOM     71  F   UNL A   1      44.175  31.102  26.577  1.00  0.00    -0.206 F 
ATOM     72  C   UNL A   1      46.576  33.744  26.330  1.00  0.00     0.006 A 
ENDBRANCH  51  65
BRANCH  52  73
ATOM     73  C   UNL A   1      38.556  28.949  29.154  1.00  0.00     0.057 A 
ATOM     74  C   UNL A   1      37.615  29.017  30.194  1.00  0.00     0.134 A 
ATOM     75  C   UNL A   1      38.149  29.495  27.923  1.00  0.00     0.134 A 
ATOM     76  F   UNL A   1      37.916  28.554  31.415  1.00  0.00    -0.206 F 
ATOM     77  C   UNL A   1      36.362  29.623  30.030  1.00  0.00     0.040 A 
ATOM     78  C   UNL A   1      36.897  30.095  27.743  1.00  0.00     0.040 A 
ATOM     79  F   UNL A   1      38.985  29.547  26.876  1.00  0.00    -0.206 F 
ATOM     80  C   UNL A   1      36.005  30.176  28.805  1.00  0.00     0.006 A 
ENDBRANCH  52  73
BRANCH  64  81
ATOM     81  C   UNL A   1      43.728  28.473  32.584  1.00  0.00     0.057 A 
ATOM     82  C   UNL A   1      43.574  27.078  32.546  1.00  0.00     0.134 A 
ATOM     83  C   UNL A   1      43.786  29.064  33.852  1.00  0.00     0.134 A 
ATOM     84  F   UNL A   1      43.612  26.405  31.391  1.00  0.00    -0.206 F 
ATOM     85  C   UNL A   1      43.432  26.317  33.711  1.00  0.00     0.040 A 
ATOM     86  C   UNL A   1      43.681  28.311  35.024  1.00  0.00     0.040 A 
ATOM     87  F   UNL A   1      43.992  30.385  33.972  1.00  0.00    -0.206 F 
ATOM     88  C   UNL A   1      43.490  26.934  34.955  1.00  0.00     0.006 A 
ENDBRANCH  64  81
ENDBRANCH  38  39
ENDBRANCH  30  33
ENDBRANCH  28  29
ENDBRANCH  27  28
ENDBRANCH  26  27
ENDBRANCH  25  26
ENDBRANCH   1  25
TORSDOF 18
ENDMDL
MODEL 2
REMARK VINA RESULT:     -10.6      4.004      9.883
REMARK SMILES O=C(/C=C/c1cc(C(=O)NCCn2cccn2)cs1)NCCCCCCNC(=O)c1ccc(-c2c3nc(c(-c4c(F)cccc4F)c4ccc([nH]4)c(-c4c(F)cccc4F)c4nc(c(-c5c(F)cccc5F)c5ccc2[nH]5)C=C4)C=C3)cc1
REMARK SMILES IDX 22 1 21 2 20 3 1 4 2 5 3 7 4 8 5 9 6 10 19 11 7 12 18 13
REMARK SMILES IDX 8 14 9 15 10 16 11 18 12 19 13 20 14 21 17 22 15 23 16 24
REMARK SMILES IDX 23 25 24 26 25 27 26 28 27 29 28 30 29 32 30 33 31 34 83 35
REMARK SMILES IDX 32 36 82 37 33 38 34 39 35 40 76 41 36 42 81 43 75 44 77 45
REMARK SMILES IDX 37 46 80 47 74 48 73 49 38 51 64 52 47 53 63 54 48 55 51 56
REMARK SMILES IDX 62 57 78 58 49 59 50 60 61 62 79 63 52 64 39 65 40 66 45 67
REMARK SMILES IDX 41 68 42 69 44 70 46 71 43 72 65 73 66 74 71 75 67 76 68 77
REMARK SMILES IDX 70 78 72 79 69 80 53 81 54 82 59 83 55 84 56 85 58 86 60 87
REMARK SMILES IDX 57 88
REMARK H PARENT 20 6 10 17 27 31 77 50 51 61
REMARK Flexibility Score: inf
ROOT
ATOM      1  C   UNL A   1      33.951  32.127  28.212  1.00  0.00     0.021 C 
ENDROOT
BRANCH   1   2
ATOM      2  C   UNL A   1      32.971  31.578  27.177  1.00  0.00     0.116 C 
BRANCH   2   3
ATOM      3  N   UNL A   1      33.366  30.261  26.726  1.00  0.00    -0.353 N 
ATOM      4  O   UNL A   1      31.566  29.129  27.599  1.00  0.00    -0.270 OA
ATOM      5  C   UNL A   1      32.650  29.138  27.029  1.00  0.00     0.244 C 
ATOM      6  H   UNL A   1      34.181  30.172  26.181  1.00  0.00     0.163 HD
BRANCH   5   7
ATOM      7  C   UNL A   1      33.235  27.869  26.546  1.00  0.00     0.072 C 
ATOM      8  C   UNL A   1      32.842  27.210  25.444  1.00  0.00     0.024 C 
BRANCH   8   9
ATOM      9  C   UNL A   1      33.541  26.032  25.063  1.00  0.00     0.028 A 
ATOM     10  C   UNL A   1      34.203  25.116  25.866  1.00  0.00     0.033 A 
ATOM     11  S   UNL A   1      33.657  25.577  23.419  1.00  0.00    -0.144 S 
ATOM     12  C   UNL A   1      35.019  24.189  25.144  1.00  0.00     0.051 A 
ATOM     13  C   UNL A   1      34.746  24.318  23.788  1.00  0.00     0.079 A 
BRANCH  12  14
ATOM     14  C   UNL A   1      35.992  23.197  25.601  1.00  0.00     0.252 C 
ATOM     15  O   UNL A   1      37.160  23.227  25.209  1.00  0.00    -0.269 OA
ATOM     16  N   UNL A   1      35.697  22.219  26.512  1.00  0.00    -0.350 N 
ATOM     17  H   UNL A   1      36.473  21.646  26.713  1.00  0.00     0.163 HD
BRANCH  16  18
ATOM     18  C   UNL A   1      34.505  21.825  27.255  1.00  0.00     0.140 C 
BRANCH  18  19
ATOM     19  C   UNL A   1      33.419  21.251  26.341  1.00  0.00     0.165 C 
BRANCH  19  20
ATOM     20  N   UNL A   1      32.323  22.158  26.032  1.00  0.00    -0.271 N 
ATOM     21  C   UNL A   1      31.575  22.928  26.877  1.00  0.00     0.108 A 
ATOM     22  N   UNL A   1      31.968  22.313  24.739  1.00  0.00    -0.181 NA
ATOM     23  C   UNL A   1      30.692  23.628  26.089  1.00  0.00     0.042 A 
ATOM     24  C   UNL A   1      30.978  23.208  24.780  1.00  0.00     0.135 A 
ENDBRANCH  19  20
ENDBRANCH  18  19
ENDBRANCH  16  18
ENDBRANCH  12  14
ENDBRANCH   8   9
ENDBRANCH   5   7
ENDBRANCH   2   3
ENDBRANCH   1   2
BRANCH   1  25
ATOM     25  C   UNL A   1      34.738  33.364  27.758  1.00  0.00     0.002 C 
BRANCH  25  26
ATOM     26  C   UNL A   1      34.687  34.583  28.691  1.00  0.00     0.002 C 
BRANCH  26  27
ATOM     27  C   UNL A   1      33.294  35.118  29.049  1.00  0.00     0.021 C 
BRANCH  27  28
ATOM     28  C   UNL A   1      33.304  36.391  29.884  1.00  0.00     0.116 C 
BRANCH  28  29
ATOM     29  N   UNL A   1      32.542  36.266  31.126  1.00  0.00    -0.352 N 
ATOM     30  C   UNL A   1      32.676  35.316  32.125  1.00  0.00     0.251 C 
ATOM     31  H   UNL A   1      31.844  36.945  31.271  1.00  0.00     0.163 HD
ATOM     32  O   UNL A   1      31.768  35.088  32.905  1.00  0.00    -0.269 OA
BRANCH  30  33
ATOM     33  C   UNL A   1      33.952  34.582  32.232  1.00  0.00     0.039 A 
ATOM     34  C   UNL A   1      34.028  33.205  32.003  1.00  0.00     0.014 A 
ATOM     35  C   UNL A   1      35.091  35.314  32.545  1.00  0.00     0.014 A 
ATOM     36  C   UNL A   1      35.280  32.591  32.008  1.00  0.00     0.010 A 
ATOM     37  C   UNL A   1      36.326  34.750  32.370  1.00  0.00     0.010 A 
ATOM     38  C   UNL A   1      36.430  33.378  32.172  1.00  0.00    -0.014 A 
BRANCH  38  39
ATOM     39  C   UNL A   1      37.768  32.812  32.032  1.00  0.00     0.031 A 
ATOM     40  C   UNL A   1      38.543  32.719  33.298  1.00  0.00     0.074 A 
ATOM     41  C   UNL A   1      38.173  32.193  30.900  1.00  0.00     0.049 A 
ATOM     42  N   UNL A   1      39.647  33.323  33.587  1.00  0.00    -0.248 NA
ATOM     43  C   UNL A   1      37.967  31.966  34.424  1.00  0.00     0.031 C 
ATOM     44  C   UNL A   1      37.402  31.951  29.673  1.00  0.00     0.029 A 
ATOM     45  N   UNL A   1      39.333  31.528  30.650  1.00  0.00    -0.354 N 
ATOM     46  C   UNL A   1      40.021  32.859  34.846  1.00  0.00     0.074 A 
ATOM     47  C   UNL A   1      38.869  32.184  35.383  1.00  0.00     0.031 C 
ATOM     48  C   UNL A   1      38.010  30.998  28.934  1.00  0.00     0.029 A 
ATOM     49  C   UNL A   1      39.289  30.687  29.542  1.00  0.00     0.049 A 
ATOM     50  H   UNL A   1      40.138  31.634  31.207  1.00  0.00     0.167 HD
ATOM     51  C   UNL A   1      41.330  32.844  35.224  1.00  0.00     0.037 A 
ATOM     52  C   UNL A   1      40.226  29.782  29.164  1.00  0.00     0.037 A 
ATOM     53  C   UNL A   1      42.128  33.685  34.365  1.00  0.00     0.049 A 
ATOM     54  C   UNL A   1      41.493  30.158  29.837  1.00  0.00     0.074 A 
ATOM     55  C   UNL A   1      42.092  35.017  34.002  1.00  0.00     0.029 A 
ATOM     56  N   UNL A   1      42.922  33.068  33.428  1.00  0.00    -0.354 N 
ATOM     57  N   UNL A   1      42.179  31.226  29.539  1.00  0.00    -0.248 NA
ATOM     58  C   UNL A   1      41.753  29.597  31.154  1.00  0.00     0.031 C 
ATOM     59  C   UNL A   1      42.432  35.030  32.616  1.00  0.00     0.029 A 
ATOM     60  C   UNL A   1      42.730  33.721  32.238  1.00  0.00     0.049 A 
ATOM     61  H   UNL A   1      43.517  32.299  33.581  1.00  0.00     0.167 HD
ATOM     62  C   UNL A   1      42.592  31.727  30.764  1.00  0.00     0.074 A 
ATOM     63  C   UNL A   1      42.392  30.630  31.711  1.00  0.00     0.031 C 
ATOM     64  C   UNL A   1      42.771  33.067  30.951  1.00  0.00     0.037 A 
BRANCH  51  65
ATOM     65  C   UNL A   1      41.956  31.777  36.092  1.00  0.00     0.057 A 
ATOM     66  C   UNL A   1      42.804  32.169  37.145  1.00  0.00     0.134 A 
ATOM     67  C   UNL A   1      42.019  30.411  35.751  1.00  0.00     0.134 A 
ATOM     68  F   UNL A   1      42.841  33.443  37.561  1.00  0.00    -0.206 F 
ATOM     69  C   UNL A   1      43.716  31.289  37.742  1.00  0.00     0.040 A 
ATOM     70  C   UNL A   1      42.889  29.513  36.378  1.00  0.00     0.040 A 
ATOM     71  F   UNL A   1      41.330  29.888  34.731  1.00  0.00    -0.206 F 
ATOM     72  C   UNL A   1      43.768  29.958  37.350  1.00  0.00     0.006 A 
ENDBRANCH  51  65
BRANCH  52  73
ATOM     73  C   UNL A   1      40.060  28.495  28.450  1.00  0.00     0.057 A 
ATOM     74  C   UNL A   1      40.672  28.272  27.207  1.00  0.00     0.134 A 
ATOM     75  C   UNL A   1      39.527  27.359  29.084  1.00  0.00     0.134 A 
ATOM     76  F   UNL A   1      41.239  29.283  26.535  1.00  0.00    -0.206 F 
ATOM     77  C   UNL A   1      40.780  26.991  26.646  1.00  0.00     0.040 A 
ATOM     78  C   UNL A   1      39.620  26.077  28.532  1.00  0.00     0.040 A 
ATOM     79  F   UNL A   1      38.978  27.439  30.304  1.00  0.00    -0.206 F 
ATOM     80  C   UNL A   1      40.264  25.887  27.316  1.00  0.00     0.006 A 
ENDBRANCH  52  73
BRANCH  64  81
ATOM     81  C   UNL A   1      42.760  33.955  29.737  1.00  0.00     0.057 A 
ATOM     82  C   UNL A   1      41.632  34.652  29.275  1.00  0.00     0.134 A 
ATOM     83  C   UNL A   1      43.973  34.227  29.094  1.00  0.00     0.134 A 
ATOM     84  F   UNL A   1      40.448  34.544  29.887  1.00  0.00    -0.206 F 
ATOM     85  C   UNL A   1      41.700  35.535  28.193  1.00  0.00     0.040 A 
ATOM     86  C   UNL A   1      44.061  35.132  28.034  1.00  0.00     0.040 A 
ATOM     87  F   UNL A   1      45.106  33.645  29.517  1.00  0.00    -0.206 F 
ATOM     88  C   UNL A   1      42.919  35.781  27.571  1.00  0.00     0.006 A 
ENDBRANCH  64  81
ENDBRANCH  38  39
ENDBRANCH  30  33
ENDBRANCH  28  29
ENDBRANCH  27  28
ENDBRANCH  26  27
ENDBRANCH  25  26
ENDBRANCH   1  25
TORSDOF 18
ENDMDL
MODEL 3
REMARK VINA RESULT:     -10.4      1.496      2.508
REMARK SMILES O=C(/C=C/c1cc(C(=O)NCCn2cccn2)cs1)NCCCCCCNC(=O)c1ccc(-c2c3nc(c(-c4c(F)cccc4F)c4ccc([nH]4)c(-c4c(F)cccc4F)c4nc(c(-c5c(F)cccc5F)c5ccc2[nH]5)C=C4)C=C3)cc1
REMARK SMILES IDX 22 1 21 2 20 3 1 4 2 5 3 7 4 8 5 9 6 10 19 11 7 12 18 13
REMARK SMILES IDX 8 14 9 15 10 16 11 18 12 19 13 20 14 21 17 22 15 23 16 24
REMARK SMILES IDX 23 25 24 26 25 27 26 28 27 29 28 30 29 32 30 33 31 34 83 35
REMARK SMILES IDX 32 36 82 37 33 38 34 39 35 40 76 41 36 42 81 43 75 44 77 45
REMARK SMILES IDX 37 46 80 47 74 48 73 49 38 51 64 52 47 53 63 54 48 55 51 56
REMARK SMILES IDX 62 57 78 58 49 59 50 60 61 62 79 63 52 64 39 65 40 66 45 67
REMARK SMILES IDX 41 68 42 69 44 70 46 71 43 72 65 73 66 74 71 75 67 76 68 77
REMARK SMILES IDX 70 78 72 79 69 80 53 81 54 82 59 83 55 84 56 85 58 86 60 87
REMARK SMILES IDX 57 88
REMARK H PARENT 20 6 10 17 27 31 77 50 51 61
REMARK Flexibility Score: inf
ROOT
ATOM      1  C   UNL A   1      39.682  22.654  26.936  1.00  0.00     0.021 C 
ENDROOT
BRANCH   1   2
ATOM      2  C   UNL A   1      39.022  21.759  25.888  1.00  0.00     0.116 C 
BRANCH   2   3
ATOM      3  N   UNL A   1      37.923  22.437  25.235  1.00  0.00    -0.353 N 
ATOM      4  O   UNL A   1      36.751  20.547  24.654  1.00  0.00    -0.270 OA
ATOM      5  C   UNL A   1      36.906  21.761  24.622  1.00  0.00     0.244 C 
ATOM      6  H   UNL A   1      37.909  23.421  25.233  1.00  0.00     0.163 HD
BRANCH   5   7
ATOM      7  C   UNL A   1      35.904  22.611  23.946  1.00  0.00     0.072 C 
ATOM      8  C   UNL A   1      35.072  23.464  24.566  1.00  0.00     0.024 C 
BRANCH   8   9
ATOM      9  C   UNL A   1      34.202  24.269  23.781  1.00  0.00     0.028 A 
ATOM     10  C   UNL A   1      33.814  25.584  23.985  1.00  0.00     0.033 A 
ATOM     11  S   UNL A   1      33.466  23.642  22.372  1.00  0.00    -0.144 S 
ATOM     12  C   UNL A   1      32.729  26.008  23.155  1.00  0.00     0.051 A 
ATOM     13  C   UNL A   1      32.499  25.035  22.191  1.00  0.00     0.079 A 
BRANCH  12  14
ATOM     14  C   UNL A   1      31.922  27.228  23.167  1.00  0.00     0.252 C 
ATOM     15  O   UNL A   1      32.387  28.300  22.777  1.00  0.00    -0.269 OA
ATOM     16  N   UNL A   1      30.610  27.258  23.557  1.00  0.00    -0.350 N 
ATOM     17  H   UNL A   1      30.219  28.160  23.492  1.00  0.00     0.163 HD
BRANCH  16  18
ATOM     18  C   UNL A   1      29.654  26.269  24.045  1.00  0.00     0.140 C 
BRANCH  18  19
ATOM     19  C   UNL A   1      29.859  25.953  25.529  1.00  0.00     0.165 C 
BRANCH  19  20
ATOM     20  N   UNL A   1      30.616  24.741  25.809  1.00  0.00    -0.271 N 
ATOM     21  C   UNL A   1      30.656  23.567  25.109  1.00  0.00     0.108 A 
ATOM     22  N   UNL A   1      31.425  24.728  26.889  1.00  0.00    -0.181 NA
ATOM     23  C   UNL A   1      31.545  22.751  25.767  1.00  0.00     0.042 A 
ATOM     24  C   UNL A   1      31.987  23.517  26.857  1.00  0.00     0.135 A 
ENDBRANCH  19  20
ENDBRANCH  18  19
ENDBRANCH  16  18
ENDBRANCH  12  14
ENDBRANCH   8   9
ENDBRANCH   5   7
ENDBRANCH   2   3
ENDBRANCH   1   2
BRANCH   1  25
ATOM     25  C   UNL A   1      41.162  22.346  27.201  1.00  0.00     0.002 C 
BRANCH  25  26
ATOM     26  C   UNL A   1      41.458  21.079  28.017  1.00  0.00     0.002 C 
BRANCH  26  27
ATOM     27  C   UNL A   1      42.120  19.916  27.266  1.00  0.00     0.021 C 
BRANCH  27  28
ATOM     28  C   UNL A   1      42.127  20.067  25.752  1.00  0.00     0.116 C 
BRANCH  28  29
ATOM     29  N   UNL A   1      43.413  19.720  25.147  1.00  0.00    -0.352 N 
ATOM     30  C   UNL A   1      44.402  20.571  24.683  1.00  0.00     0.251 C 
ATOM     31  H   UNL A   1      43.599  18.758  25.060  1.00  0.00     0.163 HD
ATOM     32  O   UNL A   1      45.235  20.191  23.879  1.00  0.00    -0.269 OA
BRANCH  30  33
ATOM     33  C   UNL A   1      44.432  21.957  25.188  1.00  0.00     0.039 A 
ATOM     34  C   UNL A   1      43.630  22.959  24.632  1.00  0.00     0.014 A 
ATOM     35  C   UNL A   1      45.271  22.234  26.261  1.00  0.00     0.014 A 
ATOM     36  C   UNL A   1      43.621  24.220  25.227  1.00  0.00     0.010 A 
ATOM     37  C   UNL A   1      45.124  23.407  26.949  1.00  0.00     0.010 A 
ATOM     38  C   UNL A   1      44.358  24.430  26.402  1.00  0.00    -0.014 A 
BRANCH  38  39
ATOM     39  C   UNL A   1      44.262  25.681  27.149  1.00  0.00     0.031 A 
ATOM     40  C   UNL A   1      45.335  26.668  26.856  1.00  0.00     0.074 A 
ATOM     41  C   UNL A   1      43.157  26.015  27.854  1.00  0.00     0.049 A 
ATOM     42  N   UNL A   1      46.225  27.123  27.674  1.00  0.00    -0.248 NA
ATOM     43  C   UNL A   1      45.525  27.111  25.465  1.00  0.00     0.031 C 
ATOM     44  C   UNL A   1      41.902  25.262  27.986  1.00  0.00     0.029 A 
ATOM     45  N   UNL A   1      42.871  27.174  28.508  1.00  0.00    -0.354 N 
ATOM     46  C   UNL A   1      46.950  28.074  26.960  1.00  0.00     0.074 A 
ATOM     47  C   UNL A   1      46.605  27.887  25.576  1.00  0.00     0.031 C 
ATOM     48  C   UNL A   1      40.929  26.077  28.446  1.00  0.00     0.029 A 
ATOM     49  C   UNL A   1      41.523  27.350  28.804  1.00  0.00     0.049 A 
ATOM     50  H   UNL A   1      43.561  27.832  28.751  1.00  0.00     0.167 HD
ATOM     51  C   UNL A   1      47.571  29.104  27.601  1.00  0.00     0.037 A 
ATOM     52  C   UNL A   1      40.932  28.472  29.285  1.00  0.00     0.037 A 
ATOM     53  C   UNL A   1      47.691  28.838  29.015  1.00  0.00     0.049 A 
ATOM     54  C   UNL A   1      42.002  29.309  29.881  1.00  0.00     0.074 A 
ATOM     55  C   UNL A   1      48.256  27.829  29.770  1.00  0.00     0.029 A 
ATOM     56  N   UNL A   1      46.835  29.500  29.862  1.00  0.00    -0.354 N 
ATOM     57  N   UNL A   1      42.643  28.991  30.971  1.00  0.00    -0.248 NA
ATOM     58  C   UNL A   1      42.678  30.262  29.015  1.00  0.00     0.031 C 
ATOM     59  C   UNL A   1      47.347  27.626  30.851  1.00  0.00     0.029 A 
ATOM     60  C   UNL A   1      46.328  28.573  30.735  1.00  0.00     0.049 A 
ATOM     61  H   UNL A   1      46.624  30.461  29.846  1.00  0.00     0.167 HD
ATOM     62  C   UNL A   1      43.963  29.327  30.709  1.00  0.00     0.074 A 
ATOM     63  C   UNL A   1      43.907  30.199  29.536  1.00  0.00     0.031 C 
ATOM     64  C   UNL A   1      44.991  28.630  31.275  1.00  0.00     0.037 A 
BRANCH  51  65
ATOM     65  C   UNL A   1      47.701  30.502  27.044  1.00  0.00     0.057 A 
ATOM     66  C   UNL A   1      48.939  31.164  27.150  1.00  0.00     0.134 A 
ATOM     67  C   UNL A   1      46.610  31.329  26.707  1.00  0.00     0.134 A 
ATOM     68  F   UNL A   1      50.054  30.491  27.471  1.00  0.00    -0.206 F 
ATOM     69  C   UNL A   1      49.061  32.554  27.029  1.00  0.00     0.040 A 
ATOM     70  C   UNL A   1      46.732  32.710  26.531  1.00  0.00     0.040 A 
ATOM     71  F   UNL A   1      45.355  30.873  26.633  1.00  0.00    -0.206 F 
ATOM     72  C   UNL A   1      47.952  33.333  26.730  1.00  0.00     0.006 A 
ENDBRANCH  51  65
BRANCH  52  73
ATOM     73  C   UNL A   1      39.557  28.979  29.072  1.00  0.00     0.057 A 
ATOM     74  C   UNL A   1      39.086  29.280  27.784  1.00  0.00     0.134 A 
ATOM     75  C   UNL A   1      38.582  28.926  30.084  1.00  0.00     0.134 A 
ATOM     76  F   UNL A   1      39.929  29.323  26.743  1.00  0.00    -0.206 F 
ATOM     77  C   UNL A   1      37.725  29.479  27.514  1.00  0.00     0.040 A 
ATOM     78  C   UNL A   1      37.221  29.132  29.829  1.00  0.00     0.040 A 
ATOM     79  F   UNL A   1      38.903  28.584  31.340  1.00  0.00    -0.206 F 
ATOM     80  C   UNL A   1      36.786  29.392  28.536  1.00  0.00     0.006 A 
ENDBRANCH  52  73
BRANCH  64  81
ATOM     81  C   UNL A   1      44.662  27.666  32.382  1.00  0.00     0.057 A 
ATOM     82  C   UNL A   1      44.367  26.308  32.189  1.00  0.00     0.134 A 
ATOM     83  C   UNL A   1      44.790  28.098  33.707  1.00  0.00     0.134 A 
ATOM     84  F   UNL A   1      44.328  25.772  30.964  1.00  0.00    -0.206 F 
ATOM     85  C   UNL A   1      44.157  25.436  33.261  1.00  0.00     0.040 A 
ATOM     86  C   UNL A   1      44.617  27.230  34.788  1.00  0.00     0.040 A 
ATOM     87  F   UNL A   1      45.129  29.370  33.974  1.00  0.00    -0.206 F 
ATOM     88  C   UNL A   1      44.286  25.895  34.567  1.00  0.00     0.006 A 
ENDBRANCH  64  81
ENDBRANCH  38  39
ENDBRANCH  30  33
ENDBRANCH  28  29
ENDBRANCH  27  28
ENDBRANCH  26  27
ENDBRANCH  25  26
ENDBRANCH   1  25
TORSDOF 18
ENDMDL
