MODEL 1
REMARK VINA RESULT:     -11.5      0.000      0.000
REMARK SMILES O=C(NCCCCCCNC(=O)[C@H]1[C@@H](C(=O)NN2CCOCC2)[C@H]2C=C[C@@H]1CC2)c1ccc(-c2c3nc(c(-c4c(F)cccc4F)c4ccc([nH]4)c(-c4c(F)cccc4F)c4nc(c(-c5c(F)cccc5F)c5ccc2[nH]5)C=C4)C=C3)cc1
REMARK SMILES IDX 6 1 5 2 4 3 3 4 1 5 2 6 30 8 31 9 83 10 32 11 82 12 33 13
REMARK SMILES IDX 34 14 35 15 76 16 36 17 81 18 75 19 77 20 37 21 80 22 74 23
REMARK SMILES IDX 73 24 38 26 64 27 47 28 63 29 48 30 51 31 62 32 78 33 49 34
REMARK SMILES IDX 50 35 61 37 79 38 52 39 39 40 40 41 45 42 41 43 42 44 44 45
REMARK SMILES IDX 46 46 43 47 65 48 66 49 71 50 67 51 68 52 70 53 72 54 69 55
REMARK SMILES IDX 53 56 54 57 59 58 55 59 56 60 58 61 60 62 57 63 7 64 8 65
REMARK SMILES IDX 9 66 10 67 11 68 12 70 13 71 14 72 27 73 24 74 26 75 28 76
REMARK SMILES IDX 25 77 29 78 15 79 16 80 17 81 18 83 19 84 23 85 20 86 22 87
REMARK SMILES IDX 21 88
REMARK H PARENT 3 7 77 25 51 36 10 69 17 82
REMARK Flexibility Score: inf
ROOT
ATOM      1  C   UNL A   1      36.775  20.517  25.004  1.00  0.00     0.002 C 
ENDROOT
BRANCH   1   2
ATOM      2  C   UNL A   1      37.966  19.559  24.967  1.00  0.00     0.021 C 
BRANCH   2   3
ATOM      3  C   UNL A   1      39.154  19.974  25.823  1.00  0.00     0.116 C 
BRANCH   3   4
ATOM      4  N   UNL A   1      40.217  18.983  25.844  1.00  0.00    -0.352 N 
ATOM      5  O   UNL A   1      42.362  18.270  25.934  1.00  0.00    -0.269 OA
ATOM      6  C   UNL A   1      41.561  19.185  26.055  1.00  0.00     0.251 C 
ATOM      7  H   UNL A   1      39.941  18.052  25.688  1.00  0.00     0.163 HD
BRANCH   6   8
ATOM      8  C   UNL A   1      42.028  20.544  26.402  1.00  0.00     0.039 A 
ATOM      9  C   UNL A   1      42.180  20.918  27.739  1.00  0.00     0.014 A 
ATOM     10  C   UNL A   1      42.284  21.457  25.376  1.00  0.00     0.014 A 
ATOM     11  C   UNL A   1      42.471  22.239  28.054  1.00  0.00     0.010 A 
ATOM     12  C   UNL A   1      42.652  22.766  25.694  1.00  0.00     0.010 A 
ATOM     13  C   UNL A   1      42.725  23.172  27.036  1.00  0.00    -0.014 A 
BRANCH  13  14
ATOM     14  C   UNL A   1      43.147  24.545  27.401  1.00  0.00     0.031 A 
ATOM     15  C   UNL A   1      44.586  24.965  27.339  1.00  0.00     0.074 A 
ATOM     16  C   UNL A   1      42.199  25.424  27.781  1.00  0.00     0.049 A 
ATOM     17  N   UNL A   1      45.117  26.128  27.624  1.00  0.00    -0.248 NA
ATOM     18  C   UNL A   1      45.561  23.950  26.910  1.00  0.00     0.031 C 
ATOM     19  C   UNL A   1      40.769  25.119  27.894  1.00  0.00     0.029 A 
ATOM     20  N   UNL A   1      42.286  26.745  28.129  1.00  0.00    -0.354 N 
ATOM     21  C   UNL A   1      46.484  25.981  27.432  1.00  0.00     0.074 A 
ATOM     22  C   UNL A   1      46.707  24.610  27.022  1.00  0.00     0.031 C 
ATOM     23  C   UNL A   1      40.110  26.231  28.247  1.00  0.00     0.029 A 
ATOM     24  C   UNL A   1      41.073  27.309  28.442  1.00  0.00     0.049 A 
ATOM     25  H   UNL A   1      43.135  27.243  28.154  1.00  0.00     0.167 HD
ATOM     26  C   UNL A   1      47.460  26.909  27.581  1.00  0.00     0.037 A 
ATOM     27  C   UNL A   1      40.770  28.550  28.860  1.00  0.00     0.037 A 
ATOM     28  C   UNL A   1      47.226  28.275  27.975  1.00  0.00     0.049 A 
ATOM     29  C   UNL A   1      41.871  29.552  29.026  1.00  0.00     0.074 A 
ATOM     30  C   UNL A   1      48.145  29.303  28.110  1.00  0.00     0.029 A 
ATOM     31  N   UNL A   1      45.987  28.804  28.302  1.00  0.00    -0.354 N 
ATOM     32  N   UNL A   1      43.155  29.408  28.805  1.00  0.00    -0.248 NA
ATOM     33  C   UNL A   1      41.484  30.886  29.502  1.00  0.00     0.031 C 
ATOM     34  C   UNL A   1      47.468  30.442  28.559  1.00  0.00     0.029 A 
ATOM     35  C   UNL A   1      46.120  30.136  28.660  1.00  0.00     0.049 A 
ATOM     36  H   UNL A   1      45.138  28.306  28.283  1.00  0.00     0.167 HD
ATOM     37  C   UNL A   1      43.729  30.635  29.104  1.00  0.00     0.074 A 
ATOM     38  C   UNL A   1      42.649  31.516  29.501  1.00  0.00     0.031 C 
ATOM     39  C   UNL A   1      45.035  30.997  29.058  1.00  0.00     0.037 A 
BRANCH  26  40
ATOM     40  C   UNL A   1      48.877  26.477  27.338  1.00  0.00     0.057 A 
ATOM     41  C   UNL A   1      49.703  26.023  28.373  1.00  0.00     0.134 A 
ATOM     42  C   UNL A   1      49.403  26.460  26.039  1.00  0.00     0.134 A 
ATOM     43  F   UNL A   1      49.266  26.024  29.642  1.00  0.00    -0.206 F 
ATOM     44  C   UNL A   1      51.006  25.585  28.130  1.00  0.00     0.040 A 
ATOM     45  C   UNL A   1      50.696  26.003  25.779  1.00  0.00     0.040 A 
ATOM     46  F   UNL A   1      48.662  26.874  24.998  1.00  0.00    -0.206 F 
ATOM     47  C   UNL A   1      51.504  25.567  26.827  1.00  0.00     0.006 A 
ENDBRANCH  26  40
BRANCH  27  48
ATOM     48  C   UNL A   1      39.358  28.897  29.155  1.00  0.00     0.057 A 
ATOM     49  C   UNL A   1      38.524  29.434  28.169  1.00  0.00     0.134 A 
ATOM     50  C   UNL A   1      38.803  28.671  30.421  1.00  0.00     0.134 A 
ATOM     51  F   UNL A   1      39.004  29.685  26.942  1.00  0.00    -0.206 F 
ATOM     52  C   UNL A   1      37.189  29.743  28.434  1.00  0.00     0.040 A 
ATOM     53  C   UNL A   1      37.464  28.951  30.692  1.00  0.00     0.040 A 
ATOM     54  F   UNL A   1      39.550  28.148  31.405  1.00  0.00    -0.206 F 
ATOM     55  C   UNL A   1      36.654  29.494  29.697  1.00  0.00     0.006 A 
ENDBRANCH  27  48
BRANCH  39  56
ATOM     56  C   UNL A   1      45.358  32.413  29.431  1.00  0.00     0.057 A 
ATOM     57  C   UNL A   1      45.709  32.767  30.739  1.00  0.00     0.134 A 
ATOM     58  C   UNL A   1      45.336  33.427  28.467  1.00  0.00     0.134 A 
ATOM     59  F   UNL A   1      45.733  31.843  31.711  1.00  0.00    -0.206 F 
ATOM     60  C   UNL A   1      46.008  34.087  31.080  1.00  0.00     0.040 A 
ATOM     61  C   UNL A   1      45.655  34.746  28.790  1.00  0.00     0.040 A 
ATOM     62  F   UNL A   1      45.012  33.151  27.194  1.00  0.00    -0.206 F 
ATOM     63  C   UNL A   1      45.985  35.080  30.102  1.00  0.00     0.006 A 
ENDBRANCH  39  56
ENDBRANCH  13  14
ENDBRANCH   6   8
ENDBRANCH   3   4
ENDBRANCH   2   3
ENDBRANCH   1   2
BRANCH   1  64
ATOM     64  C   UNL A   1      37.019  21.888  24.368  1.00  0.00     0.002 C 
BRANCH  64  65
ATOM     65  C   UNL A   1      37.498  22.979  25.332  1.00  0.00     0.021 C 
BRANCH  65  66
ATOM     66  C   UNL A   1      36.437  24.012  25.695  1.00  0.00     0.116 C 
BRANCH  66  67
ATOM     67  N   UNL A   1      35.454  23.457  26.608  1.00  0.00    -0.356 N 
ATOM     68  C   UNL A   1      34.093  23.391  26.488  1.00  0.00     0.224 C 
ATOM     69  H   UNL A   1      35.821  23.072  27.436  1.00  0.00     0.163 HD
ATOM     70  O   UNL A   1      33.453  22.892  27.413  1.00  0.00    -0.275 OA
BRANCH  68  71
ATOM     71  C   UNL A   1      33.449  24.020  25.270  1.00  0.00     0.098 C 
ATOM     72  C   UNL A   1      32.037  23.521  24.842  1.00  0.00     0.100 C 
ATOM     73  C   UNL A   1      33.438  25.562  25.523  1.00  0.00     0.025 C 
ATOM     74  C   UNL A   1      31.095  24.771  24.748  1.00  0.00     0.025 C 
ATOM     75  C   UNL A   1      32.321  25.878  26.497  1.00  0.00    -0.027 C 
ATOM     76  C   UNL A   1      33.075  26.264  24.200  1.00  0.00     0.009 C 
ATOM     77  C   UNL A   1      31.108  25.467  26.096  1.00  0.00    -0.027 C 
ATOM     78  C   UNL A   1      31.692  25.772  23.723  1.00  0.00     0.009 C 
BRANCH  72  79
ATOM     79  C   UNL A   1      31.314  22.377  25.575  1.00  0.00     0.238 C 
ATOM     80  O   UNL A   1      30.277  22.579  26.219  1.00  0.00    -0.273 OA
ATOM     81  N   UNL A   1      31.648  21.058  25.384  1.00  0.00    -0.288 N 
ATOM     82  H   UNL A   1      30.955  20.390  25.592  1.00  0.00     0.185 HD
BRANCH  81  83
ATOM     83  N   UNL A   1      32.876  20.572  24.923  1.00  0.00    -0.217 NA
ATOM     84  C   UNL A   1      32.863  20.202  23.498  1.00  0.00     0.136 C 
ATOM     85  C   UNL A   1      33.301  19.395  25.733  1.00  0.00     0.136 C 
ATOM     86  C   UNL A   1      32.153  18.874  23.200  1.00  0.00     0.177 C 
ATOM     87  C   UNL A   1      32.571  18.094  25.377  1.00  0.00     0.177 C 
ATOM     88  O   UNL A   1      32.696  17.803  23.980  1.00  0.00    -0.379 OA
ENDBRANCH  81  83
ENDBRANCH  72  79
ENDBRANCH  68  71
ENDBRANCH  66  67
ENDBRANCH  65  66
ENDBRANCH  64  65
ENDBRANCH   1  64
TORSDOF 15
ENDMDL
MODEL 2
REMARK VINA RESULT:     -11.5      4.858      9.030
REMARK SMILES O=C(NCCCCCCNC(=O)[C@H]1[C@@H](C(=O)NN2CCOCC2)[C@H]2C=C[C@@H]1CC2)c1ccc(-c2c3nc(c(-c4c(F)cccc4F)c4ccc([nH]4)c(-c4c(F)cccc4F)c4nc(c(-c5c(F)cccc5F)c5ccc2[nH]5)C=C4)C=C3)cc1
REMARK SMILES IDX 6 1 5 2 4 3 3 4 1 5 2 6 30 8 31 9 83 10 32 11 82 12 33 13
REMARK SMILES IDX 34 14 35 15 76 16 36 17 81 18 75 19 77 20 37 21 80 22 74 23
REMARK SMILES IDX 73 24 38 26 64 27 47 28 63 29 48 30 51 31 62 32 78 33 49 34
REMARK SMILES IDX 50 35 61 37 79 38 52 39 39 40 40 41 45 42 41 43 42 44 44 45
REMARK SMILES IDX 46 46 43 47 65 48 66 49 71 50 67 51 68 52 70 53 72 54 69 55
REMARK SMILES IDX 53 56 54 57 59 58 55 59 56 60 58 61 60 62 57 63 7 64 8 65
REMARK SMILES IDX 9 66 10 67 11 68 12 70 13 71 14 72 27 73 24 74 26 75 28 76
REMARK SMILES IDX 25 77 29 78 15 79 16 80 17 81 18 83 19 84 23 85 20 86 22 87
REMARK SMILES IDX 21 88
REMARK H PARENT 3 7 77 25 51 36 10 69 17 82
REMARK Flexibility Score: inf
ROOT
ATOM      1  C   UNL A   1      31.526  30.793  25.978  1.00  0.00     0.002 C 
ENDROOT
BRANCH   1   2
ATOM      2  C   UNL A   1      31.303  32.204  26.524  1.00  0.00     0.021 C 
BRANCH   2   3
ATOM      3  C   UNL A   1      32.520  32.839  27.182  1.00  0.00     0.116 C 
BRANCH   3   4
ATOM      4  N   UNL A   1      32.290  34.210  27.606  1.00  0.00    -0.352 N 
ATOM      5  O   UNL A   1      32.612  36.050  28.882  1.00  0.00    -0.269 OA
ATOM      6  C   UNL A   1      32.987  34.938  28.542  1.00  0.00     0.251 C 
ATOM      7  H   UNL A   1      31.542  34.677  27.168  1.00  0.00     0.163 HD
BRANCH   6   8
ATOM      8  C   UNL A   1      34.187  34.334  29.158  1.00  0.00     0.039 A 
ATOM      9  C   UNL A   1      35.451  34.558  28.608  1.00  0.00     0.014 A 
ATOM     10  C   UNL A   1      34.036  33.513  30.279  1.00  0.00     0.014 A 
ATOM     11  C   UNL A   1      36.548  33.865  29.102  1.00  0.00     0.010 A 
ATOM     12  C   UNL A   1      35.154  32.876  30.822  1.00  0.00     0.010 A 
ATOM     13  C   UNL A   1      36.414  33.030  30.223  1.00  0.00    -0.014 A 
BRANCH  13  14
ATOM     14  C   UNL A   1      37.622  32.394  30.801  1.00  0.00     0.031 A 
ATOM     15  C   UNL A   1      38.280  31.218  30.141  1.00  0.00     0.074 A 
ATOM     16  C   UNL A   1      38.130  32.907  31.938  1.00  0.00     0.049 A 
ATOM     17  N   UNL A   1      39.341  30.550  30.519  1.00  0.00    -0.248 NA
ATOM     18  C   UNL A   1      37.668  30.718  28.899  1.00  0.00     0.031 C 
ATOM     19  C   UNL A   1      37.561  34.038  32.677  1.00  0.00     0.029 A 
ATOM     20  N   UNL A   1      39.237  32.559  32.665  1.00  0.00    -0.354 N 
ATOM     21  C   UNL A   1      39.512  29.541  29.580  1.00  0.00     0.074 A 
ATOM     22  C   UNL A   1      38.435  29.672  28.621  1.00  0.00     0.031 C 
ATOM     23  C   UNL A   1      38.344  34.315  33.728  1.00  0.00     0.029 A 
ATOM     24  C   UNL A   1      39.434  33.346  33.773  1.00  0.00     0.049 A 
ATOM     25  H   UNL A   1      39.834  31.816  32.419  1.00  0.00     0.167 HD
ATOM     26  C   UNL A   1      40.482  28.598  29.526  1.00  0.00     0.037 A 
ATOM     27  C   UNL A   1      40.375  33.286  34.731  1.00  0.00     0.037 A 
ATOM     28  C   UNL A   1      41.559  28.485  30.476  1.00  0.00     0.049 A 
ATOM     29  C   UNL A   1      41.430  32.224  34.650  1.00  0.00     0.074 A 
ATOM     30  C   UNL A   1      42.616  27.590  30.480  1.00  0.00     0.029 A 
ATOM     31  N   UNL A   1      41.714  29.289  31.596  1.00  0.00    -0.354 N 
ATOM     32  N   UNL A   1      41.599  31.301  33.735  1.00  0.00    -0.248 NA
ATOM     33  C   UNL A   1      42.421  32.194  35.733  1.00  0.00     0.031 C 
ATOM     34  C   UNL A   1      43.387  27.826  31.624  1.00  0.00     0.029 A 
ATOM     35  C   UNL A   1      42.836  28.898  32.309  1.00  0.00     0.049 A 
ATOM     36  H   UNL A   1      41.115  30.030  31.846  1.00  0.00     0.167 HD
ATOM     37  C   UNL A   1      42.721  30.585  34.125  1.00  0.00     0.074 A 
ATOM     38  C   UNL A   1      43.204  31.197  35.347  1.00  0.00     0.031 C 
ATOM     39  C   UNL A   1      43.298  29.514  33.527  1.00  0.00     0.037 A 
BRANCH  26  40
ATOM     40  C   UNL A   1      40.418  27.595  28.411  1.00  0.00     0.057 A 
ATOM     41  C   UNL A   1      41.103  27.782  27.203  1.00  0.00     0.134 A 
ATOM     42  C   UNL A   1      39.707  26.397  28.569  1.00  0.00     0.134 A 
ATOM     43  F   UNL A   1      41.793  28.911  26.982  1.00  0.00    -0.206 F 
ATOM     44  C   UNL A   1      41.070  26.824  26.188  1.00  0.00     0.040 A 
ATOM     45  C   UNL A   1      39.685  25.422  27.571  1.00  0.00     0.040 A 
ATOM     46  F   UNL A   1      39.034  26.150  29.704  1.00  0.00    -0.206 F 
ATOM     47  C   UNL A   1      40.365  25.635  26.374  1.00  0.00     0.006 A 
ENDBRANCH  26  40
BRANCH  27  48
ATOM     48  C   UNL A   1      40.344  34.261  35.848  1.00  0.00     0.057 A 
ATOM     49  C   UNL A   1      40.947  35.517  35.729  1.00  0.00     0.134 A 
ATOM     50  C   UNL A   1      39.685  33.969  37.050  1.00  0.00     0.134 A 
ATOM     51  F   UNL A   1      41.604  35.847  34.608  1.00  0.00    -0.206 F 
ATOM     52  C   UNL A   1      40.903  36.447  36.768  1.00  0.00     0.040 A 
ATOM     53  C   UNL A   1      39.611  34.899  38.086  1.00  0.00     0.040 A 
ATOM     54  F   UNL A   1      39.078  32.785  37.219  1.00  0.00    -0.206 F 
ATOM     55  C   UNL A   1      40.227  36.141  37.949  1.00  0.00     0.006 A 
ENDBRANCH  27  48
BRANCH  39  56
ATOM     56  C   UNL A   1      44.525  28.952  34.181  1.00  0.00     0.057 A 
ATOM     57  C   UNL A   1      44.448  27.916  35.119  1.00  0.00     0.134 A 
ATOM     58  C   UNL A   1      45.795  29.440  33.853  1.00  0.00     0.134 A 
ATOM     59  F   UNL A   1      43.259  27.416  35.486  1.00  0.00    -0.206 F 
ATOM     60  C   UNL A   1      45.594  27.398  35.725  1.00  0.00     0.040 A 
ATOM     61  C   UNL A   1      46.949  28.916  34.435  1.00  0.00     0.040 A 
ATOM     62  F   UNL A   1      45.935  30.430  32.957  1.00  0.00    -0.206 F 
ATOM     63  C   UNL A   1      46.849  27.895  35.379  1.00  0.00     0.006 A 
ENDBRANCH  39  56
ENDBRANCH  13  14
ENDBRANCH   6   8
ENDBRANCH   3   4
ENDBRANCH   2   3
ENDBRANCH   1   2
BRANCH   1  64
ATOM     64  C   UNL A   1      32.297  29.849  26.903  1.00  0.00     0.002 C 
BRANCH  64  65
ATOM     65  C   UNL A   1      31.470  28.711  27.513  1.00  0.00     0.021 C 
BRANCH  65  66
ATOM     66  C   UNL A   1      32.081  27.325  27.344  1.00  0.00     0.116 C 
BRANCH  66  67
ATOM     67  N   UNL A   1      31.226  26.468  26.541  1.00  0.00    -0.356 N 
ATOM     68  C   UNL A   1      31.318  26.141  25.216  1.00  0.00     0.224 C 
ATOM     69  H   UNL A   1      30.469  26.062  27.022  1.00  0.00     0.163 HD
ATOM     70  O   UNL A   1      30.454  25.407  24.739  1.00  0.00    -0.275 OA
BRANCH  68  71
ATOM     71  C   UNL A   1      32.420  26.777  24.395  1.00  0.00     0.098 C 
ATOM     72  C   UNL A   1      33.255  25.864  23.449  1.00  0.00     0.100 C 
ATOM     73  C   UNL A   1      31.757  27.945  23.595  1.00  0.00     0.025 C 
ATOM     74  C   UNL A   1      33.194  26.483  22.009  1.00  0.00     0.025 C 
ATOM     75  C   UNL A   1      30.990  27.350  22.431  1.00  0.00    -0.027 C 
ATOM     76  C   UNL A   1      32.879  28.806  22.984  1.00  0.00     0.009 C 
ATOM     77  C   UNL A   1      31.734  26.592  21.611  1.00  0.00    -0.027 C 
ATOM     78  C   UNL A   1      33.752  27.929  22.061  1.00  0.00     0.009 C 
BRANCH  72  79
ATOM     79  C   UNL A   1      33.036  24.343  23.374  1.00  0.00     0.238 C 
ATOM     80  O   UNL A   1      32.546  23.812  22.369  1.00  0.00    -0.273 OA
ATOM     81  N   UNL A   1      33.560  23.480  24.307  1.00  0.00    -0.288 N 
ATOM     82  H   UNL A   1      33.684  22.545  24.026  1.00  0.00     0.185 HD
BRANCH  81  83
ATOM     83  N   UNL A   1      33.933  23.802  25.616  1.00  0.00    -0.217 NA
ATOM     84  C   UNL A   1      35.337  23.481  25.922  1.00  0.00     0.136 C 
ATOM     85  C   UNL A   1      33.046  23.106  26.590  1.00  0.00     0.136 C 
ATOM     86  C   UNL A   1      35.606  21.986  26.144  1.00  0.00     0.177 C 
ATOM     87  C   UNL A   1      33.375  21.620  26.785  1.00  0.00     0.177 C 
ATOM     88  O   UNL A   1      34.747  21.444  27.154  1.00  0.00    -0.379 OA
ENDBRANCH  81  83
ENDBRANCH  72  79
ENDBRANCH  68  71
ENDBRANCH  66  67
ENDBRANCH  65  66
ENDBRANCH  64  65
ENDBRANCH   1  64
TORSDOF 15
ENDMDL
MODEL 3
REMARK VINA RESULT:     -11.5      5.018      9.793
REMARK SMILES O=C(NCCCCCCNC(=O)[C@H]1[C@@H](C(=O)NN2CCOCC2)[C@H]2C=C[C@@H]1CC2)c1ccc(-c2c3nc(c(-c4c(F)cccc4F)c4ccc([nH]4)c(-c4c(F)cccc4F)c4nc(c(-c5c(F)cccc5F)c5ccc2[nH]5)C=C4)C=C3)cc1
REMARK SMILES IDX 6 1 5 2 4 3 3 4 1 5 2 6 30 8 31 9 83 10 32 11 82 12 33 13
REMARK SMILES IDX 34 14 35 15 76 16 36 17 81 18 75 19 77 20 37 21 80 22 74 23
REMARK SMILES IDX 73 24 38 26 64 27 47 28 63 29 48 30 51 31 62 32 78 33 49 34
REMARK SMILES IDX 50 35 61 37 79 38 52 39 39 40 40 41 45 42 41 43 42 44 44 45
REMARK SMILES IDX 46 46 43 47 65 48 66 49 71 50 67 51 68 52 70 53 72 54 69 55
REMARK SMILES IDX 53 56 54 57 59 58 55 59 56 60 58 61 60 62 57 63 7 64 8 65
REMARK SMILES IDX 9 66 10 67 11 68 12 70 13 71 14 72 27 73 24 74 26 75 28 76
REMARK SMILES IDX 25 77 29 78 15 79 16 80 17 81 18 83 19 84 23 85 20 86 22 87
REMARK SMILES IDX 21 88
REMARK H PARENT 3 7 77 25 51 36 10 69 17 82
REMARK Flexibility Score: inf
ROOT
ATOM      1  C   UNL A   1      31.528  30.835  25.937  1.00  0.00     0.002 C 
ENDROOT
BRANCH   1   2
ATOM      2  C   UNL A   1      31.353  32.245  26.501  1.00  0.00     0.021 C 
BRANCH   2   3
ATOM      3  C   UNL A   1      32.576  32.813  27.207  1.00  0.00     0.116 C 
BRANCH   3   4
ATOM      4  N   UNL A   1      32.403  34.194  27.626  1.00  0.00    -0.352 N 
ATOM      5  O   UNL A   1      32.780  36.014  28.915  1.00  0.00    -0.269 OA
ATOM      6  C   UNL A   1      33.107  34.884  28.585  1.00  0.00     0.251 C 
ATOM      7  H   UNL A   1      31.695  34.699  27.166  1.00  0.00     0.163 HD
BRANCH   6   8
ATOM      8  C   UNL A   1      34.255  34.219  29.237  1.00  0.00     0.039 A 
ATOM      9  C   UNL A   1      35.552  34.418  28.758  1.00  0.00     0.014 A 
ATOM     10  C   UNL A   1      34.021  33.366  30.318  1.00  0.00     0.014 A 
ATOM     11  C   UNL A   1      36.600  33.672  29.279  1.00  0.00     0.010 A 
ATOM     12  C   UNL A   1      35.090  32.673  30.893  1.00  0.00     0.010 A 
ATOM     13  C   UNL A   1      36.383  32.804  30.362  1.00  0.00    -0.014 A 
BRANCH  13  14
ATOM     14  C   UNL A   1      37.538  32.108  30.976  1.00  0.00     0.031 A 
ATOM     15  C   UNL A   1      38.007  32.440  32.362  1.00  0.00     0.074 A 
ATOM     16  C   UNL A   1      38.159  31.150  30.260  1.00  0.00     0.049 A 
ATOM     17  N   UNL A   1      39.000  31.922  33.040  1.00  0.00    -0.248 NA
ATOM     18  C   UNL A   1      37.275  33.494  33.082  1.00  0.00     0.031 C 
ATOM     19  C   UNL A   1      37.799  30.757  28.894  1.00  0.00     0.029 A 
ATOM     20  N   UNL A   1      39.207  30.328  30.577  1.00  0.00    -0.354 N 
ATOM     21  C   UNL A   1      39.029  32.598  34.253  1.00  0.00     0.074 A 
ATOM     22  C   UNL A   1      37.963  33.577  34.213  1.00  0.00     0.031 C 
ATOM     23  C   UNL A   1      38.587  29.745  28.506  1.00  0.00     0.029 A 
ATOM     24  C   UNL A   1      39.544  29.458  29.569  1.00  0.00     0.049 A 
ATOM     25  H   UNL A   1      39.675  30.358  31.442  1.00  0.00     0.167 HD
ATOM     26  C   UNL A   1      39.865  32.412  35.301  1.00  0.00     0.037 A 
ATOM     27  C   UNL A   1      40.526  28.543  29.498  1.00  0.00     0.037 A 
ATOM     28  C   UNL A   1      40.913  31.423  35.338  1.00  0.00     0.049 A 
ATOM     29  C   UNL A   1      41.443  28.366  30.670  1.00  0.00     0.074 A 
ATOM     30  C   UNL A   1      41.785  31.128  36.373  1.00  0.00     0.029 A 
ATOM     31  N   UNL A   1      41.236  30.573  34.290  1.00  0.00    -0.354 N 
ATOM     32  N   UNL A   1      41.433  28.988  31.823  1.00  0.00    -0.248 NA
ATOM     33  C   UNL A   1      42.509  27.366  30.529  1.00  0.00     0.031 C 
ATOM     34  C   UNL A   1      42.661  30.128  35.937  1.00  0.00     0.029 A 
ATOM     35  C   UNL A   1      42.307  29.768  34.646  1.00  0.00     0.049 A 
ATOM     36  H   UNL A   1      40.772  30.545  33.422  1.00  0.00     0.167 HD
ATOM     37  C   UNL A   1      42.482  28.448  32.552  1.00  0.00     0.074 A 
ATOM     38  C   UNL A   1      43.093  27.433  31.717  1.00  0.00     0.031 C 
ATOM     39  C   UNL A   1      42.906  28.767  33.800  1.00  0.00     0.037 A 
BRANCH  26  40
ATOM     40  C   UNL A   1      39.699  33.307  36.495  1.00  0.00     0.057 A 
ATOM     41  C   UNL A   1      40.394  34.517  36.617  1.00  0.00     0.134 A 
ATOM     42  C   UNL A   1      38.787  32.982  37.508  1.00  0.00     0.134 A 
ATOM     43  F   UNL A   1      41.290  34.883  35.688  1.00  0.00    -0.206 F 
ATOM     44  C   UNL A   1      40.201  35.363  37.712  1.00  0.00     0.040 A 
ATOM     45  C   UNL A   1      38.569  33.830  38.595  1.00  0.00     0.040 A 
ATOM     46  F   UNL A   1      38.082  31.842  37.449  1.00  0.00    -0.206 F 
ATOM     47  C   UNL A   1      39.280  35.023  38.702  1.00  0.00     0.006 A 
ENDBRANCH  26  40
BRANCH  27  48
ATOM     48  C   UNL A   1      40.686  27.737  28.263  1.00  0.00     0.057 A 
ATOM     49  C   UNL A   1      41.471  28.190  27.199  1.00  0.00     0.134 A 
ATOM     50  C   UNL A   1      40.080  26.480  28.132  1.00  0.00     0.134 A 
ATOM     51  F   UNL A   1      42.065  29.391  27.261  1.00  0.00    -0.206 F 
ATOM     52  C   UNL A   1      41.643  27.426  26.043  1.00  0.00     0.040 A 
ATOM     53  C   UNL A   1      40.264  25.695  26.994  1.00  0.00     0.040 A 
ATOM     54  F   UNL A   1      39.323  25.987  29.124  1.00  0.00    -0.206 F 
ATOM     55  C   UNL A   1      41.044  26.172  25.943  1.00  0.00     0.006 A 
ENDBRANCH  27  48
BRANCH  39  56
ATOM     56  C   UNL A   1      44.073  27.995  34.337  1.00  0.00     0.057 A 
ATOM     57  C   UNL A   1      43.905  26.765  34.986  1.00  0.00     0.134 A 
ATOM     58  C   UNL A   1      45.378  28.477  34.186  1.00  0.00     0.134 A 
ATOM     59  F   UNL A   1      42.677  26.258  35.176  1.00  0.00    -0.206 F 
ATOM     60  C   UNL A   1      44.995  26.052  35.486  1.00  0.00     0.040 A 
ATOM     61  C   UNL A   1      46.478  27.762  34.661  1.00  0.00     0.040 A 
ATOM     62  F   UNL A   1      45.605  29.647  33.569  1.00  0.00    -0.206 F 
ATOM     63  C   UNL A   1      46.287  26.549  35.319  1.00  0.00     0.006 A 
ENDBRANCH  39  56
ENDBRANCH  13  14
ENDBRANCH   6   8
ENDBRANCH   3   4
ENDBRANCH   2   3
ENDBRANCH   1   2
BRANCH   1  64
ATOM     64  C   UNL A   1      32.277  29.856  26.845  1.00  0.00     0.002 C 
BRANCH  64  65
ATOM     65  C   UNL A   1      31.426  28.722  27.427  1.00  0.00     0.021 C 
BRANCH  65  66
ATOM     66  C   UNL A   1      32.066  27.341  27.337  1.00  0.00     0.116 C 
BRANCH  66  67
ATOM     67  N   UNL A   1      31.254  26.435  26.546  1.00  0.00    -0.356 N 
ATOM     68  C   UNL A   1      31.375  26.078  25.231  1.00  0.00     0.224 C 
ATOM     69  H   UNL A   1      30.505  26.014  27.028  1.00  0.00     0.163 HD
ATOM     70  O   UNL A   1      30.544  25.302  24.762  1.00  0.00    -0.275 OA
BRANCH  68  71
ATOM     71  C   UNL A   1      32.466  26.733  24.409  1.00  0.00     0.098 C 
ATOM     72  C   UNL A   1      33.320  25.832  23.467  1.00  0.00     0.100 C 
ATOM     73  C   UNL A   1      31.781  27.883  23.602  1.00  0.00     0.025 C 
ATOM     74  C   UNL A   1      33.248  26.443  22.025  1.00  0.00     0.025 C 
ATOM     75  C   UNL A   1      31.027  27.268  22.440  1.00  0.00    -0.027 C 
ATOM     76  C   UNL A   1      32.886  28.764  22.989  1.00  0.00     0.009 C 
ATOM     77  C   UNL A   1      31.786  26.522  21.624  1.00  0.00    -0.027 C 
ATOM     78  C   UNL A   1      33.777  27.901  22.071  1.00  0.00     0.009 C 
BRANCH  72  79
ATOM     79  C   UNL A   1      33.131  24.307  23.399  1.00  0.00     0.238 C 
ATOM     80  O   UNL A   1      32.484  23.778  22.485  1.00  0.00    -0.273 OA
ATOM     81  N   UNL A   1      33.835  23.444  24.205  1.00  0.00    -0.288 N 
ATOM     82  H   UNL A   1      33.932  22.517  23.885  1.00  0.00     0.185 HD
BRANCH  81  83
ATOM     83  N   UNL A   1      34.426  23.754  25.434  1.00  0.00    -0.217 NA
ATOM     84  C   UNL A   1      35.650  22.982  25.708  1.00  0.00     0.136 C 
ATOM     85  C   UNL A   1      33.453  23.544  26.542  1.00  0.00     0.136 C 
ATOM     86  C   UNL A   1      35.393  21.527  26.126  1.00  0.00     0.177 C 
ATOM     87  C   UNL A   1      33.253  22.073  26.928  1.00  0.00     0.177 C 
ATOM     88  O   UNL A   1      34.504  21.453  27.246  1.00  0.00    -0.379 OA
ENDBRANCH  81  83
ENDBRANCH  72  79
ENDBRANCH  68  71
ENDBRANCH  66  67
ENDBRANCH  65  66
ENDBRANCH  64  65
ENDBRANCH   1  64
TORSDOF 15
ENDMDL
