MODEL 1
REMARK VINA RESULT:     -10.8      0.000      0.000
REMARK SMILES CCN(CC)C(=O)C[C@](C)(C(=O)NCCCCCCNC(=O)c1ccc(-c2c3nc(c(-c4c(F)cccc4F)c4ccc([nH]4)c(-c4c(F)cccc4F)c4nc(c(-c5c(F)cccc5F)c5ccc2[nH]5)C=C4)C=C3)cc1)c1ccccc1
REMARK SMILES IDX 16 1 15 2 14 3 13 4 11 5 12 6 9 8 10 9 8 10 6 11 3 12 7 13
REMARK SMILES IDX 2 14 1 15 4 16 5 17 77 18 78 19 82 20 79 21 81 22 80 23
REMARK SMILES IDX 17 24 18 25 19 26 20 27 21 28 22 30 23 31 24 32 76 33 25 34
REMARK SMILES IDX 75 35 26 36 27 37 28 38 69 39 29 40 74 41 68 42 70 43 30 44
REMARK SMILES IDX 73 45 67 46 66 47 31 49 57 50 40 51 56 52 41 53 44 54 55 55
REMARK SMILES IDX 71 56 42 57 43 58 54 60 72 61 45 62 32 63 33 64 38 65 34 66
REMARK SMILES IDX 35 67 37 68 39 69 36 70 58 71 59 72 64 73 60 74 61 75 63 76
REMARK SMILES IDX 65 77 62 78 46 79 47 80 52 81 48 82 49 83 51 84 53 85 50 86
REMARK H PARENT 13 7 20 29 70 48 44 59
REMARK Flexibility Score: inf
ROOT
ATOM      1  C   UNL A   1      30.068  30.143  23.870  1.00  0.00     0.002 C 
ENDROOT
BRANCH   1   2
ATOM      2  C   UNL A   1      30.646  29.444  22.634  1.00  0.00     0.021 C 
BRANCH   2   3
ATOM      3  C   UNL A   1      30.552  27.924  22.706  1.00  0.00     0.116 C 
BRANCH   3   4
ATOM      4  N   UNL A   1      31.691  27.327  22.025  1.00  0.00    -0.355 N 
ATOM      5  C   UNL A   1      32.755  26.588  22.461  1.00  0.00     0.230 C 
ATOM      6  O   UNL A   1      33.676  26.496  21.644  1.00  0.00    -0.274 OA
ATOM      7  H   UNL A   1      31.697  27.487  21.054  1.00  0.00     0.163 HD
BRANCH   5   8
ATOM      8  C   UNL A   1      32.784  25.913  23.861  1.00  0.00     0.080 C 
ATOM      9  C   UNL A   1      31.421  25.150  23.915  1.00  0.00     0.027 C 
BRANCH   8  10
ATOM     10  C   UNL A   1      33.981  24.921  23.974  1.00  0.00     0.121 C 
BRANCH  10  11
ATOM     11  C   UNL A   1      33.787  23.439  23.647  1.00  0.00     0.223 C 
ATOM     12  N   UNL A   1      33.681  22.483  24.655  1.00  0.00    -0.343 N 
ATOM     13  O   UNL A   1      33.817  23.105  22.457  1.00  0.00    -0.275 OA
BRANCH  12  14
ATOM     14  C   UNL A   1      33.513  21.087  24.236  1.00  0.00     0.116 C 
ATOM     15  C   UNL A   1      32.200  20.482  24.718  1.00  0.00     0.027 C 
ENDBRANCH  12  14
BRANCH  12  16
ATOM     16  C   UNL A   1      33.772  22.717  26.096  1.00  0.00     0.116 C 
ATOM     17  C   UNL A   1      34.974  22.050  26.742  1.00  0.00     0.027 C 
ENDBRANCH  12  16
ENDBRANCH  10  11
ENDBRANCH   8  10
BRANCH   8  18
ATOM     18  C   UNL A   1      32.832  26.903  25.059  1.00  0.00    -0.032 A 
ATOM     19  C   UNL A   1      33.905  27.796  25.241  1.00  0.00     0.005 A 
ATOM     20  C   UNL A   1      31.851  26.882  26.072  1.00  0.00     0.005 A 
ATOM     21  C   UNL A   1      33.987  28.627  26.362  1.00  0.00     0.000 A 
ATOM     22  C   UNL A   1      31.926  27.721  27.187  1.00  0.00     0.000 A 
ATOM     23  C   UNL A   1      32.998  28.591  27.336  1.00  0.00     0.000 A 
ENDBRANCH   8  18
ENDBRANCH   5   8
ENDBRANCH   3   4
ENDBRANCH   2   3
ENDBRANCH   1   2
BRANCH   1  24
ATOM     24  C   UNL A   1      31.076  30.371  25.003  1.00  0.00     0.002 C 
BRANCH  24  25
ATOM     25  C   UNL A   1      30.907  31.695  25.751  1.00  0.00     0.021 C 
BRANCH  25  26
ATOM     26  C   UNL A   1      32.068  32.042  26.677  1.00  0.00     0.116 C 
BRANCH  26  27
ATOM     27  N   UNL A   1      32.045  33.440  27.077  1.00  0.00    -0.352 N 
ATOM     28  C   UNL A   1      32.849  34.097  27.971  1.00  0.00     0.251 C 
ATOM     29  H   UNL A   1      31.353  33.993  26.646  1.00  0.00     0.163 HD
ATOM     30  O   UNL A   1      32.561  35.230  28.349  1.00  0.00    -0.269 OA
BRANCH  28  31
ATOM     31  C   UNL A   1      34.053  33.425  28.497  1.00  0.00     0.039 A 
ATOM     32  C   UNL A   1      35.244  34.148  28.586  1.00  0.00     0.014 A 
ATOM     33  C   UNL A   1      34.004  32.090  28.909  1.00  0.00     0.014 A 
ATOM     34  C   UNL A   1      36.372  33.550  29.148  1.00  0.00     0.010 A 
ATOM     35  C   UNL A   1      35.107  31.520  29.538  1.00  0.00     0.010 A 
ATOM     36  C   UNL A   1      36.301  32.245  29.664  1.00  0.00    -0.014 A 
BRANCH  36  37
ATOM     37  C   UNL A   1      37.462  31.635  30.360  1.00  0.00     0.031 A 
ATOM     38  C   UNL A   1      38.325  30.624  29.660  1.00  0.00     0.074 A 
ATOM     39  C   UNL A   1      37.701  31.953  31.648  1.00  0.00     0.049 A 
ATOM     40  N   UNL A   1      39.347  29.950  30.123  1.00  0.00    -0.248 NA
ATOM     41  C   UNL A   1      37.981  30.309  28.265  1.00  0.00     0.031 C 
ATOM     42  C   UNL A   1      36.903  32.881  32.453  1.00  0.00     0.029 A 
ATOM     43  N   UNL A   1      38.675  31.521  32.512  1.00  0.00    -0.354 N 
ATOM     44  C   UNL A   1      39.760  29.127  29.083  1.00  0.00     0.074 A 
ATOM     45  C   UNL A   1      38.847  29.347  27.981  1.00  0.00     0.031 C 
ATOM     46  C   UNL A   1      37.432  32.966  33.683  1.00  0.00     0.029 A 
ATOM     47  C   UNL A   1      38.579  32.067  33.770  1.00  0.00     0.049 A 
ATOM     48  H   UNL A   1      39.378  30.881  32.256  1.00  0.00     0.167 HD
ATOM     49  C   UNL A   1      40.815  28.280  29.044  1.00  0.00     0.037 A 
ATOM     50  C   UNL A   1      39.321  31.856  34.873  1.00  0.00     0.037 A 
ATOM     51  C   UNL A   1      41.732  28.080  30.136  1.00  0.00     0.049 A 
ATOM     52  C   UNL A   1      40.481  30.901  34.805  1.00  0.00     0.074 A 
ATOM     53  C   UNL A   1      42.873  27.295  30.170  1.00  0.00     0.029 A 
ATOM     54  N   UNL A   1      41.608  28.659  31.390  1.00  0.00    -0.354 N 
ATOM     55  N   UNL A   1      40.908  30.192  33.788  1.00  0.00    -0.248 NA
ATOM     56  C   UNL A   1      41.264  30.720  36.035  1.00  0.00     0.031 C 
ATOM     57  C   UNL A   1      43.405  27.353  31.461  1.00  0.00     0.029 A 
ATOM     58  C   UNL A   1      42.634  28.223  32.215  1.00  0.00     0.049 A 
ATOM     59  H   UNL A   1      40.898  29.286  31.655  1.00  0.00     0.167 HD
ATOM     60  C   UNL A   1      42.023  29.503  34.247  1.00  0.00     0.074 A 
ATOM     61  C   UNL A   1      42.218  29.896  35.628  1.00  0.00     0.031 C 
ATOM     62  C   UNL A   1      42.815  28.623  33.587  1.00  0.00     0.037 A 
BRANCH  49  63
ATOM     63  C   UNL A   1      41.041  27.500  27.780  1.00  0.00     0.057 A 
ATOM     64  C   UNL A   1      41.827  27.998  26.733  1.00  0.00     0.134 A 
ATOM     65  C   UNL A   1      40.511  26.211  27.633  1.00  0.00     0.134 A 
ATOM     66  F   UNL A   1      42.356  29.228  26.804  1.00  0.00    -0.206 F 
ATOM     67  C   UNL A   1      42.061  27.251  25.576  1.00  0.00     0.040 A 
ATOM     68  C   UNL A   1      40.762  25.444  26.495  1.00  0.00     0.040 A 
ATOM     69  F   UNL A   1      39.754  25.671  28.600  1.00  0.00    -0.206 F 
ATOM     70  C   UNL A   1      41.535  25.965  25.460  1.00  0.00     0.006 A 
ENDBRANCH  49  63
BRANCH  50  71
ATOM     71  C   UNL A   1      38.994  32.564  36.138  1.00  0.00     0.057 A 
ATOM     72  C   UNL A   1      39.489  33.846  36.401  1.00  0.00     0.134 A 
ATOM     73  C   UNL A   1      38.197  31.968  37.123  1.00  0.00     0.134 A 
ATOM     74  F   UNL A   1      40.273  34.464  35.505  1.00  0.00    -0.206 F 
ATOM     75  C   UNL A   1      39.227  34.500  37.606  1.00  0.00     0.040 A 
ATOM     76  C   UNL A   1      37.901  32.621  38.320  1.00  0.00     0.040 A 
ATOM     77  F   UNL A   1      37.683  30.744  36.930  1.00  0.00    -0.206 F 
ATOM     78  C   UNL A   1      38.426  33.888  38.568  1.00  0.00     0.006 A 
ENDBRANCH  50  71
BRANCH  62  79
ATOM     79  C   UNL A   1      43.982  28.050  34.338  1.00  0.00     0.057 A 
ATOM     80  C   UNL A   1      45.222  28.699  34.390  1.00  0.00     0.134 A 
ATOM     81  C   UNL A   1      43.851  26.850  35.049  1.00  0.00     0.134 A 
ATOM     82  F   UNL A   1      45.418  29.845  33.721  1.00  0.00    -0.206 F 
ATOM     83  C   UNL A   1      46.297  28.162  35.101  1.00  0.00     0.040 A 
ATOM     84  C   UNL A   1      44.909  26.318  35.787  1.00  0.00     0.040 A 
ATOM     85  F   UNL A   1      42.688  26.181  35.050  1.00  0.00    -0.206 F 
ATOM     86  C   UNL A   1      46.140  26.972  35.807  1.00  0.00     0.006 A 
ENDBRANCH  62  79
ENDBRANCH  36  37
ENDBRANCH  28  31
ENDBRANCH  26  27
ENDBRANCH  25  26
ENDBRANCH  24  25
ENDBRANCH   1  24
TORSDOF 18
ENDMDL
MODEL 2
REMARK VINA RESULT:     -10.8      1.444      6.447
REMARK SMILES CCN(CC)C(=O)C[C@](C)(C(=O)NCCCCCCNC(=O)c1ccc(-c2c3nc(c(-c4c(F)cccc4F)c4ccc([nH]4)c(-c4c(F)cccc4F)c4nc(c(-c5c(F)cccc5F)c5ccc2[nH]5)C=C4)C=C3)cc1)c1ccccc1
REMARK SMILES IDX 16 1 15 2 14 3 13 4 11 5 12 6 9 8 10 9 8 10 6 11 3 12 7 13
REMARK SMILES IDX 2 14 1 15 4 16 5 17 77 18 78 19 82 20 79 21 81 22 80 23
REMARK SMILES IDX 17 24 18 25 19 26 20 27 21 28 22 30 23 31 24 32 76 33 25 34
REMARK SMILES IDX 75 35 26 36 27 37 28 38 69 39 29 40 74 41 68 42 70 43 30 44
REMARK SMILES IDX 73 45 67 46 66 47 31 49 57 50 40 51 56 52 41 53 44 54 55 55
REMARK SMILES IDX 71 56 42 57 43 58 54 60 72 61 45 62 32 63 33 64 38 65 34 66
REMARK SMILES IDX 35 67 37 68 39 69 36 70 58 71 59 72 64 73 60 74 61 75 63 76
REMARK SMILES IDX 65 77 62 78 46 79 47 80 52 81 48 82 49 83 51 84 53 85 50 86
REMARK H PARENT 13 7 20 29 70 48 44 59
REMARK Flexibility Score: inf
ROOT
ATOM      1  C   UNL A   1      32.448  29.882  26.887  1.00  0.00     0.002 C 
ENDROOT
BRANCH   1   2
ATOM      2  C   UNL A   1      31.883  28.503  27.247  1.00  0.00     0.021 C 
BRANCH   2   3
ATOM      3  C   UNL A   1      31.329  27.749  26.043  1.00  0.00     0.116 C 
BRANCH   3   4
ATOM      4  N   UNL A   1      32.418  27.356  25.162  1.00  0.00    -0.355 N 
ATOM      5  C   UNL A   1      32.463  26.654  23.991  1.00  0.00     0.230 C 
ATOM      6  O   UNL A   1      33.592  26.267  23.676  1.00  0.00    -0.274 OA
ATOM      7  H   UNL A   1      33.302  27.658  25.473  1.00  0.00     0.163 HD
BRANCH   5   8
ATOM      8  C   UNL A   1      31.196  26.386  23.130  1.00  0.00     0.080 C 
ATOM      9  C   UNL A   1      31.787  26.090  21.715  1.00  0.00     0.027 C 
BRANCH   8  10
ATOM     10  C   UNL A   1      30.407  25.156  23.673  1.00  0.00     0.121 C 
BRANCH  10  11
ATOM     11  C   UNL A   1      31.038  24.238  24.721  1.00  0.00     0.223 C 
ATOM     12  N   UNL A   1      31.764  23.107  24.351  1.00  0.00    -0.343 N 
ATOM     13  O   UNL A   1      30.808  24.482  25.911  1.00  0.00    -0.275 OA
BRANCH  12  14
ATOM     14  C   UNL A   1      32.315  22.284  25.433  1.00  0.00     0.116 C 
ATOM     15  C   UNL A   1      32.251  20.792  25.129  1.00  0.00     0.027 C 
ENDBRANCH  12  14
BRANCH  12  16
ATOM     16  C   UNL A   1      31.994  22.621  22.991  1.00  0.00     0.116 C 
ATOM     17  C   UNL A   1      33.361  22.987  22.440  1.00  0.00     0.027 C 
ENDBRANCH  12  16
ENDBRANCH  10  11
ENDBRANCH   8  10
BRANCH   8  18
ATOM     18  C   UNL A   1      30.226  27.595  23.007  1.00  0.00    -0.032 A 
ATOM     19  C   UNL A   1      28.867  27.494  23.357  1.00  0.00     0.005 A 
ATOM     20  C   UNL A   1      30.644  28.820  22.447  1.00  0.00     0.005 A 
ATOM     21  C   UNL A   1      27.978  28.558  23.168  1.00  0.00     0.000 A 
ATOM     22  C   UNL A   1      29.760  29.888  22.269  1.00  0.00     0.000 A 
ATOM     23  C   UNL A   1      28.424  29.755  22.624  1.00  0.00     0.000 A 
ENDBRANCH   8  18
ENDBRANCH   5   8
ENDBRANCH   3   4
ENDBRANCH   2   3
ENDBRANCH   1   2
BRANCH   1  24
ATOM     24  C   UNL A   1      31.518  30.749  26.030  1.00  0.00     0.002 C 
BRANCH  24  25
ATOM     25  C   UNL A   1      31.306  32.171  26.555  1.00  0.00     0.021 C 
BRANCH  25  26
ATOM     26  C   UNL A   1      32.525  32.770  27.247  1.00  0.00     0.116 C 
BRANCH  26  27
ATOM     27  N   UNL A   1      32.322  34.168  27.593  1.00  0.00    -0.352 N 
ATOM     28  C   UNL A   1      32.958  34.925  28.541  1.00  0.00     0.251 C 
ATOM     29  H   UNL A   1      31.628  34.635  27.073  1.00  0.00     0.163 HD
ATOM     30  O   UNL A   1      32.521  36.031  28.847  1.00  0.00    -0.269 OA
BRANCH  28  31
ATOM     31  C   UNL A   1      34.160  34.393  29.212  1.00  0.00     0.039 A 
ATOM     32  C   UNL A   1      34.018  33.754  30.444  1.00  0.00     0.014 A 
ATOM     33  C   UNL A   1      35.422  34.517  28.621  1.00  0.00     0.014 A 
ATOM     34  C   UNL A   1      35.132  33.182  31.056  1.00  0.00     0.010 A 
ATOM     35  C   UNL A   1      36.518  33.881  29.194  1.00  0.00     0.010 A 
ATOM     36  C   UNL A   1      36.384  33.206  30.417  1.00  0.00    -0.014 A 
BRANCH  36  37
ATOM     37  C   UNL A   1      37.555  32.509  31.006  1.00  0.00     0.031 A 
ATOM     38  C   UNL A   1      38.174  33.005  32.283  1.00  0.00     0.074 A 
ATOM     39  C   UNL A   1      38.097  31.463  30.353  1.00  0.00     0.049 A 
ATOM     40  N   UNL A   1      39.228  32.557  32.917  1.00  0.00    -0.248 NA
ATOM     41  C   UNL A   1      37.542  34.171  32.919  1.00  0.00     0.031 C 
ATOM     42  C   UNL A   1      37.620  30.921  29.078  1.00  0.00     0.029 A 
ATOM     43  N   UNL A   1      39.177  30.674  30.663  1.00  0.00    -0.354 N 
ATOM     44  C   UNL A   1      39.391  33.391  34.016  1.00  0.00     0.074 A 
ATOM     45  C   UNL A   1      38.359  34.402  33.937  1.00  0.00     0.031 C 
ATOM     46  C   UNL A   1      38.387  29.877  28.728  1.00  0.00     0.029 A 
ATOM     47  C   UNL A   1      39.436  29.701  29.727  1.00  0.00     0.049 A 
ATOM     48  H   UNL A   1      39.714  30.792  31.480  1.00  0.00     0.167 HD
ATOM     49  C   UNL A   1      40.304  33.307  35.012  1.00  0.00     0.037 A 
ATOM     50  C   UNL A   1      40.418  28.781  29.672  1.00  0.00     0.037 A 
ATOM     51  C   UNL A   1      41.317  32.286  35.097  1.00  0.00     0.049 A 
ATOM     52  C   UNL A   1      41.427  28.719  30.786  1.00  0.00     0.074 A 
ATOM     53  C   UNL A   1      42.245  32.076  36.102  1.00  0.00     0.029 A 
ATOM     54  N   UNL A   1      41.541  31.312  34.135  1.00  0.00    -0.354 N 
ATOM     55  N   UNL A   1      41.517  29.462  31.862  1.00  0.00    -0.248 NA
ATOM     56  C   UNL A   1      42.467  27.686  30.680  1.00  0.00     0.031 C 
ATOM     57  C   UNL A   1      43.068  31.012  35.722  1.00  0.00     0.029 A 
ATOM     58  C   UNL A   1      42.614  30.518  34.510  1.00  0.00     0.049 A 
ATOM     59  H   UNL A   1      41.016  31.200  33.310  1.00  0.00     0.167 HD
ATOM     60  C   UNL A   1      42.604  28.972  32.573  1.00  0.00     0.074 A 
ATOM     61  C   UNL A   1      43.128  27.853  31.816  1.00  0.00     0.031 C 
ATOM     62  C   UNL A   1      43.124  29.408  33.746  1.00  0.00     0.037 A 
BRANCH  49  63
ATOM     63  C   UNL A   1      40.258  34.348  36.093  1.00  0.00     0.057 A 
ATOM     64  C   UNL A   1      40.988  35.541  36.006  1.00  0.00     0.134 A 
ATOM     65  C   UNL A   1      39.430  34.179  37.211  1.00  0.00     0.134 A 
ATOM     66  F   UNL A   1      41.808  35.762  34.968  1.00  0.00    -0.206 F 
ATOM     67  C   UNL A   1      40.911  36.519  37.000  1.00  0.00     0.040 A 
ATOM     68  C   UNL A   1      39.322  35.162  38.196  1.00  0.00     0.040 A 
ATOM     69  F   UNL A   1      38.698  33.063  37.355  1.00  0.00    -0.206 F 
ATOM     70  C   UNL A   1      40.068  36.334  38.094  1.00  0.00     0.006 A 
ENDBRANCH  49  63
BRANCH  50  71
ATOM     71  C   UNL A   1      40.495  27.841  28.524  1.00  0.00     0.057 A 
ATOM     72  C   UNL A   1      41.229  28.159  27.375  1.00  0.00     0.134 A 
ATOM     73  C   UNL A   1      39.824  26.613  28.539  1.00  0.00     0.134 A 
ATOM     74  F   UNL A   1      41.881  29.328  27.292  1.00  0.00    -0.206 F 
ATOM     75  C   UNL A   1      41.270  27.304  26.273  1.00  0.00     0.040 A 
ATOM     76  C   UNL A   1      39.880  25.735  27.457  1.00  0.00     0.040 A 
ATOM     77  F   UNL A   1      39.111  26.243  29.614  1.00  0.00    -0.206 F 
ATOM     78  C   UNL A   1      40.597  26.084  26.314  1.00  0.00     0.006 A 
ENDBRANCH  50  71
BRANCH  62  79
ATOM     79  C   UNL A   1      44.300  28.656  34.299  1.00  0.00     0.057 A 
ATOM     80  C   UNL A   1      45.620  29.042  34.031  1.00  0.00     0.134 A 
ATOM     81  C   UNL A   1      44.108  27.553  35.141  1.00  0.00     0.134 A 
ATOM     82  F   UNL A   1      45.874  30.081  33.222  1.00  0.00    -0.206 F 
ATOM     83  C   UNL A   1      46.706  28.341  34.559  1.00  0.00     0.040 A 
ATOM     84  C   UNL A   1      45.185  26.863  35.700  1.00  0.00     0.040 A 
ATOM     85  F   UNL A   1      42.871  27.136  35.448  1.00  0.00    -0.206 F 
ATOM     86  C   UNL A   1      46.490  27.253  35.402  1.00  0.00     0.006 A 
ENDBRANCH  62  79
ENDBRANCH  36  37
ENDBRANCH  28  31
ENDBRANCH  26  27
ENDBRANCH  25  26
ENDBRANCH  24  25
ENDBRANCH   1  24
TORSDOF 18
ENDMDL
MODEL 3
REMARK VINA RESULT:     -10.7      1.292      2.382
REMARK SMILES CCN(CC)C(=O)C[C@](C)(C(=O)NCCCCCCNC(=O)c1ccc(-c2c3nc(c(-c4c(F)cccc4F)c4ccc([nH]4)c(-c4c(F)cccc4F)c4nc(c(-c5c(F)cccc5F)c5ccc2[nH]5)C=C4)C=C3)cc1)c1ccccc1
REMARK SMILES IDX 16 1 15 2 14 3 13 4 11 5 12 6 9 8 10 9 8 10 6 11 3 12 7 13
REMARK SMILES IDX 2 14 1 15 4 16 5 17 77 18 78 19 82 20 79 21 81 22 80 23
REMARK SMILES IDX 17 24 18 25 19 26 20 27 21 28 22 30 23 31 24 32 76 33 25 34
REMARK SMILES IDX 75 35 26 36 27 37 28 38 69 39 29 40 74 41 68 42 70 43 30 44
REMARK SMILES IDX 73 45 67 46 66 47 31 49 57 50 40 51 56 52 41 53 44 54 55 55
REMARK SMILES IDX 71 56 42 57 43 58 54 60 72 61 45 62 32 63 33 64 38 65 34 66
REMARK SMILES IDX 35 67 37 68 39 69 36 70 58 71 59 72 64 73 60 74 61 75 63 76
REMARK SMILES IDX 65 77 62 78 46 79 47 80 52 81 48 82 49 83 51 84 53 85 50 86
REMARK H PARENT 13 7 20 29 70 48 44 59
REMARK Flexibility Score: inf
ROOT
ATOM      1  C   UNL A   1      32.349  29.471  26.937  1.00  0.00     0.002 C 
ENDROOT
BRANCH   1   2
ATOM      2  C   UNL A   1      31.461  28.306  27.388  1.00  0.00     0.021 C 
BRANCH   2   3
ATOM      3  C   UNL A   1      31.108  27.348  26.255  1.00  0.00     0.116 C 
BRANCH   3   4
ATOM      4  N   UNL A   1      32.297  27.050  25.472  1.00  0.00    -0.355 N 
ATOM      5  C   UNL A   1      32.490  26.440  24.265  1.00  0.00     0.230 C 
ATOM      6  O   UNL A   1      33.659  26.106  24.048  1.00  0.00    -0.274 OA
ATOM      7  H   UNL A   1      33.133  27.350  25.898  1.00  0.00     0.163 HD
BRANCH   5   8
ATOM      8  C   UNL A   1      31.332  26.205  23.254  1.00  0.00     0.080 C 
ATOM      9  C   UNL A   1      32.078  26.064  21.889  1.00  0.00     0.027 C 
BRANCH   8  10
ATOM     10  C   UNL A   1      30.550  24.902  23.599  1.00  0.00     0.121 C 
BRANCH  10  11
ATOM     11  C   UNL A   1      31.120  23.908  24.614  1.00  0.00     0.223 C 
ATOM     12  N   UNL A   1      32.047  22.939  24.236  1.00  0.00    -0.343 N 
ATOM     13  O   UNL A   1      30.663  23.936  25.763  1.00  0.00    -0.275 OA
BRANCH  12  14
ATOM     14  C   UNL A   1      32.518  22.024  25.281  1.00  0.00     0.116 C 
ATOM     15  C   UNL A   1      32.155  20.571  25.000  1.00  0.00     0.027 C 
ENDBRANCH  12  14
BRANCH  12  16
ATOM     16  C   UNL A   1      32.564  22.701  22.890  1.00  0.00     0.116 C 
ATOM     17  C   UNL A   1      34.057  22.953  22.761  1.00  0.00     0.027 C 
ENDBRANCH  12  16
ENDBRANCH  10  11
ENDBRANCH   8  10
BRANCH   8  18
ATOM     18  C   UNL A   1      30.325  27.384  23.135  1.00  0.00    -0.032 A 
ATOM     19  C   UNL A   1      30.735  28.674  22.752  1.00  0.00     0.005 A 
ATOM     20  C   UNL A   1      28.971  27.235  23.501  1.00  0.00     0.005 A 
ATOM     21  C   UNL A   1      29.843  29.752  22.726  1.00  0.00     0.000 A 
ATOM     22  C   UNL A   1      28.076  28.308  23.464  1.00  0.00     0.000 A 
ATOM     23  C   UNL A   1      28.513  29.569  23.081  1.00  0.00     0.000 A 
ENDBRANCH   8  18
ENDBRANCH   5   8
ENDBRANCH   3   4
ENDBRANCH   2   3
ENDBRANCH   1   2
BRANCH   1  24
ATOM     24  C   UNL A   1      31.673  30.456  25.976  1.00  0.00     0.002 C 
BRANCH  24  25
ATOM     25  C   UNL A   1      31.402  31.841  26.567  1.00  0.00     0.021 C 
BRANCH  25  26
ATOM     26  C   UNL A   1      32.610  32.479  27.243  1.00  0.00     0.116 C 
BRANCH  26  27
ATOM     27  N   UNL A   1      32.389  33.886  27.537  1.00  0.00    -0.352 N 
ATOM     28  C   UNL A   1      32.981  34.674  28.489  1.00  0.00     0.251 C 
ATOM     29  H   UNL A   1      31.719  34.336  26.973  1.00  0.00     0.163 HD
ATOM     30  O   UNL A   1      32.528  35.788  28.741  1.00  0.00    -0.269 OA
BRANCH  28  31
ATOM     31  C   UNL A   1      34.153  34.166  29.229  1.00  0.00     0.039 A 
ATOM     32  C   UNL A   1      33.947  33.444  30.405  1.00  0.00     0.014 A 
ATOM     33  C   UNL A   1      35.449  34.395  28.757  1.00  0.00     0.014 A 
ATOM     34  C   UNL A   1      35.039  32.895  31.076  1.00  0.00     0.010 A 
ATOM     35  C   UNL A   1      36.531  33.784  29.385  1.00  0.00     0.010 A 
ATOM     36  C   UNL A   1      36.335  33.027  30.550  1.00  0.00    -0.014 A 
BRANCH  36  37
ATOM     37  C   UNL A   1      37.493  32.359  31.196  1.00  0.00     0.031 A 
ATOM     38  C   UNL A   1      38.175  31.200  30.526  1.00  0.00     0.074 A 
ATOM     39  C   UNL A   1      37.891  32.764  32.419  1.00  0.00     0.049 A 
ATOM     40  N   UNL A   1      39.165  30.462  30.960  1.00  0.00    -0.248 NA
ATOM     41  C   UNL A   1      37.663  30.799  29.206  1.00  0.00     0.031 C 
ATOM     42  C   UNL A   1      37.275  33.843  33.195  1.00  0.00     0.029 A 
ATOM     43  N   UNL A   1      38.899  32.307  33.230  1.00  0.00    -0.354 N 
ATOM     44  C   UNL A   1      39.386  29.507  29.976  1.00  0.00     0.074 A 
ATOM     45  C   UNL A   1      38.395  29.726  28.945  1.00  0.00     0.031 C 
ATOM     46  C   UNL A   1      37.931  33.980  34.357  1.00  0.00     0.029 A 
ATOM     47  C   UNL A   1      38.985  32.972  34.430  1.00  0.00     0.049 A 
ATOM     48  H   UNL A   1      39.504  31.573  32.977  1.00  0.00     0.167 HD
ATOM     49  C   UNL A   1      40.342  28.549  29.927  1.00  0.00     0.037 A 
ATOM     50  C   UNL A   1      39.809  32.782  35.478  1.00  0.00     0.037 A 
ATOM     51  C   UNL A   1      41.339  28.349  30.947  1.00  0.00     0.049 A 
ATOM     52  C   UNL A   1      40.854  31.702  35.401  1.00  0.00     0.074 A 
ATOM     53  C   UNL A   1      42.392  27.450  30.956  1.00  0.00     0.029 A 
ATOM     54  N   UNL A   1      41.400  29.050  32.142  1.00  0.00    -0.354 N 
ATOM     55  N   UNL A   1      41.103  30.862  34.427  1.00  0.00    -0.248 NA
ATOM     56  C   UNL A   1      41.734  31.549  36.567  1.00  0.00     0.031 C 
ATOM     57  C   UNL A   1      43.055  27.566  32.182  1.00  0.00     0.029 A 
ATOM     58  C   UNL A   1      42.454  28.580  32.910  1.00  0.00     0.049 A 
ATOM     59  H   UNL A   1      40.787  29.773  32.406  1.00  0.00     0.167 HD
ATOM     60  C   UNL A   1      42.184  30.099  34.851  1.00  0.00     0.074 A 
ATOM     61  C   UNL A   1      42.555  30.591  36.161  1.00  0.00     0.031 C 
ATOM     62  C   UNL A   1      42.812  29.081  34.213  1.00  0.00     0.037 A 
BRANCH  49  63
ATOM     63  C   UNL A   1      40.359  27.638  28.734  1.00  0.00     0.057 A 
ATOM     64  C   UNL A   1      41.120  27.926  27.592  1.00  0.00     0.134 A 
ATOM     65  C   UNL A   1      39.651  26.429  28.748  1.00  0.00     0.134 A 
ATOM     66  F   UNL A   1      41.813  29.071  27.508  1.00  0.00    -0.206 F 
ATOM     67  C   UNL A   1      41.159  27.056  26.501  1.00  0.00     0.040 A 
ATOM     68  C   UNL A   1      39.705  25.538  27.676  1.00  0.00     0.040 A 
ATOM     69  F   UNL A   1      38.907  26.088  29.812  1.00  0.00    -0.206 F 
ATOM     70  C   UNL A   1      40.457  25.852  26.546  1.00  0.00     0.006 A 
ENDBRANCH  49  63
BRANCH  50  71
ATOM     71  C   UNL A   1      39.684  33.633  36.689  1.00  0.00     0.057 A 
ATOM     72  C   UNL A   1      38.830  33.278  37.740  1.00  0.00     0.134 A 
ATOM     73  C   UNL A   1      40.399  34.829  36.819  1.00  0.00     0.134 A 
ATOM     74  F   UNL A   1      38.103  32.153  37.669  1.00  0.00    -0.206 F 
ATOM     75  C   UNL A   1      38.670  34.093  38.861  1.00  0.00     0.040 A 
ATOM     76  C   UNL A   1      40.272  35.640  37.947  1.00  0.00     0.040 A 
ATOM     77  F   UNL A   1      41.243  35.222  35.852  1.00  0.00    -0.206 F 
ATOM     78  C   UNL A   1      39.397  35.277  38.968  1.00  0.00     0.006 A 
ENDBRANCH  50  71
BRANCH  62  79
ATOM     79  C   UNL A   1      43.984  28.453  34.910  1.00  0.00     0.057 A 
ATOM     80  C   UNL A   1      45.285  28.958  34.777  1.00  0.00     0.134 A 
ATOM     81  C   UNL A   1      43.804  27.350  35.754  1.00  0.00     0.134 A 
ATOM     82  F   UNL A   1      45.528  30.005  33.974  1.00  0.00    -0.206 F 
ATOM     83  C   UNL A   1      46.366  28.373  35.438  1.00  0.00     0.040 A 
ATOM     84  C   UNL A   1      44.872  26.774  36.444  1.00  0.00     0.040 A 
ATOM     85  F   UNL A   1      42.584  26.821  35.935  1.00  0.00    -0.206 F 
ATOM     86  C   UNL A   1      46.160  27.282  36.279  1.00  0.00     0.006 A 
ENDBRANCH  62  79
ENDBRANCH  36  37
ENDBRANCH  28  31
ENDBRANCH  26  27
ENDBRANCH  25  26
ENDBRANCH  24  25
ENDBRANCH   1  24
TORSDOF 18
ENDMDL
