MODEL 1
REMARK VINA RESULT:     -12.6      0.000      0.000
REMARK SMILES O=C(NCCCCCCNC(=O)[C@@H]1CN(c2ncccn2)CCN1C(=O)C1CCOCC1)c1ccc(-c2c3nc(c(-c4c(F)cccc4F)c4ccc([nH]4)c(-c4c(F)cccc4F)c4nc(c(-c5c(F)cccc5F)c5ccc2[nH]5)C=C4)C=C3)cc1
REMARK SMILES IDX 6 1 5 2 4 3 3 4 1 5 2 6 33 8 34 9 86 10 35 11 85 12 36 13
REMARK SMILES IDX 37 14 38 15 79 16 39 17 84 18 78 19 80 20 40 21 83 22 77 23
REMARK SMILES IDX 76 24 41 26 67 27 50 28 66 29 51 30 54 31 65 32 81 33 52 34
REMARK SMILES IDX 53 35 64 37 82 38 55 39 42 40 43 41 48 42 44 43 45 44 47 45
REMARK SMILES IDX 49 46 46 47 68 48 69 49 74 50 70 51 71 52 73 53 75 54 72 55
REMARK SMILES IDX 56 56 57 57 62 58 58 59 59 60 61 61 63 62 60 63 7 64 8 65
REMARK SMILES IDX 9 66 10 67 11 68 12 70 13 71 14 72 24 73 15 74 23 75 22 76
REMARK SMILES IDX 25 77 26 78 27 79 28 80 32 81 29 82 31 83 30 84 16 85 17 86
REMARK SMILES IDX 21 87 18 88 20 89 19 90
REMARK H PARENT 3 7 80 25 54 36 10 69
REMARK Flexibility Score: inf
ROOT
ATOM      1  C   UNL A   1      31.730  30.682  26.212  1.00  0.00     0.002 C 
ENDROOT
BRANCH   1   2
ATOM      2  C   UNL A   1      31.445  32.121  26.626  1.00  0.00     0.021 C 
BRANCH   2   3
ATOM      3  C   UNL A   1      32.600  32.800  27.344  1.00  0.00     0.116 C 
BRANCH   3   4
ATOM      4  N   UNL A   1      32.326  34.197  27.640  1.00  0.00    -0.352 N 
ATOM      5  O   UNL A   1      32.485  36.123  28.817  1.00  0.00    -0.269 OA
ATOM      6  C   UNL A   1      32.944  35.017  28.553  1.00  0.00     0.251 C 
ATOM      7  H   UNL A   1      31.600  34.610  27.118  1.00  0.00     0.163 HD
BRANCH   6   8
ATOM      8  C   UNL A   1      34.157  34.531  29.245  1.00  0.00     0.039 A 
ATOM      9  C   UNL A   1      35.402  34.608  28.620  1.00  0.00     0.014 A 
ATOM     10  C   UNL A   1      34.038  33.949  30.509  1.00  0.00     0.014 A 
ATOM     11  C   UNL A   1      36.488  33.941  29.171  1.00  0.00     0.010 A 
ATOM     12  C   UNL A   1      35.160  33.374  31.113  1.00  0.00     0.010 A 
ATOM     13  C   UNL A   1      36.385  33.324  30.428  1.00  0.00    -0.014 A 
BRANCH  13  14
ATOM     14  C   UNL A   1      37.582  32.666  31.015  1.00  0.00     0.031 A 
ATOM     15  C   UNL A   1      38.148  33.106  32.338  1.00  0.00     0.074 A 
ATOM     16  C   UNL A   1      38.139  31.631  30.354  1.00  0.00     0.049 A 
ATOM     17  N   UNL A   1      39.165  32.615  33.003  1.00  0.00    -0.248 NA
ATOM     18  C   UNL A   1      37.497  34.246  33.000  1.00  0.00     0.031 C 
ATOM     19  C   UNL A   1      37.686  31.118  29.058  1.00  0.00     0.029 A 
ATOM     20  N   UNL A   1      39.186  30.812  30.687  1.00  0.00    -0.354 N 
ATOM     21  C   UNL A   1      39.295  33.404  34.140  1.00  0.00     0.074 A 
ATOM     22  C   UNL A   1      38.266  34.418  34.066  1.00  0.00     0.031 C 
ATOM     23  C   UNL A   1      38.410  30.039  28.735  1.00  0.00     0.029 A 
ATOM     24  C   UNL A   1      39.422  29.823  29.762  1.00  0.00     0.049 A 
ATOM     25  H   UNL A   1      39.717  30.921  31.509  1.00  0.00     0.167 HD
ATOM     26  C   UNL A   1      40.186  33.286  35.155  1.00  0.00     0.037 A 
ATOM     27  C   UNL A   1      40.358  28.858  29.735  1.00  0.00     0.037 A 
ATOM     28  C   UNL A   1      41.196  32.259  35.234  1.00  0.00     0.049 A 
ATOM     29  C   UNL A   1      41.341  28.763  30.864  1.00  0.00     0.074 A 
ATOM     30  C   UNL A   1      42.117  32.031  36.241  1.00  0.00     0.029 A 
ATOM     31  N   UNL A   1      41.422  31.295  34.262  1.00  0.00    -0.354 N 
ATOM     32  N   UNL A   1      41.424  29.490  31.951  1.00  0.00    -0.248 NA
ATOM     33  C   UNL A   1      42.361  27.713  30.759  1.00  0.00     0.031 C 
ATOM     34  C   UNL A   1      42.933  30.961  35.857  1.00  0.00     0.029 A 
ATOM     35  C   UNL A   1      42.481  30.483  34.637  1.00  0.00     0.049 A 
ATOM     36  H   UNL A   1      40.905  31.200  33.429  1.00  0.00     0.167 HD
ATOM     37  C   UNL A   1      42.484  28.965  32.677  1.00  0.00     0.074 A 
ATOM     38  C   UNL A   1      43.003  27.851  31.910  1.00  0.00     0.031 C 
ATOM     39  C   UNL A   1      42.982  29.370  33.871  1.00  0.00     0.037 A 
BRANCH  26  40
ATOM     40  C   UNL A   1      40.129  34.308  36.256  1.00  0.00     0.057 A 
ATOM     41  C   UNL A   1      40.850  35.507  36.199  1.00  0.00     0.134 A 
ATOM     42  C   UNL A   1      39.307  34.104  37.373  1.00  0.00     0.134 A 
ATOM     43  F   UNL A   1      41.664  35.764  35.164  1.00  0.00    -0.206 F 
ATOM     44  C   UNL A   1      40.776  36.454  37.225  1.00  0.00     0.040 A 
ATOM     45  C   UNL A   1      39.204  35.053  38.391  1.00  0.00     0.040 A 
ATOM     46  F   UNL A   1      38.581  32.981  37.488  1.00  0.00    -0.206 F 
ATOM     47  C   UNL A   1      39.946  36.231  38.321  1.00  0.00     0.006 A 
ENDBRANCH  26  40
BRANCH  27  48
ATOM     48  C   UNL A   1      40.399  27.900  28.602  1.00  0.00     0.057 A 
ATOM     49  C   UNL A   1      41.121  28.191  27.439  1.00  0.00     0.134 A 
ATOM     50  C   UNL A   1      39.725  26.675  28.656  1.00  0.00     0.134 A 
ATOM     51  F   UNL A   1      41.777  29.354  27.323  1.00  0.00    -0.206 F 
ATOM     52  C   UNL A   1      41.155  27.305  26.361  1.00  0.00     0.040 A 
ATOM     53  C   UNL A   1      39.775  25.766  27.597  1.00  0.00     0.040 A 
ATOM     54  F   UNL A   1      39.024  26.334  29.747  1.00  0.00    -0.206 F 
ATOM     55  C   UNL A   1      40.485  26.086  26.442  1.00  0.00     0.006 A 
ENDBRANCH  27  48
BRANCH  39  56
ATOM     56  C   UNL A   1      44.110  28.564  34.447  1.00  0.00     0.057 A 
ATOM     57  C   UNL A   1      43.889  27.441  35.253  1.00  0.00     0.134 A 
ATOM     58  C   UNL A   1      45.440  28.914  34.176  1.00  0.00     0.134 A 
ATOM     59  F   UNL A   1      42.640  27.061  35.564  1.00  0.00    -0.206 F 
ATOM     60  C   UNL A   1      44.950  26.714  35.798  1.00  0.00     0.040 A 
ATOM     61  C   UNL A   1      46.508  28.178  34.690  1.00  0.00     0.040 A 
ATOM     62  F   UNL A   1      45.722  29.974  33.403  1.00  0.00    -0.206 F 
ATOM     63  C   UNL A   1      46.264  27.079  35.511  1.00  0.00     0.006 A 
ENDBRANCH  39  56
ENDBRANCH  13  14
ENDBRANCH   6   8
ENDBRANCH   3   4
ENDBRANCH   2   3
ENDBRANCH   1   2
BRANCH   1  64
ATOM     64  C   UNL A   1      33.135  30.189  26.566  1.00  0.00     0.002 C 
BRANCH  64  65
ATOM     65  C   UNL A   1      33.186  28.840  27.303  1.00  0.00     0.021 C 
BRANCH  65  66
ATOM     66  C   UNL A   1      31.811  28.246  27.655  1.00  0.00     0.116 C 
BRANCH  66  67
ATOM     67  N   UNL A   1      31.754  26.838  27.309  1.00  0.00    -0.354 N 
ATOM     68  C   UNL A   1      30.921  26.436  26.296  1.00  0.00     0.244 C 
ATOM     69  H   UNL A   1      32.305  26.181  27.794  1.00  0.00     0.163 HD
ATOM     70  O   UNL A   1      29.868  25.893  26.608  1.00  0.00    -0.273 OA
BRANCH  68  71
ATOM     71  C   UNL A   1      31.292  26.838  24.868  1.00  0.00     0.193 C 
ATOM     72  C   UNL A   1      29.948  26.758  24.106  1.00  0.00     0.155 C 
ATOM     73  N   UNL A   1      32.368  26.203  24.025  1.00  0.00    -0.327 N 
ATOM     74  N   UNL A   1      30.060  27.359  22.791  1.00  0.00    -0.336 N 
ATOM     75  C   UNL A   1      32.462  26.871  22.696  1.00  0.00     0.142 C 
ATOM     76  C   UNL A   1      31.119  26.878  21.921  1.00  0.00     0.141 C 
BRANCH  73  77
ATOM     77  C   UNL A   1      33.156  25.078  24.200  1.00  0.00     0.226 C 
ATOM     78  O   UNL A   1      34.276  25.033  23.664  1.00  0.00    -0.275 OA
BRANCH  77  79
ATOM     79  C   UNL A   1      32.789  23.852  25.040  1.00  0.00     0.083 C 
ATOM     80  C   UNL A   1      31.362  23.368  24.787  1.00  0.00     0.042 C 
ATOM     81  C   UNL A   1      33.279  23.895  26.485  1.00  0.00     0.042 C 
ATOM     82  C   UNL A   1      30.787  22.490  25.899  1.00  0.00     0.161 C 
ATOM     83  C   UNL A   1      32.646  22.798  27.322  1.00  0.00     0.161 C 
ATOM     84  O   UNL A   1      31.233  22.845  27.206  1.00  0.00    -0.381 OA
ENDBRANCH  77  79
ENDBRANCH  73  77
BRANCH  74  85
ATOM     85  C   UNL A   1      29.358  28.494  22.507  1.00  0.00     0.225 A 
ATOM     86  N   UNL A   1      28.167  28.662  23.100  1.00  0.00    -0.221 NA
ATOM     87  N   UNL A   1      29.934  29.430  21.730  1.00  0.00    -0.221 NA
ATOM     88  C   UNL A   1      27.565  29.857  22.947  1.00  0.00     0.117 A 
ATOM     89  C   UNL A   1      29.258  30.582  21.548  1.00  0.00     0.117 A 
ATOM     90  C   UNL A   1      28.066  30.865  22.164  1.00  0.00     0.040 A 
ENDBRANCH  74  85
ENDBRANCH  68  71
ENDBRANCH  66  67
ENDBRANCH  65  66
ENDBRANCH  64  65
ENDBRANCH   1  64
TORSDOF 16
ENDMDL
MODEL 2
REMARK VINA RESULT:     -12.4      4.558      9.697
REMARK SMILES O=C(NCCCCCCNC(=O)[C@@H]1CN(c2ncccn2)CCN1C(=O)C1CCOCC1)c1ccc(-c2c3nc(c(-c4c(F)cccc4F)c4ccc([nH]4)c(-c4c(F)cccc4F)c4nc(c(-c5c(F)cccc5F)c5ccc2[nH]5)C=C4)C=C3)cc1
REMARK SMILES IDX 6 1 5 2 4 3 3 4 1 5 2 6 33 8 34 9 86 10 35 11 85 12 36 13
REMARK SMILES IDX 37 14 38 15 79 16 39 17 84 18 78 19 80 20 40 21 83 22 77 23
REMARK SMILES IDX 76 24 41 26 67 27 50 28 66 29 51 30 54 31 65 32 81 33 52 34
REMARK SMILES IDX 53 35 64 37 82 38 55 39 42 40 43 41 48 42 44 43 45 44 47 45
REMARK SMILES IDX 49 46 46 47 68 48 69 49 74 50 70 51 71 52 73 53 75 54 72 55
REMARK SMILES IDX 56 56 57 57 62 58 58 59 59 60 61 61 63 62 60 63 7 64 8 65
REMARK SMILES IDX 9 66 10 67 11 68 12 70 13 71 14 72 24 73 15 74 23 75 22 76
REMARK SMILES IDX 25 77 26 78 27 79 28 80 32 81 29 82 31 83 30 84 16 85 17 86
REMARK SMILES IDX 21 87 18 88 20 89 19 90
REMARK H PARENT 3 7 80 25 54 36 10 69
REMARK Flexibility Score: inf
ROOT
ATOM      1  C   UNL A   1      37.773  21.179  24.664  1.00  0.00     0.002 C 
ENDROOT
BRANCH   1   2
ATOM      2  C   UNL A   1      38.323  19.764  24.801  1.00  0.00     0.021 C 
BRANCH   2   3
ATOM      3  C   UNL A   1      39.123  19.532  26.073  1.00  0.00     0.116 C 
BRANCH   3   4
ATOM      4  N   UNL A   1      40.424  18.936  25.809  1.00  0.00    -0.352 N 
ATOM      5  O   UNL A   1      42.662  18.940  25.473  1.00  0.00    -0.269 OA
ATOM      6  C   UNL A   1      41.666  19.516  25.899  1.00  0.00     0.251 C 
ATOM      7  H   UNL A   1      40.412  17.992  25.528  1.00  0.00     0.163 HD
BRANCH   6   8
ATOM      8  C   UNL A   1      41.784  20.868  26.487  1.00  0.00     0.039 A 
ATOM      9  C   UNL A   1      41.957  21.981  25.664  1.00  0.00     0.014 A 
ATOM     10  C   UNL A   1      41.773  21.013  27.876  1.00  0.00     0.014 A 
ATOM     11  C   UNL A   1      42.302  23.203  26.227  1.00  0.00     0.010 A 
ATOM     12  C   UNL A   1      42.011  22.270  28.441  1.00  0.00     0.010 A 
ATOM     13  C   UNL A   1      42.324  23.366  27.621  1.00  0.00    -0.014 A 
BRANCH  13  14
ATOM     14  C   UNL A   1      42.643  24.702  28.190  1.00  0.00     0.031 A 
ATOM     15  C   UNL A   1      44.055  25.087  28.539  1.00  0.00     0.074 A 
ATOM     16  C   UNL A   1      41.642  25.590  28.356  1.00  0.00     0.049 A 
ATOM     17  N   UNL A   1      44.507  26.223  29.012  1.00  0.00    -0.248 NA
ATOM     18  C   UNL A   1      45.097  24.068  28.341  1.00  0.00     0.031 C 
ATOM     19  C   UNL A   1      40.230  25.331  28.063  1.00  0.00     0.029 A 
ATOM     20  N   UNL A   1      41.657  26.890  28.787  1.00  0.00    -0.354 N 
ATOM     21  C   UNL A   1      45.873  26.045  29.197  1.00  0.00     0.074 A 
ATOM     22  C   UNL A   1      46.174  24.685  28.806  1.00  0.00     0.031 C 
ATOM     23  C   UNL A   1      39.525  26.452  28.265  1.00  0.00     0.029 A 
ATOM     24  C   UNL A   1      40.420  27.487  28.767  1.00  0.00     0.049 A 
ATOM     25  H   UNL A   1      42.475  27.352  29.081  1.00  0.00     0.167 HD
ATOM     26  C   UNL A   1      46.790  26.937  29.645  1.00  0.00     0.037 A 
ATOM     27  C   UNL A   1      40.042  28.727  29.128  1.00  0.00     0.037 A 
ATOM     28  C   UNL A   1      46.487  28.297  30.014  1.00  0.00     0.049 A 
ATOM     29  C   UNL A   1      41.077  29.686  29.636  1.00  0.00     0.074 A 
ATOM     30  C   UNL A   1      47.354  29.290  30.439  1.00  0.00     0.029 A 
ATOM     31  N   UNL A   1      45.216  28.855  30.008  1.00  0.00    -0.354 N 
ATOM     32  N   UNL A   1      42.370  29.516  29.765  1.00  0.00    -0.248 NA
ATOM     33  C   UNL A   1      40.597  31.011  30.049  1.00  0.00     0.031 C 
ATOM     34  C   UNL A   1      46.601  30.431  30.738  1.00  0.00     0.029 A 
ATOM     35  C   UNL A   1      45.273  30.170  30.443  1.00  0.00     0.049 A 
ATOM     36  H   UNL A   1      44.394  28.386  29.736  1.00  0.00     0.167 HD
ATOM     37  C   UNL A   1      42.864  30.721  30.244  1.00  0.00     0.074 A 
ATOM     38  C   UNL A   1      41.732  31.616  30.368  1.00  0.00     0.031 C 
ATOM     39  C   UNL A   1      44.141  31.055  30.552  1.00  0.00     0.037 A 
BRANCH  26  40
ATOM     40  C   UNL A   1      48.210  26.465  29.788  1.00  0.00     0.057 A 
ATOM     41  C   UNL A   1      49.161  26.643  28.776  1.00  0.00     0.134 A 
ATOM     42  C   UNL A   1      48.640  25.855  30.975  1.00  0.00     0.134 A 
ATOM     43  F   UNL A   1      48.817  27.211  27.610  1.00  0.00    -0.206 F 
ATOM     44  C   UNL A   1      50.482  26.211  28.928  1.00  0.00     0.040 A 
ATOM     45  C   UNL A   1      49.962  25.443  31.150  1.00  0.00     0.040 A 
ATOM     46  F   UNL A   1      47.784  25.661  31.989  1.00  0.00    -0.206 F 
ATOM     47  C   UNL A   1      50.887  25.615  30.121  1.00  0.00     0.006 A 
ENDBRANCH  26  40
BRANCH  27  48
ATOM     48  C   UNL A   1      38.618  29.129  29.010  1.00  0.00     0.057 A 
ATOM     49  C   UNL A   1      37.759  29.072  30.114  1.00  0.00     0.134 A 
ATOM     50  C   UNL A   1      38.085  29.583  27.799  1.00  0.00     0.134 A 
ATOM     51  F   UNL A   1      38.208  28.632  31.298  1.00  0.00    -0.206 F 
ATOM     52  C   UNL A   1      36.415  29.433  30.011  1.00  0.00     0.040 A 
ATOM     53  C   UNL A   1      36.750  29.976  27.689  1.00  0.00     0.040 A 
ATOM     54  F   UNL A   1      38.860  29.671  26.708  1.00  0.00    -0.206 F 
ATOM     55  C   UNL A   1      35.910  29.892  28.796  1.00  0.00     0.006 A 
ENDBRANCH  27  48
BRANCH  39  56
ATOM     56  C   UNL A   1      44.386  32.468  30.997  1.00  0.00     0.057 A 
ATOM     57  C   UNL A   1      44.372  32.838  32.347  1.00  0.00     0.134 A 
ATOM     58  C   UNL A   1      44.654  33.470  30.054  1.00  0.00     0.134 A 
ATOM     59  F   UNL A   1      44.107  31.930  33.298  1.00  0.00    -0.206 F 
ATOM     60  C   UNL A   1      44.581  34.160  32.743  1.00  0.00     0.040 A 
ATOM     61  C   UNL A   1      44.894  34.789  30.441  1.00  0.00     0.040 A 
ATOM     62  F   UNL A   1      44.691  33.182  28.745  1.00  0.00    -0.206 F 
ATOM     63  C   UNL A   1      44.849  35.139  31.788  1.00  0.00     0.006 A 
ENDBRANCH  39  56
ENDBRANCH  13  14
ENDBRANCH   6   8
ENDBRANCH   3   4
ENDBRANCH   2   3
ENDBRANCH   1   2
BRANCH   1  64
ATOM     64  C   UNL A   1      38.190  22.131  25.786  1.00  0.00     0.002 C 
BRANCH  64  65
ATOM     65  C   UNL A   1      37.583  23.542  25.704  1.00  0.00     0.021 C 
BRANCH  65  66
ATOM     66  C   UNL A   1      36.064  23.605  25.942  1.00  0.00     0.116 C 
BRANCH  66  67
ATOM     67  N   UNL A   1      35.634  22.529  26.814  1.00  0.00    -0.354 N 
ATOM     68  C   UNL A   1      34.300  22.409  27.113  1.00  0.00     0.244 C 
ATOM     69  H   UNL A   1      36.289  21.893  27.186  1.00  0.00     0.163 HD
ATOM     70  O   UNL A   1      33.929  22.786  28.218  1.00  0.00    -0.273 OA
BRANCH  68  71
ATOM     71  C   UNL A   1      33.357  21.966  25.994  1.00  0.00     0.193 C 
ATOM     72  C   UNL A   1      34.186  20.920  25.212  1.00  0.00     0.155 C 
ATOM     73  N   UNL A   1      32.668  22.877  25.010  1.00  0.00    -0.327 N 
ATOM     74  N   UNL A   1      33.355  20.200  24.267  1.00  0.00    -0.336 N 
ATOM     75  C   UNL A   1      31.807  22.094  24.079  1.00  0.00     0.142 C 
ATOM     76  C   UNL A   1      32.580  20.984  23.321  1.00  0.00     0.141 C 
BRANCH  73  77
ATOM     77  C   UNL A   1      32.789  24.229  24.739  1.00  0.00     0.226 C 
ATOM     78  O   UNL A   1      32.912  24.602  23.561  1.00  0.00    -0.275 OA
BRANCH  77  79
ATOM     79  C   UNL A   1      32.756  25.354  25.776  1.00  0.00     0.083 C 
ATOM     80  C   UNL A   1      31.337  25.822  26.095  1.00  0.00     0.042 C 
ATOM     81  C   UNL A   1      33.833  26.421  25.599  1.00  0.00     0.042 C 
ATOM     82  C   UNL A   1      31.258  27.213  26.725  1.00  0.00     0.161 C 
ATOM     83  C   UNL A   1      33.568  27.633  26.474  1.00  0.00     0.161 C 
ATOM     84  O   UNL A   1      32.253  28.120  26.255  1.00  0.00    -0.381 OA
ENDBRANCH  77  79
ENDBRANCH  73  77
BRANCH  74  85
ATOM     85  C   UNL A   1      33.130  18.865  24.446  1.00  0.00     0.225 A 
ATOM     86  N   UNL A   1      33.578  18.020  23.507  1.00  0.00    -0.221 NA
ATOM     87  N   UNL A   1      32.564  18.457  25.597  1.00  0.00    -0.221 NA
ATOM     88  C   UNL A   1      33.504  16.703  23.777  1.00  0.00     0.117 A 
ATOM     89  C   UNL A   1      32.446  17.128  25.788  1.00  0.00     0.117 A 
ATOM     90  C   UNL A   1      32.931  16.191  24.912  1.00  0.00     0.040 A 
ENDBRANCH  74  85
ENDBRANCH  68  71
ENDBRANCH  66  67
ENDBRANCH  65  66
ENDBRANCH  64  65
ENDBRANCH   1  64
TORSDOF 16
ENDMDL
MODEL 3
REMARK VINA RESULT:     -12.3      1.411      3.603
REMARK SMILES O=C(NCCCCCCNC(=O)[C@@H]1CN(c2ncccn2)CCN1C(=O)C1CCOCC1)c1ccc(-c2c3nc(c(-c4c(F)cccc4F)c4ccc([nH]4)c(-c4c(F)cccc4F)c4nc(c(-c5c(F)cccc5F)c5ccc2[nH]5)C=C4)C=C3)cc1
REMARK SMILES IDX 6 1 5 2 4 3 3 4 1 5 2 6 33 8 34 9 86 10 35 11 85 12 36 13
REMARK SMILES IDX 37 14 38 15 79 16 39 17 84 18 78 19 80 20 40 21 83 22 77 23
REMARK SMILES IDX 76 24 41 26 67 27 50 28 66 29 51 30 54 31 65 32 81 33 52 34
REMARK SMILES IDX 53 35 64 37 82 38 55 39 42 40 43 41 48 42 44 43 45 44 47 45
REMARK SMILES IDX 49 46 46 47 68 48 69 49 74 50 70 51 71 52 73 53 75 54 72 55
REMARK SMILES IDX 56 56 57 57 62 58 58 59 59 60 61 61 63 62 60 63 7 64 8 65
REMARK SMILES IDX 9 66 10 67 11 68 12 70 13 71 14 72 24 73 15 74 23 75 22 76
REMARK SMILES IDX 25 77 26 78 27 79 28 80 32 81 29 82 31 83 30 84 16 85 17 86
REMARK SMILES IDX 21 87 18 88 20 89 19 90
REMARK H PARENT 3 7 80 25 54 36 10 69
REMARK Flexibility Score: inf
ROOT
ATOM      1  C   UNL A   1      31.761  30.606  26.254  1.00  0.00     0.002 C 
ENDROOT
BRANCH   1   2
ATOM      2  C   UNL A   1      31.493  32.066  26.599  1.00  0.00     0.021 C 
BRANCH   2   3
ATOM      3  C   UNL A   1      32.652  32.759  27.298  1.00  0.00     0.116 C 
BRANCH   3   4
ATOM      4  N   UNL A   1      32.354  34.145  27.625  1.00  0.00    -0.352 N 
ATOM      5  O   UNL A   1      32.486  36.049  28.841  1.00  0.00    -0.269 OA
ATOM      6  C   UNL A   1      32.964  34.957  28.551  1.00  0.00     0.251 C 
ATOM      7  H   UNL A   1      31.617  34.555  27.116  1.00  0.00     0.163 HD
BRANCH   6   8
ATOM      8  C   UNL A   1      34.191  34.480  29.224  1.00  0.00     0.039 A 
ATOM      9  C   UNL A   1      35.430  34.600  28.595  1.00  0.00     0.014 A 
ATOM     10  C   UNL A   1      34.090  33.862  30.472  1.00  0.00     0.014 A 
ATOM     11  C   UNL A   1      36.534  33.943  29.124  1.00  0.00     0.010 A 
ATOM     12  C   UNL A   1      35.228  33.297  31.056  1.00  0.00     0.010 A 
ATOM     13  C   UNL A   1      36.450  33.292  30.365  1.00  0.00    -0.014 A 
BRANCH  13  14
ATOM     14  C   UNL A   1      37.664  32.645  30.928  1.00  0.00     0.031 A 
ATOM     15  C   UNL A   1      38.281  33.123  32.214  1.00  0.00     0.074 A 
ATOM     16  C   UNL A   1      38.190  31.585  30.282  1.00  0.00     0.049 A 
ATOM     17  N   UNL A   1      39.319  32.648  32.857  1.00  0.00    -0.248 NA
ATOM     18  C   UNL A   1      37.661  34.289  32.862  1.00  0.00     0.031 C 
ATOM     19  C   UNL A   1      37.687  31.033  29.021  1.00  0.00     0.029 A 
ATOM     20  N   UNL A   1      39.244  30.770  30.602  1.00  0.00    -0.354 N 
ATOM     21  C   UNL A   1      39.496  33.471  33.963  1.00  0.00     0.074 A 
ATOM     22  C   UNL A   1      38.471  34.490  33.892  1.00  0.00     0.031 C 
ATOM     23  C   UNL A   1      38.392  29.938  28.706  1.00  0.00     0.029 A 
ATOM     24  C   UNL A   1      39.440  29.750  29.703  1.00  0.00     0.049 A 
ATOM     25  H   UNL A   1      39.806  30.902  31.400  1.00  0.00     0.167 HD
ATOM     26  C   UNL A   1      40.423  33.381  34.947  1.00  0.00     0.037 A 
ATOM     27  C   UNL A   1      40.369  28.778  29.673  1.00  0.00     0.037 A 
ATOM     28  C   UNL A   1      41.429  32.350  35.022  1.00  0.00     0.049 A 
ATOM     29  C   UNL A   1      41.393  28.713  30.767  1.00  0.00     0.074 A 
ATOM     30  C   UNL A   1      42.386  32.149  36.002  1.00  0.00     0.029 A 
ATOM     31  N   UNL A   1      41.613  31.353  34.075  1.00  0.00    -0.354 N 
ATOM     32  N   UNL A   1      41.520  29.474  31.826  1.00  0.00    -0.248 NA
ATOM     33  C   UNL A   1      42.402  27.652  30.659  1.00  0.00     0.031 C 
ATOM     34  C   UNL A   1      43.180  31.061  35.623  1.00  0.00     0.029 A 
ATOM     35  C   UNL A   1      42.682  30.547  34.437  1.00  0.00     0.049 A 
ATOM     36  H   UNL A   1      41.066  31.235  33.265  1.00  0.00     0.167 HD
ATOM     37  C   UNL A   1      42.603  28.966  32.529  1.00  0.00     0.074 A 
ATOM     38  C   UNL A   1      43.087  27.824  31.781  1.00  0.00     0.031 C 
ATOM     39  C   UNL A   1      43.147  29.406  33.691  1.00  0.00     0.037 A 
BRANCH  26  40
ATOM     40  C   UNL A   1      40.413  34.438  36.015  1.00  0.00     0.057 A 
ATOM     41  C   UNL A   1      39.643  34.318  37.178  1.00  0.00     0.134 A 
ATOM     42  C   UNL A   1      41.218  35.580  35.892  1.00  0.00     0.134 A 
ATOM     43  F   UNL A   1      38.842  33.256  37.357  1.00  0.00    -0.206 F 
ATOM     44  C   UNL A   1      39.654  35.304  38.168  1.00  0.00     0.040 A 
ATOM     45  C   UNL A   1      41.258  36.559  36.886  1.00  0.00     0.040 A 
ATOM     46  F   UNL A   1      41.988  35.756  34.808  1.00  0.00    -0.206 F 
ATOM     47  C   UNL A   1      40.468  36.425  38.027  1.00  0.00     0.006 A 
ENDBRANCH  26  40
BRANCH  27  48
ATOM     48  C   UNL A   1      40.363  27.783  28.571  1.00  0.00     0.057 A 
ATOM     49  C   UNL A   1      41.057  28.023  27.379  1.00  0.00     0.134 A 
ATOM     50  C   UNL A   1      39.671  26.572  28.683  1.00  0.00     0.134 A 
ATOM     51  F   UNL A   1      41.727  29.172  27.207  1.00  0.00    -0.206 F 
ATOM     52  C   UNL A   1      41.046  27.103  26.331  1.00  0.00     0.040 A 
ATOM     53  C   UNL A   1      39.676  25.629  27.654  1.00  0.00     0.040 A 
ATOM     54  F   UNL A   1      38.996  26.279  29.804  1.00  0.00    -0.206 F 
ATOM     55  C   UNL A   1      40.358  25.899  26.470  1.00  0.00     0.006 A 
ENDBRANCH  27  48
BRANCH  39  56
ATOM     56  C   UNL A   1      44.291  28.611  34.250  1.00  0.00     0.057 A 
ATOM     57  C   UNL A   1      44.093  27.517  35.102  1.00  0.00     0.134 A 
ATOM     58  C   UNL A   1      45.612  28.942  33.918  1.00  0.00     0.134 A 
ATOM     59  F   UNL A   1      42.855  27.157  35.471  1.00  0.00    -0.206 F 
ATOM     60  C   UNL A   1      45.169  26.801  35.630  1.00  0.00     0.040 A 
ATOM     61  C   UNL A   1      46.694  28.215  34.416  1.00  0.00     0.040 A 
ATOM     62  F   UNL A   1      45.871  29.973  33.101  1.00  0.00    -0.206 F 
ATOM     63  C   UNL A   1      46.474  27.147  35.283  1.00  0.00     0.006 A 
ENDBRANCH  39  56
ENDBRANCH  13  14
ENDBRANCH   6   8
ENDBRANCH   3   4
ENDBRANCH   2   3
ENDBRANCH   1   2
BRANCH   1  64
ATOM     64  C   UNL A   1      32.609  29.857  27.284  1.00  0.00     0.002 C 
BRANCH  64  65
ATOM     65  C   UNL A   1      33.934  29.289  26.750  1.00  0.00     0.021 C 
BRANCH  65  66
ATOM     66  C   UNL A   1      33.781  28.107  25.776  1.00  0.00     0.116 C 
BRANCH  66  67
ATOM     67  N   UNL A   1      33.235  26.947  26.453  1.00  0.00    -0.354 N 
ATOM     68  C   UNL A   1      32.036  26.432  26.028  1.00  0.00     0.244 C 
ATOM     69  H   UNL A   1      33.717  26.534  27.206  1.00  0.00     0.163 HD
ATOM     70  O   UNL A   1      31.042  26.676  26.703  1.00  0.00    -0.273 OA
BRANCH  68  71
ATOM     71  C   UNL A   1      32.003  25.735  24.669  1.00  0.00     0.193 C 
ATOM     72  C   UNL A   1      33.346  24.968  24.620  1.00  0.00     0.155 C 
ATOM     73  N   UNL A   1      31.777  26.407  23.338  1.00  0.00    -0.327 N 
ATOM     74  N   UNL A   1      33.372  24.037  23.508  1.00  0.00    -0.336 N 
ATOM     75  C   UNL A   1      31.787  25.408  22.232  1.00  0.00     0.142 C 
ATOM     76  C   UNL A   1      33.087  24.564  22.185  1.00  0.00     0.141 C 
BRANCH  73  77
ATOM     77  C   UNL A   1      31.701  27.736  22.959  1.00  0.00     0.226 C 
ATOM     78  O   UNL A   1      32.704  28.287  22.476  1.00  0.00    -0.275 OA
BRANCH  77  79
ATOM     79  C   UNL A   1      30.456  28.621  23.050  1.00  0.00     0.083 C 
ATOM     80  C   UNL A   1      29.175  27.819  23.280  1.00  0.00     0.042 C 
ATOM     81  C   UNL A   1      30.406  29.764  22.039  1.00  0.00     0.042 C 
ATOM     82  C   UNL A   1      27.891  28.558  22.905  1.00  0.00     0.161 C 
ATOM     83  C   UNL A   1      29.035  30.415  21.999  1.00  0.00     0.161 C 
ATOM     84  O   UNL A   1      28.031  29.434  21.789  1.00  0.00    -0.381 OA
ENDBRANCH  77  79
ENDBRANCH  73  77
BRANCH  74  85
ATOM     85  C   UNL A   1      33.411  22.695  23.753  1.00  0.00     0.225 A 
ATOM     86  N   UNL A   1      34.456  22.212  24.441  1.00  0.00    -0.221 NA
ATOM     87  N   UNL A   1      32.359  21.942  23.384  1.00  0.00    -0.221 NA
ATOM     88  C   UNL A   1      34.398  20.922  24.824  1.00  0.00     0.117 A 
ATOM     89  C   UNL A   1      32.382  20.639  23.727  1.00  0.00     0.117 A 
ATOM     90  C   UNL A   1      33.377  20.073  24.483  1.00  0.00     0.040 A 
ENDBRANCH  74  85
ENDBRANCH  68  71
ENDBRANCH  66  67
ENDBRANCH  65  66
ENDBRANCH  64  65
ENDBRANCH   1  64
TORSDOF 16
ENDMDL
