MODEL 1
REMARK VINA RESULT:     -11.3      0.000      0.000
REMARK SMILES N#Cc1ccc(/C=C/C(=O)N[C@H]2C=C[C@H](C(=O)NCCCCCCNC(=O)c3ccc(-c4c5nc(c(-c6c(F)cccc6F)c6ccc([nH]6)c(-c6c(F)cccc6F)c6nc(c(-c7c(F)cccc7F)c7ccc4[nH]7)C=C6)C=C5)cc3)C2)cc1
REMARK SMILES IDX 20 1 19 2 18 3 16 4 17 5 15 7 12 8 13 9 82 10 14 11 11 12
REMARK SMILES IDX 9 13 10 14 8 16 7 17 6 18 3 19 4 20 84 21 5 22 83 23 2 24
REMARK SMILES IDX 1 25 21 26 22 27 23 28 24 29 25 30 26 31 27 33 28 34 29 35
REMARK SMILES IDX 81 36 30 37 80 38 31 39 32 40 33 41 74 42 34 43 79 44 73 45
REMARK SMILES IDX 75 46 35 47 78 48 72 49 71 50 36 52 62 53 45 54 61 55 46 56
REMARK SMILES IDX 49 57 60 58 76 59 47 60 48 61 59 63 77 64 50 65 37 66 38 67
REMARK SMILES IDX 43 68 39 69 40 70 42 71 44 72 41 73 63 74 64 75 69 76 65 77
REMARK SMILES IDX 66 78 68 79 70 80 67 81 51 82 52 83 57 84 53 85 54 86 56 87
REMARK SMILES IDX 58 88 55 89
REMARK H PARENT 18 6 11 15 25 32 75 51 49 62
REMARK Flexibility Score: inf
ROOT
ATOM      1  C   UNL A   1      35.858  32.264  28.043  1.00  0.00     0.021 C 
ENDROOT
BRANCH   1   2
ATOM      2  C   UNL A   1      35.137  30.939  28.275  1.00  0.00     0.116 C 
BRANCH   2   3
ATOM      3  N   UNL A   1      33.749  31.046  27.904  1.00  0.00    -0.356 N 
ATOM      4  C   UNL A   1      33.049  30.317  27.004  1.00  0.00     0.227 C 
ATOM      5  O   UNL A   1      31.910  30.706  26.748  1.00  0.00    -0.274 OA
ATOM      6  H   UNL A   1      33.240  31.749  28.369  1.00  0.00     0.163 HD
BRANCH   4   7
ATOM      7  C   UNL A   1      33.680  29.095  26.327  1.00  0.00     0.103 C 
ATOM      8  C   UNL A   1      31.928  28.194  24.945  1.00  0.00     0.106 C 
ATOM      9  C   UNL A   1      32.294  27.195  25.986  1.00  0.00    -0.006 C 
ATOM     10  C   UNL A   1      33.208  29.024  24.871  1.00  0.00     0.047 C 
ATOM     11  C   UNL A   1      33.183  27.754  26.827  1.00  0.00    -0.016 C 
BRANCH   8  12
ATOM     12  N   UNL A   1      31.540  27.687  23.666  1.00  0.00    -0.346 N 
ATOM     13  C   UNL A   1      32.127  26.691  22.934  1.00  0.00     0.244 C 
ATOM     14  O   UNL A   1      31.528  26.280  21.937  1.00  0.00    -0.270 OA
ATOM     15  H   UNL A   1      30.749  28.110  23.258  1.00  0.00     0.164 HD
BRANCH  13  16
ATOM     16  C   UNL A   1      33.449  26.044  23.265  1.00  0.00     0.072 C 
ATOM     17  C   UNL A   1      33.697  24.819  23.751  1.00  0.00     0.014 C 
BRANCH  17  18
ATOM     18  C   UNL A   1      34.935  24.106  24.103  1.00  0.00    -0.025 A 
ATOM     19  C   UNL A   1      37.190  22.729  25.080  1.00  0.00     0.052 A 
ATOM     20  C   UNL A   1      36.734  22.520  23.771  1.00  0.00     0.020 A 
ATOM     21  C   UNL A   1      36.539  23.646  25.896  1.00  0.00     0.020 A 
ATOM     22  C   UNL A   1      35.606  23.202  23.284  1.00  0.00     0.009 A 
ATOM     23  C   UNL A   1      35.437  24.335  25.401  1.00  0.00     0.009 A 
BRANCH  19  24
ATOM     24  C   UNL A   1      38.311  22.001  25.601  1.00  0.00     0.099 C 
ATOM     25  N   UNL A   1      39.232  21.423  25.999  1.00  0.00    -0.192 NA
ENDBRANCH  19  24
ENDBRANCH  17  18
ENDBRANCH  13  16
ENDBRANCH   8  12
ENDBRANCH   4   7
ENDBRANCH   2   3
ENDBRANCH   1   2
BRANCH   1  26
ATOM     26  C   UNL A   1      35.305  33.438  28.865  1.00  0.00     0.002 C 
BRANCH  26  27
ATOM     27  C   UNL A   1      34.909  34.673  28.051  1.00  0.00     0.002 C 
BRANCH  27  28
ATOM     28  C   UNL A   1      33.966  35.635  28.772  1.00  0.00     0.021 C 
BRANCH  28  29
ATOM     29  C   UNL A   1      33.024  34.959  29.757  1.00  0.00     0.116 C 
BRANCH  29  30
ATOM     30  N   UNL A   1      32.494  35.893  30.740  1.00  0.00    -0.352 N 
ATOM     31  C   UNL A   1      32.798  35.996  32.076  1.00  0.00     0.251 C 
ATOM     32  H   UNL A   1      31.830  36.537  30.402  1.00  0.00     0.163 HD
ATOM     33  O   UNL A   1      32.127  36.703  32.818  1.00  0.00    -0.269 OA
BRANCH  31  34
ATOM     34  C   UNL A   1      33.932  35.219  32.611  1.00  0.00     0.039 A 
ATOM     35  C   UNL A   1      33.704  33.939  33.122  1.00  0.00     0.014 A 
ATOM     36  C   UNL A   1      35.227  35.742  32.561  1.00  0.00     0.014 A 
ATOM     37  C   UNL A   1      34.789  33.153  33.516  1.00  0.00     0.010 A 
ATOM     38  C   UNL A   1      36.308  34.927  32.868  1.00  0.00     0.010 A 
ATOM     39  C   UNL A   1      36.102  33.625  33.352  1.00  0.00    -0.014 A 
BRANCH  39  40
ATOM     40  C   UNL A   1      37.283  32.791  33.686  1.00  0.00     0.031 A 
ATOM     41  C   UNL A   1      38.061  33.077  34.941  1.00  0.00     0.074 A 
ATOM     42  C   UNL A   1      37.711  31.847  32.826  1.00  0.00     0.049 A 
ATOM     43  N   UNL A   1      39.198  32.572  35.343  1.00  0.00    -0.248 NA
ATOM     44  C   UNL A   1      37.496  34.088  35.849  1.00  0.00     0.031 C 
ATOM     45  C   UNL A   1      37.060  31.493  31.564  1.00  0.00     0.029 A 
ATOM     46  N   UNL A   1      38.812  31.026  32.874  1.00  0.00    -0.354 N 
ATOM     47  C   UNL A   1      39.490  33.213  36.540  1.00  0.00     0.074 A 
ATOM     48  C   UNL A   1      38.446  34.188  36.765  1.00  0.00     0.031 C 
ATOM     49  C   UNL A   1      37.767  30.522  30.963  1.00  0.00     0.029 A 
ATOM     50  C   UNL A   1      38.949  30.225  31.766  1.00  0.00     0.049 A 
ATOM     51  H   UNL A   1      39.442  31.013  33.630  1.00  0.00     0.167 HD
ATOM     52  C   UNL A   1      40.521  32.991  37.388  1.00  0.00     0.037 A 
ATOM     53  C   UNL A   1      39.931  29.367  31.423  1.00  0.00     0.037 A 
ATOM     54  C   UNL A   1      41.556  32.017  37.160  1.00  0.00     0.049 A 
ATOM     55  C   UNL A   1      41.100  29.178  32.353  1.00  0.00     0.074 A 
ATOM     56  C   UNL A   1      42.628  31.694  37.973  1.00  0.00     0.029 A 
ATOM     57  N   UNL A   1      41.653  31.219  36.030  1.00  0.00    -0.354 N 
ATOM     58  N   UNL A   1      41.340  29.754  33.506  1.00  0.00    -0.248 NA
ATOM     59  C   UNL A   1      42.134  28.219  31.937  1.00  0.00     0.031 C 
ATOM     60  C   UNL A   1      43.409  30.749  37.305  1.00  0.00     0.029 A 
ATOM     61  C   UNL A   1      42.783  30.423  36.112  1.00  0.00     0.049 A 
ATOM     62  H   UNL A   1      41.014  31.217  35.281  1.00  0.00     0.167 HD
ATOM     63  C   UNL A   1      42.526  29.199  33.972  1.00  0.00     0.074 A 
ATOM     64  C   UNL A   1      42.958  28.241  32.976  1.00  0.00     0.031 C 
ATOM     65  C   UNL A   1      43.191  29.456  35.124  1.00  0.00     0.037 A 
BRANCH  52  66
ATOM     66  C   UNL A   1      40.584  33.826  38.637  1.00  0.00     0.057 A 
ATOM     67  C   UNL A   1      41.352  34.996  38.708  1.00  0.00     0.134 A 
ATOM     68  C   UNL A   1      39.851  33.466  39.776  1.00  0.00     0.134 A 
ATOM     69  F   UNL A   1      42.085  35.394  37.657  1.00  0.00    -0.206 F 
ATOM     70  C   UNL A   1      41.419  35.757  39.876  1.00  0.00     0.040 A 
ATOM     71  C   UNL A   1      39.881  34.240  40.937  1.00  0.00     0.040 A 
ATOM     72  F   UNL A   1      39.087  32.364  39.775  1.00  0.00    -0.206 F 
ATOM     73  C   UNL A   1      40.676  35.382  40.993  1.00  0.00     0.006 A 
ENDBRANCH  52  66
BRANCH  53  74
ATOM     74  C   UNL A   1      39.853  28.625  30.137  1.00  0.00     0.057 A 
ATOM     75  C   UNL A   1      40.451  29.126  28.974  1.00  0.00     0.134 A 
ATOM     76  C   UNL A   1      39.172  27.406  30.035  1.00  0.00     0.134 A 
ATOM     77  F   UNL A   1      41.103  30.297  29.001  1.00  0.00    -0.206 F 
ATOM     78  C   UNL A   1      40.354  28.455  27.753  1.00  0.00     0.040 A 
ATOM     79  C   UNL A   1      39.094  26.709  28.829  1.00  0.00     0.040 A 
ATOM     80  F   UNL A   1      38.586  26.865  31.113  1.00  0.00    -0.206 F 
ATOM     81  C   UNL A   1      39.677  27.239  27.680  1.00  0.00     0.006 A 
ENDBRANCH  53  74
BRANCH  65  82
ATOM     82  C   UNL A   1      44.423  28.651  35.420  1.00  0.00     0.057 A 
ATOM     83  C   UNL A   1      45.704  29.081  35.055  1.00  0.00     0.134 A 
ATOM     84  C   UNL A   1      44.327  27.469  36.170  1.00  0.00     0.134 A 
ATOM     85  F   UNL A   1      45.866  30.196  34.328  1.00  0.00    -0.206 F 
ATOM     86  C   UNL A   1      46.844  28.363  35.420  1.00  0.00     0.040 A 
ATOM     87  C   UNL A   1      45.461  26.760  36.566  1.00  0.00     0.040 A 
ATOM     88  F   UNL A   1      43.130  27.006  36.560  1.00  0.00    -0.206 F 
ATOM     89  C   UNL A   1      46.725  27.206  36.189  1.00  0.00     0.006 A 
ENDBRANCH  65  82
ENDBRANCH  39  40
ENDBRANCH  31  34
ENDBRANCH  29  30
ENDBRANCH  28  29
ENDBRANCH  27  28
ENDBRANCH  26  27
ENDBRANCH   1  26
TORSDOF 17
ENDMDL
MODEL 2
REMARK VINA RESULT:     -11.0      6.417     12.269
REMARK SMILES N#Cc1ccc(/C=C/C(=O)N[C@H]2C=C[C@H](C(=O)NCCCCCCNC(=O)c3ccc(-c4c5nc(c(-c6c(F)cccc6F)c6ccc([nH]6)c(-c6c(F)cccc6F)c6nc(c(-c7c(F)cccc7F)c7ccc4[nH]7)C=C6)C=C5)cc3)C2)cc1
REMARK SMILES IDX 20 1 19 2 18 3 16 4 17 5 15 7 12 8 13 9 82 10 14 11 11 12
REMARK SMILES IDX 9 13 10 14 8 16 7 17 6 18 3 19 4 20 84 21 5 22 83 23 2 24
REMARK SMILES IDX 1 25 21 26 22 27 23 28 24 29 25 30 26 31 27 33 28 34 29 35
REMARK SMILES IDX 81 36 30 37 80 38 31 39 32 40 33 41 74 42 34 43 79 44 73 45
REMARK SMILES IDX 75 46 35 47 78 48 72 49 71 50 36 52 62 53 45 54 61 55 46 56
REMARK SMILES IDX 49 57 60 58 76 59 47 60 48 61 59 63 77 64 50 65 37 66 38 67
REMARK SMILES IDX 43 68 39 69 40 70 42 71 44 72 41 73 63 74 64 75 69 76 65 77
REMARK SMILES IDX 66 78 68 79 70 80 67 81 51 82 52 83 57 84 53 85 54 86 56 87
REMARK SMILES IDX 58 88 55 89
REMARK H PARENT 18 6 11 15 25 32 75 51 49 62
REMARK Flexibility Score: inf
ROOT
ATOM      1  C   UNL A   1      40.057  22.870  27.251  1.00  0.00     0.021 C 
ENDROOT
BRANCH   1   2
ATOM      2  C   UNL A   1      38.816  23.317  26.484  1.00  0.00     0.116 C 
BRANCH   2   3
ATOM      3  N   UNL A   1      38.381  22.284  25.579  1.00  0.00    -0.356 N 
ATOM      4  C   UNL A   1      37.180  22.131  24.975  1.00  0.00     0.227 C 
ATOM      5  O   UNL A   1      37.000  21.076  24.368  1.00  0.00    -0.274 OA
ATOM      6  H   UNL A   1      39.051  21.593  25.372  1.00  0.00     0.163 HD
BRANCH   4   7
ATOM      7  C   UNL A   1      36.103  23.217  25.088  1.00  0.00     0.103 C 
ATOM      8  C   UNL A   1      34.019  22.021  24.962  1.00  0.00     0.106 C 
ATOM      9  C   UNL A   1      34.129  22.940  23.795  1.00  0.00    -0.006 C 
ATOM     10  C   UNL A   1      34.955  22.700  25.960  1.00  0.00     0.047 C 
ATOM     11  C   UNL A   1      35.348  23.509  23.808  1.00  0.00    -0.016 C 
BRANCH   8  12
ATOM     12  N   UNL A   1      32.712  21.813  25.504  1.00  0.00    -0.346 N 
ATOM     13  C   UNL A   1      31.887  22.724  26.105  1.00  0.00     0.244 C 
ATOM     14  O   UNL A   1      30.726  22.382  26.339  1.00  0.00    -0.270 OA
ATOM     15  H   UNL A   1      32.361  20.895  25.437  1.00  0.00     0.164 HD
BRANCH  13  16
ATOM     16  C   UNL A   1      32.289  24.127  26.489  1.00  0.00     0.072 C 
ATOM     17  C   UNL A   1      32.210  25.259  25.774  1.00  0.00     0.014 C 
BRANCH  17  18
ATOM     18  C   UNL A   1      32.572  26.657  26.058  1.00  0.00    -0.025 A 
ATOM     19  C   UNL A   1      33.109  29.295  26.886  1.00  0.00     0.052 A 
ATOM     20  C   UNL A   1      34.023  28.594  26.087  1.00  0.00     0.020 A 
ATOM     21  C   UNL A   1      31.911  28.692  27.250  1.00  0.00     0.020 A 
ATOM     22  C   UNL A   1      33.759  27.277  25.678  1.00  0.00     0.009 A 
ATOM     23  C   UNL A   1      31.646  27.395  26.823  1.00  0.00     0.009 A 
BRANCH  19  24
ATOM     24  C   UNL A   1      33.392  30.623  27.348  1.00  0.00     0.099 C 
ATOM     25  N   UNL A   1      33.597  31.705  27.709  1.00  0.00    -0.192 NA
ENDBRANCH  19  24
ENDBRANCH  17  18
ENDBRANCH  13  16
ENDBRANCH   8  12
ENDBRANCH   4   7
ENDBRANCH   2   3
ENDBRANCH   1   2
BRANCH   1  26
ATOM     26  C   UNL A   1      40.989  21.940  26.461  1.00  0.00     0.002 C 
BRANCH  26  27
ATOM     27  C   UNL A   1      41.043  20.493  26.960  1.00  0.00     0.002 C 
BRANCH  27  28
ATOM     28  C   UNL A   1      41.680  19.506  25.983  1.00  0.00     0.021 C 
BRANCH  28  29
ATOM     29  C   UNL A   1      43.113  19.128  26.328  1.00  0.00     0.116 C 
BRANCH  29  30
ATOM     30  N   UNL A   1      43.846  18.640  25.169  1.00  0.00    -0.352 N 
ATOM     31  C   UNL A   1      44.602  19.353  24.270  1.00  0.00     0.251 C 
ATOM     32  H   UNL A   1      43.793  17.670  25.008  1.00  0.00     0.163 HD
ATOM     33  O   UNL A   1      44.999  18.834  23.233  1.00  0.00    -0.269 OA
BRANCH  31  34
ATOM     34  C   UNL A   1      44.908  20.767  24.559  1.00  0.00     0.039 A 
ATOM     35  C   UNL A   1      44.506  21.753  23.656  1.00  0.00     0.014 A 
ATOM     36  C   UNL A   1      45.551  21.116  25.751  1.00  0.00     0.014 A 
ATOM     37  C   UNL A   1      44.684  23.099  23.984  1.00  0.00     0.010 A 
ATOM     38  C   UNL A   1      45.645  22.453  26.113  1.00  0.00     0.010 A 
ATOM     39  C   UNL A   1      45.215  23.460  25.232  1.00  0.00    -0.014 A 
BRANCH  39  40
ATOM     40  C   UNL A   1      45.349  24.878  25.648  1.00  0.00     0.031 A 
ATOM     41  C   UNL A   1      46.702  25.534  25.622  1.00  0.00     0.074 A 
ATOM     42  C   UNL A   1      44.284  25.544  26.135  1.00  0.00     0.049 A 
ATOM     43  N   UNL A   1      47.063  26.705  26.080  1.00  0.00    -0.248 NA
ATOM     44  C   UNL A   1      47.799  24.754  25.028  1.00  0.00     0.031 C 
ATOM     45  C   UNL A   1      42.925  25.011  26.238  1.00  0.00     0.029 A 
ATOM     46  N   UNL A   1      44.184  26.811  26.657  1.00  0.00    -0.354 N 
ATOM     47  C   UNL A   1      48.428  26.795  25.841  1.00  0.00     0.074 A 
ATOM     48  C   UNL A   1      48.842  25.537  25.260  1.00  0.00     0.031 C 
ATOM     49  C   UNL A   1      42.127  25.945  26.779  1.00  0.00     0.029 A 
ATOM     50  C   UNL A   1      42.925  27.120  27.114  1.00  0.00     0.049 A 
ATOM     51  H   UNL A   1      44.942  27.438  26.700  1.00  0.00     0.167 HD
ATOM     52  C   UNL A   1      49.258  27.841  26.062  1.00  0.00     0.037 A 
ATOM     53  C   UNL A   1      42.471  28.216  27.754  1.00  0.00     0.037 A 
ATOM     54  C   UNL A   1      48.840  29.092  26.639  1.00  0.00     0.049 A 
ATOM     55  C   UNL A   1      43.424  29.345  28.044  1.00  0.00     0.074 A 
ATOM     56  C   UNL A   1      49.597  30.225  26.876  1.00  0.00     0.029 A 
ATOM     57  N   UNL A   1      47.554  29.368  27.078  1.00  0.00    -0.354 N 
ATOM     58  N   UNL A   1      44.703  29.439  27.770  1.00  0.00    -0.248 NA
ATOM     59  C   UNL A   1      42.873  30.523  28.731  1.00  0.00     0.031 C 
ATOM     60  C   UNL A   1      48.786  31.162  27.519  1.00  0.00     0.029 A 
ATOM     61  C   UNL A   1      47.503  30.644  27.611  1.00  0.00     0.049 A 
ATOM     62  H   UNL A   1      46.791  28.749  27.020  1.00  0.00     0.167 HD
ATOM     63  C   UNL A   1      45.098  30.696  28.210  1.00  0.00     0.074 A 
ATOM     64  C   UNL A   1      43.924  31.330  28.772  1.00  0.00     0.031 C 
ATOM     65  C   UNL A   1      46.322  31.274  28.146  1.00  0.00     0.037 A 
BRANCH  52  66
ATOM     66  C   UNL A   1      50.704  27.670  25.688  1.00  0.00     0.057 A 
ATOM     67  C   UNL A   1      51.675  27.302  26.630  1.00  0.00     0.134 A 
ATOM     68  C   UNL A   1      51.128  27.856  24.366  1.00  0.00     0.134 A 
ATOM     69  F   UNL A   1      51.340  27.117  27.916  1.00  0.00    -0.206 F 
ATOM     70  C   UNL A   1      53.018  27.162  26.279  1.00  0.00     0.040 A 
ATOM     71  C   UNL A   1      52.462  27.682  23.996  1.00  0.00     0.040 A 
ATOM     72  F   UNL A   1      50.252  28.200  23.410  1.00  0.00    -0.206 F 
ATOM     73  C   UNL A   1      53.414  27.346  24.956  1.00  0.00     0.006 A 
ENDBRANCH  52  66
BRANCH  53  74
ATOM     74  C   UNL A   1      41.046  28.297  28.170  1.00  0.00     0.057 A 
ATOM     75  C   UNL A   1      40.627  27.818  29.416  1.00  0.00     0.134 A 
ATOM     76  C   UNL A   1      40.068  28.842  27.329  1.00  0.00     0.134 A 
ATOM     77  F   UNL A   1      41.511  27.268  30.261  1.00  0.00    -0.206 F 
ATOM     78  C   UNL A   1      39.285  27.856  29.803  1.00  0.00     0.040 A 
ATOM     79  C   UNL A   1      38.729  28.916  27.714  1.00  0.00     0.040 A 
ATOM     80  F   UNL A   1      40.404  29.328  26.125  1.00  0.00    -0.206 F 
ATOM     81  C   UNL A   1      38.332  28.412  28.951  1.00  0.00     0.006 A 
ENDBRANCH  53  74
BRANCH  65  82
ATOM     82  C   UNL A   1      46.459  32.688  28.633  1.00  0.00     0.057 A 
ATOM     83  C   UNL A   1      46.234  33.791  27.802  1.00  0.00     0.134 A 
ATOM     84  C   UNL A   1      46.725  32.941  29.987  1.00  0.00     0.134 A 
ATOM     85  F   UNL A   1      45.986  33.620  26.496  1.00  0.00    -0.206 F 
ATOM     86  C   UNL A   1      46.276  35.096  28.298  1.00  0.00     0.040 A 
ATOM     87  C   UNL A   1      46.739  34.239  30.499  1.00  0.00     0.040 A 
ATOM     88  F   UNL A   1      46.940  31.929  30.840  1.00  0.00    -0.206 F 
ATOM     89  C   UNL A   1      46.515  35.321  29.653  1.00  0.00     0.006 A 
ENDBRANCH  65  82
ENDBRANCH  39  40
ENDBRANCH  31  34
ENDBRANCH  29  30
ENDBRANCH  28  29
ENDBRANCH  27  28
ENDBRANCH  26  27
ENDBRANCH   1  26
TORSDOF 17
ENDMDL
MODEL 3
REMARK VINA RESULT:     -11.0      4.281     10.414
REMARK SMILES N#Cc1ccc(/C=C/C(=O)N[C@H]2C=C[C@H](C(=O)NCCCCCCNC(=O)c3ccc(-c4c5nc(c(-c6c(F)cccc6F)c6ccc([nH]6)c(-c6c(F)cccc6F)c6nc(c(-c7c(F)cccc7F)c7ccc4[nH]7)C=C6)C=C5)cc3)C2)cc1
REMARK SMILES IDX 20 1 19 2 18 3 16 4 17 5 15 7 12 8 13 9 82 10 14 11 11 12
REMARK SMILES IDX 9 13 10 14 8 16 7 17 6 18 3 19 4 20 84 21 5 22 83 23 2 24
REMARK SMILES IDX 1 25 21 26 22 27 23 28 24 29 25 30 26 31 27 33 28 34 29 35
REMARK SMILES IDX 81 36 30 37 80 38 31 39 32 40 33 41 74 42 34 43 79 44 73 45
REMARK SMILES IDX 75 46 35 47 78 48 72 49 71 50 36 52 62 53 45 54 61 55 46 56
REMARK SMILES IDX 49 57 60 58 76 59 47 60 48 61 59 63 77 64 50 65 37 66 38 67
REMARK SMILES IDX 43 68 39 69 40 70 42 71 44 72 41 73 63 74 64 75 69 76 65 77
REMARK SMILES IDX 66 78 68 79 70 80 67 81 51 82 52 83 57 84 53 85 54 86 56 87
REMARK SMILES IDX 58 88 55 89
REMARK H PARENT 18 6 11 15 25 32 75 51 49 62
REMARK Flexibility Score: inf
ROOT
ATOM      1  C   UNL A   1      34.590  23.926  25.683  1.00  0.00     0.021 C 
ENDROOT
BRANCH   1   2
ATOM      2  C   UNL A   1      33.557  24.650  24.824  1.00  0.00     0.116 C 
BRANCH   2   3
ATOM      3  N   UNL A   1      34.062  25.928  24.393  1.00  0.00    -0.356 N 
ATOM      4  C   UNL A   1      33.504  27.153  24.525  1.00  0.00     0.227 C 
ATOM      5  O   UNL A   1      34.059  28.077  23.931  1.00  0.00    -0.274 OA
ATOM      6  H   UNL A   1      34.935  25.906  23.937  1.00  0.00     0.163 HD
BRANCH   4   7
ATOM      7  C   UNL A   1      32.225  27.346  25.350  1.00  0.00     0.103 C 
ATOM      8  C   UNL A   1      32.348  29.617  26.136  1.00  0.00     0.106 C 
ATOM      9  C   UNL A   1      32.375  28.691  27.302  1.00  0.00    -0.006 C 
ATOM     10  C   UNL A   1      31.661  28.746  25.085  1.00  0.00     0.047 C 
ATOM     11  C   UNL A   1      32.433  27.426  26.848  1.00  0.00    -0.016 C 
BRANCH   8  12
ATOM     12  N   UNL A   1      31.681  30.869  26.316  1.00  0.00    -0.346 N 
ATOM     13  C   UNL A   1      32.149  32.000  26.927  1.00  0.00     0.244 C 
ATOM     14  O   UNL A   1      31.484  33.033  26.814  1.00  0.00    -0.270 OA
ATOM     15  H   UNL A   1      30.767  30.924  25.953  1.00  0.00     0.164 HD
BRANCH  13  16
ATOM     16  C   UNL A   1      33.431  32.083  27.718  1.00  0.00     0.072 C 
ATOM     17  C   UNL A   1      33.936  33.114  28.412  1.00  0.00     0.014 C 
BRANCH  17  18
ATOM     18  C   UNL A   1      35.162  33.289  29.206  1.00  0.00    -0.025 A 
ATOM     19  C   UNL A   1      37.616  33.820  30.485  1.00  0.00     0.052 A 
ATOM     20  C   UNL A   1      36.449  33.608  31.232  1.00  0.00     0.020 A 
ATOM     21  C   UNL A   1      37.568  33.739  29.098  1.00  0.00     0.020 A 
ATOM     22  C   UNL A   1      35.223  33.349  30.595  1.00  0.00     0.009 A 
ATOM     23  C   UNL A   1      36.356  33.460  28.475  1.00  0.00     0.009 A 
BRANCH  19  24
ATOM     24  C   UNL A   1      38.861  34.133  31.125  1.00  0.00     0.099 C 
ATOM     25  N   UNL A   1      39.856  34.412  31.648  1.00  0.00    -0.192 NA
ENDBRANCH  19  24
ENDBRANCH  17  18
ENDBRANCH  13  16
ENDBRANCH   8  12
ENDBRANCH   4   7
ENDBRANCH   2   3
ENDBRANCH   1   2
BRANCH   1  26
ATOM     26  C   UNL A   1      35.470  22.932  24.911  1.00  0.00     0.002 C 
BRANCH  26  27
ATOM     27  C   UNL A   1      35.828  21.652  25.673  1.00  0.00     0.002 C 
BRANCH  27  28
ATOM     28  C   UNL A   1      36.884  20.781  24.994  1.00  0.00     0.021 C 
BRANCH  28  29
ATOM     29  C   UNL A   1      38.315  21.124  25.383  1.00  0.00     0.116 C 
BRANCH  29  30
ATOM     30  N   UNL A   1      39.150  19.937  25.500  1.00  0.00    -0.352 N 
ATOM     31  C   UNL A   1      40.457  19.846  25.916  1.00  0.00     0.251 C 
ATOM     32  H   UNL A   1      38.722  19.087  25.249  1.00  0.00     0.163 HD
ATOM     33  O   UNL A   1      41.088  18.805  25.776  1.00  0.00    -0.269 OA
BRANCH  31  34
ATOM     34  C   UNL A   1      41.100  21.033  26.511  1.00  0.00     0.039 A 
ATOM     35  C   UNL A   1      41.724  21.964  25.677  1.00  0.00     0.014 A 
ATOM     36  C   UNL A   1      41.042  21.245  27.892  1.00  0.00     0.014 A 
ATOM     37  C   UNL A   1      42.225  23.148  26.223  1.00  0.00     0.010 A 
ATOM     38  C   UNL A   1      41.459  22.460  28.417  1.00  0.00     0.010 A 
ATOM     39  C   UNL A   1      42.059  23.424  27.590  1.00  0.00    -0.014 A 
BRANCH  39  40
ATOM     40  C   UNL A   1      42.509  24.703  28.193  1.00  0.00     0.031 A 
ATOM     41  C   UNL A   1      41.509  25.797  28.444  1.00  0.00     0.074 A 
ATOM     42  C   UNL A   1      43.818  24.917  28.426  1.00  0.00     0.049 A 
ATOM     43  N   UNL A   1      41.711  27.033  28.821  1.00  0.00    -0.248 NA
ATOM     44  C   UNL A   1      40.095  25.462  28.211  1.00  0.00     0.031 C 
ATOM     45  C   UNL A   1      44.889  23.946  28.200  1.00  0.00     0.029 A 
ATOM     46  N   UNL A   1      44.474  26.033  28.887  1.00  0.00    -0.354 N 
ATOM     47  C   UNL A   1      40.455  27.624  28.857  1.00  0.00     0.074 A 
ATOM     48  C   UNL A   1      39.506  26.633  28.400  1.00  0.00     0.031 C 
ATOM     49  C   UNL A   1      46.065  24.505  28.530  1.00  0.00     0.029 A 
ATOM     50  C   UNL A   1      45.839  25.888  28.936  1.00  0.00     0.049 A 
ATOM     51  H   UNL A   1      44.009  26.858  29.155  1.00  0.00     0.167 HD
ATOM     52  C   UNL A   1      40.119  28.872  29.258  1.00  0.00     0.037 A 
ATOM     53  C   UNL A   1      46.803  26.778  29.249  1.00  0.00     0.037 A 
ATOM     54  C   UNL A   1      41.067  29.854  29.713  1.00  0.00     0.049 A 
ATOM     55  C   UNL A   1      46.412  28.179  29.635  1.00  0.00     0.074 A 
ATOM     56  C   UNL A   1      40.825  31.137  30.171  1.00  0.00     0.029 A 
ATOM     57  N   UNL A   1      42.440  29.664  29.758  1.00  0.00    -0.354 N 
ATOM     58  N   UNL A   1      45.216  28.713  29.711  1.00  0.00    -0.248 NA
ATOM     59  C   UNL A   1      47.502  29.104  29.980  1.00  0.00     0.031 C 
ATOM     60  C   UNL A   1      42.055  31.745  30.429  1.00  0.00     0.029 A 
ATOM     61  C   UNL A   1      43.060  30.816  30.210  1.00  0.00     0.049 A 
ATOM     62  H   UNL A   1      42.905  28.833  29.507  1.00  0.00     0.167 HD
ATOM     63  C   UNL A   1      45.406  30.017  30.153  1.00  0.00     0.074 A 
ATOM     64  C   UNL A   1      46.832  30.196  30.325  1.00  0.00     0.031 C 
ATOM     65  C   UNL A   1      44.480  30.975  30.399  1.00  0.00     0.037 A 
BRANCH  52  66
ATOM     66  C   UNL A   1      38.664  29.248  29.210  1.00  0.00     0.057 A 
ATOM     67  C   UNL A   1      38.036  29.634  28.018  1.00  0.00     0.134 A 
ATOM     68  C   UNL A   1      37.875  29.203  30.367  1.00  0.00     0.134 A 
ATOM     69  F   UNL A   1      38.735  29.707  26.874  1.00  0.00    -0.206 F 
ATOM     70  C   UNL A   1      36.690  29.997  27.985  1.00  0.00     0.040 A 
ATOM     71  C   UNL A   1      36.518  29.528  30.339  1.00  0.00     0.040 A 
ATOM     72  F   UNL A   1      38.407  28.833  31.542  1.00  0.00    -0.206 F 
ATOM     73  C   UNL A   1      35.925  29.938  29.148  1.00  0.00     0.006 A 
ENDBRANCH  52  66
BRANCH  53  74
ATOM     74  C   UNL A   1      48.232  26.371  29.203  1.00  0.00     0.057 A 
ATOM     75  C   UNL A   1      48.993  26.526  28.038  1.00  0.00     0.134 A 
ATOM     76  C   UNL A   1      48.869  25.808  30.316  1.00  0.00     0.134 A 
ATOM     77  F   UNL A   1      48.437  27.043  26.932  1.00  0.00    -0.206 F 
ATOM     78  C   UNL A   1      50.326  26.115  27.973  1.00  0.00     0.040 A 
ATOM     79  C   UNL A   1      50.209  25.422  30.276  1.00  0.00     0.040 A 
ATOM     80  F   UNL A   1      48.201  25.641  31.466  1.00  0.00    -0.206 F 
ATOM     81  C   UNL A   1      50.940  25.565  29.098  1.00  0.00     0.006 A 
ENDBRANCH  53  74
BRANCH  65  82
ATOM     82  C   UNL A   1      44.957  32.289  30.947  1.00  0.00     0.057 A 
ATOM     83  C   UNL A   1      45.135  32.509  32.318  1.00  0.00     0.134 A 
ATOM     84  C   UNL A   1      45.337  33.317  30.072  1.00  0.00     0.134 A 
ATOM     85  F   UNL A   1      44.781  31.572  33.209  1.00  0.00    -0.206 F 
ATOM     86  C   UNL A   1      45.667  33.707  32.799  1.00  0.00     0.040 A 
ATOM     87  C   UNL A   1      45.897  34.506  30.540  1.00  0.00     0.040 A 
ATOM     88  F   UNL A   1      45.202  33.168  28.746  1.00  0.00    -0.206 F 
ATOM     89  C   UNL A   1      46.062  34.704  31.908  1.00  0.00     0.006 A 
ENDBRANCH  65  82
ENDBRANCH  39  40
ENDBRANCH  31  34
ENDBRANCH  29  30
ENDBRANCH  28  29
ENDBRANCH  27  28
ENDBRANCH  26  27
ENDBRANCH   1  26
TORSDOF 17
ENDMDL
