MODEL 1
REMARK VINA RESULT:     -11.5      0.000      0.000
REMARK SMILES COc1cc2cc(C(=O)NCCCCCCNC(=O)c3ccc(-c4c5nc(c(-c6c(F)cccc6F)c6ccc([nH]6)c(-c6c(F)cccc6F)c6nc(c(-c7c(F)cccc7F)c7ccc4[nH]7)C=C6)C=C5)cc3)n(Cc3ccccc3)c2c(OC)c1OC
REMARK SMILES IDX 13 1 12 2 11 3 10 4 8 5 9 6 7 8 3 9 4 10 86 11 5 12 83 13
REMARK SMILES IDX 6 14 82 15 74 16 2 17 1 18 87 19 88 20 84 21 85 22 75 23
REMARK SMILES IDX 76 24 77 25 81 26 78 27 80 28 79 29 14 30 15 31 16 32 17 33
REMARK SMILES IDX 18 34 19 36 20 37 21 38 73 39 22 40 72 41 23 42 24 43 25 44
REMARK SMILES IDX 66 45 26 46 71 47 65 48 67 49 27 50 70 51 64 52 63 53 28 55
REMARK SMILES IDX 54 56 37 57 53 58 38 59 41 60 52 61 68 62 39 63 40 64 51 66
REMARK SMILES IDX 69 67 42 68 29 69 30 70 35 71 31 72 32 73 34 74 36 75 33 76
REMARK SMILES IDX 55 77 56 78 61 79 57 80 58 81 60 82 62 83 59 84 43 85 44 86
REMARK SMILES IDX 49 87 45 88 46 89 48 90 50 91 47 92
REMARK H PARENT 10 7 17 35 67 54 41 65
REMARK Flexibility Score: inf
ROOT
ATOM      1  C   UNL A   1      35.809  23.475  26.114  1.00  0.00     0.002 C 
ENDROOT
BRANCH   1   2
ATOM      2  C   UNL A   1      34.921  23.557  24.870  1.00  0.00     0.021 C 
BRANCH   2   3
ATOM      3  C   UNL A   1      33.690  22.651  24.876  1.00  0.00     0.116 C 
BRANCH   3   4
ATOM      4  N   UNL A   1      32.909  22.906  26.065  1.00  0.00    -0.351 N 
ATOM      5  C   UNL A   1      32.029  23.872  26.451  1.00  0.00     0.267 C 
ATOM      6  O   UNL A   1      31.603  23.711  27.606  1.00  0.00    -0.268 OA
ATOM      7  H   UNL A   1      33.046  22.223  26.759  1.00  0.00     0.163 HD
BRANCH   5   8
ATOM      8  C   UNL A   1      31.522  24.968  25.634  1.00  0.00     0.108 A 
ATOM      9  C   UNL A   1      28.854  27.804  23.086  1.00  0.00     0.165 A 
ATOM     10  C   UNL A   1      28.737  26.784  24.035  1.00  0.00     0.061 A 
ATOM     11  C   UNL A   1      30.108  28.267  22.657  1.00  0.00     0.205 A 
ATOM     12  C   UNL A   1      29.904  26.214  24.566  1.00  0.00     0.008 A 
ATOM     13  C   UNL A   1      31.295  27.690  23.171  1.00  0.00     0.189 A 
ATOM     14  C   UNL A   1      30.148  25.128  25.431  1.00  0.00     0.042 A 
ATOM     15  C   UNL A   1      31.147  26.709  24.192  1.00  0.00     0.096 A 
ATOM     16  N   UNL A   1      32.077  26.114  25.069  1.00  0.00    -0.329 N 
BRANCH   9  17
ATOM     17  O   UNL A   1      27.680  28.347  22.622  1.00  0.00    -0.493 OA
ATOM     18  C   UNL A   1      26.674  28.300  23.634  1.00  0.00     0.278 C 
ENDBRANCH   9  17
BRANCH  11  19
ATOM     19  O   UNL A   1      30.205  29.219  21.668  1.00  0.00    -0.490 OA
ATOM     20  C   UNL A   1      29.670  30.495  22.022  1.00  0.00     0.278 C 
ENDBRANCH  11  19
BRANCH  13  21
ATOM     21  O   UNL A   1      32.576  27.938  22.760  1.00  0.00    -0.491 OA
ATOM     22  C   UNL A   1      33.222  27.028  21.886  1.00  0.00     0.278 C 
ENDBRANCH  13  21
BRANCH  16  23
ATOM     23  C   UNL A   1      33.358  26.771  25.341  1.00  0.00     0.158 C 
BRANCH  23  24
ATOM     24  C   UNL A   1      33.405  28.037  26.168  1.00  0.00    -0.028 A 
ATOM     25  C   UNL A   1      34.557  28.678  26.634  1.00  0.00     0.005 A 
ATOM     26  C   UNL A   1      32.157  28.638  26.448  1.00  0.00     0.005 A 
ATOM     27  C   UNL A   1      34.471  29.920  27.273  1.00  0.00     0.000 A 
ATOM     28  C   UNL A   1      32.069  29.861  27.111  1.00  0.00     0.000 A 
ATOM     29  C   UNL A   1      33.231  30.513  27.504  1.00  0.00     0.000 A 
ENDBRANCH  23  24
ENDBRANCH  16  23
ENDBRANCH   5   8
ENDBRANCH   3   4
ENDBRANCH   2   3
ENDBRANCH   1   2
BRANCH   1  30
ATOM     30  C   UNL A   1      37.300  23.670  25.854  1.00  0.00     0.002 C 
BRANCH  30  31
ATOM     31  C   UNL A   1      38.104  22.387  25.623  1.00  0.00     0.021 C 
BRANCH  31  32
ATOM     32  C   UNL A   1      39.331  22.200  26.520  1.00  0.00     0.116 C 
BRANCH  32  33
ATOM     33  N   UNL A   1      40.607  22.155  25.831  1.00  0.00    -0.352 N 
ATOM     34  C   UNL A   1      41.715  22.957  25.823  1.00  0.00     0.251 C 
ATOM     35  H   UNL A   1      40.694  21.375  25.238  1.00  0.00     0.163 HD
ATOM     36  O   UNL A   1      42.691  22.557  25.181  1.00  0.00    -0.269 OA
BRANCH  34  37
ATOM     37  C   UNL A   1      41.788  24.293  26.470  1.00  0.00     0.039 A 
ATOM     38  C   UNL A   1      42.487  24.573  27.643  1.00  0.00     0.014 A 
ATOM     39  C   UNL A   1      41.074  25.333  25.852  1.00  0.00     0.014 A 
ATOM     40  C   UNL A   1      42.355  25.810  28.267  1.00  0.00     0.010 A 
ATOM     41  C   UNL A   1      40.990  26.594  26.439  1.00  0.00     0.010 A 
ATOM     42  C   UNL A   1      41.582  26.816  27.682  1.00  0.00    -0.014 A 
BRANCH  42  43
ATOM     43  C   UNL A   1      41.478  28.086  28.400  1.00  0.00     0.031 A 
ATOM     44  C   UNL A   1      42.578  29.078  28.192  1.00  0.00     0.074 A 
ATOM     45  C   UNL A   1      40.417  28.443  29.151  1.00  0.00     0.049 A 
ATOM     46  N   UNL A   1      43.341  29.630  29.083  1.00  0.00    -0.248 NA
ATOM     47  C   UNL A   1      42.885  29.475  26.812  1.00  0.00     0.031 C 
ATOM     48  C   UNL A   1      39.129  27.761  29.283  1.00  0.00     0.029 A 
ATOM     49  N   UNL A   1      40.248  29.581  29.886  1.00  0.00    -0.354 N 
ATOM     50  C   UNL A   1      44.127  30.558  28.402  1.00  0.00     0.074 A 
ATOM     51  C   UNL A   1      43.862  30.364  26.998  1.00  0.00     0.031 C 
ATOM     52  C   UNL A   1      38.245  28.604  29.861  1.00  0.00     0.029 A 
ATOM     53  C   UNL A   1      38.935  29.823  30.247  1.00  0.00     0.049 A 
ATOM     54  H   UNL A   1      40.993  30.173  30.136  1.00  0.00     0.167 HD
ATOM     55  C   UNL A   1      44.840  31.529  29.040  1.00  0.00     0.037 A 
ATOM     56  C   UNL A   1      38.431  30.968  30.765  1.00  0.00     0.037 A 
ATOM     57  C   UNL A   1      45.031  31.245  30.435  1.00  0.00     0.049 A 
ATOM     58  C   UNL A   1      39.548  31.746  31.352  1.00  0.00     0.074 A 
ATOM     59  C   UNL A   1      45.622  30.224  31.154  1.00  0.00     0.029 A 
ATOM     60  N   UNL A   1      44.335  31.982  31.360  1.00  0.00    -0.354 N 
ATOM     61  N   UNL A   1      40.171  31.425  32.451  1.00  0.00    -0.248 NA
ATOM     62  C   UNL A   1      40.236  32.709  30.505  1.00  0.00     0.031 C 
ATOM     63  C   UNL A   1      44.851  30.117  32.349  1.00  0.00     0.029 A 
ATOM     64  C   UNL A   1      43.850  31.084  32.274  1.00  0.00     0.049 A 
ATOM     65  H   UNL A   1      44.210  32.958  31.365  1.00  0.00     0.167 HD
ATOM     66  C   UNL A   1      41.486  31.807  32.237  1.00  0.00     0.074 A 
ATOM     67  C   UNL A   1      41.441  32.696  31.080  1.00  0.00     0.031 C 
ATOM     68  C   UNL A   1      42.524  31.151  32.834  1.00  0.00     0.037 A 
BRANCH  55  69
ATOM     69  C   UNL A   1      45.136  32.890  28.465  1.00  0.00     0.057 A 
ATOM     70  C   UNL A   1      44.160  33.895  28.314  1.00  0.00     0.134 A 
ATOM     71  C   UNL A   1      46.470  33.321  28.333  1.00  0.00     0.134 A 
ATOM     72  F   UNL A   1      42.857  33.650  28.503  1.00  0.00    -0.206 F 
ATOM     73  C   UNL A   1      44.486  35.231  28.062  1.00  0.00     0.040 A 
ATOM     74  C   UNL A   1      46.808  34.665  28.130  1.00  0.00     0.040 A 
ATOM     75  F   UNL A   1      47.489  32.461  28.478  1.00  0.00    -0.206 F 
ATOM     76  C   UNL A   1      45.815  35.625  27.999  1.00  0.00     0.006 A 
ENDBRANCH  55  69
BRANCH  56  77
ATOM     77  C   UNL A   1      37.064  31.510  30.615  1.00  0.00     0.057 A 
ATOM     78  C   UNL A   1      36.671  32.203  29.455  1.00  0.00     0.134 A 
ATOM     79  C   UNL A   1      36.170  31.557  31.691  1.00  0.00     0.134 A 
ATOM     80  F   UNL A   1      37.490  32.314  28.399  1.00  0.00    -0.206 F 
ATOM     81  C   UNL A   1      35.453  32.882  29.361  1.00  0.00     0.040 A 
ATOM     82  C   UNL A   1      34.954  32.247  31.617  1.00  0.00     0.040 A 
ATOM     83  F   UNL A   1      36.479  30.978  32.861  1.00  0.00    -0.206 F 
ATOM     84  C   UNL A   1      34.592  32.912  30.449  1.00  0.00     0.006 A 
ENDBRANCH  56  77
BRANCH  68  85
ATOM     85  C   UNL A   1      42.204  30.187  33.939  1.00  0.00     0.057 A 
ATOM     86  C   UNL A   1      42.427  30.570  35.266  1.00  0.00     0.134 A 
ATOM     87  C   UNL A   1      41.828  28.855  33.713  1.00  0.00     0.134 A 
ATOM     88  F   UNL A   1      42.857  31.808  35.552  1.00  0.00    -0.206 F 
ATOM     89  C   UNL A   1      42.258  29.675  36.327  1.00  0.00     0.040 A 
ATOM     90  C   UNL A   1      41.622  27.961  34.766  1.00  0.00     0.040 A 
ATOM     91  F   UNL A   1      41.707  28.370  32.471  1.00  0.00    -0.206 F 
ATOM     92  C   UNL A   1      41.841  28.370  36.078  1.00  0.00     0.006 A 
ENDBRANCH  68  85
ENDBRANCH  42  43
ENDBRANCH  34  37
ENDBRANCH  32  33
ENDBRANCH  31  32
ENDBRANCH  30  31
ENDBRANCH   1  30
TORSDOF 18
ENDMDL
MODEL 2
REMARK VINA RESULT:     -11.2      2.556      7.809
REMARK SMILES COc1cc2cc(C(=O)NCCCCCCNC(=O)c3ccc(-c4c5nc(c(-c6c(F)cccc6F)c6ccc([nH]6)c(-c6c(F)cccc6F)c6nc(c(-c7c(F)cccc7F)c7ccc4[nH]7)C=C6)C=C5)cc3)n(Cc3ccccc3)c2c(OC)c1OC
REMARK SMILES IDX 13 1 12 2 11 3 10 4 8 5 9 6 7 8 3 9 4 10 86 11 5 12 83 13
REMARK SMILES IDX 6 14 82 15 74 16 2 17 1 18 87 19 88 20 84 21 85 22 75 23
REMARK SMILES IDX 76 24 77 25 81 26 78 27 80 28 79 29 14 30 15 31 16 32 17 33
REMARK SMILES IDX 18 34 19 36 20 37 21 38 73 39 22 40 72 41 23 42 24 43 25 44
REMARK SMILES IDX 66 45 26 46 71 47 65 48 67 49 27 50 70 51 64 52 63 53 28 55
REMARK SMILES IDX 54 56 37 57 53 58 38 59 41 60 52 61 68 62 39 63 40 64 51 66
REMARK SMILES IDX 69 67 42 68 29 69 30 70 35 71 31 72 32 73 34 74 36 75 33 76
REMARK SMILES IDX 55 77 56 78 61 79 57 80 58 81 60 82 62 83 59 84 43 85 44 86
REMARK SMILES IDX 49 87 45 88 46 89 48 90 50 91 47 92
REMARK H PARENT 10 7 17 35 67 54 41 65
REMARK Flexibility Score: inf
ROOT
ATOM      1  C   UNL A   1      35.019  31.948  27.717  1.00  0.00     0.002 C 
ENDROOT
BRANCH   1   2
ATOM      2  C   UNL A   1      34.664  30.484  27.446  1.00  0.00     0.021 C 
BRANCH   2   3
ATOM      3  C   UNL A   1      33.439  30.255  26.560  1.00  0.00     0.116 C 
BRANCH   3   4
ATOM      4  N   UNL A   1      32.447  29.503  27.294  1.00  0.00    -0.351 N 
ATOM      5  C   UNL A   1      31.915  28.253  27.193  1.00  0.00     0.267 C 
ATOM      6  O   UNL A   1      31.038  28.025  28.042  1.00  0.00    -0.268 OA
ATOM      7  H   UNL A   1      32.064  30.015  28.043  1.00  0.00     0.163 HD
BRANCH   5   8
ATOM      8  C   UNL A   1      32.327  27.202  26.270  1.00  0.00     0.108 A 
ATOM      9  C   UNL A   1      34.743  24.034  23.867  1.00  0.00     0.165 A 
ATOM     10  C   UNL A   1      34.809  24.755  25.062  1.00  0.00     0.061 A 
ATOM     11  C   UNL A   1      33.655  24.167  22.989  1.00  0.00     0.205 A 
ATOM     12  C   UNL A   1      33.762  25.630  25.387  1.00  0.00     0.008 A 
ATOM     13  C   UNL A   1      32.598  25.059  23.293  1.00  0.00     0.189 A 
ATOM     14  C   UNL A   1      33.561  26.564  26.423  1.00  0.00     0.042 A 
ATOM     15  C   UNL A   1      32.654  25.721  24.553  1.00  0.00     0.096 A 
ATOM     16  N   UNL A   1      31.696  26.469  25.267  1.00  0.00    -0.329 N 
BRANCH   9  17
ATOM     17  O   UNL A   1      35.781  23.169  23.615  1.00  0.00    -0.493 OA
ATOM     18  C   UNL A   1      35.685  22.016  24.450  1.00  0.00     0.278 C 
ENDBRANCH   9  17
BRANCH  11  19
ATOM     19  O   UNL A   1      33.642  23.507  21.782  1.00  0.00    -0.490 OA
ATOM     20  C   UNL A   1      32.795  22.357  21.746  1.00  0.00     0.278 C 
ENDBRANCH  11  19
BRANCH  13  21
ATOM     21  O   UNL A   1      31.546  25.395  22.486  1.00  0.00    -0.491 OA
ATOM     22  C   UNL A   1      31.766  26.206  21.345  1.00  0.00     0.278 C 
ENDBRANCH  13  21
BRANCH  16  23
ATOM     23  C   UNL A   1      30.270  26.318  24.968  1.00  0.00     0.158 C 
BRANCH  23  24
ATOM     24  C   UNL A   1      29.554  27.350  24.124  1.00  0.00    -0.028 A 
ATOM     25  C   UNL A   1      28.227  27.286  23.688  1.00  0.00     0.005 A 
ATOM     26  C   UNL A   1      30.302  28.503  23.792  1.00  0.00     0.005 A 
ATOM     27  C   UNL A   1      27.643  28.373  23.027  1.00  0.00     0.000 A 
ATOM     28  C   UNL A   1      29.728  29.573  23.108  1.00  0.00     0.000 A 
ATOM     29  C   UNL A   1      28.388  29.515  22.745  1.00  0.00     0.000 A 
ENDBRANCH  23  24
ENDBRANCH  16  23
ENDBRANCH   5   8
ENDBRANCH   3   4
ENDBRANCH   2   3
ENDBRANCH   1   2
BRANCH   1  30
ATOM     30  C   UNL A   1      34.200  32.616  28.819  1.00  0.00     0.002 C 
BRANCH  30  31
ATOM     31  C   UNL A   1      33.420  33.865  28.397  1.00  0.00     0.021 C 
BRANCH  31  32
ATOM     32  C   UNL A   1      33.682  35.124  29.229  1.00  0.00     0.116 C 
BRANCH  32  33
ATOM     33  N   UNL A   1      33.270  35.052  30.618  1.00  0.00    -0.352 N 
ATOM     34  C   UNL A   1      33.857  34.590  31.764  1.00  0.00     0.251 C 
ATOM     35  H   UNL A   1      32.368  35.414  30.768  1.00  0.00     0.163 HD
ATOM     36  O   UNL A   1      33.247  34.782  32.820  1.00  0.00    -0.269 OA
BRANCH  34  37
ATOM     37  C   UNL A   1      35.129  33.823  31.804  1.00  0.00     0.039 A 
ATOM     38  C   UNL A   1      36.396  34.367  31.603  1.00  0.00     0.014 A 
ATOM     39  C   UNL A   1      35.024  32.442  32.041  1.00  0.00     0.014 A 
ATOM     40  C   UNL A   1      37.510  33.543  31.487  1.00  0.00     0.010 A 
ATOM     41  C   UNL A   1      36.146  31.618  31.990  1.00  0.00     0.010 A 
ATOM     42  C   UNL A   1      37.385  32.161  31.651  1.00  0.00    -0.014 A 
BRANCH  42  43
ATOM     43  C   UNL A   1      38.597  31.355  31.503  1.00  0.00     0.031 A 
ATOM     44  C   UNL A   1      39.383  31.073  32.744  1.00  0.00     0.074 A 
ATOM     45  C   UNL A   1      38.984  30.783  30.346  1.00  0.00     0.049 A 
ATOM     46  N   UNL A   1      40.629  31.337  32.983  1.00  0.00    -0.248 NA
ATOM     47  C   UNL A   1      38.676  30.448  33.870  1.00  0.00     0.031 C 
ATOM     48  C   UNL A   1      38.249  30.698  29.084  1.00  0.00     0.029 A 
ATOM     49  N   UNL A   1      40.112  30.053  30.102  1.00  0.00    -0.354 N 
ATOM     50  C   UNL A   1      40.914  30.782  34.229  1.00  0.00     0.074 A 
ATOM     51  C   UNL A   1      39.658  30.317  34.764  1.00  0.00     0.031 C 
ATOM     52  C   UNL A   1      38.841  29.777  28.292  1.00  0.00     0.029 A 
ATOM     53  C   UNL A   1      40.055  29.308  28.938  1.00  0.00     0.049 A 
ATOM     54  H   UNL A   1      40.894  30.057  30.700  1.00  0.00     0.167 HD
ATOM     55  C   UNL A   1      42.187  30.604  34.683  1.00  0.00     0.037 A 
ATOM     56  C   UNL A   1      40.905  28.325  28.557  1.00  0.00     0.037 A 
ATOM     57  C   UNL A   1      43.142  31.402  33.967  1.00  0.00     0.049 A 
ATOM     58  C   UNL A   1      42.174  28.491  29.305  1.00  0.00     0.074 A 
ATOM     59  C   UNL A   1      43.321  32.755  33.749  1.00  0.00     0.029 A 
ATOM     60  N   UNL A   1      44.002  30.780  33.098  1.00  0.00    -0.354 N 
ATOM     61  N   UNL A   1      43.040  29.440  29.084  1.00  0.00    -0.248 NA
ATOM     62  C   UNL A   1      42.319  27.801  30.578  1.00  0.00     0.031 C 
ATOM     63  C   UNL A   1      43.886  32.849  32.443  1.00  0.00     0.029 A 
ATOM     64  C   UNL A   1      44.016  31.547  31.963  1.00  0.00     0.049 A 
ATOM     65  H   UNL A   1      44.508  29.950  33.259  1.00  0.00     0.167 HD
ATOM     66  C   UNL A   1      43.557  29.745  30.333  1.00  0.00     0.074 A 
ATOM     67  C   UNL A   1      43.169  28.629  31.189  1.00  0.00     0.031 C 
ATOM     68  C   UNL A   1      44.006  31.001  30.630  1.00  0.00     0.037 A 
BRANCH  55  69
ATOM     69  C   UNL A   1      42.619  29.492  35.603  1.00  0.00     0.057 A 
ATOM     70  C   UNL A   1      42.455  28.127  35.297  1.00  0.00     0.134 A 
ATOM     71  C   UNL A   1      43.484  29.767  36.680  1.00  0.00     0.134 A 
ATOM     72  F   UNL A   1      41.735  27.720  34.243  1.00  0.00    -0.206 F 
ATOM     73  C   UNL A   1      43.110  27.112  36.000  1.00  0.00     0.040 A 
ATOM     74  C   UNL A   1      44.183  28.761  37.358  1.00  0.00     0.040 A 
ATOM     75  F   UNL A   1      43.738  31.031  37.053  1.00  0.00    -0.206 F 
ATOM     76  C   UNL A   1      44.001  27.429  37.015  1.00  0.00     0.006 A 
ENDBRANCH  55  69
BRANCH  56  77
ATOM     77  C   UNL A   1      40.612  27.143  27.721  1.00  0.00     0.057 A 
ATOM     78  C   UNL A   1      39.835  26.074  28.204  1.00  0.00     0.134 A 
ATOM     79  C   UNL A   1      41.266  26.924  26.503  1.00  0.00     0.134 A 
ATOM     80  F   UNL A   1      39.248  26.129  29.408  1.00  0.00    -0.206 F 
ATOM     81  C   UNL A   1      39.696  24.870  27.508  1.00  0.00     0.040 A 
ATOM     82  C   UNL A   1      41.150  25.717  25.802  1.00  0.00     0.040 A 
ATOM     83  F   UNL A   1      42.077  27.859  25.986  1.00  0.00    -0.206 F 
ATOM     84  C   UNL A   1      40.362  24.685  26.305  1.00  0.00     0.006 A 
ENDBRANCH  56  77
BRANCH  68  85
ATOM     85  C   UNL A   1      44.184  31.969  29.498  1.00  0.00     0.057 A 
ATOM     86  C   UNL A   1      45.442  32.098  28.899  1.00  0.00     0.134 A 
ATOM     87  C   UNL A   1      43.190  32.872  29.093  1.00  0.00     0.134 A 
ATOM     88  F   UNL A   1      46.461  31.315  29.287  1.00  0.00    -0.206 F 
ATOM     89  C   UNL A   1      45.695  33.065  27.922  1.00  0.00     0.040 A 
ATOM     90  C   UNL A   1      43.420  33.820  28.094  1.00  0.00     0.040 A 
ATOM     91  F   UNL A   1      41.993  32.899  29.694  1.00  0.00    -0.206 F 
ATOM     92  C   UNL A   1      44.678  33.920  27.507  1.00  0.00     0.006 A 
ENDBRANCH  68  85
ENDBRANCH  42  43
ENDBRANCH  34  37
ENDBRANCH  32  33
ENDBRANCH  31  32
ENDBRANCH  30  31
ENDBRANCH   1  30
TORSDOF 18
ENDMDL
MODEL 3
REMARK VINA RESULT:     -11.1      3.155      8.327
REMARK SMILES COc1cc2cc(C(=O)NCCCCCCNC(=O)c3ccc(-c4c5nc(c(-c6c(F)cccc6F)c6ccc([nH]6)c(-c6c(F)cccc6F)c6nc(c(-c7c(F)cccc7F)c7ccc4[nH]7)C=C6)C=C5)cc3)n(Cc3ccccc3)c2c(OC)c1OC
REMARK SMILES IDX 13 1 12 2 11 3 10 4 8 5 9 6 7 8 3 9 4 10 86 11 5 12 83 13
REMARK SMILES IDX 6 14 82 15 74 16 2 17 1 18 87 19 88 20 84 21 85 22 75 23
REMARK SMILES IDX 76 24 77 25 81 26 78 27 80 28 79 29 14 30 15 31 16 32 17 33
REMARK SMILES IDX 18 34 19 36 20 37 21 38 73 39 22 40 72 41 23 42 24 43 25 44
REMARK SMILES IDX 66 45 26 46 71 47 65 48 67 49 27 50 70 51 64 52 63 53 28 55
REMARK SMILES IDX 54 56 37 57 53 58 38 59 41 60 52 61 68 62 39 63 40 64 51 66
REMARK SMILES IDX 69 67 42 68 29 69 30 70 35 71 31 72 32 73 34 74 36 75 33 76
REMARK SMILES IDX 55 77 56 78 61 79 57 80 58 81 60 82 62 83 59 84 43 85 44 86
REMARK SMILES IDX 49 87 45 88 46 89 48 90 50 91 47 92
REMARK H PARENT 10 7 17 35 67 54 41 65
REMARK Flexibility Score: inf
ROOT
ATOM      1  C   UNL A   1      34.025  28.382  25.645  1.00  0.00     0.002 C 
ENDROOT
BRANCH   1   2
ATOM      2  C   UNL A   1      33.045  27.207  25.684  1.00  0.00     0.021 C 
BRANCH   2   3
ATOM      3  C   UNL A   1      32.100  27.095  24.488  1.00  0.00     0.116 C 
BRANCH   3   4
ATOM      4  N   UNL A   1      32.866  26.840  23.290  1.00  0.00    -0.351 N 
ATOM      5  C   UNL A   1      33.402  25.732  22.706  1.00  0.00     0.267 C 
ATOM      6  O   UNL A   1      34.028  25.984  21.663  1.00  0.00    -0.268 OA
ATOM      7  H   UNL A   1      33.042  27.660  22.774  1.00  0.00     0.163 HD
BRANCH   5   8
ATOM      8  C   UNL A   1      33.241  24.351  23.143  1.00  0.00     0.108 A 
ATOM      9  C   UNL A   1      32.141  19.840  23.450  1.00  0.00     0.165 A 
ATOM     10  C   UNL A   1      32.290  20.847  22.492  1.00  0.00     0.061 A 
ATOM     11  C   UNL A   1      32.379  20.084  24.813  1.00  0.00     0.205 A 
ATOM     12  C   UNL A   1      32.685  22.127  22.907  1.00  0.00     0.008 A 
ATOM     13  C   UNL A   1      32.762  21.374  25.250  1.00  0.00     0.189 A 
ATOM     14  C   UNL A   1      32.823  23.364  22.246  1.00  0.00     0.042 A 
ATOM     15  C   UNL A   1      32.982  22.359  24.244  1.00  0.00     0.096 A 
ATOM     16  N   UNL A   1      33.577  23.636  24.290  1.00  0.00    -0.329 N 
BRANCH   9  17
ATOM     17  O   UNL A   1      31.781  18.599  22.984  1.00  0.00    -0.493 OA
ATOM     18  C   UNL A   1      32.789  18.078  22.118  1.00  0.00     0.278 C 
ENDBRANCH   9  17
BRANCH  11  19
ATOM     19  O   UNL A   1      32.155  19.102  25.751  1.00  0.00    -0.490 OA
ATOM     20  C   UNL A   1      33.114  18.044  25.740  1.00  0.00     0.278 C 
ENDBRANCH  11  19
BRANCH  13  21
ATOM     21  O   UNL A   1      32.901  21.799  26.544  1.00  0.00    -0.491 OA
ATOM     22  C   UNL A   1      33.952  21.285  27.343  1.00  0.00     0.278 C 
ENDBRANCH  13  21
BRANCH  16  23
ATOM     23  C   UNL A   1      34.483  23.988  25.386  1.00  0.00     0.158 C 
BRANCH  23  24
ATOM     24  C   UNL A   1      35.909  23.480  25.390  1.00  0.00    -0.028 A 
ATOM     25  C   UNL A   1      36.976  24.016  26.117  1.00  0.00     0.005 A 
ATOM     26  C   UNL A   1      36.154  22.325  24.613  1.00  0.00     0.005 A 
ATOM     27  C   UNL A   1      38.217  23.369  26.140  1.00  0.00     0.000 A 
ATOM     28  C   UNL A   1      37.399  21.697  24.613  1.00  0.00     0.000 A 
ATOM     29  C   UNL A   1      38.425  22.209  25.397  1.00  0.00     0.000 A 
ENDBRANCH  23  24
ENDBRANCH  16  23
ENDBRANCH   5   8
ENDBRANCH   3   4
ENDBRANCH   2   3
ENDBRANCH   1   2
BRANCH   1  30
ATOM     30  C   UNL A   1      33.557  29.635  26.380  1.00  0.00     0.002 C 
BRANCH  30  31
ATOM     31  C   UNL A   1      34.404  30.048  27.587  1.00  0.00     0.021 C 
BRANCH  31  32
ATOM     32  C   UNL A   1      34.536  31.557  27.821  1.00  0.00     0.116 C 
BRANCH  32  33
ATOM     33  N   UNL A   1      34.637  31.966  29.209  1.00  0.00    -0.352 N 
ATOM     34  C   UNL A   1      35.556  31.757  30.200  1.00  0.00     0.251 C 
ATOM     35  H   UNL A   1      33.874  32.514  29.503  1.00  0.00     0.163 HD
ATOM     36  O   UNL A   1      35.375  32.354  31.266  1.00  0.00    -0.269 OA
BRANCH  34  37
ATOM     37  C   UNL A   1      36.702  30.816  30.097  1.00  0.00     0.039 A 
ATOM     38  C   UNL A   1      36.639  29.450  30.367  1.00  0.00     0.014 A 
ATOM     39  C   UNL A   1      37.937  31.367  29.718  1.00  0.00     0.014 A 
ATOM     40  C   UNL A   1      37.799  28.684  30.411  1.00  0.00     0.010 A 
ATOM     41  C   UNL A   1      39.094  30.589  29.698  1.00  0.00     0.010 A 
ATOM     42  C   UNL A   1      39.035  29.257  30.105  1.00  0.00    -0.014 A 
BRANCH  42  43
ATOM     43  C   UNL A   1      40.214  28.393  30.183  1.00  0.00     0.031 A 
ATOM     44  C   UNL A   1      40.884  28.276  31.515  1.00  0.00     0.074 A 
ATOM     45  C   UNL A   1      40.663  27.637  29.162  1.00  0.00     0.049 A 
ATOM     46  N   UNL A   1      42.119  28.527  31.817  1.00  0.00    -0.248 NA
ATOM     47  C   UNL A   1      40.061  27.857  32.657  1.00  0.00     0.031 C 
ATOM     48  C   UNL A   1      40.026  27.388  27.868  1.00  0.00     0.029 A 
ATOM     49  N   UNL A   1      41.769  26.838  29.128  1.00  0.00    -0.354 N 
ATOM     50  C   UNL A   1      42.276  28.159  33.153  1.00  0.00     0.074 A 
ATOM     51  C   UNL A   1      40.960  27.829  33.642  1.00  0.00     0.031 C 
ATOM     52  C   UNL A   1      40.633  26.335  27.277  1.00  0.00     0.029 A 
ATOM     53  C   UNL A   1      41.767  25.926  28.087  1.00  0.00     0.049 A 
ATOM     54  H   UNL A   1      42.500  26.904  29.783  1.00  0.00     0.167 HD
ATOM     55  C   UNL A   1      43.499  28.007  33.736  1.00  0.00     0.037 A 
ATOM     56  C   UNL A   1      42.595  24.866  27.932  1.00  0.00     0.037 A 
ATOM     57  C   UNL A   1      44.547  28.650  32.993  1.00  0.00     0.049 A 
ATOM     58  C   UNL A   1      43.808  25.097  28.752  1.00  0.00     0.074 A 
ATOM     59  C   UNL A   1      44.809  29.946  32.591  1.00  0.00     0.029 A 
ATOM     60  N   UNL A   1      45.441  27.871  32.304  1.00  0.00    -0.354 N 
ATOM     61  N   UNL A   1      44.734  25.969  28.467  1.00  0.00    -0.248 NA
ATOM     62  C   UNL A   1      43.818  24.605  30.122  1.00  0.00     0.031 C 
ATOM     63  C   UNL A   1      45.479  29.818  31.339  1.00  0.00     0.029 A 
ATOM     64  C   UNL A   1      45.582  28.454  31.073  1.00  0.00     0.049 A 
ATOM     65  H   UNL A   1      45.890  27.057  32.629  1.00  0.00     0.167 HD
ATOM     66  C   UNL A   1      45.165  26.442  29.696  1.00  0.00     0.074 A 
ATOM     67  C   UNL A   1      44.656  25.485  30.673  1.00  0.00     0.031 C 
ATOM     68  C   UNL A   1      45.651  27.711  29.840  1.00  0.00     0.037 A 
BRANCH  55  69
ATOM     69  C   UNL A   1      43.802  27.034  34.845  1.00  0.00     0.057 A 
ATOM     70  C   UNL A   1      43.973  27.421  36.189  1.00  0.00     0.134 A 
ATOM     71  C   UNL A   1      43.627  25.653  34.635  1.00  0.00     0.134 A 
ATOM     72  F   UNL A   1      44.060  28.709  36.549  1.00  0.00    -0.206 F 
ATOM     73  C   UNL A   1      43.960  26.506  37.246  1.00  0.00     0.040 A 
ATOM     74  C   UNL A   1      43.562  24.735  35.691  1.00  0.00     0.040 A 
ATOM     75  F   UNL A   1      43.431  25.164  33.401  1.00  0.00    -0.206 F 
ATOM     76  C   UNL A   1      43.724  25.162  37.002  1.00  0.00     0.006 A 
ENDBRANCH  55  69
BRANCH  56  77
ATOM     77  C   UNL A   1      42.312  23.581  27.260  1.00  0.00     0.057 A 
ATOM     78  C   UNL A   1      41.802  22.477  27.968  1.00  0.00     0.134 A 
ATOM     79  C   UNL A   1      42.736  23.327  25.950  1.00  0.00     0.134 A 
ATOM     80  F   UNL A   1      41.462  22.576  29.261  1.00  0.00    -0.206 F 
ATOM     81  C   UNL A   1      41.698  21.203  27.402  1.00  0.00     0.040 A 
ATOM     82  C   UNL A   1      42.654  22.052  25.376  1.00  0.00     0.040 A 
ATOM     83  F   UNL A   1      43.291  24.300  25.212  1.00  0.00    -0.206 F 
ATOM     84  C   UNL A   1      42.133  20.985  26.103  1.00  0.00     0.006 A 
ENDBRANCH  56  77
BRANCH  68  85
ATOM     85  C   UNL A   1      45.965  28.488  28.595  1.00  0.00     0.057 A 
ATOM     86  C   UNL A   1      44.944  29.199  27.957  1.00  0.00     0.134 A 
ATOM     87  C   UNL A   1      47.205  28.426  27.941  1.00  0.00     0.134 A 
ATOM     88  F   UNL A   1      43.712  29.242  28.489  1.00  0.00    -0.206 F 
ATOM     89  C   UNL A   1      45.150  29.843  26.734  1.00  0.00     0.040 A 
ATOM     90  C   UNL A   1      47.434  29.093  26.736  1.00  0.00     0.040 A 
ATOM     91  F   UNL A   1      48.203  27.672  28.419  1.00  0.00    -0.206 F 
ATOM     92  C   UNL A   1      46.403  29.803  26.127  1.00  0.00     0.006 A 
ENDBRANCH  68  85
ENDBRANCH  42  43
ENDBRANCH  34  37
ENDBRANCH  32  33
ENDBRANCH  31  32
ENDBRANCH  30  31
ENDBRANCH   1  30
TORSDOF 18
ENDMDL
