MODEL 1
REMARK VINA RESULT:      -8.3      0.000      0.000
REMARK SMILES C[NH+](C)[C@@H]1CC[N@@H+](Cc2ccc(C(=O)NCCCCCCNC(=O)c3ccc(-c4c5nc(c(-c6c(F)cccc6F)c6ccc([nH]6)c(-c6c(F)cccc6F)c6nc(c(-c7c(F)cccc7F)c7ccc4[nH]7)C=C6)C=C5)cc3)cn2)C1
REMARK SMILES IDX 18 1 17 2 16 3 15 4 13 5 14 6 12 8 9 9 10 10 80 11 11 12
REMARK SMILES IDX 79 13 8 14 7 15 4 16 5 17 81 18 6 19 2 21 1 22 3 23 19 25
REMARK SMILES IDX 20 26 21 27 22 28 23 29 24 31 25 32 26 33 78 34 27 35 77 36
REMARK SMILES IDX 28 37 29 38 30 39 71 40 31 41 76 42 70 43 72 44 32 45 75 46
REMARK SMILES IDX 69 47 68 48 33 50 59 51 42 52 58 53 43 54 46 55 57 56 73 57
REMARK SMILES IDX 44 58 45 59 56 61 74 62 47 63 34 64 35 65 40 66 36 67 37 68
REMARK SMILES IDX 39 69 41 70 38 71 60 72 61 73 66 74 62 75 63 76 65 77 67 78
REMARK SMILES IDX 64 79 48 80 49 81 54 82 50 83 51 84 53 85 55 86 52 87
REMARK H PARENT 15 7 7 20 2 24 22 30 72 49 46 60
REMARK Flexibility Score: inf
ROOT
ATOM      1  C   UNL A   1      37.903  33.214  30.501  1.00  0.00     0.002 C 
ENDROOT
BRANCH   1   2
ATOM      2  C   UNL A   1      38.291  34.514  31.218  1.00  0.00     0.021 C 
BRANCH   2   3
ATOM      3  C   UNL A   1      38.902  34.289  32.603  1.00  0.00     0.116 C 
BRANCH   3   4
ATOM      4  N   UNL A   1      37.869  33.925  33.553  1.00  0.00    -0.352 N 
ATOM      5  C   UNL A   1      37.582  32.740  34.177  1.00  0.00     0.252 C 
ATOM      6  O   UNL A   1      36.650  32.712  34.979  1.00  0.00    -0.269 OA
ATOM      7  H   UNL A   1      37.264  34.663  33.792  1.00  0.00     0.163 HD
BRANCH   5   8
ATOM      8  C   UNL A   1      38.390  31.519  33.975  1.00  0.00     0.058 A 
ATOM      9  C   UNL A   1      40.156  29.425  33.611  1.00  0.00     0.095 A 
ATOM     10  C   UNL A   1      38.862  29.319  33.110  1.00  0.00     0.030 A 
ATOM     11  N   UNL A   1      40.559  30.499  34.336  1.00  0.00    -0.255 NA
ATOM     12  C   UNL A   1      37.967  30.372  33.308  1.00  0.00     0.017 A 
ATOM     13  C   UNL A   1      39.671  31.509  34.510  1.00  0.00     0.125 A 
BRANCH   9  14
ATOM     14  C   UNL A   1      41.192  28.353  33.323  1.00  0.00     0.319 C 
BRANCH  14  15
ATOM     15  N   UNL A   1      42.120  27.991  34.406  1.00  0.00    -0.325 N 
ATOM     16  C   UNL A   1      43.269  25.834  34.421  1.00  0.00     0.245 C 
ATOM     17  C   UNL A   1      44.103  26.878  33.671  1.00  0.00     0.132 C 
ATOM     18  C   UNL A   1      42.020  26.616  34.905  1.00  0.00     0.328 C 
ATOM     19  C   UNL A   1      43.534  28.220  34.094  1.00  0.00     0.269 C 
ATOM     20  H   UNL A   1      41.804  28.633  35.133  1.00  0.00     0.348 HD
BRANCH  16  21
ATOM     21  N   UNL A   1      44.134  25.134  35.393  1.00  0.00    -0.333 N 
ATOM     22  C   UNL A   1      45.551  25.076  35.060  1.00  0.00     0.332 C 
ATOM     23  C   UNL A   1      43.937  25.605  36.760  1.00  0.00     0.332 C 
ATOM     24  H   UNL A   1      43.811  24.168  35.331  1.00  0.00     0.348 HD
ENDBRANCH  16  21
ENDBRANCH  14  15
ENDBRANCH   9  14
ENDBRANCH   5   8
ENDBRANCH   3   4
ENDBRANCH   2   3
ENDBRANCH   1   2
BRANCH   1  25
ATOM     25  C   UNL A   1      37.484  33.384  29.036  1.00  0.00     0.002 C 
BRANCH  25  26
ATOM     26  C   UNL A   1      35.979  33.542  28.813  1.00  0.00     0.021 C 
BRANCH  26  27
ATOM     27  C   UNL A   1      35.127  32.584  29.635  1.00  0.00     0.116 C 
BRANCH  27  28
ATOM     28  N   UNL A   1      34.308  31.726  28.791  1.00  0.00    -0.352 N 
ATOM     29  C   UNL A   1      34.684  30.615  28.073  1.00  0.00     0.251 C 
ATOM     30  H   UNL A   1      33.358  31.976  28.725  1.00  0.00     0.163 HD
ATOM     31  O   UNL A   1      33.939  30.119  27.242  1.00  0.00    -0.269 OA
BRANCH  29  32
ATOM     32  C   UNL A   1      36.020  30.034  28.318  1.00  0.00     0.039 A 
ATOM     33  C   UNL A   1      37.014  30.163  27.344  1.00  0.00     0.014 A 
ATOM     34  C   UNL A   1      36.285  29.391  29.528  1.00  0.00     0.014 A 
ATOM     35  C   UNL A   1      38.303  29.698  27.613  1.00  0.00     0.010 A 
ATOM     36  C   UNL A   1      37.583  28.996  29.821  1.00  0.00     0.010 A 
ATOM     37  C   UNL A   1      38.602  29.141  28.866  1.00  0.00    -0.014 A 
BRANCH  37  38
ATOM     38  C   UNL A   1      39.966  28.674  29.218  1.00  0.00     0.031 A 
ATOM     39  C   UNL A   1      40.919  29.626  29.880  1.00  0.00     0.074 A 
ATOM     40  C   UNL A   1      40.382  27.455  28.831  1.00  0.00     0.049 A 
ATOM     41  N   UNL A   1      42.203  29.502  30.091  1.00  0.00    -0.248 NA
ATOM     42  C   UNL A   1      40.354  30.910  30.325  1.00  0.00     0.031 C 
ATOM     43  C   UNL A   1      39.560  26.455  28.149  1.00  0.00     0.029 A 
ATOM     44  N   UNL A   1      41.617  26.865  28.925  1.00  0.00    -0.354 N 
ATOM     45  C   UNL A   1      42.606  30.703  30.661  1.00  0.00     0.074 A 
ATOM     46  C   UNL A   1      41.441  31.558  30.716  1.00  0.00     0.031 C 
ATOM     47  C   UNL A   1      40.314  25.378  27.881  1.00  0.00     0.029 A 
ATOM     48  C   UNL A   1      41.680  25.629  28.328  1.00  0.00     0.049 A 
ATOM     49  H   UNL A   1      42.384  27.286  29.377  1.00  0.00     0.167 HD
ATOM     50  C   UNL A   1      43.834  31.054  31.110  1.00  0.00     0.037 A 
ATOM     51  C   UNL A   1      42.728  24.805  28.138  1.00  0.00     0.037 A 
ATOM     52  C   UNL A   1      44.981  30.186  31.073  1.00  0.00     0.049 A 
ATOM     53  C   UNL A   1      44.085  25.209  28.642  1.00  0.00     0.074 A 
ATOM     54  C   UNL A   1      46.253  30.417  31.562  1.00  0.00     0.029 A 
ATOM     55  N   UNL A   1      44.992  28.920  30.506  1.00  0.00    -0.354 N 
ATOM     56  N   UNL A   1      44.446  26.324  29.232  1.00  0.00    -0.248 NA
ATOM     57  C   UNL A   1      45.180  24.245  28.460  1.00  0.00     0.031 C 
ATOM     58  C   UNL A   1      47.049  29.311  31.247  1.00  0.00     0.029 A 
ATOM     59  C   UNL A   1      46.257  28.367  30.611  1.00  0.00     0.049 A 
ATOM     60  H   UNL A   1      44.216  28.480  30.090  1.00  0.00     0.167 HD
ATOM     61  C   UNL A   1      45.798  26.184  29.520  1.00  0.00     0.074 A 
ATOM     62  C   UNL A   1      46.194  24.876  29.038  1.00  0.00     0.031 C 
ATOM     63  C   UNL A   1      46.631  27.058  30.137  1.00  0.00     0.037 A 
BRANCH  50  64
ATOM     64  C   UNL A   1      43.992  32.444  31.659  1.00  0.00     0.057 A 
ATOM     65  C   UNL A   1      44.313  33.536  30.841  1.00  0.00     0.134 A 
ATOM     66  C   UNL A   1      43.830  32.691  33.028  1.00  0.00     0.134 A 
ATOM     67  F   UNL A   1      44.492  33.368  29.522  1.00  0.00    -0.206 F 
ATOM     68  C   UNL A   1      44.514  34.812  31.370  1.00  0.00     0.040 A 
ATOM     69  C   UNL A   1      43.996  33.970  33.565  1.00  0.00     0.040 A 
ATOM     70  F   UNL A   1      43.515  31.695  33.869  1.00  0.00    -0.206 F 
ATOM     71  C   UNL A   1      44.352  35.031  32.737  1.00  0.00     0.006 A 
ENDBRANCH  50  64
BRANCH  51  72
ATOM     72  C   UNL A   1      42.519  23.509  27.444  1.00  0.00     0.057 A 
ATOM     73  C   UNL A   1      42.162  22.359  28.156  1.00  0.00     0.134 A 
ATOM     74  C   UNL A   1      42.625  23.400  26.051  1.00  0.00     0.134 A 
ATOM     75  F   UNL A   1      42.059  22.399  29.493  1.00  0.00    -0.206 F 
ATOM     76  C   UNL A   1      41.924  21.145  27.511  1.00  0.00     0.040 A 
ATOM     77  C   UNL A   1      42.368  22.198  25.391  1.00  0.00     0.040 A 
ATOM     78  F   UNL A   1      42.953  24.469  25.311  1.00  0.00    -0.206 F 
ATOM     79  C   UNL A   1      42.018  21.065  26.122  1.00  0.00     0.006 A 
ENDBRANCH  51  72
BRANCH  63  80
ATOM     80  C   UNL A   1      48.047  26.621  30.375  1.00  0.00     0.057 A 
ATOM     81  C   UNL A   1      49.080  26.938  29.485  1.00  0.00     0.134 A 
ATOM     82  C   UNL A   1      48.390  25.952  31.557  1.00  0.00     0.134 A 
ATOM     83  F   UNL A   1      48.815  27.568  28.330  1.00  0.00    -0.206 F 
ATOM     84  C   UNL A   1      50.406  26.601  29.762  1.00  0.00     0.040 A 
ATOM     85  C   UNL A   1      49.714  25.632  31.855  1.00  0.00     0.040 A 
ATOM     86  F   UNL A   1      47.447  25.627  32.453  1.00  0.00    -0.206 F 
ATOM     87  C   UNL A   1      50.727  25.957  30.956  1.00  0.00     0.006 A 
ENDBRANCH  63  80
ENDBRANCH  37  38
ENDBRANCH  29  32
ENDBRANCH  27  28
ENDBRANCH  26  27
ENDBRANCH  25  26
ENDBRANCH   1  25
TORSDOF 16
ENDMDL
MODEL 2
REMARK VINA RESULT:      -8.3      3.272      9.411
REMARK SMILES C[NH+](C)[C@@H]1CC[N@@H+](Cc2ccc(C(=O)NCCCCCCNC(=O)c3ccc(-c4c5nc(c(-c6c(F)cccc6F)c6ccc([nH]6)c(-c6c(F)cccc6F)c6nc(c(-c7c(F)cccc7F)c7ccc4[nH]7)C=C6)C=C5)cc3)cn2)C1
REMARK SMILES IDX 18 1 17 2 16 3 15 4 13 5 14 6 12 8 9 9 10 10 80 11 11 12
REMARK SMILES IDX 79 13 8 14 7 15 4 16 5 17 81 18 6 19 2 21 1 22 3 23 19 25
REMARK SMILES IDX 20 26 21 27 22 28 23 29 24 31 25 32 26 33 78 34 27 35 77 36
REMARK SMILES IDX 28 37 29 38 30 39 71 40 31 41 76 42 70 43 72 44 32 45 75 46
REMARK SMILES IDX 69 47 68 48 33 50 59 51 42 52 58 53 43 54 46 55 57 56 73 57
REMARK SMILES IDX 44 58 45 59 56 61 74 62 47 63 34 64 35 65 40 66 36 67 37 68
REMARK SMILES IDX 39 69 41 70 38 71 60 72 61 73 66 74 62 75 63 76 65 77 67 78
REMARK SMILES IDX 64 79 48 80 49 81 54 82 50 83 51 84 53 85 55 86 52 87
REMARK H PARENT 15 7 7 20 2 24 22 30 72 49 46 60
REMARK Flexibility Score: inf
ROOT
ATOM      1  C   UNL A   1      42.742  23.609  27.992  1.00  0.00     0.002 C 
ENDROOT
BRANCH   1   2
ATOM      2  C   UNL A   1      44.002  23.828  27.144  1.00  0.00     0.021 C 
BRANCH   2   3
ATOM      3  C   UNL A   1      43.712  24.408  25.758  1.00  0.00     0.116 C 
BRANCH   3   4
ATOM      4  N   UNL A   1      44.948  24.804  25.113  1.00  0.00    -0.352 N 
ATOM      5  C   UNL A   1      45.643  25.985  25.121  1.00  0.00     0.252 C 
ATOM      6  O   UNL A   1      46.704  26.043  24.500  1.00  0.00    -0.269 OA
ATOM      7  H   UNL A   1      45.364  24.097  24.570  1.00  0.00     0.163 HD
BRANCH   5   8
ATOM      8  C   UNL A   1      45.202  27.162  25.899  1.00  0.00     0.058 A 
ATOM      9  C   UNL A   1      44.216  29.451  27.092  1.00  0.00     0.095 A 
ATOM     10  C   UNL A   1      45.412  28.905  27.550  1.00  0.00     0.030 A 
ATOM     11  N   UNL A   1      43.480  28.854  26.121  1.00  0.00    -0.255 NA
ATOM     12  C   UNL A   1      45.900  27.740  26.956  1.00  0.00     0.017 A 
ATOM     13  C   UNL A   1      43.980  27.726  25.558  1.00  0.00     0.125 A 
BRANCH   9  14
ATOM     14  C   UNL A   1      43.708  30.774  27.634  1.00  0.00     0.319 C 
BRANCH  14  15
ATOM     15  N   UNL A   1      44.639  31.914  27.640  1.00  0.00    -0.325 N 
ATOM     16  C   UNL A   1      43.857  34.187  28.082  1.00  0.00     0.245 C 
ATOM     17  C   UNL A   1      44.250  33.493  29.391  1.00  0.00     0.132 C 
ATOM     18  C   UNL A   1      44.164  33.135  26.983  1.00  0.00     0.328 C 
ATOM     19  C   UNL A   1      45.104  32.310  28.973  1.00  0.00     0.269 C 
ATOM     20  H   UNL A   1      45.406  31.519  27.095  1.00  0.00     0.348 HD
BRANCH  16  21
ATOM     21  N   UNL A   1      44.489  35.521  28.035  1.00  0.00    -0.333 N 
ATOM     22  C   UNL A   1      45.231  35.918  29.225  1.00  0.00     0.332 C 
ATOM     23  C   UNL A   1      45.288  35.720  26.830  1.00  0.00     0.332 C 
ATOM     24  H   UNL A   1      43.688  36.152  28.003  1.00  0.00     0.348 HD
ENDBRANCH  16  21
ENDBRANCH  14  15
ENDBRANCH   9  14
ENDBRANCH   5   8
ENDBRANCH   3   4
ENDBRANCH   2   3
ENDBRANCH   1   2
BRANCH   1  25
ATOM     25  C   UNL A   1      42.441  22.145  28.337  1.00  0.00     0.002 C 
BRANCH  25  26
ATOM     26  C   UNL A   1      41.213  21.560  27.635  1.00  0.00     0.021 C 
BRANCH  26  27
ATOM     27  C   UNL A   1      41.093  21.951  26.168  1.00  0.00     0.116 C 
BRANCH  27  28
ATOM     28  N   UNL A   1      39.704  22.109  25.761  1.00  0.00    -0.352 N 
ATOM     29  C   UNL A   1      38.813  23.095  26.111  1.00  0.00     0.251 C 
ATOM     30  H   UNL A   1      39.357  21.415  25.154  1.00  0.00     0.163 HD
ATOM     31  O   UNL A   1      37.622  22.985  25.866  1.00  0.00    -0.269 OA
BRANCH  29  32
ATOM     32  C   UNL A   1      39.323  24.294  26.807  1.00  0.00     0.039 A 
ATOM     33  C   UNL A   1      40.063  25.240  26.094  1.00  0.00     0.014 A 
ATOM     34  C   UNL A   1      39.036  24.486  28.160  1.00  0.00     0.014 A 
ATOM     35  C   UNL A   1      40.465  26.418  26.727  1.00  0.00     0.010 A 
ATOM     36  C   UNL A   1      39.372  25.688  28.766  1.00  0.00     0.010 A 
ATOM     37  C   UNL A   1      40.093  26.663  28.057  1.00  0.00    -0.014 A 
BRANCH  37  38
ATOM     38  C   UNL A   1      40.454  27.918  28.761  1.00  0.00     0.031 A 
ATOM     39  C   UNL A   1      41.771  28.006  29.476  1.00  0.00     0.074 A 
ATOM     40  C   UNL A   1      39.556  28.915  28.867  1.00  0.00     0.049 A 
ATOM     41  N   UNL A   1      42.202  28.912  30.313  1.00  0.00    -0.248 NA
ATOM     42  C   UNL A   1      42.711  26.897  29.248  1.00  0.00     0.031 C 
ATOM     43  C   UNL A   1      38.231  28.930  28.247  1.00  0.00     0.029 A 
ATOM     44  N   UNL A   1      39.613  30.094  29.567  1.00  0.00    -0.354 N 
ATOM     45  C   UNL A   1      43.447  28.466  30.738  1.00  0.00     0.074 A 
ATOM     46  C   UNL A   1      43.678  27.187  30.104  1.00  0.00     0.031 C 
ATOM     47  C   UNL A   1      37.597  30.060  28.600  1.00  0.00     0.029 A 
ATOM     48  C   UNL A   1      38.451  30.823  29.505  1.00  0.00     0.049 A 
ATOM     49  H   UNL A   1      40.410  30.388  30.065  1.00  0.00     0.167 HD
ATOM     50  C   UNL A   1      44.324  29.077  31.569  1.00  0.00     0.037 A 
ATOM     51  C   UNL A   1      38.103  31.964  30.130  1.00  0.00     0.037 A 
ATOM     52  C   UNL A   1      44.094  30.361  32.175  1.00  0.00     0.049 A 
ATOM     53  C   UNL A   1      39.087  32.630  31.051  1.00  0.00     0.074 A 
ATOM     54  C   UNL A   1      44.944  31.101  32.977  1.00  0.00     0.029 A 
ATOM     55  N   UNL A   1      42.924  31.095  32.046  1.00  0.00    -0.354 N 
ATOM     56  N   UNL A   1      40.286  32.230  31.402  1.00  0.00    -0.248 NA
ATOM     57  C   UNL A   1      38.677  33.903  31.660  1.00  0.00     0.031 C 
ATOM     58  C   UNL A   1      44.269  32.259  33.376  1.00  0.00     0.029 A 
ATOM     59  C   UNL A   1      43.019  32.267  32.776  1.00  0.00     0.049 A 
ATOM     60  H   UNL A   1      42.141  30.822  31.515  1.00  0.00     0.167 HD
ATOM     61  C   UNL A   1      40.786  33.216  32.245  1.00  0.00     0.074 A 
ATOM     62  C   UNL A   1      39.759  34.231  32.354  1.00  0.00     0.031 C 
ATOM     63  C   UNL A   1      41.991  33.275  32.863  1.00  0.00     0.037 A 
BRANCH  50  64
ATOM     64  C   UNL A   1      45.598  28.344  31.880  1.00  0.00     0.057 A 
ATOM     65  C   UNL A   1      46.798  28.616  31.206  1.00  0.00     0.134 A 
ATOM     66  C   UNL A   1      45.624  27.346  32.862  1.00  0.00     0.134 A 
ATOM     67  F   UNL A   1      46.841  29.553  30.247  1.00  0.00    -0.206 F 
ATOM     68  C   UNL A   1      47.961  27.889  31.463  1.00  0.00     0.040 A 
ATOM     69  C   UNL A   1      46.791  26.635  33.151  1.00  0.00     0.040 A 
ATOM     70  F   UNL A   1      44.516  27.038  33.553  1.00  0.00    -0.206 F 
ATOM     71  C   UNL A   1      47.960  26.897  32.441  1.00  0.00     0.006 A 
ENDBRANCH  50  64
BRANCH  51  72
ATOM     72  C   UNL A   1      36.760  32.547  29.889  1.00  0.00     0.057 A 
ATOM     73  C   UNL A   1      35.669  32.204  30.695  1.00  0.00     0.134 A 
ATOM     74  C   UNL A   1      36.544  33.492  28.878  1.00  0.00     0.134 A 
ATOM     75  F   UNL A   1      35.811  31.294  31.670  1.00  0.00    -0.206 F 
ATOM     76  C   UNL A   1      34.410  32.776  30.503  1.00  0.00     0.040 A 
ATOM     77  C   UNL A   1      35.296  34.088  28.688  1.00  0.00     0.040 A 
ATOM     78  F   UNL A   1      37.552  33.871  28.078  1.00  0.00    -0.206 F 
ATOM     79  C   UNL A   1      34.224  33.728  29.502  1.00  0.00     0.006 A 
ENDBRANCH  51  72
BRANCH  63  80
ATOM     80  C   UNL A   1      42.296  34.496  33.680  1.00  0.00     0.057 A 
ATOM     81  C   UNL A   1      42.814  35.663  33.105  1.00  0.00     0.134 A 
ATOM     82  C   UNL A   1      41.980  34.529  35.045  1.00  0.00     0.134 A 
ATOM     83  F   UNL A   1      43.147  35.692  31.806  1.00  0.00    -0.206 F 
ATOM     84  C   UNL A   1      43.010  36.820  33.862  1.00  0.00     0.040 A 
ATOM     85  C   UNL A   1      42.149  35.686  35.804  1.00  0.00     0.040 A 
ATOM     86  F   UNL A   1      41.474  33.446  35.652  1.00  0.00    -0.206 F 
ATOM     87  C   UNL A   1      42.666  36.836  35.213  1.00  0.00     0.006 A 
ENDBRANCH  63  80
ENDBRANCH  37  38
ENDBRANCH  29  32
ENDBRANCH  27  28
ENDBRANCH  26  27
ENDBRANCH  25  26
ENDBRANCH   1  25
TORSDOF 16
ENDMDL
MODEL 3
REMARK VINA RESULT:      -8.2      4.903     11.308
REMARK SMILES C[NH+](C)[C@@H]1CC[N@@H+](Cc2ccc(C(=O)NCCCCCCNC(=O)c3ccc(-c4c5nc(c(-c6c(F)cccc6F)c6ccc([nH]6)c(-c6c(F)cccc6F)c6nc(c(-c7c(F)cccc7F)c7ccc4[nH]7)C=C6)C=C5)cc3)cn2)C1
REMARK SMILES IDX 18 1 17 2 16 3 15 4 13 5 14 6 12 8 9 9 10 10 80 11 11 12
REMARK SMILES IDX 79 13 8 14 7 15 4 16 5 17 81 18 6 19 2 21 1 22 3 23 19 25
REMARK SMILES IDX 20 26 21 27 22 28 23 29 24 31 25 32 26 33 78 34 27 35 77 36
REMARK SMILES IDX 28 37 29 38 30 39 71 40 31 41 76 42 70 43 72 44 32 45 75 46
REMARK SMILES IDX 69 47 68 48 33 50 59 51 42 52 58 53 43 54 46 55 57 56 73 57
REMARK SMILES IDX 44 58 45 59 56 61 74 62 47 63 34 64 35 65 40 66 36 67 37 68
REMARK SMILES IDX 39 69 41 70 38 71 60 72 61 73 66 74 62 75 63 76 65 77 67 78
REMARK SMILES IDX 64 79 48 80 49 81 54 82 50 83 51 84 53 85 55 86 52 87
REMARK H PARENT 15 7 7 20 2 24 22 30 72 49 46 60
REMARK Flexibility Score: inf
ROOT
ATOM      1  C   UNL A   1      34.920  21.263  24.751  1.00  0.00     0.002 C 
ENDROOT
BRANCH   1   2
ATOM      2  C   UNL A   1      33.839  22.145  24.109  1.00  0.00     0.021 C 
BRANCH   2   3
ATOM      3  C   UNL A   1      32.423  21.817  24.585  1.00  0.00     0.116 C 
BRANCH   3   4
ATOM      4  N   UNL A   1      32.214  22.329  25.925  1.00  0.00    -0.352 N 
ATOM      5  C   UNL A   1      31.869  23.573  26.383  1.00  0.00     0.252 C 
ATOM      6  O   UNL A   1      31.723  23.731  27.594  1.00  0.00    -0.269 OA
ATOM      7  H   UNL A   1      32.344  21.661  26.636  1.00  0.00     0.163 HD
BRANCH   5   8
ATOM      8  C   UNL A   1      31.601  24.708  25.474  1.00  0.00     0.058 A 
ATOM      9  C   UNL A   1      30.823  26.685  23.706  1.00  0.00     0.095 A 
ATOM     10  C   UNL A   1      32.180  26.469  23.934  1.00  0.00     0.030 A 
ATOM     11  N   UNL A   1      29.865  25.998  24.380  1.00  0.00    -0.255 NA
ATOM     12  C   UNL A   1      32.570  25.480  24.839  1.00  0.00     0.017 A 
ATOM     13  C   UNL A   1      30.272  25.041  25.249  1.00  0.00     0.125 A 
BRANCH   9  14
ATOM     14  C   UNL A   1      30.359  27.672  22.651  1.00  0.00     0.319 C 
BRANCH  14  15
ATOM     15  N   UNL A   1      29.709  28.909  23.112  1.00  0.00    -0.325 N 
ATOM     16  C   UNL A   1      28.729  30.491  21.527  1.00  0.00     0.245 C 
ATOM     17  C   UNL A   1      27.690  29.448  21.953  1.00  0.00     0.132 C 
ATOM     18  C   UNL A   1      30.001  30.117  22.333  1.00  0.00     0.328 C 
ATOM     19  C   UNL A   1      28.249  28.823  23.217  1.00  0.00     0.269 C 
ATOM     20  H   UNL A   1      30.131  28.998  24.036  1.00  0.00     0.348 HD
BRANCH  16  21
ATOM     21  N   UNL A   1      28.139  31.840  21.649  1.00  0.00    -0.333 N 
ATOM     22  C   UNL A   1      28.813  32.750  22.565  1.00  0.00     0.332 C 
ATOM     23  C   UNL A   1      27.915  32.473  20.353  1.00  0.00     0.332 C 
ATOM     24  H   UNL A   1      27.234  31.655  22.083  1.00  0.00     0.348 HD
ENDBRANCH  16  21
ENDBRANCH  14  15
ENDBRANCH   9  14
ENDBRANCH   5   8
ENDBRANCH   3   4
ENDBRANCH   2   3
ENDBRANCH   1   2
BRANCH   1  25
ATOM     25  C   UNL A   1      35.535  21.827  26.037  1.00  0.00     0.002 C 
BRANCH  25  26
ATOM     26  C   UNL A   1      35.849  23.324  25.996  1.00  0.00     0.021 C 
BRANCH  26  27
ATOM     27  C   UNL A   1      37.119  23.669  25.228  1.00  0.00     0.116 C 
BRANCH  27  28
ATOM     28  N   UNL A   1      38.196  22.733  25.512  1.00  0.00    -0.352 N 
ATOM     29  C   UNL A   1      39.402  22.971  26.126  1.00  0.00     0.251 C 
ATOM     30  H   UNL A   1      38.039  21.804  25.225  1.00  0.00     0.163 HD
ATOM     31  O   UNL A   1      40.295  22.138  26.107  1.00  0.00    -0.269 OA
BRANCH  29  32
ATOM     32  C   UNL A   1      39.606  24.267  26.804  1.00  0.00     0.039 A 
ATOM     33  C   UNL A   1      39.081  24.464  28.084  1.00  0.00     0.014 A 
ATOM     34  C   UNL A   1      40.346  25.270  26.175  1.00  0.00     0.014 A 
ATOM     35  C   UNL A   1      39.354  25.653  28.763  1.00  0.00     0.010 A 
ATOM     36  C   UNL A   1      40.677  26.420  26.879  1.00  0.00     0.010 A 
ATOM     37  C   UNL A   1      40.180  26.624  28.177  1.00  0.00    -0.014 A 
BRANCH  37  38
ATOM     38  C   UNL A   1      40.538  27.883  28.875  1.00  0.00     0.031 A 
ATOM     39  C   UNL A   1      41.853  27.977  29.592  1.00  0.00     0.074 A 
ATOM     40  C   UNL A   1      39.639  28.880  28.972  1.00  0.00     0.049 A 
ATOM     41  N   UNL A   1      42.282  28.889  30.424  1.00  0.00    -0.248 NA
ATOM     42  C   UNL A   1      42.796  26.868  29.373  1.00  0.00     0.031 C 
ATOM     43  C   UNL A   1      38.315  28.890  28.349  1.00  0.00     0.029 A 
ATOM     44  N   UNL A   1      39.692  30.063  29.664  1.00  0.00    -0.354 N 
ATOM     45  C   UNL A   1      43.526  28.448  30.855  1.00  0.00     0.074 A 
ATOM     46  C   UNL A   1      43.760  27.165  30.230  1.00  0.00     0.031 C 
ATOM     47  C   UNL A   1      37.679  30.021  28.693  1.00  0.00     0.029 A 
ATOM     48  C   UNL A   1      38.530  30.791  29.595  1.00  0.00     0.049 A 
ATOM     49  H   UNL A   1      40.488  30.361  30.163  1.00  0.00     0.167 HD
ATOM     50  C   UNL A   1      44.400  29.064  31.684  1.00  0.00     0.037 A 
ATOM     51  C   UNL A   1      38.179  31.935  30.213  1.00  0.00     0.037 A 
ATOM     52  C   UNL A   1      44.167  30.353  32.281  1.00  0.00     0.049 A 
ATOM     53  C   UNL A   1      39.160  32.608  31.131  1.00  0.00     0.074 A 
ATOM     54  C   UNL A   1      45.014  31.098  33.082  1.00  0.00     0.029 A 
ATOM     55  N   UNL A   1      42.996  31.084  32.146  1.00  0.00    -0.354 N 
ATOM     56  N   UNL A   1      40.359  32.212  31.488  1.00  0.00    -0.248 NA
ATOM     57  C   UNL A   1      38.746  33.884  31.731  1.00  0.00     0.031 C 
ATOM     58  C   UNL A   1      44.336  32.257  33.472  1.00  0.00     0.029 A 
ATOM     59  C   UNL A   1      43.088  32.261  32.868  1.00  0.00     0.049 A 
ATOM     60  H   UNL A   1      42.215  30.806  31.614  1.00  0.00     0.167 HD
ATOM     61  C   UNL A   1      40.855  33.203  32.326  1.00  0.00     0.074 A 
ATOM     62  C   UNL A   1      39.826  34.218  32.426  1.00  0.00     0.031 C 
ATOM     63  C   UNL A   1      42.058  33.268  32.947  1.00  0.00     0.037 A 
BRANCH  50  64
ATOM     64  C   UNL A   1      45.674  28.336  32.003  1.00  0.00     0.057 A 
ATOM     65  C   UNL A   1      46.839  28.502  31.240  1.00  0.00     0.134 A 
ATOM     66  C   UNL A   1      45.735  27.447  33.084  1.00  0.00     0.134 A 
ATOM     67  F   UNL A   1      46.847  29.330  30.184  1.00  0.00    -0.206 F 
ATOM     68  C   UNL A   1      48.000  27.776  31.510  1.00  0.00     0.040 A 
ATOM     69  C   UNL A   1      46.902  26.740  33.385  1.00  0.00     0.040 A 
ATOM     70  F   UNL A   1      44.662  27.244  33.862  1.00  0.00    -0.206 F 
ATOM     71  C   UNL A   1      48.034  26.894  32.588  1.00  0.00     0.006 A 
ENDBRANCH  50  64
BRANCH  51  72
ATOM     72  C   UNL A   1      36.835  32.514  29.964  1.00  0.00     0.057 A 
ATOM     73  C   UNL A   1      35.742  32.171  30.766  1.00  0.00     0.134 A 
ATOM     74  C   UNL A   1      36.622  33.458  28.951  1.00  0.00     0.134 A 
ATOM     75  F   UNL A   1      35.881  31.262  31.743  1.00  0.00    -0.206 F 
ATOM     76  C   UNL A   1      34.482  32.739  30.567  1.00  0.00     0.040 A 
ATOM     77  C   UNL A   1      35.374  34.051  28.755  1.00  0.00     0.040 A 
ATOM     78  F   UNL A   1      37.632  33.838  28.156  1.00  0.00    -0.206 F 
ATOM     79  C   UNL A   1      34.299  33.689  29.565  1.00  0.00     0.006 A 
ENDBRANCH  51  72
BRANCH  63  80
ATOM     80  C   UNL A   1      42.359  34.494  33.757  1.00  0.00     0.057 A 
ATOM     81  C   UNL A   1      42.192  34.526  35.147  1.00  0.00     0.134 A 
ATOM     82  C   UNL A   1      42.909  35.628  33.143  1.00  0.00     0.134 A 
ATOM     83  F   UNL A   1      41.659  33.477  35.791  1.00  0.00    -0.206 F 
ATOM     84  C   UNL A   1      42.558  35.644  35.897  1.00  0.00     0.040 A 
ATOM     85  C   UNL A   1      43.302  36.741  33.885  1.00  0.00     0.040 A 
ATOM     86  F   UNL A   1      43.102  35.656  31.816  1.00  0.00    -0.206 F 
ATOM     87  C   UNL A   1      43.126  36.751  35.267  1.00  0.00     0.006 A 
ENDBRANCH  63  80
ENDBRANCH  37  38
ENDBRANCH  29  32
ENDBRANCH  27  28
ENDBRANCH  26  27
ENDBRANCH  25  26
ENDBRANCH   1  25
TORSDOF 16
ENDMDL
