MODEL 1
REMARK VINA RESULT:     -10.5      0.000      0.000
REMARK SMILES CC(C)CCOCC[N@H+]1CC[C@@H](C(=O)NCCCCCCNC(=O)c2ccc(-c3c4nc(c(-c5c(F)cccc5F)c5ccc([nH]5)c(-c5c(F)cccc5F)c5nc(c(-c6c(F)cccc6F)c6ccc3[nH]6)C=C5)C=C4)cc2)[C@@H]1C
REMARK SMILES IDX 16 1 15 2 13 3 14 4 12 6 9 7 10 8 79 9 11 11 80 12 8 13 7 14
REMARK SMILES IDX 6 15 5 16 4 17 2 18 1 19 3 20 17 21 18 22 19 23 20 24 21 25
REMARK SMILES IDX 22 26 23 27 24 29 25 30 26 31 78 32 27 33 77 34 28 35 29 36
REMARK SMILES IDX 30 37 71 38 31 39 76 40 70 41 72 42 32 43 75 44 69 45 68 46
REMARK SMILES IDX 33 48 59 49 42 50 58 51 43 52 46 53 57 54 73 55 44 56 45 57
REMARK SMILES IDX 56 59 74 60 47 61 34 62 35 63 40 64 36 65 37 66 39 67 41 68
REMARK SMILES IDX 38 69 60 70 61 71 66 72 62 73 63 74 65 75 67 76 64 77 48 78
REMARK SMILES IDX 49 79 54 80 50 81 51 82 53 83 55 84 52 85
REMARK H PARENT 15 5 9 10 22 28 72 47 46 58
REMARK Flexibility Score: inf
ROOT
ATOM      1  C   UNL A   1      31.542  28.106  27.699  1.00  0.00     0.116 C 
ENDROOT
BRANCH   1   2
ATOM      2  N   UNL A   1      31.112  26.928  26.983  1.00  0.00    -0.356 N 
ATOM      3  C   UNL A   1      30.927  26.704  25.656  1.00  0.00     0.229 C 
ATOM      4  O   UNL A   1      30.481  25.597  25.336  1.00  0.00    -0.275 OA
ATOM      5  H   UNL A   1      30.918  26.151  27.556  1.00  0.00     0.163 HD
BRANCH   3   6
ATOM      6  C   UNL A   1      31.254  27.732  24.577  1.00  0.00     0.142 C 
ATOM      7  N   UNL A   1      31.864  27.353  22.267  1.00  0.00    -0.330 N 
ATOM      8  C   UNL A   1      30.459  27.738  22.281  1.00  0.00     0.263 C 
ATOM      9  C   UNL A   1      32.384  27.315  23.639  1.00  0.00     0.193 C 
ATOM     10  H   UNL A   1      32.323  28.096  21.742  1.00  0.00     0.348 HD
ATOM     11  C   UNL A   1      30.076  28.116  23.705  1.00  0.00     0.081 C 
ATOM     12  C   UNL A   1      33.537  28.324  23.677  1.00  0.00     0.076 C 
BRANCH   7  13
ATOM     13  C   UNL A   1      32.267  26.205  21.441  1.00  0.00     0.291 C 
BRANCH  13  14
ATOM     14  C   UNL A   1      32.505  24.796  22.049  1.00  0.00     0.221 C 
BRANCH  14  15
ATOM     15  O   UNL A   1      33.803  24.227  21.978  1.00  0.00    -0.376 OA
BRANCH  15  16
ATOM     16  C   UNL A   1      34.013  23.003  22.653  1.00  0.00     0.160 C 
BRANCH  16  17
ATOM     17  C   UNL A   1      34.261  23.032  24.166  1.00  0.00     0.031 C 
BRANCH  17  18
ATOM     18  C   UNL A   1      34.719  24.285  24.941  1.00  0.00    -0.015 C 
ATOM     19  C   UNL A   1      33.865  24.721  26.130  1.00  0.00     0.007 C 
ATOM     20  C   UNL A   1      36.117  23.996  25.512  1.00  0.00     0.007 C 
ENDBRANCH  17  18
ENDBRANCH  16  17
ENDBRANCH  15  16
ENDBRANCH  14  15
ENDBRANCH  13  14
ENDBRANCH   7  13
ENDBRANCH   3   6
ENDBRANCH   1   2
BRANCH   1  21
ATOM     21  C   UNL A   1      32.937  28.554  27.274  1.00  0.00     0.021 C 
BRANCH  21  22
ATOM     22  C   UNL A   1      33.039  30.060  27.038  1.00  0.00     0.002 C 
BRANCH  22  23
ATOM     23  C   UNL A   1      31.807  30.676  26.367  1.00  0.00     0.002 C 
BRANCH  23  24
ATOM     24  C   UNL A   1      31.565  32.151  26.700  1.00  0.00     0.021 C 
BRANCH  24  25
ATOM     25  C   UNL A   1      32.760  32.849  27.338  1.00  0.00     0.116 C 
BRANCH  25  26
ATOM     26  N   UNL A   1      32.478  34.247  27.629  1.00  0.00    -0.352 N 
ATOM     27  C   UNL A   1      33.000  35.046  28.613  1.00  0.00     0.251 C 
ATOM     28  H   UNL A   1      31.821  34.679  27.036  1.00  0.00     0.163 HD
ATOM     29  O   UNL A   1      32.499  36.136  28.868  1.00  0.00    -0.269 OA
BRANCH  27  30
ATOM     30  C   UNL A   1      34.171  34.570  29.373  1.00  0.00     0.039 A 
ATOM     31  C   UNL A   1      33.987  34.041  30.652  1.00  0.00     0.014 A 
ATOM     32  C   UNL A   1      35.444  34.627  28.801  1.00  0.00     0.014 A 
ATOM     33  C   UNL A   1      35.079  33.504  31.334  1.00  0.00     0.010 A 
ATOM     34  C   UNL A   1      36.513  34.023  29.447  1.00  0.00     0.010 A 
ATOM     35  C   UNL A   1      36.343  33.458  30.721  1.00  0.00    -0.014 A 
BRANCH  35  36
ATOM     36  C   UNL A   1      37.507  32.825  31.384  1.00  0.00     0.031 A 
ATOM     37  C   UNL A   1      38.170  31.633  30.756  1.00  0.00     0.074 A 
ATOM     38  C   UNL A   1      37.909  33.268  32.590  1.00  0.00     0.049 A 
ATOM     39  N   UNL A   1      39.132  30.878  31.223  1.00  0.00    -0.248 NA
ATOM     40  C   UNL A   1      37.658  31.213  29.442  1.00  0.00     0.031 C 
ATOM     41  C   UNL A   1      37.324  34.395  33.317  1.00  0.00     0.029 A 
ATOM     42  N   UNL A   1      38.900  32.813  33.421  1.00  0.00    -0.354 N 
ATOM     43  C   UNL A   1      39.327  29.887  30.270  1.00  0.00     0.074 A 
ATOM     44  C   UNL A   1      38.341  30.100  29.232  1.00  0.00     0.031 C 
ATOM     45  C   UNL A   1      37.988  34.565  34.471  1.00  0.00     0.029 A 
ATOM     46  C   UNL A   1      39.013  33.532  34.586  1.00  0.00     0.049 A 
ATOM     47  H   UNL A   1      39.475  32.045  33.204  1.00  0.00     0.167 HD
ATOM     48  C   UNL A   1      40.257  28.903  30.249  1.00  0.00     0.037 A 
ATOM     49  C   UNL A   1      39.847  33.371  35.631  1.00  0.00     0.037 A 
ATOM     50  C   UNL A   1      41.240  28.703  31.282  1.00  0.00     0.049 A 
ATOM     51  C   UNL A   1      40.844  32.248  35.607  1.00  0.00     0.074 A 
ATOM     52  C   UNL A   1      42.261  27.770  31.335  1.00  0.00     0.029 A 
ATOM     53  N   UNL A   1      41.317  29.447  32.452  1.00  0.00    -0.354 N 
ATOM     54  N   UNL A   1      41.062  31.353  34.673  1.00  0.00    -0.248 NA
ATOM     55  C   UNL A   1      41.712  32.112  36.784  1.00  0.00     0.031 C 
ATOM     56  C   UNL A   1      42.920  27.913  32.561  1.00  0.00     0.029 A 
ATOM     57  C   UNL A   1      42.349  28.974  33.247  1.00  0.00     0.049 A 
ATOM     58  H   UNL A   1      40.725  30.199  32.683  1.00  0.00     0.167 HD
ATOM     59  C   UNL A   1      42.114  30.571  35.132  1.00  0.00     0.074 A 
ATOM     60  C   UNL A   1      42.493  31.102  36.427  1.00  0.00     0.031 C 
ATOM     61  C   UNL A   1      42.717  29.515  34.533  1.00  0.00     0.037 A 
BRANCH  48  62
ATOM     62  C   UNL A   1      40.234  27.966  29.074  1.00  0.00     0.057 A 
ATOM     63  C   UNL A   1      39.481  26.784  29.082  1.00  0.00     0.134 A 
ATOM     64  C   UNL A   1      40.989  28.239  27.927  1.00  0.00     0.134 A 
ATOM     65  F   UNL A   1      38.744  26.453  30.154  1.00  0.00    -0.206 F 
ATOM     66  C   UNL A   1      39.519  25.884  28.015  1.00  0.00     0.040 A 
ATOM     67  C   UNL A   1      41.007  27.364  26.838  1.00  0.00     0.040 A 
ATOM     68  F   UNL A   1      41.728  29.356  27.846  1.00  0.00    -0.206 F 
ATOM     69  C   UNL A   1      40.282  26.176  26.887  1.00  0.00     0.006 A 
ENDBRANCH  48  62
BRANCH  49  70
ATOM     70  C   UNL A   1      39.803  34.328  36.763  1.00  0.00     0.057 A 
ATOM     71  C   UNL A   1      40.525  35.526  36.713  1.00  0.00     0.134 A 
ATOM     72  C   UNL A   1      39.034  34.087  37.907  1.00  0.00     0.134 A 
ATOM     73  F   UNL A   1      41.294  35.805  35.649  1.00  0.00    -0.206 F 
ATOM     74  C   UNL A   1      40.495  36.445  37.763  1.00  0.00     0.040 A 
ATOM     75  C   UNL A   1      38.975  35.007  38.955  1.00  0.00     0.040 A 
ATOM     76  F   UNL A   1      38.311  32.961  38.014  1.00  0.00    -0.206 F 
ATOM     77  C   UNL A   1      39.712  36.188  38.886  1.00  0.00     0.006 A 
ENDBRANCH  49  70
BRANCH  61  78
ATOM     78  C   UNL A   1      43.878  28.888  35.250  1.00  0.00     0.057 A 
ATOM     79  C   UNL A   1      45.198  29.295  35.025  1.00  0.00     0.134 A 
ATOM     80  C   UNL A   1      43.665  27.886  36.206  1.00  0.00     0.134 A 
ATOM     81  F   UNL A   1      45.474  30.240  34.112  1.00  0.00    -0.206 F 
ATOM     82  C   UNL A   1      46.268  28.714  35.710  1.00  0.00     0.040 A 
ATOM     83  C   UNL A   1      44.722  27.319  36.919  1.00  0.00     0.040 A 
ATOM     84  F   UNL A   1      42.424  27.454  36.475  1.00  0.00    -0.206 F 
ATOM     85  C   UNL A   1      46.029  27.728  36.666  1.00  0.00     0.006 A 
ENDBRANCH  61  78
ENDBRANCH  35  36
ENDBRANCH  27  30
ENDBRANCH  25  26
ENDBRANCH  24  25
ENDBRANCH  23  24
ENDBRANCH  22  23
ENDBRANCH  21  22
ENDBRANCH   1  21
TORSDOF 19
ENDMDL
MODEL 2
REMARK VINA RESULT:     -10.3      0.784      6.270
REMARK SMILES CC(C)CCOCC[N@H+]1CC[C@@H](C(=O)NCCCCCCNC(=O)c2ccc(-c3c4nc(c(-c5c(F)cccc5F)c5ccc([nH]5)c(-c5c(F)cccc5F)c5nc(c(-c6c(F)cccc6F)c6ccc3[nH]6)C=C5)C=C4)cc2)[C@@H]1C
REMARK SMILES IDX 16 1 15 2 13 3 14 4 12 6 9 7 10 8 79 9 11 11 80 12 8 13 7 14
REMARK SMILES IDX 6 15 5 16 4 17 2 18 1 19 3 20 17 21 18 22 19 23 20 24 21 25
REMARK SMILES IDX 22 26 23 27 24 29 25 30 26 31 78 32 27 33 77 34 28 35 29 36
REMARK SMILES IDX 30 37 71 38 31 39 76 40 70 41 72 42 32 43 75 44 69 45 68 46
REMARK SMILES IDX 33 48 59 49 42 50 58 51 43 52 46 53 57 54 73 55 44 56 45 57
REMARK SMILES IDX 56 59 74 60 47 61 34 62 35 63 40 64 36 65 37 66 39 67 41 68
REMARK SMILES IDX 38 69 60 70 61 71 66 72 62 73 63 74 65 75 67 76 64 77 48 78
REMARK SMILES IDX 49 79 54 80 50 81 51 82 53 83 55 84 52 85
REMARK H PARENT 15 5 9 10 22 28 72 47 46 58
REMARK Flexibility Score: inf
ROOT
ATOM      1  C   UNL A   1      31.469  28.196  27.612  1.00  0.00     0.116 C 
ENDROOT
BRANCH   1   2
ATOM      2  N   UNL A   1      31.228  26.917  26.986  1.00  0.00    -0.356 N 
ATOM      3  C   UNL A   1      31.138  26.562  25.678  1.00  0.00     0.229 C 
ATOM      4  O   UNL A   1      30.853  25.384  25.440  1.00  0.00    -0.275 OA
ATOM      5  H   UNL A   1      31.109  26.171  27.618  1.00  0.00     0.163 HD
BRANCH   3   6
ATOM      6  C   UNL A   1      31.380  27.532  24.526  1.00  0.00     0.142 C 
ATOM      7  N   UNL A   1      32.216  27.059  22.306  1.00  0.00    -0.330 N 
ATOM      8  C   UNL A   1      30.772  27.210  22.197  1.00  0.00     0.263 C 
ATOM      9  C   UNL A   1      32.630  27.225  23.705  1.00  0.00     0.193 C 
ATOM     10  H   UNL A   1      32.593  27.819  21.740  1.00  0.00     0.348 HD
ATOM     11  C   UNL A   1      30.227  27.643  23.550  1.00  0.00     0.081 C 
ATOM     12  C   UNL A   1      33.605  28.408  23.714  1.00  0.00     0.076 C 
BRANCH   7  13
ATOM     13  C   UNL A   1      32.856  25.925  21.622  1.00  0.00     0.291 C 
BRANCH  13  14
ATOM     14  C   UNL A   1      33.098  24.565  22.332  1.00  0.00     0.221 C 
BRANCH  14  15
ATOM     15  O   UNL A   1      34.412  24.232  22.751  1.00  0.00    -0.376 OA
BRANCH  15  16
ATOM     16  C   UNL A   1      34.632  24.073  24.137  1.00  0.00     0.160 C 
BRANCH  16  17
ATOM     17  C   UNL A   1      36.033  23.669  24.617  1.00  0.00     0.031 C 
BRANCH  17  18
ATOM     18  C   UNL A   1      36.327  22.412  25.462  1.00  0.00    -0.015 C 
ATOM     19  C   UNL A   1      35.167  21.450  25.707  1.00  0.00     0.007 C 
ATOM     20  C   UNL A   1      37.401  21.595  24.725  1.00  0.00     0.007 C 
ENDBRANCH  17  18
ENDBRANCH  16  17
ENDBRANCH  15  16
ENDBRANCH  14  15
ENDBRANCH  13  14
ENDBRANCH   7  13
ENDBRANCH   3   6
ENDBRANCH   1   2
BRANCH   1  21
ATOM     21  C   UNL A   1      32.892  28.690  27.371  1.00  0.00     0.021 C 
BRANCH  21  22
ATOM     22  C   UNL A   1      32.952  30.136  26.882  1.00  0.00     0.002 C 
BRANCH  22  23
ATOM     23  C   UNL A   1      31.594  30.721  26.480  1.00  0.00     0.002 C 
BRANCH  23  24
ATOM     24  C   UNL A   1      31.427  32.215  26.774  1.00  0.00     0.021 C 
BRANCH  24  25
ATOM     25  C   UNL A   1      32.712  32.913  27.203  1.00  0.00     0.116 C 
BRANCH  25  26
ATOM     26  N   UNL A   1      32.465  34.280  27.636  1.00  0.00    -0.352 N 
ATOM     27  C   UNL A   1      33.013  34.963  28.691  1.00  0.00     0.251 C 
ATOM     28  H   UNL A   1      31.815  34.785  27.096  1.00  0.00     0.163 HD
ATOM     29  O   UNL A   1      32.540  36.032  29.061  1.00  0.00    -0.269 OA
BRANCH  27  30
ATOM     30  C   UNL A   1      34.177  34.384  29.389  1.00  0.00     0.039 A 
ATOM     31  C   UNL A   1      33.979  33.660  30.565  1.00  0.00     0.014 A 
ATOM     32  C   UNL A   1      35.459  34.543  28.855  1.00  0.00     0.014 A 
ATOM     33  C   UNL A   1      35.066  33.033  31.175  1.00  0.00     0.010 A 
ATOM     34  C   UNL A   1      36.525  33.854  29.417  1.00  0.00     0.010 A 
ATOM     35  C   UNL A   1      36.340  33.096  30.584  1.00  0.00    -0.014 A 
BRANCH  35  36
ATOM     36  C   UNL A   1      37.501  32.378  31.161  1.00  0.00     0.031 A 
ATOM     37  C   UNL A   1      38.124  32.864  32.438  1.00  0.00     0.074 A 
ATOM     38  C   UNL A   1      38.046  31.345  30.491  1.00  0.00     0.049 A 
ATOM     39  N   UNL A   1      39.200  32.440  33.050  1.00  0.00    -0.248 NA
ATOM     40  C   UNL A   1      37.467  34.004  33.096  1.00  0.00     0.031 C 
ATOM     41  C   UNL A   1      37.553  30.801  29.225  1.00  0.00     0.029 A 
ATOM     42  N   UNL A   1      39.145  30.576  30.780  1.00  0.00    -0.354 N 
ATOM     43  C   UNL A   1      39.357  33.270  34.152  1.00  0.00     0.074 A 
ATOM     44  C   UNL A   1      38.305  34.261  34.087  1.00  0.00     0.031 C 
ATOM     45  C   UNL A   1      38.326  29.766  28.863  1.00  0.00     0.029 A 
ATOM     46  C   UNL A   1      39.394  29.603  29.843  1.00  0.00     0.049 A 
ATOM     47  H   UNL A   1      39.701  30.710  31.580  1.00  0.00     0.167 HD
ATOM     48  C   UNL A   1      40.281  33.200  35.141  1.00  0.00     0.037 A 
ATOM     49  C   UNL A   1      40.378  28.685  29.783  1.00  0.00     0.037 A 
ATOM     50  C   UNL A   1      41.320  32.206  35.202  1.00  0.00     0.049 A 
ATOM     51  C   UNL A   1      41.417  28.651  30.868  1.00  0.00     0.074 A 
ATOM     52  C   UNL A   1      42.275  32.013  36.185  1.00  0.00     0.029 A 
ATOM     53  N   UNL A   1      41.546  31.241  34.230  1.00  0.00    -0.354 N 
ATOM     54  N   UNL A   1      41.521  29.401  31.939  1.00  0.00    -0.248 NA
ATOM     55  C   UNL A   1      42.475  27.641  30.736  1.00  0.00     0.031 C 
ATOM     56  C   UNL A   1      43.111  30.967  35.781  1.00  0.00     0.029 A 
ATOM     57  C   UNL A   1      42.644  30.469  34.575  1.00  0.00     0.049 A 
ATOM     58  H   UNL A   1      41.007  31.123  33.415  1.00  0.00     0.167 HD
ATOM     59  C   UNL A   1      42.633  28.932  32.626  1.00  0.00     0.074 A 
ATOM     60  C   UNL A   1      43.166  27.829  31.851  1.00  0.00     0.031 C 
ATOM     61  C   UNL A   1      43.161  29.370  33.795  1.00  0.00     0.037 A 
BRANCH  48  62
ATOM     62  C   UNL A   1      40.205  34.242  36.221  1.00  0.00     0.057 A 
ATOM     63  C   UNL A   1      39.435  34.058  37.378  1.00  0.00     0.134 A 
ATOM     64  C   UNL A   1      40.896  35.454  36.095  1.00  0.00     0.134 A 
ATOM     65  F   UNL A   1      38.737  32.926  37.558  1.00  0.00    -0.206 F 
ATOM     66  C   UNL A   1      39.315  35.059  38.344  1.00  0.00     0.040 A 
ATOM     67  C   UNL A   1      40.811  36.449  37.072  1.00  0.00     0.040 A 
ATOM     68  F   UNL A   1      41.659  35.696  35.018  1.00  0.00    -0.206 F 
ATOM     69  C   UNL A   1      40.008  36.257  38.193  1.00  0.00     0.006 A 
ENDBRANCH  48  62
BRANCH  49  70
ATOM     70  C   UNL A   1      40.396  27.696  28.678  1.00  0.00     0.057 A 
ATOM     71  C   UNL A   1      39.653  26.513  28.768  1.00  0.00     0.134 A 
ATOM     72  C   UNL A   1      41.132  27.907  27.507  1.00  0.00     0.134 A 
ATOM     73  F   UNL A   1      38.941  26.247  29.874  1.00  0.00    -0.206 F 
ATOM     74  C   UNL A   1      39.649  25.570  27.740  1.00  0.00     0.040 A 
ATOM     75  C   UNL A   1      41.120  26.984  26.460  1.00  0.00     0.040 A 
ATOM     76  F   UNL A   1      41.858  29.026  27.354  1.00  0.00    -0.206 F 
ATOM     77  C   UNL A   1      40.380  25.808  26.578  1.00  0.00     0.006 A 
ENDBRANCH  49  70
BRANCH  61  78
ATOM     78  C   UNL A   1      44.351  28.629  34.334  1.00  0.00     0.057 A 
ATOM     79  C   UNL A   1      45.664  29.028  34.058  1.00  0.00     0.134 A 
ATOM     80  C   UNL A   1      44.176  27.519  35.172  1.00  0.00     0.134 A 
ATOM     81  F   UNL A   1      45.902  30.074  33.250  1.00  0.00    -0.206 F 
ATOM     82  C   UNL A   1      46.761  28.339  34.578  1.00  0.00     0.040 A 
ATOM     83  C   UNL A   1      45.263  26.840  35.722  1.00  0.00     0.040 A 
ATOM     84  F   UNL A   1      42.944  27.088  35.483  1.00  0.00    -0.206 F 
ATOM     85  C   UNL A   1      46.561  27.246  35.420  1.00  0.00     0.006 A 
ENDBRANCH  61  78
ENDBRANCH  35  36
ENDBRANCH  27  30
ENDBRANCH  25  26
ENDBRANCH  24  25
ENDBRANCH  23  24
ENDBRANCH  22  23
ENDBRANCH  21  22
ENDBRANCH   1  21
TORSDOF 19
ENDMDL
MODEL 3
REMARK VINA RESULT:     -10.1      1.431      6.828
REMARK SMILES CC(C)CCOCC[N@H+]1CC[C@@H](C(=O)NCCCCCCNC(=O)c2ccc(-c3c4nc(c(-c5c(F)cccc5F)c5ccc([nH]5)c(-c5c(F)cccc5F)c5nc(c(-c6c(F)cccc6F)c6ccc3[nH]6)C=C5)C=C4)cc2)[C@@H]1C
REMARK SMILES IDX 16 1 15 2 13 3 14 4 12 6 9 7 10 8 79 9 11 11 80 12 8 13 7 14
REMARK SMILES IDX 6 15 5 16 4 17 2 18 1 19 3 20 17 21 18 22 19 23 20 24 21 25
REMARK SMILES IDX 22 26 23 27 24 29 25 30 26 31 78 32 27 33 77 34 28 35 29 36
REMARK SMILES IDX 30 37 71 38 31 39 76 40 70 41 72 42 32 43 75 44 69 45 68 46
REMARK SMILES IDX 33 48 59 49 42 50 58 51 43 52 46 53 57 54 73 55 44 56 45 57
REMARK SMILES IDX 56 59 74 60 47 61 34 62 35 63 40 64 36 65 37 66 39 67 41 68
REMARK SMILES IDX 38 69 60 70 61 71 66 72 62 73 63 74 65 75 67 76 64 77 48 78
REMARK SMILES IDX 49 79 54 80 50 81 51 82 53 83 55 84 52 85
REMARK H PARENT 15 5 9 10 22 28 72 47 46 58
REMARK Flexibility Score: inf
ROOT
ATOM      1  C   UNL A   1      32.386  26.926  26.425  1.00  0.00     0.116 C 
ENDROOT
BRANCH   1   2
ATOM      2  N   UNL A   1      31.702  25.782  26.981  1.00  0.00    -0.356 N 
ATOM      3  C   UNL A   1      31.686  24.477  26.603  1.00  0.00     0.229 C 
ATOM      4  O   UNL A   1      30.943  23.723  27.240  1.00  0.00    -0.275 OA
ATOM      5  H   UNL A   1      31.152  25.982  27.773  1.00  0.00     0.163 HD
BRANCH   3   6
ATOM      6  C   UNL A   1      32.535  23.923  25.463  1.00  0.00     0.142 C 
ATOM      7  N   UNL A   1      33.456  25.097  23.559  1.00  0.00    -0.330 N 
ATOM      8  C   UNL A   1      34.538  24.922  24.519  1.00  0.00     0.263 C 
ATOM      9  C   UNL A   1      32.216  24.526  24.097  1.00  0.00     0.193 C 
ATOM     10  H   UNL A   1      33.757  24.568  22.742  1.00  0.00     0.348 HD
ATOM     11  C   UNL A   1      34.029  24.068  25.671  1.00  0.00     0.081 C 
ATOM     12  C   UNL A   1      31.788  23.443  23.100  1.00  0.00     0.076 C 
BRANCH   7  13
ATOM     13  C   UNL A   1      33.285  26.415  22.929  1.00  0.00     0.291 C 
BRANCH  13  14
ATOM     14  C   UNL A   1      31.963  26.827  22.227  1.00  0.00     0.221 C 
BRANCH  14  15
ATOM     15  O   UNL A   1      31.423  28.115  22.478  1.00  0.00    -0.376 OA
BRANCH  15  16
ATOM     16  C   UNL A   1      30.019  28.256  22.405  1.00  0.00     0.160 C 
BRANCH  16  17
ATOM     17  C   UNL A   1      29.337  29.285  23.317  1.00  0.00     0.031 C 
BRANCH  17  18
ATOM     18  C   UNL A   1      28.044  30.043  22.947  1.00  0.00    -0.015 C 
ATOM     19  C   UNL A   1      27.811  31.393  23.620  1.00  0.00     0.007 C 
ATOM     20  C   UNL A   1      28.087  30.327  21.437  1.00  0.00     0.007 C 
ENDBRANCH  17  18
ENDBRANCH  16  17
ENDBRANCH  15  16
ENDBRANCH  14  15
ENDBRANCH  13  14
ENDBRANCH   7  13
ENDBRANCH   3   6
ENDBRANCH   1   2
BRANCH   1  21
ATOM     21  C   UNL A   1      31.423  28.065  26.105  1.00  0.00     0.021 C 
BRANCH  21  22
ATOM     22  C   UNL A   1      31.827  29.393  26.743  1.00  0.00     0.002 C 
BRANCH  22  23
ATOM     23  C   UNL A   1      31.586  30.617  25.853  1.00  0.00     0.002 C 
BRANCH  23  24
ATOM     24  C   UNL A   1      31.406  31.935  26.611  1.00  0.00     0.021 C 
BRANCH  24  25
ATOM     25  C   UNL A   1      32.706  32.538  27.129  1.00  0.00     0.116 C 
BRANCH  25  26
ATOM     26  N   UNL A   1      32.539  33.931  27.518  1.00  0.00    -0.352 N 
ATOM     27  C   UNL A   1      33.145  34.622  28.535  1.00  0.00     0.251 C 
ATOM     28  H   UNL A   1      31.902  34.449  26.974  1.00  0.00     0.163 HD
ATOM     29  O   UNL A   1      32.735  35.727  28.875  1.00  0.00    -0.269 OA
BRANCH  27  30
ATOM     30  C   UNL A   1      34.295  34.010  29.227  1.00  0.00     0.039 A 
ATOM     31  C   UNL A   1      34.068  33.157  30.308  1.00  0.00     0.014 A 
ATOM     32  C   UNL A   1      35.594  34.268  28.782  1.00  0.00     0.014 A 
ATOM     33  C   UNL A   1      35.147  32.505  30.904  1.00  0.00     0.010 A 
ATOM     34  C   UNL A   1      36.657  33.558  29.323  1.00  0.00     0.010 A 
ATOM     35  C   UNL A   1      36.445  32.673  30.391  1.00  0.00    -0.014 A 
BRANCH  35  36
ATOM     36  C   UNL A   1      37.603  31.935  30.949  1.00  0.00     0.031 A 
ATOM     37  C   UNL A   1      38.165  32.324  32.286  1.00  0.00     0.074 A 
ATOM     38  C   UNL A   1      38.201  30.978  30.214  1.00  0.00     0.049 A 
ATOM     39  N   UNL A   1      39.230  31.873  32.900  1.00  0.00    -0.248 NA
ATOM     40  C   UNL A   1      37.453  33.386  33.014  1.00  0.00     0.031 C 
ATOM     41  C   UNL A   1      37.770  30.535  28.888  1.00  0.00     0.029 A 
ATOM     42  N   UNL A   1      39.308  30.214  30.478  1.00  0.00    -0.354 N 
ATOM     43  C   UNL A   1      39.323  32.608  34.076  1.00  0.00     0.074 A 
ATOM     44  C   UNL A   1      38.247  33.575  34.055  1.00  0.00     0.031 C 
ATOM     45  C   UNL A   1      38.583  29.554  28.467  1.00  0.00     0.029 A 
ATOM     46  C   UNL A   1      39.619  29.332  29.471  1.00  0.00     0.049 A 
ATOM     47  H   UNL A   1      39.831  30.291  31.308  1.00  0.00     0.167 HD
ATOM     48  C   UNL A   1      40.211  32.475  35.090  1.00  0.00     0.037 A 
ATOM     49  C   UNL A   1      40.628  28.447  29.370  1.00  0.00     0.037 A 
ATOM     50  C   UNL A   1      41.275  31.504  35.105  1.00  0.00     0.049 A 
ATOM     51  C   UNL A   1      41.628  28.344  30.488  1.00  0.00     0.074 A 
ATOM     52  C   UNL A   1      42.197  31.249  36.104  1.00  0.00     0.029 A 
ATOM     53  N   UNL A   1      41.563  30.633  34.063  1.00  0.00    -0.354 N 
ATOM     54  N   UNL A   1      41.672  29.000  31.623  1.00  0.00    -0.248 NA
ATOM     55  C   UNL A   1      42.717  27.375  30.311  1.00  0.00     0.031 C 
ATOM     56  C   UNL A   1      43.077  30.263  35.645  1.00  0.00     0.029 A 
ATOM     57  C   UNL A   1      42.667  29.860  34.383  1.00  0.00     0.049 A 
ATOM     58  H   UNL A   1      41.057  30.573  33.220  1.00  0.00     0.167 HD
ATOM     59  C   UNL A   1      42.770  28.500  32.310  1.00  0.00     0.074 A 
ATOM     60  C   UNL A   1      43.361  27.481  31.464  1.00  0.00     0.031 C 
ATOM     61  C   UNL A   1      43.243  28.847  33.532  1.00  0.00     0.037 A 
BRANCH  48  62
ATOM     62  C   UNL A   1      40.067  33.416  36.251  1.00  0.00     0.057 A 
ATOM     63  C   UNL A   1      39.194  33.154  37.316  1.00  0.00     0.134 A 
ATOM     64  C   UNL A   1      40.798  34.610  36.299  1.00  0.00     0.134 A 
ATOM     65  F   UNL A   1      38.453  32.035  37.329  1.00  0.00    -0.206 F 
ATOM     66  C   UNL A   1      39.014  34.067  38.358  1.00  0.00     0.040 A 
ATOM     67  C   UNL A   1      40.653  35.514  37.354  1.00  0.00     0.040 A 
ATOM     68  F   UNL A   1      41.659  34.923  35.319  1.00  0.00    -0.206 F 
ATOM     69  C   UNL A   1      39.749  35.250  38.379  1.00  0.00     0.006 A 
ENDBRANCH  48  62
BRANCH  49  70
ATOM     70  C   UNL A   1      40.715  27.559  28.186  1.00  0.00     0.057 A 
ATOM     71  C   UNL A   1      40.055  26.324  28.172  1.00  0.00     0.134 A 
ATOM     72  C   UNL A   1      41.434  27.919  27.041  1.00  0.00     0.134 A 
ATOM     73  F   UNL A   1      39.364  25.917  29.247  1.00  0.00    -0.206 F 
ATOM     74  C   UNL A   1      40.116  25.474  27.067  1.00  0.00     0.040 A 
ATOM     75  C   UNL A   1      41.484  27.089  25.920  1.00  0.00     0.040 A 
ATOM     76  F   UNL A   1      42.080  29.093  26.987  1.00  0.00    -0.206 F 
ATOM     77  C   UNL A   1      40.828  25.859  25.934  1.00  0.00     0.006 A 
ENDBRANCH  49  70
BRANCH  61  78
ATOM     78  C   UNL A   1      44.432  28.090  34.051  1.00  0.00     0.057 A 
ATOM     79  C   UNL A   1      45.742  28.548  33.869  1.00  0.00     0.134 A 
ATOM     80  C   UNL A   1      44.257  26.903  34.775  1.00  0.00     0.134 A 
ATOM     81  F   UNL A   1      45.981  29.670  33.172  1.00  0.00    -0.206 F 
ATOM     82  C   UNL A   1      46.838  27.842  34.370  1.00  0.00     0.040 A 
ATOM     83  C   UNL A   1      45.342  26.205  35.307  1.00  0.00     0.040 A 
ATOM     84  F   UNL A   1      43.028  26.413  34.992  1.00  0.00    -0.206 F 
ATOM     85  C   UNL A   1      46.638  26.671  35.099  1.00  0.00     0.006 A 
ENDBRANCH  61  78
ENDBRANCH  35  36
ENDBRANCH  27  30
ENDBRANCH  25  26
ENDBRANCH  24  25
ENDBRANCH  23  24
ENDBRANCH  22  23
ENDBRANCH  21  22
ENDBRANCH   1  21
TORSDOF 19
ENDMDL
