MODEL 1
REMARK VINA RESULT:     -10.4      0.000      0.000
REMARK SMILES CCn1cc(Br)c(C(=O)NCCCCCCNC(=O)c2ccc(-c3c4nc(c(-c5c(F)cccc5F)c5ccc([nH]5)c(-c5c(F)cccc5F)c5nc(c(-c6c(F)cccc6F)c6ccc3[nH]6)C=C5)C=C4)cc2)n1
REMARK SMILES IDX 14 1 13 2 12 3 11 4 10 5 8 6 9 7 7 9 3 10 4 11 74 12 5 13
REMARK SMILES IDX 6 14 2 15 1 16 15 17 16 18 17 19 18 20 19 22 20 23 21 24
REMARK SMILES IDX 73 25 22 26 72 27 23 28 24 29 25 30 66 31 26 32 71 33 65 34
REMARK SMILES IDX 67 35 27 36 70 37 64 38 63 39 28 41 54 42 37 43 53 44 38 45
REMARK SMILES IDX 41 46 52 47 68 48 39 49 40 50 51 52 69 53 42 54 29 55 30 56
REMARK SMILES IDX 35 57 31 58 32 59 34 60 36 61 33 62 55 63 56 64 61 65 57 66
REMARK SMILES IDX 58 67 60 68 62 69 59 70 43 71 44 72 49 73 45 74 46 75 48 76
REMARK SMILES IDX 50 77 47 78
REMARK H PARENT 10 8 17 21 67 40 41 51
REMARK Flexibility Score: inf
ROOT
ATOM      1  C   UNL A   1      40.989  21.558  27.751  1.00  0.00     0.002 C 
ENDROOT
BRANCH   1   2
ATOM      2  C   UNL A   1      40.514  22.526  26.656  1.00  0.00     0.002 C 
BRANCH   2   3
ATOM      3  C   UNL A   1      39.012  22.824  26.629  1.00  0.00     0.021 C 
BRANCH   3   4
ATOM      4  C   UNL A   1      38.184  21.853  25.788  1.00  0.00     0.116 C 
BRANCH   4   5
ATOM      5  N   UNL A   1      37.810  22.437  24.513  1.00  0.00    -0.351 N 
ATOM      6  C   UNL A   1      36.597  22.565  23.873  1.00  0.00     0.272 C 
ATOM      7  O   UNL A   1      36.635  23.096  22.759  1.00  0.00    -0.267 OA
ATOM      8  H   UNL A   1      38.568  22.814  24.009  1.00  0.00     0.163 HD
BRANCH   6   9
ATOM      9  C   UNL A   1      35.329  22.117  24.486  1.00  0.00     0.164 A 
ATOM     10  N   UNL A   1      33.788  20.818  25.211  1.00  0.00    -0.271 N 
ATOM     11  C   UNL A   1      33.366  22.057  25.573  1.00  0.00     0.125 A 
ATOM     12  N   UNL A   1      34.958  20.821  24.559  1.00  0.00    -0.166 NA
ATOM     13  C   UNL A   1      34.332  22.915  25.111  1.00  0.00     0.069 A 
ATOM     14  Br  UNL A   1      34.305  24.777  25.315  1.00  0.00    -0.047 Br
BRANCH  10  15
ATOM     15  C   UNL A   1      33.157  19.547  25.517  1.00  0.00     0.141 C 
ATOM     16  C   UNL A   1      32.420  18.942  24.336  1.00  0.00     0.029 C 
ENDBRANCH  10  15
ENDBRANCH   6   9
ENDBRANCH   4   5
ENDBRANCH   3   4
ENDBRANCH   2   3
ENDBRANCH   1   2
BRANCH   1  17
ATOM     17  C   UNL A   1      41.785  20.329  27.286  1.00  0.00     0.021 C 
BRANCH  17  18
ATOM     18  C   UNL A   1      41.934  20.223  25.777  1.00  0.00     0.116 C 
BRANCH  18  19
ATOM     19  N   UNL A   1      43.292  19.866  25.366  1.00  0.00    -0.352 N 
ATOM     20  C   UNL A   1      44.325  20.718  25.010  1.00  0.00     0.251 C 
ATOM     21  H   UNL A   1      43.498  18.904  25.342  1.00  0.00     0.163 HD
ATOM     22  O   UNL A   1      45.270  20.335  24.346  1.00  0.00    -0.269 OA
BRANCH  20  23
ATOM     23  C   UNL A   1      44.256  22.112  25.479  1.00  0.00     0.039 A 
ATOM     24  C   UNL A   1      43.546  23.095  24.783  1.00  0.00     0.014 A 
ATOM     25  C   UNL A   1      44.894  22.403  26.680  1.00  0.00     0.014 A 
ATOM     26  C   UNL A   1      43.421  24.359  25.353  1.00  0.00     0.010 A 
ATOM     27  C   UNL A   1      44.615  23.576  27.320  1.00  0.00     0.010 A 
ATOM     28  C   UNL A   1      43.948  24.583  26.633  1.00  0.00    -0.014 A 
BRANCH  28  29
ATOM     29  C   UNL A   1      43.741  25.841  27.336  1.00  0.00     0.031 A 
ATOM     30  C   UNL A   1      44.686  26.930  26.968  1.00  0.00     0.074 A 
ATOM     31  C   UNL A   1      42.618  26.072  28.051  1.00  0.00     0.049 A 
ATOM     32  N   UNL A   1      45.551  27.516  27.728  1.00  0.00    -0.248 NA
ATOM     33  C   UNL A   1      44.773  27.335  25.554  1.00  0.00     0.031 C 
ATOM     34  C   UNL A   1      41.446  25.203  28.226  1.00  0.00     0.029 A 
ATOM     35  N   UNL A   1      42.226  27.214  28.673  1.00  0.00    -0.354 N 
ATOM     36  C   UNL A   1      46.143  28.507  26.949  1.00  0.00     0.074 A 
ATOM     37  C   UNL A   1      45.765  28.227  25.589  1.00  0.00     0.031 C 
ATOM     38  C   UNL A   1      40.402  25.931  28.675  1.00  0.00     0.029 A 
ATOM     39  C   UNL A   1      40.872  27.267  28.985  1.00  0.00     0.049 A 
ATOM     40  H   UNL A   1      42.851  27.945  28.884  1.00  0.00     0.167 HD
ATOM     41  C   UNL A   1      46.694  29.614  27.521  1.00  0.00     0.037 A 
ATOM     42  C   UNL A   1      40.194  28.357  29.422  1.00  0.00     0.037 A 
ATOM     43  C   UNL A   1      46.904  29.417  28.935  1.00  0.00     0.049 A 
ATOM     44  C   UNL A   1      41.207  29.311  29.950  1.00  0.00     0.074 A 
ATOM     45  C   UNL A   1      47.602  28.491  29.688  1.00  0.00     0.029 A 
ATOM     46  N   UNL A   1      46.015  30.004  29.805  1.00  0.00    -0.354 N 
ATOM     47  N   UNL A   1      41.916  29.086  31.023  1.00  0.00    -0.248 NA
ATOM     48  C   UNL A   1      41.779  30.267  29.012  1.00  0.00     0.031 C 
ATOM     49  C   UNL A   1      46.744  28.202  30.791  1.00  0.00     0.029 A 
ATOM     50  C   UNL A   1      45.627  29.032  30.693  1.00  0.00     0.049 A 
ATOM     51  H   UNL A   1      45.715  30.941  29.794  1.00  0.00     0.167 HD
ATOM     52  C   UNL A   1      43.194  29.519  30.700  1.00  0.00     0.074 A 
ATOM     53  C   UNL A   1      43.033  30.300  29.473  1.00  0.00     0.031 C 
ATOM     54  C   UNL A   1      44.303  28.958  31.267  1.00  0.00     0.037 A 
BRANCH  41  55
ATOM     55  C   UNL A   1      46.691  30.995  26.906  1.00  0.00     0.057 A 
ATOM     56  C   UNL A   1      47.877  31.754  26.927  1.00  0.00     0.134 A 
ATOM     57  C   UNL A   1      45.528  31.719  26.577  1.00  0.00     0.134 A 
ATOM     58  F   UNL A   1      49.055  31.184  27.227  1.00  0.00    -0.206 F 
ATOM     59  C   UNL A   1      47.888  33.140  26.732  1.00  0.00     0.040 A 
ATOM     60  C   UNL A   1      45.535  33.095  26.329  1.00  0.00     0.040 A 
ATOM     61  F   UNL A   1      44.309  31.167  26.577  1.00  0.00    -0.206 F 
ATOM     62  C   UNL A   1      46.711  33.818  26.443  1.00  0.00     0.006 A 
ENDBRANCH  41  55
BRANCH  42  63
ATOM     63  C   UNL A   1      38.795  28.749  29.132  1.00  0.00     0.057 A 
ATOM     64  C   UNL A   1      37.831  28.801  30.148  1.00  0.00     0.134 A 
ATOM     65  C   UNL A   1      38.428  29.338  27.907  1.00  0.00     0.134 A 
ATOM     66  F   UNL A   1      38.098  28.304  31.364  1.00  0.00    -0.206 F 
ATOM     67  C   UNL A   1      36.586  29.423  29.968  1.00  0.00     0.040 A 
ATOM     68  C   UNL A   1      37.187  29.954  27.711  1.00  0.00     0.040 A 
ATOM     69  F   UNL A   1      39.292  29.415  26.886  1.00  0.00    -0.206 F 
ATOM     70  C   UNL A   1      36.265  30.012  28.748  1.00  0.00     0.006 A 
ENDBRANCH  42  63
BRANCH  54  71
ATOM     71  C   UNL A   1      44.124  27.998  32.412  1.00  0.00     0.057 A 
ATOM     72  C   UNL A   1      44.018  26.605  32.267  1.00  0.00     0.134 A 
ATOM     73  C   UNL A   1      44.254  28.482  33.719  1.00  0.00     0.134 A 
ATOM     74  F   UNL A   1      43.992  26.033  31.059  1.00  0.00    -0.206 F 
ATOM     75  C   UNL A   1      44.006  25.743  33.368  1.00  0.00     0.040 A 
ATOM     76  C   UNL A   1      44.278  27.629  34.826  1.00  0.00     0.040 A 
ATOM     77  F   UNL A   1      44.420  29.796  33.938  1.00  0.00    -0.206 F 
ATOM     78  C   UNL A   1      44.145  26.255  34.654  1.00  0.00     0.006 A 
ENDBRANCH  54  71
ENDBRANCH  28  29
ENDBRANCH  20  23
ENDBRANCH  18  19
ENDBRANCH  17  18
ENDBRANCH   1  17
TORSDOF 14
ENDMDL
MODEL 2
REMARK VINA RESULT:     -10.3      1.176      1.525
REMARK SMILES CCn1cc(Br)c(C(=O)NCCCCCCNC(=O)c2ccc(-c3c4nc(c(-c5c(F)cccc5F)c5ccc([nH]5)c(-c5c(F)cccc5F)c5nc(c(-c6c(F)cccc6F)c6ccc3[nH]6)C=C5)C=C4)cc2)n1
REMARK SMILES IDX 14 1 13 2 12 3 11 4 10 5 8 6 9 7 7 9 3 10 4 11 74 12 5 13
REMARK SMILES IDX 6 14 2 15 1 16 15 17 16 18 17 19 18 20 19 22 20 23 21 24
REMARK SMILES IDX 73 25 22 26 72 27 23 28 24 29 25 30 66 31 26 32 71 33 65 34
REMARK SMILES IDX 67 35 27 36 70 37 64 38 63 39 28 41 54 42 37 43 53 44 38 45
REMARK SMILES IDX 41 46 52 47 68 48 39 49 40 50 51 52 69 53 42 54 29 55 30 56
REMARK SMILES IDX 35 57 31 58 32 59 34 60 36 61 33 62 55 63 56 64 61 65 57 66
REMARK SMILES IDX 58 67 60 68 62 69 59 70 43 71 44 72 49 73 45 74 46 75 48 76
REMARK SMILES IDX 50 77 47 78
REMARK H PARENT 10 8 17 21 67 40 41 51
REMARK Flexibility Score: inf
ROOT
ATOM      1  C   UNL A   1      40.478  21.480  26.837  1.00  0.00     0.002 C 
ENDROOT
BRANCH   1   2
ATOM      2  C   UNL A   1      39.228  21.975  26.092  1.00  0.00     0.002 C 
BRANCH   2   3
ATOM      3  C   UNL A   1      38.704  23.355  26.502  1.00  0.00     0.021 C 
BRANCH   3   4
ATOM      4  C   UNL A   1      37.317  23.698  25.959  1.00  0.00     0.116 C 
BRANCH   4   5
ATOM      5  N   UNL A   1      37.206  23.387  24.545  1.00  0.00    -0.351 N 
ATOM      6  C   UNL A   1      36.123  23.302  23.697  1.00  0.00     0.272 C 
ATOM      7  O   UNL A   1      36.381  22.977  22.535  1.00  0.00    -0.267 OA
ATOM      8  H   UNL A   1      38.069  23.201  24.109  1.00  0.00     0.163 HD
BRANCH   6   9
ATOM      9  C   UNL A   1      34.747  23.601  24.143  1.00  0.00     0.164 A 
ATOM     10  N   UNL A   1      32.972  24.708  24.606  1.00  0.00    -0.271 N 
ATOM     11  C   UNL A   1      32.614  23.415  24.817  1.00  0.00     0.125 A 
ATOM     12  N   UNL A   1      34.242  24.852  24.203  1.00  0.00    -0.166 NA
ATOM     13  C   UNL A   1      33.738  22.680  24.538  1.00  0.00     0.069 A 
ATOM     14  Br  UNL A   1      33.859  20.814  24.646  1.00  0.00    -0.047 Br
BRANCH  10  15
ATOM     15  C   UNL A   1      32.127  25.884  24.699  1.00  0.00     0.141 C 
ATOM     16  C   UNL A   1      31.724  26.224  26.122  1.00  0.00     0.029 C 
ENDBRANCH  10  15
ENDBRANCH   6   9
ENDBRANCH   4   5
ENDBRANCH   3   4
ENDBRANCH   2   3
ENDBRANCH   1   2
BRANCH   1  17
ATOM     17  C   UNL A   1      41.029  20.108  26.421  1.00  0.00     0.021 C 
BRANCH  17  18
ATOM     18  C   UNL A   1      42.402  19.794  26.992  1.00  0.00     0.116 C 
BRANCH  18  19
ATOM     19  N   UNL A   1      43.418  19.613  25.954  1.00  0.00    -0.352 N 
ATOM     20  C   UNL A   1      43.976  20.577  25.132  1.00  0.00     0.251 C 
ATOM     21  H   UNL A   1      43.745  18.694  25.826  1.00  0.00     0.163 HD
ATOM     22  O   UNL A   1      44.518  20.288  24.081  1.00  0.00    -0.269 OA
BRANCH  20  23
ATOM     23  C   UNL A   1      43.912  21.979  25.578  1.00  0.00     0.039 A 
ATOM     24  C   UNL A   1      43.048  22.907  24.986  1.00  0.00     0.014 A 
ATOM     25  C   UNL A   1      44.718  22.333  26.654  1.00  0.00     0.014 A 
ATOM     26  C   UNL A   1      42.952  24.179  25.545  1.00  0.00     0.010 A 
ATOM     27  C   UNL A   1      44.486  23.509  27.307  1.00  0.00     0.010 A 
ATOM     28  C   UNL A   1      43.665  24.464  26.717  1.00  0.00    -0.014 A 
BRANCH  28  29
ATOM     29  C   UNL A   1      43.509  25.729  27.419  1.00  0.00     0.031 A 
ATOM     30  C   UNL A   1      44.481  26.788  27.032  1.00  0.00     0.074 A 
ATOM     31  C   UNL A   1      42.406  25.998  28.152  1.00  0.00     0.049 A 
ATOM     32  N   UNL A   1      45.377  27.348  27.777  1.00  0.00    -0.248 NA
ATOM     33  C   UNL A   1      44.557  27.186  25.616  1.00  0.00     0.031 C 
ATOM     34  C   UNL A   1      41.211  25.166  28.349  1.00  0.00     0.029 A 
ATOM     35  N   UNL A   1      42.060  27.153  28.776  1.00  0.00    -0.354 N 
ATOM     36  C   UNL A   1      45.987  28.318  26.984  1.00  0.00     0.074 A 
ATOM     37  C   UNL A   1      45.578  28.046  25.632  1.00  0.00     0.031 C 
ATOM     38  C   UNL A   1      40.197  25.928  28.813  1.00  0.00     0.029 A 
ATOM     39  C   UNL A   1      40.713  27.249  29.111  1.00  0.00     0.049 A 
ATOM     40  H   UNL A   1      42.710  27.865  28.976  1.00  0.00     0.167 HD
ATOM     41  C   UNL A   1      46.581  29.410  27.544  1.00  0.00     0.037 A 
ATOM     42  C   UNL A   1      40.077  28.361  29.555  1.00  0.00     0.037 A 
ATOM     43  C   UNL A   1      46.807  29.209  28.955  1.00  0.00     0.049 A 
ATOM     44  C   UNL A   1      41.128  29.284  30.064  1.00  0.00     0.074 A 
ATOM     45  C   UNL A   1      47.489  28.264  29.700  1.00  0.00     0.029 A 
ATOM     46  N   UNL A   1      45.952  29.826  29.837  1.00  0.00    -0.354 N 
ATOM     47  N   UNL A   1      41.847  29.040  31.126  1.00  0.00    -0.248 NA
ATOM     48  C   UNL A   1      41.714  30.219  29.113  1.00  0.00     0.031 C 
ATOM     49  C   UNL A   1      46.641  28.005  30.817  1.00  0.00     0.029 A 
ATOM     50  C   UNL A   1      45.549  28.869  30.734  1.00  0.00     0.049 A 
ATOM     51  H   UNL A   1      45.681  30.773  29.828  1.00  0.00     0.167 HD
ATOM     52  C   UNL A   1      43.132  29.432  30.780  1.00  0.00     0.074 A 
ATOM     53  C   UNL A   1      42.976  30.214  29.553  1.00  0.00     0.031 C 
ATOM     54  C   UNL A   1      44.233  28.838  31.331  1.00  0.00     0.037 A 
BRANCH  41  55
ATOM     55  C   UNL A   1      46.611  30.788  26.925  1.00  0.00     0.057 A 
ATOM     56  C   UNL A   1      47.817  31.513  26.931  1.00  0.00     0.134 A 
ATOM     57  C   UNL A   1      45.465  31.544  26.604  1.00  0.00     0.134 A 
ATOM     58  F   UNL A   1      48.982  30.911  27.222  1.00  0.00    -0.206 F 
ATOM     59  C   UNL A   1      47.866  32.898  26.732  1.00  0.00     0.040 A 
ATOM     60  C   UNL A   1      45.509  32.918  26.352  1.00  0.00     0.040 A 
ATOM     61  F   UNL A   1      44.231  31.026  26.618  1.00  0.00    -0.206 F 
ATOM     62  C   UNL A   1      46.706  33.608  26.452  1.00  0.00     0.006 A 
ENDBRANCH  41  55
BRANCH  42  63
ATOM     63  C   UNL A   1      38.686  28.796  29.287  1.00  0.00     0.057 A 
ATOM     64  C   UNL A   1      37.757  28.936  30.327  1.00  0.00     0.134 A 
ATOM     65  C   UNL A   1      38.305  29.339  28.045  1.00  0.00     0.134 A 
ATOM     66  F   UNL A   1      38.042  28.489  31.558  1.00  0.00    -0.206 F 
ATOM     67  C   UNL A   1      36.533  29.599  30.152  1.00  0.00     0.040 A 
ATOM     68  C   UNL A   1      37.084  29.995  27.855  1.00  0.00     0.040 A 
ATOM     69  F   UNL A   1      39.139  29.330  26.997  1.00  0.00    -0.206 F 
ATOM     70  C   UNL A   1      36.197  30.141  28.914  1.00  0.00     0.006 A 
ENDBRANCH  42  63
BRANCH  54  71
ATOM     71  C   UNL A   1      44.042  27.887  32.482  1.00  0.00     0.057 A 
ATOM     72  C   UNL A   1      43.929  26.495  32.346  1.00  0.00     0.134 A 
ATOM     73  C   UNL A   1      44.170  28.380  33.786  1.00  0.00     0.134 A 
ATOM     74  F   UNL A   1      43.906  25.914  31.142  1.00  0.00    -0.206 F 
ATOM     75  C   UNL A   1      43.907  25.640  33.453  1.00  0.00     0.040 A 
ATOM     76  C   UNL A   1      44.183  27.535  34.899  1.00  0.00     0.040 A 
ATOM     77  F   UNL A   1      44.342  29.695  33.996  1.00  0.00    -0.206 F 
ATOM     78  C   UNL A   1      44.043  26.160  34.736  1.00  0.00     0.006 A 
ENDBRANCH  54  71
ENDBRANCH  28  29
ENDBRANCH  20  23
ENDBRANCH  18  19
ENDBRANCH  17  18
ENDBRANCH   1  17
TORSDOF 14
ENDMDL
MODEL 3
REMARK VINA RESULT:      -9.7      4.094      9.053
REMARK SMILES CCn1cc(Br)c(C(=O)NCCCCCCNC(=O)c2ccc(-c3c4nc(c(-c5c(F)cccc5F)c5ccc([nH]5)c(-c5c(F)cccc5F)c5nc(c(-c6c(F)cccc6F)c6ccc3[nH]6)C=C5)C=C4)cc2)n1
REMARK SMILES IDX 14 1 13 2 12 3 11 4 10 5 8 6 9 7 7 9 3 10 4 11 74 12 5 13
REMARK SMILES IDX 6 14 2 15 1 16 15 17 16 18 17 19 18 20 19 22 20 23 21 24
REMARK SMILES IDX 73 25 22 26 72 27 23 28 24 29 25 30 66 31 26 32 71 33 65 34
REMARK SMILES IDX 67 35 27 36 70 37 64 38 63 39 28 41 54 42 37 43 53 44 38 45
REMARK SMILES IDX 41 46 52 47 68 48 39 49 40 50 51 52 69 53 42 54 29 55 30 56
REMARK SMILES IDX 35 57 31 58 32 59 34 60 36 61 33 62 55 63 56 64 61 65 57 66
REMARK SMILES IDX 58 67 60 68 62 69 59 70 43 71 44 72 49 73 45 74 46 75 48 76
REMARK SMILES IDX 50 77 47 78
REMARK H PARENT 10 8 17 21 67 40 41 51
REMARK Flexibility Score: inf
ROOT
ATOM      1  C   UNL A   1      31.625  30.429  25.906  1.00  0.00     0.002 C 
ENDROOT
BRANCH   1   2
ATOM      2  C   UNL A   1      32.320  29.399  26.811  1.00  0.00     0.002 C 
BRANCH   2   3
ATOM      3  C   UNL A   1      31.528  28.122  27.108  1.00  0.00     0.021 C 
BRANCH   3   4
ATOM      4  C   UNL A   1      32.036  26.874  26.386  1.00  0.00     0.116 C 
BRANCH   4   5
ATOM      5  N   UNL A   1      31.518  25.661  26.990  1.00  0.00    -0.351 N 
ATOM      6  C   UNL A   1      31.662  24.330  26.667  1.00  0.00     0.272 C 
ATOM      7  O   UNL A   1      31.048  23.536  27.386  1.00  0.00    -0.267 OA
ATOM      8  H   UNL A   1      30.955  25.819  27.783  1.00  0.00     0.163 HD
BRANCH   6   9
ATOM      9  C   UNL A   1      32.513  23.877  25.547  1.00  0.00     0.164 A 
ATOM     10  N   UNL A   1      34.171  23.032  24.487  1.00  0.00    -0.271 N 
ATOM     11  C   UNL A   1      33.273  23.320  23.509  1.00  0.00     0.125 A 
ATOM     12  N   UNL A   1      33.745  23.354  25.716  1.00  0.00    -0.166 NA
ATOM     13  C   UNL A   1      32.201  23.876  24.159  1.00  0.00     0.069 A 
ATOM     14  Br  UNL A   1      30.633  24.477  23.329  1.00  0.00    -0.047 Br
BRANCH  10  15
ATOM     15  C   UNL A   1      35.454  22.369  24.339  1.00  0.00     0.141 C 
ATOM     16  C   UNL A   1      35.659  21.230  25.320  1.00  0.00     0.029 C 
ENDBRANCH  10  15
ENDBRANCH   6   9
ENDBRANCH   4   5
ENDBRANCH   3   4
ENDBRANCH   2   3
ENDBRANCH   1   2
BRANCH   1  17
ATOM     17  C   UNL A   1      31.359  31.813  26.516  1.00  0.00     0.021 C 
BRANCH  17  18
ATOM     18  C   UNL A   1      32.556  32.413  27.235  1.00  0.00     0.116 C 
BRANCH  18  19
ATOM     19  N   UNL A   1      32.352  33.816  27.598  1.00  0.00    -0.352 N 
ATOM     20  C   UNL A   1      33.008  34.546  28.575  1.00  0.00     0.251 C 
ATOM     21  H   UNL A   1      31.667  34.300  27.084  1.00  0.00     0.163 HD
ATOM     22  O   UNL A   1      32.529  35.562  29.045  1.00  0.00    -0.269 OA
BRANCH  20  23
ATOM     23  C   UNL A   1      34.325  34.064  29.024  1.00  0.00     0.039 A 
ATOM     24  C   UNL A   1      34.480  33.311  30.192  1.00  0.00     0.014 A 
ATOM     25  C   UNL A   1      35.410  34.351  28.204  1.00  0.00     0.014 A 
ATOM     26  C   UNL A   1      35.736  32.784  30.483  1.00  0.00     0.010 A 
ATOM     27  C   UNL A   1      36.586  33.684  28.392  1.00  0.00     0.010 A 
ATOM     28  C   UNL A   1      36.780  32.964  29.565  1.00  0.00    -0.014 A 
BRANCH  28  29
ATOM     29  C   UNL A   1      38.078  32.332  29.749  1.00  0.00     0.031 A 
ATOM     30  C   UNL A   1      38.162  30.920  29.288  1.00  0.00     0.074 A 
ATOM     31  C   UNL A   1      39.178  33.057  30.055  1.00  0.00     0.049 A 
ATOM     32  N   UNL A   1      38.391  29.868  30.003  1.00  0.00    -0.248 NA
ATOM     33  C   UNL A   1      37.827  30.619  27.886  1.00  0.00     0.031 C 
ATOM     34  C   UNL A   1      39.302  34.512  30.213  1.00  0.00     0.029 A 
ATOM     35  N   UNL A   1      40.467  32.643  30.157  1.00  0.00    -0.354 N 
ATOM     36  C   UNL A   1      38.440  28.798  29.113  1.00  0.00     0.074 A 
ATOM     37  C   UNL A   1      37.906  29.286  27.870  1.00  0.00     0.031 C 
ATOM     38  C   UNL A   1      40.602  34.869  30.132  1.00  0.00     0.029 A 
ATOM     39  C   UNL A   1      41.408  33.666  30.096  1.00  0.00     0.049 A 
ATOM     40  H   UNL A   1      40.715  31.697  30.264  1.00  0.00     0.167 HD
ATOM     41  C   UNL A   1      39.144  27.669  29.410  1.00  0.00     0.037 A 
ATOM     42  C   UNL A   1      42.750  33.510  29.976  1.00  0.00     0.037 A 
ATOM     43  C   UNL A   1      39.456  27.609  30.817  1.00  0.00     0.049 A 
ATOM     44  C   UNL A   1      43.062  32.117  30.395  1.00  0.00     0.074 A 
ATOM     45  C   UNL A   1      38.703  27.630  31.976  1.00  0.00     0.029 A 
ATOM     46  N   UNL A   1      40.737  27.927  31.206  1.00  0.00    -0.354 N 
ATOM     47  N   UNL A   1      42.930  31.688  31.621  1.00  0.00    -0.248 NA
ATOM     48  C   UNL A   1      43.033  31.086  29.366  1.00  0.00     0.031 C 
ATOM     49  C   UNL A   1      39.437  28.466  32.870  1.00  0.00     0.029 A 
ATOM     50  C   UNL A   1      40.628  28.824  32.238  1.00  0.00     0.049 A 
ATOM     51  H   UNL A   1      41.571  27.577  30.818  1.00  0.00     0.167 HD
ATOM     52  C   UNL A   1      42.374  30.423  31.496  1.00  0.00     0.074 A 
ATOM     53  C   UNL A   1      42.524  30.079  30.081  1.00  0.00     0.031 C 
ATOM     54  C   UNL A   1      41.568  29.897  32.466  1.00  0.00     0.037 A 
BRANCH  41  55
ATOM     55  C   UNL A   1      39.878  26.820  28.398  1.00  0.00     0.057 A 
ATOM     56  C   UNL A   1      40.753  27.445  27.490  1.00  0.00     0.134 A 
ATOM     57  C   UNL A   1      39.542  25.489  28.079  1.00  0.00     0.134 A 
ATOM     58  F   UNL A   1      41.150  28.714  27.677  1.00  0.00    -0.206 F 
ATOM     59  C   UNL A   1      41.181  26.827  26.308  1.00  0.00     0.040 A 
ATOM     60  C   UNL A   1      40.006  24.844  26.929  1.00  0.00     0.040 A 
ATOM     61  F   UNL A   1      38.671  24.771  28.798  1.00  0.00    -0.206 F 
ATOM     62  C   UNL A   1      40.798  25.525  26.019  1.00  0.00     0.006 A 
ENDBRANCH  41  55
BRANCH  42  63
ATOM     63  C   UNL A   1      43.715  34.364  29.243  1.00  0.00     0.057 A 
ATOM     64  C   UNL A   1      43.899  34.229  27.861  1.00  0.00     0.134 A 
ATOM     65  C   UNL A   1      44.284  35.510  29.829  1.00  0.00     0.134 A 
ATOM     66  F   UNL A   1      43.361  33.193  27.201  1.00  0.00    -0.206 F 
ATOM     67  C   UNL A   1      44.586  35.187  27.100  1.00  0.00     0.040 A 
ATOM     68  C   UNL A   1      44.979  36.470  29.084  1.00  0.00     0.040 A 
ATOM     69  F   UNL A   1      44.112  35.785  31.129  1.00  0.00    -0.206 F 
ATOM     70  C   UNL A   1      45.119  36.318  27.710  1.00  0.00     0.006 A 
ENDBRANCH  42  63
BRANCH  54  71
ATOM     71  C   UNL A   1      41.452  30.620  33.781  1.00  0.00     0.057 A 
ATOM     72  C   UNL A   1      40.487  31.600  34.062  1.00  0.00     0.134 A 
ATOM     73  C   UNL A   1      42.222  30.174  34.861  1.00  0.00     0.134 A 
ATOM     74  F   UNL A   1      39.631  32.020  33.125  1.00  0.00    -0.206 F 
ATOM     75  C   UNL A   1      40.321  32.133  35.344  1.00  0.00     0.040 A 
ATOM     76  C   UNL A   1      42.045  30.673  36.154  1.00  0.00     0.040 A 
ATOM     77  F   UNL A   1      43.126  29.196  34.687  1.00  0.00    -0.206 F 
ATOM     78  C   UNL A   1      41.097  31.663  36.398  1.00  0.00     0.006 A 
ENDBRANCH  54  71
ENDBRANCH  28  29
ENDBRANCH  20  23
ENDBRANCH  18  19
ENDBRANCH  17  18
ENDBRANCH   1  17
TORSDOF 14
ENDMDL
