MODEL 1
REMARK VINA RESULT:     -12.7      0.000      0.000
REMARK SMILES CC(C)Oc1ccc(-c2ccc(/C(=C\c3ccc(S(C)(=O)=O)cc3)C(=O)NCCCCCCNC(=O)c3ccc(-c4c5nc(c(-c6c(F)cccc6F)c6ccc([nH]6)c(-c6c(F)cccc6F)c6nc(c(-c7c(F)cccc7F)c7ccc4[nH]7)C=C6)C=C5)cc3)cc2)cc1
REMARK SMILES IDX 29 1 28 2 27 3 25 4 26 5 13 7 14 8 12 9 9 10 10 11 92 12
REMARK SMILES IDX 11 13 91 14 8 15 5 16 6 17 94 18 7 19 93 20 4 21 2 22 1 23
REMARK SMILES IDX 3 24 15 25 16 26 24 27 17 28 23 29 18 30 19 31 20 32 21 33
REMARK SMILES IDX 22 34 30 35 31 36 32 37 33 38 34 39 35 40 36 42 37 43 38 44
REMARK SMILES IDX 90 45 39 46 89 47 40 48 41 49 42 50 83 51 43 52 88 53 82 54
REMARK SMILES IDX 84 55 44 56 87 57 81 58 80 59 45 61 71 62 54 63 70 64 55 65
REMARK SMILES IDX 58 66 69 67 85 68 56 69 57 70 68 72 86 73 59 74 46 75 47 76
REMARK SMILES IDX 52 77 48 78 49 79 51 80 53 81 50 82 72 83 73 84 78 85 74 86
REMARK SMILES IDX 75 87 77 88 79 89 76 90 60 91 61 92 66 93 62 94 63 95 65 96
REMARK SMILES IDX 67 97 64 98
REMARK H PARENT 27 6 34 41 84 60 58 71
REMARK Flexibility Score: inf
ROOT
ATOM      1  C   UNL A   1      35.445  23.386  24.851  1.00  0.00     0.021 C 
ENDROOT
BRANCH   1   2
ATOM      2  C   UNL A   1      33.971  23.394  24.439  1.00  0.00     0.116 C 
BRANCH   2   3
ATOM      3  N   UNL A   1      33.133  23.352  25.617  1.00  0.00    -0.352 N 
ATOM      4  C   UNL A   1      32.206  24.168  26.178  1.00  0.00     0.251 C 
ATOM      5  O   UNL A   1      31.730  23.719  27.225  1.00  0.00    -0.269 OA
ATOM      6  H   UNL A   1      33.269  22.529  26.140  1.00  0.00     0.163 HD
BRANCH   4   7
ATOM      7  C   UNL A   1      31.715  25.483  25.577  1.00  0.00     0.047 C 
ATOM      8  C   UNL A   1      30.985  25.478  24.435  1.00  0.00     0.022 C 
BRANCH   7   9
ATOM      9  C   UNL A   1      32.202  26.777  26.180  1.00  0.00    -0.013 A 
ATOM     10  C   UNL A   1      33.053  29.411  26.972  1.00  0.00    -0.018 A 
ATOM     11  C   UNL A   1      31.812  28.890  27.360  1.00  0.00     0.009 A 
ATOM     12  C   UNL A   1      33.891  28.552  26.253  1.00  0.00     0.009 A 
ATOM     13  C   UNL A   1      31.423  27.583  27.021  1.00  0.00     0.009 A 
ATOM     14  C   UNL A   1      33.461  27.287  25.834  1.00  0.00     0.009 A 
BRANCH  10  15
ATOM     15  C   UNL A   1      33.471  30.797  27.294  1.00  0.00    -0.018 A 
ATOM     16  C   UNL A   1      34.285  33.421  28.007  1.00  0.00     0.119 A 
ATOM     17  C   UNL A   1      32.961  33.159  27.667  1.00  0.00     0.047 A 
ATOM     18  C   UNL A   1      35.204  32.382  28.000  1.00  0.00     0.047 A 
ATOM     19  C   UNL A   1      32.559  31.865  27.313  1.00  0.00     0.012 A 
ATOM     20  C   UNL A   1      34.806  31.096  27.622  1.00  0.00     0.012 A 
BRANCH  16  21
ATOM     21  O   UNL A   1      34.561  34.676  28.463  1.00  0.00    -0.491 OA
BRANCH  21  22
ATOM     22  C   UNL A   1      33.535  35.418  29.139  1.00  0.00     0.167 C 
ATOM     23  C   UNL A   1      33.570  35.279  30.658  1.00  0.00     0.052 C 
ATOM     24  C   UNL A   1      33.423  36.868  28.677  1.00  0.00     0.052 C 
ENDBRANCH  21  22
ENDBRANCH  16  21
ENDBRANCH  10  15
ENDBRANCH   7   9
BRANCH   8  25
ATOM     25  C   UNL A   1      30.289  26.593  23.774  1.00  0.00    -0.025 A 
ATOM     26  C   UNL A   1      28.888  26.660  23.874  1.00  0.00     0.009 A 
ATOM     27  C   UNL A   1      30.984  27.617  23.124  1.00  0.00     0.009 A 
ATOM     28  C   UNL A   1      28.192  27.763  23.375  1.00  0.00     0.021 A 
ATOM     29  C   UNL A   1      30.293  28.724  22.623  1.00  0.00     0.021 A 
ATOM     30  C   UNL A   1      28.902  28.793  22.754  1.00  0.00     0.067 A 
BRANCH  30  31
ATOM     31  S   UNL A   1      28.029  30.246  22.217  1.00  0.00     0.175 S 
ATOM     32  C   UNL A   1      29.185  31.558  22.501  1.00  0.00     0.163 C 
ATOM     33  O   UNL A   1      27.826  30.119  20.788  1.00  0.00    -0.224 OA
ATOM     34  O   UNL A   1      26.905  30.441  23.114  1.00  0.00    -0.224 OA
ENDBRANCH  30  31
ENDBRANCH   8  25
ENDBRANCH   4   7
ENDBRANCH   2   3
ENDBRANCH   1   2
BRANCH   1  35
ATOM     35  C   UNL A   1      36.265  22.285  24.158  1.00  0.00     0.002 C 
BRANCH  35  36
ATOM     36  C   UNL A   1      37.697  22.123  24.683  1.00  0.00     0.002 C 
BRANCH  36  37
ATOM     37  C   UNL A   1      38.099  20.680  24.988  1.00  0.00     0.021 C 
BRANCH  37  38
ATOM     38  C   UNL A   1      38.945  20.539  26.246  1.00  0.00     0.116 C 
BRANCH  38  39
ATOM     39  N   UNL A   1      39.869  19.418  26.142  1.00  0.00    -0.352 N 
ATOM     40  C   UNL A   1      41.238  19.448  26.073  1.00  0.00     0.251 C 
ATOM     41  H   UNL A   1      39.457  18.524  26.117  1.00  0.00     0.163 HD
ATOM     42  O   UNL A   1      41.877  18.455  25.747  1.00  0.00    -0.269 OA
BRANCH  40  43
ATOM     43  C   UNL A   1      41.932  20.710  26.390  1.00  0.00     0.039 A 
ATOM     44  C   UNL A   1      42.252  21.598  25.362  1.00  0.00     0.014 A 
ATOM     45  C   UNL A   1      42.220  21.023  27.722  1.00  0.00     0.014 A 
ATOM     46  C   UNL A   1      42.808  22.839  25.678  1.00  0.00     0.010 A 
ATOM     47  C   UNL A   1      42.697  22.286  28.038  1.00  0.00     0.010 A 
ATOM     48  C   UNL A   1      43.000  23.204  27.020  1.00  0.00    -0.014 A 
BRANCH  48  49
ATOM     49  C   UNL A   1      43.533  24.533  27.406  1.00  0.00     0.031 A 
ATOM     50  C   UNL A   1      42.587  25.594  27.893  1.00  0.00     0.074 A 
ATOM     51  C   UNL A   1      44.836  24.815  27.222  1.00  0.00     0.049 A 
ATOM     52  N   UNL A   1      42.813  26.861  28.129  1.00  0.00    -0.248 NA
ATOM     53  C   UNL A   1      41.192  25.179  28.110  1.00  0.00     0.031 C 
ATOM     54  C   UNL A   1      45.847  23.876  26.735  1.00  0.00     0.029 A 
ATOM     55  N   UNL A   1      45.528  25.985  27.406  1.00  0.00    -0.354 N 
ATOM     56  C   UNL A   1      41.586  27.396  28.502  1.00  0.00     0.074 A 
ATOM     57  C   UNL A   1      40.611  26.332  28.400  1.00  0.00     0.031 C 
ATOM     58  C   UNL A   1      47.034  24.501  26.678  1.00  0.00     0.029 A 
ATOM     59  C   UNL A   1      46.858  25.895  27.074  1.00  0.00     0.049 A 
ATOM     60  H   UNL A   1      45.112  26.810  27.745  1.00  0.00     0.167 HD
ATOM     61  C   UNL A   1      41.303  28.654  28.915  1.00  0.00     0.037 A 
ATOM     62  C   UNL A   1      47.820  26.836  27.072  1.00  0.00     0.037 A 
ATOM     63  C   UNL A   1      42.281  29.704  29.021  1.00  0.00     0.049 A 
ATOM     64  C   UNL A   1      47.473  28.240  27.486  1.00  0.00     0.074 A 
ATOM     65  C   UNL A   1      42.107  31.004  29.461  1.00  0.00     0.029 A 
ATOM     66  N   UNL A   1      43.620  29.571  28.679  1.00  0.00    -0.354 N 
ATOM     67  N   UNL A   1      46.319  28.727  27.875  1.00  0.00    -0.248 NA
ATOM     68  C   UNL A   1      48.562  29.226  27.460  1.00  0.00     0.031 C 
ATOM     69  C   UNL A   1      43.329  31.673  29.335  1.00  0.00     0.029 A 
ATOM     70  C   UNL A   1      44.279  30.774  28.876  1.00  0.00     0.049 A 
ATOM     71  H   UNL A   1      44.039  28.746  28.345  1.00  0.00     0.167 HD
ATOM     72  C   UNL A   1      46.552  30.062  28.182  1.00  0.00     0.074 A 
ATOM     73  C   UNL A   1      47.958  30.307  27.931  1.00  0.00     0.031 C 
ATOM     74  C   UNL A   1      45.683  30.997  28.637  1.00  0.00     0.037 A 
BRANCH  61  75
ATOM     75  C   UNL A   1      39.873  28.954  29.267  1.00  0.00     0.057 A 
ATOM     76  C   UNL A   1      38.934  29.334  28.298  1.00  0.00     0.134 A 
ATOM     77  C   UNL A   1      39.429  28.866  30.593  1.00  0.00     0.134 A 
ATOM     78  F   UNL A   1      39.295  29.450  27.011  1.00  0.00    -0.206 F 
ATOM     79  C   UNL A   1      37.619  29.657  28.639  1.00  0.00     0.040 A 
ATOM     80  C   UNL A   1      38.108  29.153  30.941  1.00  0.00     0.040 A 
ATOM     81  F   UNL A   1      40.270  28.502  31.572  1.00  0.00    -0.206 F 
ATOM     82  C   UNL A   1      37.203  29.562  29.964  1.00  0.00     0.006 A 
ENDBRANCH  61  75
BRANCH  62  83
ATOM     83  C   UNL A   1      49.210  26.476  26.694  1.00  0.00     0.057 A 
ATOM     84  C   UNL A   1      50.054  25.829  27.604  1.00  0.00     0.134 A 
ATOM     85  C   UNL A   1      49.728  26.763  25.426  1.00  0.00     0.134 A 
ATOM     86  F   UNL A   1      49.619  25.543  28.840  1.00  0.00    -0.206 F 
ATOM     87  C   UNL A   1      51.368  25.495  27.274  1.00  0.00     0.040 A 
ATOM     88  C   UNL A   1      51.033  26.411  25.073  1.00  0.00     0.040 A 
ATOM     89  F   UNL A   1      48.969  27.373  24.504  1.00  0.00    -0.206 F 
ATOM     90  C   UNL A   1      51.859  25.781  26.002  1.00  0.00     0.006 A 
ENDBRANCH  62  83
BRANCH  74  91
ATOM     91  C   UNL A   1      46.234  32.358  28.952  1.00  0.00     0.057 A 
ATOM     92  C   UNL A   1      46.695  32.699  30.229  1.00  0.00     0.134 A 
ATOM     93  C   UNL A   1      46.355  33.323  27.942  1.00  0.00     0.134 A 
ATOM     94  F   UNL A   1      46.596  31.827  31.244  1.00  0.00    -0.206 F 
ATOM     95  C   UNL A   1      47.238  33.957  30.496  1.00  0.00     0.040 A 
ATOM     96  C   UNL A   1      46.924  34.571  28.190  1.00  0.00     0.040 A 
ATOM     97  F   UNL A   1      45.942  33.057  26.694  1.00  0.00    -0.206 F 
ATOM     98  C   UNL A   1      47.363  34.894  29.471  1.00  0.00     0.006 A 
ENDBRANCH  74  91
ENDBRANCH  48  49
ENDBRANCH  40  43
ENDBRANCH  38  39
ENDBRANCH  37  38
ENDBRANCH  36  37
ENDBRANCH  35  36
ENDBRANCH   1  35
TORSDOF 19
ENDMDL
MODEL 2
REMARK VINA RESULT:     -12.2      4.265      9.596
REMARK SMILES CC(C)Oc1ccc(-c2ccc(/C(=C\c3ccc(S(C)(=O)=O)cc3)C(=O)NCCCCCCNC(=O)c3ccc(-c4c5nc(c(-c6c(F)cccc6F)c6ccc([nH]6)c(-c6c(F)cccc6F)c6nc(c(-c7c(F)cccc7F)c7ccc4[nH]7)C=C6)C=C5)cc3)cc2)cc1
REMARK SMILES IDX 29 1 28 2 27 3 25 4 26 5 13 7 14 8 12 9 9 10 10 11 92 12
REMARK SMILES IDX 11 13 91 14 8 15 5 16 6 17 94 18 7 19 93 20 4 21 2 22 1 23
REMARK SMILES IDX 3 24 15 25 16 26 24 27 17 28 23 29 18 30 19 31 20 32 21 33
REMARK SMILES IDX 22 34 30 35 31 36 32 37 33 38 34 39 35 40 36 42 37 43 38 44
REMARK SMILES IDX 90 45 39 46 89 47 40 48 41 49 42 50 83 51 43 52 88 53 82 54
REMARK SMILES IDX 84 55 44 56 87 57 81 58 80 59 45 61 71 62 54 63 70 64 55 65
REMARK SMILES IDX 58 66 69 67 85 68 56 69 57 70 68 72 86 73 59 74 46 75 47 76
REMARK SMILES IDX 52 77 48 78 49 79 51 80 53 81 50 82 72 83 73 84 78 85 74 86
REMARK SMILES IDX 75 87 77 88 79 89 76 90 60 91 61 92 66 93 62 94 63 95 65 96
REMARK SMILES IDX 67 97 64 98
REMARK H PARENT 27 6 34 41 84 60 58 71
REMARK Flexibility Score: inf
ROOT
ATOM      1  C   UNL A   1      31.780  26.939  26.614  1.00  0.00     0.021 C 
ENDROOT
BRANCH   1   2
ATOM      2  C   UNL A   1      30.712  26.406  25.655  1.00  0.00     0.116 C 
BRANCH   2   3
ATOM      3  N   UNL A   1      31.167  26.547  24.289  1.00  0.00    -0.352 N 
ATOM      4  C   UNL A   1      31.878  25.787  23.420  1.00  0.00     0.251 C 
ATOM      5  O   UNL A   1      32.040  26.324  22.321  1.00  0.00    -0.269 OA
ATOM      6  H   UNL A   1      30.892  27.406  23.893  1.00  0.00     0.163 HD
BRANCH   4   7
ATOM      7  C   UNL A   1      32.385  24.374  23.701  1.00  0.00     0.047 C 
ATOM      8  C   UNL A   1      31.528  23.324  23.667  1.00  0.00     0.022 C 
BRANCH   7   9
ATOM      9  C   UNL A   1      33.805  24.199  24.180  1.00  0.00    -0.013 A 
ATOM     10  C   UNL A   1      36.395  23.508  25.230  1.00  0.00    -0.018 A 
ATOM     11  C   UNL A   1      36.114  23.442  23.859  1.00  0.00     0.009 A 
ATOM     12  C   UNL A   1      35.379  24.011  26.050  1.00  0.00     0.009 A 
ATOM     13  C   UNL A   1      34.867  23.834  23.342  1.00  0.00     0.009 A 
ATOM     14  C   UNL A   1      34.107  24.308  25.544  1.00  0.00     0.009 A 
BRANCH  10  15
ATOM     15  C   UNL A   1      37.692  23.070  25.799  1.00  0.00    -0.018 A 
ATOM     16  C   UNL A   1      40.224  22.305  26.832  1.00  0.00     0.119 A 
ATOM     17  C   UNL A   1      39.519  21.455  25.983  1.00  0.00     0.047 A 
ATOM     18  C   UNL A   1      39.677  23.536  27.164  1.00  0.00     0.047 A 
ATOM     19  C   UNL A   1      38.269  21.832  25.475  1.00  0.00     0.012 A 
ATOM     20  C   UNL A   1      38.418  23.900  26.675  1.00  0.00     0.012 A 
BRANCH  16  21
ATOM     21  O   UNL A   1      41.485  21.917  27.174  1.00  0.00    -0.491 OA
BRANCH  21  22
ATOM     22  C   UNL A   1      42.029  20.717  26.603  1.00  0.00     0.167 C 
ATOM     23  C   UNL A   1      43.322  20.936  25.822  1.00  0.00     0.052 C 
ATOM     24  C   UNL A   1      42.118  19.555  27.587  1.00  0.00     0.052 C 
ENDBRANCH  21  22
ENDBRANCH  16  21
ENDBRANCH  10  15
ENDBRANCH   7   9
BRANCH   8  25
ATOM     25  C   UNL A   1      31.820  21.885  23.751  1.00  0.00    -0.025 A 
ATOM     26  C   UNL A   1      31.924  21.152  22.554  1.00  0.00     0.009 A 
ATOM     27  C   UNL A   1      32.071  21.251  24.971  1.00  0.00     0.009 A 
ATOM     28  C   UNL A   1      32.324  19.815  22.573  1.00  0.00     0.021 A 
ATOM     29  C   UNL A   1      32.473  19.912  24.997  1.00  0.00     0.021 A 
ATOM     30  C   UNL A   1      32.600  19.203  23.797  1.00  0.00     0.067 A 
BRANCH  30  31
ATOM     31  S   UNL A   1      33.215  17.534  23.813  1.00  0.00     0.175 S 
ATOM     32  C   UNL A   1      34.876  17.705  24.409  1.00  0.00     0.163 C 
ATOM     33  O   UNL A   1      32.448  16.806  24.804  1.00  0.00    -0.224 OA
ATOM     34  O   UNL A   1      33.280  17.076  22.438  1.00  0.00    -0.224 OA
ENDBRANCH  30  31
ENDBRANCH   8  25
ENDBRANCH   4   7
ENDBRANCH   2   3
ENDBRANCH   1   2
BRANCH   1  35
ATOM     35  C   UNL A   1      31.416  28.297  27.236  1.00  0.00     0.002 C 
BRANCH  35  36
ATOM     36  C   UNL A   1      32.375  29.441  26.888  1.00  0.00     0.002 C 
BRANCH  36  37
ATOM     37  C   UNL A   1      31.756  30.837  26.981  1.00  0.00     0.021 C 
BRANCH  37  38
ATOM     38  C   UNL A   1      32.705  31.951  26.562  1.00  0.00     0.116 C 
BRANCH  38  39
ATOM     39  N   UNL A   1      32.410  33.191  27.266  1.00  0.00    -0.352 N 
ATOM     40  C   UNL A   1      33.066  33.737  28.340  1.00  0.00     0.251 C 
ATOM     41  H   UNL A   1      31.642  33.705  26.926  1.00  0.00     0.163 HD
ATOM     42  O   UNL A   1      32.572  34.656  28.983  1.00  0.00    -0.269 OA
BRANCH  40  43
ATOM     43  C   UNL A   1      34.380  33.184  28.718  1.00  0.00     0.039 A 
ATOM     44  C   UNL A   1      35.546  33.830  28.300  1.00  0.00     0.014 A 
ATOM     45  C   UNL A   1      34.444  32.049  29.530  1.00  0.00     0.014 A 
ATOM     46  C   UNL A   1      36.783  33.368  28.751  1.00  0.00     0.010 A 
ATOM     47  C   UNL A   1      35.667  31.642  30.041  1.00  0.00     0.010 A 
ATOM     48  C   UNL A   1      36.848  32.294  29.654  1.00  0.00    -0.014 A 
BRANCH  48  49
ATOM     49  C   UNL A   1      38.135  31.808  30.206  1.00  0.00     0.031 A 
ATOM     50  C   UNL A   1      38.669  32.410  31.475  1.00  0.00     0.074 A 
ATOM     51  C   UNL A   1      38.865  30.909  29.521  1.00  0.00     0.049 A 
ATOM     52  N   UNL A   1      39.837  32.249  32.042  1.00  0.00    -0.248 NA
ATOM     53  C   UNL A   1      37.779  33.347  32.180  1.00  0.00     0.031 C 
ATOM     54  C   UNL A   1      38.464  30.269  28.267  1.00  0.00     0.029 A 
ATOM     55  N   UNL A   1      40.110  30.393  29.775  1.00  0.00    -0.354 N 
ATOM     56  C   UNL A   1      39.828  33.078  33.158  1.00  0.00     0.074 A 
ATOM     57  C   UNL A   1      38.566  33.785  33.150  1.00  0.00     0.031 C 
ATOM     58  C   UNL A   1      39.436  29.431  27.872  1.00  0.00     0.029 A 
ATOM     59  C   UNL A   1      40.548  29.514  28.815  1.00  0.00     0.049 A 
ATOM     60  H   UNL A   1      40.639  30.630  30.570  1.00  0.00     0.167 HD
ATOM     61  C   UNL A   1      40.776  33.219  34.113  1.00  0.00     0.037 A 
ATOM     62  C   UNL A   1      41.720  28.862  28.700  1.00  0.00     0.037 A 
ATOM     63  C   UNL A   1      42.026  32.505  34.117  1.00  0.00     0.049 A 
ATOM     64  C   UNL A   1      42.780  29.071  29.747  1.00  0.00     0.074 A 
ATOM     65  C   UNL A   1      43.041  32.547  35.055  1.00  0.00     0.029 A 
ATOM     66  N   UNL A   1      42.429  31.619  33.128  1.00  0.00    -0.354 N 
ATOM     67  N   UNL A   1      42.748  29.826  30.819  1.00  0.00    -0.248 NA
ATOM     68  C   UNL A   1      44.041  28.339  29.567  1.00  0.00     0.031 C 
ATOM     69  C   UNL A   1      44.083  31.728  34.607  1.00  0.00     0.029 A 
ATOM     70  C   UNL A   1      43.691  31.126  33.422  1.00  0.00     0.049 A 
ATOM     71  H   UNL A   1      41.899  31.376  32.335  1.00  0.00     0.167 HD
ATOM     72  C   UNL A   1      43.962  29.626  31.464  1.00  0.00     0.074 A 
ATOM     73  C   UNL A   1      44.708  28.680  30.660  1.00  0.00     0.031 C 
ATOM     74  C   UNL A   1      44.413  30.171  32.619  1.00  0.00     0.037 A 
BRANCH  61  75
ATOM     75  C   UNL A   1      40.492  34.192  35.222  1.00  0.00     0.057 A 
ATOM     76  C   UNL A   1      40.924  35.525  35.169  1.00  0.00     0.134 A 
ATOM     77  C   UNL A   1      39.781  33.793  36.361  1.00  0.00     0.134 A 
ATOM     78  F   UNL A   1      41.622  35.971  34.112  1.00  0.00    -0.206 F 
ATOM     79  C   UNL A   1      40.698  36.412  36.222  1.00  0.00     0.040 A 
ATOM     80  C   UNL A   1      39.518  34.680  37.407  1.00  0.00     0.040 A 
ATOM     81  F   UNL A   1      39.330  32.535  36.479  1.00  0.00    -0.206 F 
ATOM     82  C   UNL A   1      39.989  35.990  37.344  1.00  0.00     0.006 A 
ENDBRANCH  61  75
BRANCH  62  83
ATOM     83  C   UNL A   1      41.943  27.928  27.568  1.00  0.00     0.057 A 
ATOM     84  C   UNL A   1      42.281  28.411  26.297  1.00  0.00     0.134 A 
ATOM     85  C   UNL A   1      41.829  26.542  27.720  1.00  0.00     0.134 A 
ATOM     86  F   UNL A   1      42.388  29.731  26.086  1.00  0.00    -0.206 F 
ATOM     87  C   UNL A   1      42.481  27.552  25.217  1.00  0.00     0.040 A 
ATOM     88  C   UNL A   1      42.052  25.669  26.654  1.00  0.00     0.040 A 
ATOM     89  F   UNL A   1      41.517  26.014  28.913  1.00  0.00    -0.206 F 
ATOM     90  C   UNL A   1      42.372  26.174  25.396  1.00  0.00     0.006 A 
ENDBRANCH  62  83
BRANCH  74  91
ATOM     91  C   UNL A   1      45.754  29.715  33.121  1.00  0.00     0.057 A 
ATOM     92  C   UNL A   1      46.940  30.381  32.793  1.00  0.00     0.134 A 
ATOM     93  C   UNL A   1      45.846  28.621  33.993  1.00  0.00     0.134 A 
ATOM     94  F   UNL A   1      46.923  31.428  31.954  1.00  0.00    -0.206 F 
ATOM     95  C   UNL A   1      48.173  29.965  33.299  1.00  0.00     0.040 A 
ATOM     96  C   UNL A   1      47.068  28.214  34.528  1.00  0.00     0.040 A 
ATOM     97  F   UNL A   1      44.746  27.944  34.355  1.00  0.00    -0.206 F 
ATOM     98  C   UNL A   1      48.237  28.883  34.177  1.00  0.00     0.006 A 
ENDBRANCH  74  91
ENDBRANCH  48  49
ENDBRANCH  40  43
ENDBRANCH  38  39
ENDBRANCH  37  38
ENDBRANCH  36  37
ENDBRANCH  35  36
ENDBRANCH   1  35
TORSDOF 19
ENDMDL
MODEL 3
REMARK VINA RESULT:     -11.5      5.023      9.913
REMARK SMILES CC(C)Oc1ccc(-c2ccc(/C(=C\c3ccc(S(C)(=O)=O)cc3)C(=O)NCCCCCCNC(=O)c3ccc(-c4c5nc(c(-c6c(F)cccc6F)c6ccc([nH]6)c(-c6c(F)cccc6F)c6nc(c(-c7c(F)cccc7F)c7ccc4[nH]7)C=C6)C=C5)cc3)cc2)cc1
REMARK SMILES IDX 29 1 28 2 27 3 25 4 26 5 13 7 14 8 12 9 9 10 10 11 92 12
REMARK SMILES IDX 11 13 91 14 8 15 5 16 6 17 94 18 7 19 93 20 4 21 2 22 1 23
REMARK SMILES IDX 3 24 15 25 16 26 24 27 17 28 23 29 18 30 19 31 20 32 21 33
REMARK SMILES IDX 22 34 30 35 31 36 32 37 33 38 34 39 35 40 36 42 37 43 38 44
REMARK SMILES IDX 90 45 39 46 89 47 40 48 41 49 42 50 83 51 43 52 88 53 82 54
REMARK SMILES IDX 84 55 44 56 87 57 81 58 80 59 45 61 71 62 54 63 70 64 55 65
REMARK SMILES IDX 58 66 69 67 85 68 56 69 57 70 68 72 86 73 59 74 46 75 47 76
REMARK SMILES IDX 52 77 48 78 49 79 51 80 53 81 50 82 72 83 73 84 78 85 74 86
REMARK SMILES IDX 75 87 77 88 79 89 76 90 60 91 61 92 66 93 62 94 63 95 65 96
REMARK SMILES IDX 67 97 64 98
REMARK H PARENT 27 6 34 41 84 60 58 71
REMARK Flexibility Score: inf
ROOT
ATOM      1  C   UNL A   1      33.075  26.716  26.005  1.00  0.00     0.021 C 
ENDROOT
BRANCH   1   2
ATOM      2  C   UNL A   1      31.980  25.885  25.332  1.00  0.00     0.116 C 
BRANCH   2   3
ATOM      3  N   UNL A   1      32.273  25.737  23.924  1.00  0.00    -0.352 N 
ATOM      4  C   UNL A   1      32.788  24.761  23.137  1.00  0.00     0.251 C 
ATOM      5  O   UNL A   1      32.867  25.082  21.948  1.00  0.00    -0.269 OA
ATOM      6  H   UNL A   1      32.042  26.545  23.410  1.00  0.00     0.163 HD
BRANCH   4   7
ATOM      7  C   UNL A   1      33.177  23.363  23.614  1.00  0.00     0.047 C 
ATOM      8  C   UNL A   1      32.293  22.340  23.514  1.00  0.00     0.022 C 
BRANCH   7   9
ATOM      9  C   UNL A   1      34.484  23.189  24.346  1.00  0.00    -0.013 A 
ATOM     10  C   UNL A   1      37.094  23.195  25.563  1.00  0.00    -0.018 A 
ATOM     11  C   UNL A   1      35.949  23.586  26.271  1.00  0.00     0.009 A 
ATOM     12  C   UNL A   1      36.888  22.720  24.264  1.00  0.00     0.009 A 
ATOM     13  C   UNL A   1      34.669  23.528  25.693  1.00  0.00     0.009 A 
ATOM     14  C   UNL A   1      35.626  22.755  23.659  1.00  0.00     0.009 A 
BRANCH  10  15
ATOM     15  C   UNL A   1      38.456  23.278  26.143  1.00  0.00    -0.018 A 
ATOM     16  C   UNL A   1      41.092  23.495  27.172  1.00  0.00     0.119 A 
ATOM     17  C   UNL A   1      40.618  22.277  26.693  1.00  0.00     0.047 A 
ATOM     18  C   UNL A   1      40.264  24.607  27.135  1.00  0.00     0.047 A 
ATOM     19  C   UNL A   1      39.316  22.170  26.187  1.00  0.00     0.012 A 
ATOM     20  C   UNL A   1      38.956  24.491  26.652  1.00  0.00     0.012 A 
BRANCH  16  21
ATOM     21  O   UNL A   1      42.409  23.541  27.524  1.00  0.00    -0.491 OA
BRANCH  21  22
ATOM     22  C   UNL A   1      43.411  23.289  26.528  1.00  0.00     0.167 C 
ATOM     23  C   UNL A   1      43.248  24.126  25.262  1.00  0.00     0.052 C 
ATOM     24  C   UNL A   1      44.836  23.306  27.073  1.00  0.00     0.052 C 
ENDBRANCH  21  22
ENDBRANCH  16  21
ENDBRANCH  10  15
ENDBRANCH   7   9
BRANCH   8  25
ATOM     25  C   UNL A   1      32.503  20.905  23.763  1.00  0.00    -0.025 A 
ATOM     26  C   UNL A   1      32.201  19.997  22.732  1.00  0.00     0.009 A 
ATOM     27  C   UNL A   1      33.061  20.435  24.955  1.00  0.00     0.009 A 
ATOM     28  C   UNL A   1      32.501  18.640  22.870  1.00  0.00     0.021 A 
ATOM     29  C   UNL A   1      33.364  19.078  25.099  1.00  0.00     0.021 A 
ATOM     30  C   UNL A   1      33.085  18.189  24.055  1.00  0.00     0.067 A 
BRANCH  30  31
ATOM     31  S   UNL A   1      33.568  16.482  24.188  1.00  0.00     0.175 S 
ATOM     32  C   UNL A   1      34.994  16.531  25.239  1.00  0.00     0.163 C 
ATOM     33  O   UNL A   1      32.506  15.792  24.893  1.00  0.00    -0.224 OA
ATOM     34  O   UNL A   1      33.997  16.042  22.874  1.00  0.00    -0.224 OA
ENDBRANCH  30  31
ENDBRANCH   8  25
ENDBRANCH   4   7
ENDBRANCH   2   3
ENDBRANCH   1   2
BRANCH   1  35
ATOM     35  C   UNL A   1      32.545  27.995  26.674  1.00  0.00     0.002 C 
BRANCH  35  36
ATOM     36  C   UNL A   1      33.528  29.172  26.682  1.00  0.00     0.002 C 
BRANCH  36  37
ATOM     37  C   UNL A   1      32.947  30.477  27.227  1.00  0.00     0.021 C 
BRANCH  37  38
ATOM     38  C   UNL A   1      34.002  31.538  27.512  1.00  0.00     0.116 C 
BRANCH  38  39
ATOM     39  N   UNL A   1      33.392  32.809  27.876  1.00  0.00    -0.352 N 
ATOM     40  C   UNL A   1      33.662  33.603  28.961  1.00  0.00     0.251 C 
ATOM     41  H   UNL A   1      32.696  33.141  27.263  1.00  0.00     0.163 HD
ATOM     42  O   UNL A   1      32.913  34.520  29.276  1.00  0.00    -0.269 OA
BRANCH  40  43
ATOM     43  C   UNL A   1      34.873  33.323  29.755  1.00  0.00     0.039 A 
ATOM     44  C   UNL A   1      34.826  32.363  30.768  1.00  0.00     0.014 A 
ATOM     45  C   UNL A   1      36.065  33.987  29.453  1.00  0.00     0.014 A 
ATOM     46  C   UNL A   1      36.000  32.022  31.442  1.00  0.00     0.010 A 
ATOM     47  C   UNL A   1      37.242  33.590  30.068  1.00  0.00     0.010 A 
ATOM     48  C   UNL A   1      37.222  32.608  31.070  1.00  0.00    -0.014 A 
BRANCH  48  49
ATOM     49  C   UNL A   1      38.502  32.234  31.717  1.00  0.00     0.031 A 
ATOM     50  C   UNL A   1      38.846  32.808  33.062  1.00  0.00     0.074 A 
ATOM     51  C   UNL A   1      39.391  31.469  31.057  1.00  0.00     0.049 A 
ATOM     52  N   UNL A   1      39.969  32.743  33.730  1.00  0.00    -0.248 NA
ATOM     53  C   UNL A   1      37.793  33.591  33.728  1.00  0.00     0.031 C 
ATOM     54  C   UNL A   1      39.182  30.871  29.737  1.00  0.00     0.029 A 
ATOM     55  N   UNL A   1      40.661  31.080  31.401  1.00  0.00    -0.354 N 
ATOM     56  C   UNL A   1      39.764  33.491  34.882  1.00  0.00     0.074 A 
ATOM     57  C   UNL A   1      38.432  34.051  34.792  1.00  0.00     0.031 C 
ATOM     58  C   UNL A   1      40.277  30.175  29.393  1.00  0.00     0.029 A 
ATOM     59  C   UNL A   1      41.283  30.320  30.441  1.00  0.00     0.049 A 
ATOM     60  H   UNL A   1      41.085  31.323  32.255  1.00  0.00     0.167 HD
ATOM     61  C   UNL A   1      40.599  33.674  35.931  1.00  0.00     0.037 A 
ATOM     62  C   UNL A   1      42.529  29.813  30.405  1.00  0.00     0.037 A 
ATOM     63  C   UNL A   1      41.919  33.106  36.016  1.00  0.00     0.049 A 
ATOM     64  C   UNL A   1      43.459  30.071  31.558  1.00  0.00     0.074 A 
ATOM     65  C   UNL A   1      42.835  33.201  37.048  1.00  0.00     0.029 A 
ATOM     66  N   UNL A   1      42.511  32.337  35.024  1.00  0.00    -0.354 N 
ATOM     67  N   UNL A   1      43.243  30.746  32.661  1.00  0.00    -0.248 NA
ATOM     68  C   UNL A   1      44.809  29.498  31.461  1.00  0.00     0.031 C 
ATOM     69  C   UNL A   1      44.001  32.534  36.659  1.00  0.00     0.029 A 
ATOM     70  C   UNL A   1      43.790  31.971  35.410  1.00  0.00     0.049 A 
ATOM     71  H   UNL A   1      42.086  32.089  34.171  1.00  0.00     0.167 HD
ATOM     72  C   UNL A   1      44.409  30.642  33.408  1.00  0.00     0.074 A 
ATOM     73  C   UNL A   1      45.331  29.840  32.630  1.00  0.00     0.031 C 
ATOM     74  C   UNL A   1      44.689  31.158  34.630  1.00  0.00     0.037 A 
BRANCH  61  75
ATOM     75  C   UNL A   1      40.105  34.536  37.058  1.00  0.00     0.057 A 
ATOM     76  C   UNL A   1      40.330  35.920  37.090  1.00  0.00     0.134 A 
ATOM     77  C   UNL A   1      39.397  33.976  38.130  1.00  0.00     0.134 A 
ATOM     78  F   UNL A   1      41.013  36.519  36.102  1.00  0.00    -0.206 F 
ATOM     79  C   UNL A   1      39.910  36.707  38.163  1.00  0.00     0.040 A 
ATOM     80  C   UNL A   1      38.941  34.759  39.193  1.00  0.00     0.040 A 
ATOM     81  F   UNL A   1      39.138  32.661  38.165  1.00  0.00    -0.206 F 
ATOM     82  C   UNL A   1      39.208  36.125  39.216  1.00  0.00     0.006 A 
ENDBRANCH  61  75
BRANCH  62  83
ATOM     83  C   UNL A   1      42.961  28.985  29.250  1.00  0.00     0.057 A 
ATOM     84  C   UNL A   1      42.859  27.589  29.293  1.00  0.00     0.134 A 
ATOM     85  C   UNL A   1      43.478  29.558  28.083  1.00  0.00     0.134 A 
ATOM     86  F   UNL A   1      42.386  26.982  30.391  1.00  0.00    -0.206 F 
ATOM     87  C   UNL A   1      43.272  26.792  28.225  1.00  0.00     0.040 A 
ATOM     88  C   UNL A   1      43.871  28.774  26.997  1.00  0.00     0.040 A 
ATOM     89  F   UNL A   1      43.594  30.890  27.974  1.00  0.00    -0.206 F 
ATOM     90  C   UNL A   1      43.775  27.386  27.069  1.00  0.00     0.006 A 
ENDBRANCH  62  83
BRANCH  74  91
ATOM     91  C   UNL A   1      46.023  30.823  35.233  1.00  0.00     0.057 A 
ATOM     92  C   UNL A   1      47.148  31.638  35.058  1.00  0.00     0.134 A 
ATOM     93  C   UNL A   1      46.166  29.691  36.048  1.00  0.00     0.134 A 
ATOM     94  F   UNL A   1      47.083  32.729  34.279  1.00  0.00    -0.206 F 
ATOM     95  C   UNL A   1      48.371  31.330  35.656  1.00  0.00     0.040 A 
ATOM     96  C   UNL A   1      47.374  29.390  36.675  1.00  0.00     0.040 A 
ATOM     97  F   UNL A   1      45.125  28.873  36.265  1.00  0.00    -0.206 F 
ATOM     98  C   UNL A   1      48.483  30.208  36.476  1.00  0.00     0.006 A 
ENDBRANCH  74  91
ENDBRANCH  48  49
ENDBRANCH  40  43
ENDBRANCH  38  39
ENDBRANCH  37  38
ENDBRANCH  36  37
ENDBRANCH  35  36
ENDBRANCH   1  35
TORSDOF 19
ENDMDL
