MODEL 1
REMARK VINA RESULT:      -8.5      0.000      0.000
REMARK SMILES CCN1C(=O)/C(=C/c2ccccc2O[C@H](C)C(=O)NCCCCCCNC(=O)c2ccc(-c3c4nc(c(-c5c(F)cccc5F)c5ccc([nH]5)c(-c5c(F)cccc5F)c5nc(c(-c6c(F)cccc6F)c6ccc3[nH]6)C=C5)C=C4)cc2)S/C1=[NH+]\c1ccc(C)cc1O
REMARK SMILES IDX 21 1 20 2 19 3 17 4 18 5 15 7 16 8 14 9 13 10 8 11 9 12
REMARK SMILES IDX 10 13 12 14 11 15 7 16 3 17 4 18 84 19 5 20 6 21 83 22 85 23
REMARK SMILES IDX 2 25 1 26 86 27 87 28 92 29 88 30 91 31 89 32 90 33 93 34
REMARK SMILES IDX 22 36 23 37 24 38 25 39 26 40 27 41 28 43 29 44 30 45 82 46
REMARK SMILES IDX 31 47 81 48 32 49 33 50 34 51 75 52 35 53 80 54 74 55 76 56
REMARK SMILES IDX 36 57 79 58 73 59 72 60 37 62 63 63 46 64 62 65 47 66 50 67
REMARK SMILES IDX 61 68 77 69 48 70 49 71 60 73 78 74 51 75 38 76 39 77 44 78
REMARK SMILES IDX 40 79 41 80 43 81 45 82 42 83 64 84 65 85 70 86 66 87 67 88
REMARK SMILES IDX 69 89 71 90 68 91 52 92 53 93 58 94 54 95 55 96 57 97 59 98
REMARK SMILES IDX 56 99
REMARK H PARENT 19 6 85 24 93 35 26 42 76 61 50 72
REMARK Flexibility Score: inf
ROOT
ATOM      1  C   UNL A   1      44.807  24.325  31.394  1.00  0.00     0.021 C 
ENDROOT
BRANCH   1   2
ATOM      2  C   UNL A   1      45.107  25.497  30.468  1.00  0.00     0.116 C 
BRANCH   2   3
ATOM      3  N   UNL A   1      46.455  25.468  29.949  1.00  0.00    -0.353 N 
ATOM      4  C   UNL A   1      47.513  26.276  30.250  1.00  0.00     0.260 C 
ATOM      5  O   UNL A   1      48.594  26.026  29.707  1.00  0.00    -0.271 OA
ATOM      6  H   UNL A   1      46.637  24.764  29.285  1.00  0.00     0.163 HD
BRANCH   4   7
ATOM      7  C   UNL A   1      47.353  27.496  31.180  1.00  0.00     0.258 C 
ATOM      8  C   UNL A   1      48.267  27.348  32.390  1.00  0.00     0.064 C 
BRANCH   7   9
ATOM      9  O   UNL A   1      47.285  28.703  30.425  1.00  0.00    -0.480 OA
BRANCH   9  10
ATOM     10  C   UNL A   1      46.173  29.369  30.014  1.00  0.00     0.127 A 
ATOM     11  C   UNL A   1      46.094  29.683  28.637  1.00  0.00     0.018 A 
ATOM     12  C   UNL A   1      45.004  30.432  28.161  1.00  0.00     0.012 A 
ATOM     13  C   UNL A   1      43.981  30.822  29.023  1.00  0.00     0.001 A 
ATOM     14  C   UNL A   1      45.104  29.700  30.846  1.00  0.00     0.047 A 
ATOM     15  C   UNL A   1      44.024  30.442  30.360  1.00  0.00     0.004 A 
BRANCH  11  16
ATOM     16  C   UNL A   1      47.131  29.315  27.649  1.00  0.00     0.036 C 
ATOM     17  N   UNL A   1      48.011  26.747  25.239  1.00  0.00    -0.186 N 
ATOM     18  C   UNL A   1      48.239  27.940  25.909  1.00  0.00     0.348 C 
ATOM     19  C   UNL A   1      46.875  26.064  25.602  1.00  0.00     0.324 C 
ATOM     20  O   UNL A   1      49.180  28.707  25.714  1.00  0.00    -0.240 OA
ATOM     21  C   UNL A   1      47.172  28.197  26.909  1.00  0.00     0.110 C 
ATOM     22  S   UNL A   1      46.059  26.898  26.901  1.00  0.00     0.007 SA
ATOM     23  N   UNL A   1      46.468  24.983  25.022  1.00  0.00    -0.231 N 
ATOM     24  H   UNL A   1      46.956  24.649  24.235  1.00  0.00     0.313 HD
BRANCH  17  25
ATOM     25  C   UNL A   1      49.032  26.312  24.286  1.00  0.00     0.244 C 
ATOM     26  C   UNL A   1      48.957  26.793  22.848  1.00  0.00     0.055 C 
ENDBRANCH  17  25
BRANCH  23  27
ATOM     27  C   UNL A   1      45.345  24.270  25.488  1.00  0.00     0.167 A 
ATOM     28  C   UNL A   1      44.160  24.342  24.753  1.00  0.00     0.056 A 
ATOM     29  C   UNL A   1      45.338  23.536  26.685  1.00  0.00     0.162 A 
ATOM     30  C   UNL A   1      43.015  23.655  25.172  1.00  0.00     0.008 A 
ATOM     31  C   UNL A   1      44.214  22.821  27.093  1.00  0.00     0.054 A 
ATOM     32  C   UNL A   1      43.041  22.871  26.332  1.00  0.00    -0.047 A 
ATOM     33  C   UNL A   1      41.811  22.135  26.770  1.00  0.00     0.044 C 
BRANCH  29  34
ATOM     34  O   UNL A   1      46.435  23.500  27.504  1.00  0.00    -0.504 OA
ATOM     35  H   UNL A   1      47.142  22.915  27.315  1.00  0.00     0.293 HD
ENDBRANCH  29  34
ENDBRANCH  23  27
ENDBRANCH  11  16
ENDBRANCH   9  10
ENDBRANCH   7   9
ENDBRANCH   4   7
ENDBRANCH   2   3
ENDBRANCH   1   2
BRANCH   1  36
ATOM     36  C   UNL A   1      44.803  24.679  32.881  1.00  0.00     0.002 C 
BRANCH  36  37
ATOM     37  C   UNL A   1      44.646  23.488  33.832  1.00  0.00     0.002 C 
BRANCH  37  38
ATOM     38  C   UNL A   1      45.820  23.253  34.785  1.00  0.00     0.021 C 
BRANCH  38  39
ATOM     39  C   UNL A   1      46.887  24.340  34.767  1.00  0.00     0.116 C 
BRANCH  39  40
ATOM     40  N   UNL A   1      47.064  24.956  36.072  1.00  0.00    -0.352 N 
ATOM     41  C   UNL A   1      46.522  26.111  36.571  1.00  0.00     0.251 C 
ATOM     42  H   UNL A   1      47.660  24.472  36.687  1.00  0.00     0.163 HD
ATOM     43  O   UNL A   1      46.943  26.584  37.625  1.00  0.00    -0.269 OA
BRANCH  41  44
ATOM     44  C   UNL A   1      45.442  26.802  35.836  1.00  0.00     0.039 A 
ATOM     45  C   UNL A   1      44.117  26.440  36.088  1.00  0.00     0.014 A 
ATOM     46  C   UNL A   1      45.734  27.788  34.889  1.00  0.00     0.014 A 
ATOM     47  C   UNL A   1      43.081  27.105  35.430  1.00  0.00     0.010 A 
ATOM     48  C   UNL A   1      44.698  28.503  34.292  1.00  0.00     0.010 A 
ATOM     49  C   UNL A   1      43.362  28.163  34.551  1.00  0.00    -0.014 A 
BRANCH  49  50
ATOM     50  C   UNL A   1      42.268  28.926  33.898  1.00  0.00     0.031 A 
ATOM     51  C   UNL A   1      41.802  28.560  32.517  1.00  0.00     0.074 A 
ATOM     52  C   UNL A   1      41.736  29.992  34.527  1.00  0.00     0.049 A 
ATOM     53  N   UNL A   1      40.895  29.136  31.770  1.00  0.00    -0.248 NA
ATOM     54  C   UNL A   1      42.463  27.411  31.878  1.00  0.00     0.031 C 
ATOM     55  C   UNL A   1      42.144  30.485  35.845  1.00  0.00     0.029 A 
ATOM     56  N   UNL A   1      40.748  30.860  34.139  1.00  0.00    -0.354 N 
ATOM     57  C   UNL A   1      40.888  28.433  30.572  1.00  0.00     0.074 A 
ATOM     58  C   UNL A   1      41.918  27.422  30.671  1.00  0.00     0.031 C 
ATOM     59  C   UNL A   1      41.400  31.556  36.162  1.00  0.00     0.029 A 
ATOM     60  C   UNL A   1      40.490  31.847  35.059  1.00  0.00     0.049 A 
ATOM     61  H   UNL A   1      40.269  30.783  33.282  1.00  0.00     0.167 HD
ATOM     62  C   UNL A   1      40.082  28.601  29.495  1.00  0.00     0.037 A 
ATOM     63  C   UNL A   1      39.627  32.879  35.014  1.00  0.00     0.037 A 
ATOM     64  C   UNL A   1      39.045  29.596  29.411  1.00  0.00     0.049 A 
ATOM     65  C   UNL A   1      38.737  33.041  33.814  1.00  0.00     0.074 A 
ATOM     66  C   UNL A   1      38.124  29.797  28.398  1.00  0.00     0.029 A 
ATOM     67  N   UNL A   1      38.797  30.563  30.374  1.00  0.00    -0.354 N 
ATOM     68  N   UNL A   1      38.680  32.314  32.724  1.00  0.00    -0.248 NA
ATOM     69  C   UNL A   1      37.784  34.158  33.841  1.00  0.00     0.031 C 
ATOM     70  C   UNL A   1      37.358  30.921  28.720  1.00  0.00     0.029 A 
ATOM     71  C   UNL A   1      37.759  31.384  29.963  1.00  0.00     0.049 A 
ATOM     72  H   UNL A   1      39.286  30.653  31.223  1.00  0.00     0.167 HD
ATOM     73  C   UNL A   1      37.673  32.872  31.946  1.00  0.00     0.074 A 
ATOM     74  C   UNL A   1      37.133  33.985  32.699  1.00  0.00     0.031 C 
ATOM     75  C   UNL A   1      37.235  32.494  30.720  1.00  0.00     0.037 A 
BRANCH  62  76
ATOM     76  C   UNL A   1      40.301  27.693  28.318  1.00  0.00     0.057 A 
ATOM     77  C   UNL A   1      39.734  26.412  28.251  1.00  0.00     0.134 A 
ATOM     78  C   UNL A   1      41.067  28.116  27.224  1.00  0.00     0.134 A 
ATOM     79  F   UNL A   1      38.998  25.940  29.267  1.00  0.00    -0.206 F 
ATOM     80  C   UNL A   1      39.951  25.573  27.156  1.00  0.00     0.040 A 
ATOM     81  C   UNL A   1      41.264  27.298  26.110  1.00  0.00     0.040 A 
ATOM     82  F   UNL A   1      41.632  29.333  27.217  1.00  0.00    -0.206 F 
ATOM     83  C   UNL A   1      40.713  26.019  26.078  1.00  0.00     0.006 A 
ENDBRANCH  62  76
BRANCH  63  84
ATOM     84  C   UNL A   1      39.553  33.829  36.154  1.00  0.00     0.057 A 
ATOM     85  C   UNL A   1      40.332  34.990  36.183  1.00  0.00     0.134 A 
ATOM     86  C   UNL A   1      38.694  33.602  37.235  1.00  0.00     0.134 A 
ATOM     87  F   UNL A   1      41.186  35.255  35.183  1.00  0.00    -0.206 F 
ATOM     88  C   UNL A   1      40.274  35.884  37.253  1.00  0.00     0.040 A 
ATOM     89  C   UNL A   1      38.605  34.500  38.300  1.00  0.00     0.040 A 
ATOM     90  F   UNL A   1      37.913  32.511  37.264  1.00  0.00    -0.206 F 
ATOM     91  C   UNL A   1      39.402  35.642  38.313  1.00  0.00     0.006 A 
ENDBRANCH  63  84
BRANCH  75  92
ATOM     92  C   UNL A   1      36.098  33.276  30.126  1.00  0.00     0.057 A 
ATOM     93  C   UNL A   1      36.296  34.214  29.105  1.00  0.00     0.134 A 
ATOM     94  C   UNL A   1      34.782  33.062  30.559  1.00  0.00     0.134 A 
ATOM     95  F   UNL A   1      37.531  34.476  28.652  1.00  0.00    -0.206 F 
ATOM     96  C   UNL A   1      35.231  34.929  28.555  1.00  0.00     0.040 A 
ATOM     97  C   UNL A   1      33.706  33.748  29.997  1.00  0.00     0.040 A 
ATOM     98  F   UNL A   1      34.521  32.169  31.528  1.00  0.00    -0.206 F 
ATOM     99  C   UNL A   1      33.930  34.691  28.996  1.00  0.00     0.006 A 
ENDBRANCH  75  92
ENDBRANCH  49  50
ENDBRANCH  41  44
ENDBRANCH  39  40
ENDBRANCH  38  39
ENDBRANCH  37  38
ENDBRANCH  36  37
ENDBRANCH   1  36
TORSDOF 19
ENDMDL
MODEL 2
REMARK VINA RESULT:      -8.5      6.091     12.500
REMARK SMILES CCN1C(=O)/C(=C/c2ccccc2O[C@H](C)C(=O)NCCCCCCNC(=O)c2ccc(-c3c4nc(c(-c5c(F)cccc5F)c5ccc([nH]5)c(-c5c(F)cccc5F)c5nc(c(-c6c(F)cccc6F)c6ccc3[nH]6)C=C5)C=C4)cc2)S/C1=[NH+]\c1ccc(C)cc1O
REMARK SMILES IDX 21 1 20 2 19 3 17 4 18 5 15 7 16 8 14 9 13 10 8 11 9 12
REMARK SMILES IDX 10 13 12 14 11 15 7 16 3 17 4 18 84 19 5 20 6 21 83 22 85 23
REMARK SMILES IDX 2 25 1 26 86 27 87 28 92 29 88 30 91 31 89 32 90 33 93 34
REMARK SMILES IDX 22 36 23 37 24 38 25 39 26 40 27 41 28 43 29 44 30 45 82 46
REMARK SMILES IDX 31 47 81 48 32 49 33 50 34 51 75 52 35 53 80 54 74 55 76 56
REMARK SMILES IDX 36 57 79 58 73 59 72 60 37 62 63 63 46 64 62 65 47 66 50 67
REMARK SMILES IDX 61 68 77 69 48 70 49 71 60 73 78 74 51 75 38 76 39 77 44 78
REMARK SMILES IDX 40 79 41 80 43 81 45 82 42 83 64 84 65 85 70 86 66 87 67 88
REMARK SMILES IDX 69 89 71 90 68 91 52 92 53 93 58 94 54 95 55 96 57 97 59 98
REMARK SMILES IDX 56 99
REMARK H PARENT 19 6 85 24 93 35 26 42 76 61 50 72
REMARK Flexibility Score: inf
ROOT
ATOM      1  C   UNL A   1      33.532  29.105  25.318  1.00  0.00     0.021 C 
ENDROOT
BRANCH   1   2
ATOM      2  C   UNL A   1      33.001  29.089  23.890  1.00  0.00     0.116 C 
BRANCH   2   3
ATOM      3  N   UNL A   1      33.665  28.112  23.059  1.00  0.00    -0.353 N 
ATOM      4  C   UNL A   1      33.276  26.842  22.741  1.00  0.00     0.260 C 
ATOM      5  O   UNL A   1      33.994  26.204  21.964  1.00  0.00    -0.271 OA
ATOM      6  H   UNL A   1      34.519  28.403  22.666  1.00  0.00     0.163 HD
BRANCH   4   7
ATOM      7  C   UNL A   1      32.025  26.203  23.376  1.00  0.00     0.258 C 
ATOM      8  C   UNL A   1      31.414  25.193  22.414  1.00  0.00     0.064 C 
BRANCH   7   9
ATOM      9  O   UNL A   1      32.254  25.898  24.750  1.00  0.00    -0.480 OA
BRANCH   9  10
ATOM     10  C   UNL A   1      31.650  24.941  25.504  1.00  0.00     0.127 A 
ATOM     11  C   UNL A   1      32.474  23.892  25.976  1.00  0.00     0.018 A 
ATOM     12  C   UNL A   1      31.898  22.834  26.701  1.00  0.00     0.012 A 
ATOM     13  C   UNL A   1      30.537  22.838  26.999  1.00  0.00     0.001 A 
ATOM     14  C   UNL A   1      30.308  24.967  25.877  1.00  0.00     0.047 A 
ATOM     15  C   UNL A   1      29.747  23.911  26.601  1.00  0.00     0.004 A 
BRANCH  11  16
ATOM     16  C   UNL A   1      33.925  23.802  25.707  1.00  0.00     0.036 C 
ATOM     17  N   UNL A   1      36.561  21.419  24.966  1.00  0.00    -0.186 N 
ATOM     18  C   UNL A   1      36.088  22.702  25.196  1.00  0.00     0.348 C 
ATOM     19  C   UNL A   1      35.628  20.412  25.044  1.00  0.00     0.324 C 
ATOM     20  O   UNL A   1      36.752  23.734  25.147  1.00  0.00    -0.240 OA
ATOM     21  C   UNL A   1      34.634  22.682  25.503  1.00  0.00     0.110 C 
ATOM     22  S   UNL A   1      34.073  21.065  25.499  1.00  0.00     0.007 SA
ATOM     23  N   UNL A   1      35.880  19.173  24.776  1.00  0.00    -0.231 N 
ATOM     24  H   UNL A   1      36.771  18.929  24.436  1.00  0.00     0.313 HD
BRANCH  17  25
ATOM     25  C   UNL A   1      37.999  21.269  24.744  1.00  0.00     0.244 C 
ATOM     26  C   UNL A   1      38.964  21.644  25.854  1.00  0.00     0.055 C 
ENDBRANCH  17  25
BRANCH  23  27
ATOM     27  C   UNL A   1      34.912  18.165  24.958  1.00  0.00     0.167 A 
ATOM     28  C   UNL A   1      33.574  18.474  24.701  1.00  0.00     0.056 A 
ATOM     29  C   UNL A   1      35.214  16.881  25.439  1.00  0.00     0.162 A 
ATOM     30  C   UNL A   1      32.573  17.509  24.866  1.00  0.00     0.008 A 
ATOM     31  C   UNL A   1      34.230  15.905  25.574  1.00  0.00     0.054 A 
ATOM     32  C   UNL A   1      32.897  16.212  25.281  1.00  0.00    -0.047 A 
ATOM     33  C   UNL A   1      31.818  15.186  25.451  1.00  0.00     0.044 C 
BRANCH  29  34
ATOM     34  O   UNL A   1      36.490  16.540  25.802  1.00  0.00    -0.504 OA
ATOM     35  H   UNL A   1      36.638  15.796  26.353  1.00  0.00     0.293 HD
ENDBRANCH  29  34
ENDBRANCH  23  27
ENDBRANCH  11  16
ENDBRANCH   9  10
ENDBRANCH   7   9
ENDBRANCH   4   7
ENDBRANCH   2   3
ENDBRANCH   1   2
BRANCH   1  36
ATOM     36  C   UNL A   1      32.576  29.719  26.341  1.00  0.00     0.002 C 
BRANCH  36  37
ATOM     37  C   UNL A   1      31.411  30.517  25.747  1.00  0.00     0.002 C 
BRANCH  37  38
ATOM     38  C   UNL A   1      31.295  31.964  26.229  1.00  0.00     0.021 C 
BRANCH  38  39
ATOM     39  C   UNL A   1      32.441  32.438  27.114  1.00  0.00     0.116 C 
BRANCH  39  40
ATOM     40  N   UNL A   1      32.301  33.836  27.490  1.00  0.00    -0.352 N 
ATOM     41  C   UNL A   1      33.013  34.569  28.402  1.00  0.00     0.251 C 
ATOM     42  H   UNL A   1      31.590  34.327  27.020  1.00  0.00     0.163 HD
ATOM     43  O   UNL A   1      32.622  35.686  28.735  1.00  0.00    -0.269 OA
BRANCH  41  44
ATOM     44  C   UNL A   1      34.244  34.013  29.001  1.00  0.00     0.039 A 
ATOM     45  C   UNL A   1      34.136  33.210  30.139  1.00  0.00     0.014 A 
ATOM     46  C   UNL A   1      35.500  34.296  28.457  1.00  0.00     0.014 A 
ATOM     47  C   UNL A   1      35.284  32.647  30.700  1.00  0.00     0.010 A 
ATOM     48  C   UNL A   1      36.634  33.672  28.971  1.00  0.00     0.010 A 
ATOM     49  C   UNL A   1      36.538  32.847  30.101  1.00  0.00    -0.014 A 
BRANCH  49  50
ATOM     50  C   UNL A   1      37.757  32.197  30.645  1.00  0.00     0.031 A 
ATOM     51  C   UNL A   1      38.431  32.745  31.871  1.00  0.00     0.074 A 
ATOM     52  C   UNL A   1      38.293  31.145  29.995  1.00  0.00     0.049 A 
ATOM     53  N   UNL A   1      39.526  32.341  32.463  1.00  0.00    -0.248 NA
ATOM     54  C   UNL A   1      37.810  33.922  32.498  1.00  0.00     0.031 C 
ATOM     55  C   UNL A   1      37.767  30.557  28.762  1.00  0.00     0.029 A 
ATOM     56  N   UNL A   1      39.407  30.393  30.273  1.00  0.00    -0.354 N 
ATOM     57  C   UNL A   1      39.733  33.221  33.518  1.00  0.00     0.074 A 
ATOM     58  C   UNL A   1      38.681  34.212  33.453  1.00  0.00     0.031 C 
ATOM     59  C   UNL A   1      38.545  29.525  28.401  1.00  0.00     0.029 A 
ATOM     60  C   UNL A   1      39.644  29.402  29.353  1.00  0.00     0.049 A 
ATOM     61  H   UNL A   1      39.981  30.550  31.058  1.00  0.00     0.167 HD
ATOM     62  C   UNL A   1      40.699  33.194  34.468  1.00  0.00     0.037 A 
ATOM     63  C   UNL A   1      40.642  28.501  29.277  1.00  0.00     0.037 A 
ATOM     64  C   UNL A   1      41.732  32.193  34.540  1.00  0.00     0.049 A 
ATOM     65  C   UNL A   1      41.699  28.483  30.346  1.00  0.00     0.074 A 
ATOM     66  C   UNL A   1      42.709  32.031  35.506  1.00  0.00     0.029 A 
ATOM     67  N   UNL A   1      41.925  31.188  33.603  1.00  0.00    -0.354 N 
ATOM     68  N   UNL A   1      41.832  29.268  31.389  1.00  0.00    -0.248 NA
ATOM     69  C   UNL A   1      42.737  27.450  30.236  1.00  0.00     0.031 C 
ATOM     70  C   UNL A   1      43.530  30.966  35.124  1.00  0.00     0.029 A 
ATOM     71  C   UNL A   1      43.028  30.424  33.952  1.00  0.00     0.049 A 
ATOM     72  H   UNL A   1      41.364  31.041  32.809  1.00  0.00     0.167 HD
ATOM     73  C   UNL A   1      42.953  28.811  32.069  1.00  0.00     0.074 A 
ATOM     74  C   UNL A   1      43.451  27.668  31.331  1.00  0.00     0.031 C 
ATOM     75  C   UNL A   1      43.517  29.292  33.204  1.00  0.00     0.037 A 
BRANCH  62  76
ATOM     76  C   UNL A   1      40.688  34.286  35.500  1.00  0.00     0.057 A 
ATOM     77  C   UNL A   1      40.008  34.153  36.718  1.00  0.00     0.134 A 
ATOM     78  C   UNL A   1      41.389  35.479  35.282  1.00  0.00     0.134 A 
ATOM     79  F   UNL A   1      39.308  33.041  36.988  1.00  0.00    -0.206 F 
ATOM     80  C   UNL A   1      39.997  35.178  37.666  1.00  0.00     0.040 A 
ATOM     81  C   UNL A   1      41.412  36.499  36.236  1.00  0.00     0.040 A 
ATOM     82  F   UNL A   1      42.069  35.672  34.141  1.00  0.00    -0.206 F 
ATOM     83  C   UNL A   1      40.707  36.353  37.428  1.00  0.00     0.006 A 
ENDBRANCH  62  76
BRANCH  63  84
ATOM     84  C   UNL A   1      40.676  27.531  28.153  1.00  0.00     0.057 A 
ATOM     85  C   UNL A   1      41.364  27.816  26.968  1.00  0.00     0.134 A 
ATOM     86  C   UNL A   1      40.030  26.292  28.242  1.00  0.00     0.134 A 
ATOM     87  F   UNL A   1      41.989  28.993  26.817  1.00  0.00    -0.206 F 
ATOM     88  C   UNL A   1      41.395  26.913  25.905  1.00  0.00     0.040 A 
ATOM     89  C   UNL A   1      40.075  25.368  27.197  1.00  0.00     0.040 A 
ATOM     90  F   UNL A   1      39.362  25.954  29.355  1.00  0.00    -0.206 F 
ATOM     91  C   UNL A   1      40.754  25.681  26.022  1.00  0.00     0.006 A 
ENDBRANCH  63  84
BRANCH  75  92
ATOM     92  C   UNL A   1      44.724  28.569  33.732  1.00  0.00     0.057 A 
ATOM     93  C   UNL A   1      46.026  28.937  33.370  1.00  0.00     0.134 A 
ATOM     94  C   UNL A   1      44.581  27.512  34.640  1.00  0.00     0.134 A 
ATOM     95  F   UNL A   1      46.233  29.932  32.494  1.00  0.00    -0.206 F 
ATOM     96  C   UNL A   1      47.141  28.264  33.872  1.00  0.00     0.040 A 
ATOM     97  C   UNL A   1      45.688  26.851  35.172  1.00  0.00     0.040 A 
ATOM     98  F   UNL A   1      43.361  27.115  35.037  1.00  0.00    -0.206 F 
ATOM     99  C   UNL A   1      46.972  27.222  34.783  1.00  0.00     0.006 A 
ENDBRANCH  75  92
ENDBRANCH  49  50
ENDBRANCH  41  44
ENDBRANCH  39  40
ENDBRANCH  38  39
ENDBRANCH  37  38
ENDBRANCH  36  37
ENDBRANCH   1  36
TORSDOF 19
ENDMDL
MODEL 3
REMARK VINA RESULT:      -8.3      6.164     11.292
REMARK SMILES CCN1C(=O)/C(=C/c2ccccc2O[C@H](C)C(=O)NCCCCCCNC(=O)c2ccc(-c3c4nc(c(-c5c(F)cccc5F)c5ccc([nH]5)c(-c5c(F)cccc5F)c5nc(c(-c6c(F)cccc6F)c6ccc3[nH]6)C=C5)C=C4)cc2)S/C1=[NH+]\c1ccc(C)cc1O
REMARK SMILES IDX 21 1 20 2 19 3 17 4 18 5 15 7 16 8 14 9 13 10 8 11 9 12
REMARK SMILES IDX 10 13 12 14 11 15 7 16 3 17 4 18 84 19 5 20 6 21 83 22 85 23
REMARK SMILES IDX 2 25 1 26 86 27 87 28 92 29 88 30 91 31 89 32 90 33 93 34
REMARK SMILES IDX 22 36 23 37 24 38 25 39 26 40 27 41 28 43 29 44 30 45 82 46
REMARK SMILES IDX 31 47 81 48 32 49 33 50 34 51 75 52 35 53 80 54 74 55 76 56
REMARK SMILES IDX 36 57 79 58 73 59 72 60 37 62 63 63 46 64 62 65 47 66 50 67
REMARK SMILES IDX 61 68 77 69 48 70 49 71 60 73 78 74 51 75 38 76 39 77 44 78
REMARK SMILES IDX 40 79 41 80 43 81 45 82 42 83 64 84 65 85 70 86 66 87 67 88
REMARK SMILES IDX 69 89 71 90 68 91 52 92 53 93 58 94 54 95 55 96 57 97 59 98
REMARK SMILES IDX 56 99
REMARK H PARENT 19 6 85 24 93 35 26 42 76 61 50 72
REMARK Flexibility Score: inf
ROOT
ATOM      1  C   UNL A   1      32.454  29.302  24.545  1.00  0.00     0.021 C 
ENDROOT
BRANCH   1   2
ATOM      2  C   UNL A   1      31.819  28.508  23.412  1.00  0.00     0.116 C 
BRANCH   2   3
ATOM      3  N   UNL A   1      32.797  27.904  22.537  1.00  0.00    -0.353 N 
ATOM      4  C   UNL A   1      32.984  26.587  22.230  1.00  0.00     0.260 C 
ATOM      5  O   UNL A   1      33.865  26.313  21.409  1.00  0.00    -0.271 OA
ATOM      6  H   UNL A   1      33.416  28.532  22.098  1.00  0.00     0.163 HD
BRANCH   4   7
ATOM      7  C   UNL A   1      32.174  25.476  22.929  1.00  0.00     0.258 C 
ATOM      8  C   UNL A   1      32.304  24.173  22.152  1.00  0.00     0.064 C 
BRANCH   7   9
ATOM      9  O   UNL A   1      32.347  25.536  24.343  1.00  0.00    -0.480 OA
BRANCH   9  10
ATOM     10  C   UNL A   1      31.772  24.746  25.288  1.00  0.00     0.127 A 
ATOM     11  C   UNL A   1      32.628  23.856  25.978  1.00  0.00     0.018 A 
ATOM     12  C   UNL A   1      32.085  22.963  26.917  1.00  0.00     0.012 A 
ATOM     13  C   UNL A   1      30.722  22.982  27.207  1.00  0.00     0.001 A 
ATOM     14  C   UNL A   1      30.426  24.805  25.646  1.00  0.00     0.047 A 
ATOM     15  C   UNL A   1      29.898  23.913  26.584  1.00  0.00     0.004 A 
BRANCH  11  16
ATOM     16  C   UNL A   1      34.084  23.763  25.735  1.00  0.00     0.036 C 
ATOM     17  N   UNL A   1      36.723  21.375  25.021  1.00  0.00    -0.186 N 
ATOM     18  C   UNL A   1      36.251  22.658  25.254  1.00  0.00     0.348 C 
ATOM     19  C   UNL A   1      35.784  20.372  25.072  1.00  0.00     0.324 C 
ATOM     20  O   UNL A   1      36.921  23.688  25.228  1.00  0.00    -0.240 OA
ATOM     21  C   UNL A   1      34.792  22.641  25.534  1.00  0.00     0.110 C 
ATOM     22  S   UNL A   1      34.225  21.028  25.505  1.00  0.00     0.007 SA
ATOM     23  N   UNL A   1      36.036  19.134  24.798  1.00  0.00    -0.231 N 
ATOM     24  H   UNL A   1      36.932  18.889  24.472  1.00  0.00     0.313 HD
BRANCH  17  25
ATOM     25  C   UNL A   1      38.164  21.221  24.824  1.00  0.00     0.244 C 
ATOM     26  C   UNL A   1      39.099  21.424  26.003  1.00  0.00     0.055 C 
ENDBRANCH  17  25
BRANCH  23  27
ATOM     27  C   UNL A   1      35.061  18.128  24.952  1.00  0.00     0.167 A 
ATOM     28  C   UNL A   1      33.734  18.437  24.646  1.00  0.00     0.056 A 
ATOM     29  C   UNL A   1      35.344  16.848  25.452  1.00  0.00     0.162 A 
ATOM     30  C   UNL A   1      32.726  17.476  24.782  1.00  0.00     0.008 A 
ATOM     31  C   UNL A   1      34.354  15.874  25.558  1.00  0.00     0.054 A 
ATOM     32  C   UNL A   1      33.033  16.180  25.217  1.00  0.00    -0.047 A 
ATOM     33  C   UNL A   1      31.947  15.157  25.356  1.00  0.00     0.044 C 
BRANCH  29  34
ATOM     34  O   UNL A   1      36.606  16.507  25.861  1.00  0.00    -0.504 OA
ATOM     35  H   UNL A   1      37.341  16.679  25.306  1.00  0.00     0.293 HD
ENDBRANCH  29  34
ENDBRANCH  23  27
ENDBRANCH  11  16
ENDBRANCH   9  10
ENDBRANCH   7   9
ENDBRANCH   4   7
ENDBRANCH   2   3
ENDBRANCH   1   2
BRANCH   1  36
ATOM     36  C   UNL A   1      31.484  29.710  25.654  1.00  0.00     0.002 C 
BRANCH  36  37
ATOM     37  C   UNL A   1      31.038  31.176  25.622  1.00  0.00     0.002 C 
BRANCH  37  38
ATOM     38  C   UNL A   1      31.293  31.966  26.907  1.00  0.00     0.021 C 
BRANCH  38  39
ATOM     39  C   UNL A   1      32.552  32.824  26.892  1.00  0.00     0.116 C 
BRANCH  39  40
ATOM     40  N   UNL A   1      32.374  34.069  27.622  1.00  0.00    -0.352 N 
ATOM     41  C   UNL A   1      33.082  34.566  28.684  1.00  0.00     0.251 C 
ATOM     42  H   UNL A   1      31.636  34.639  27.306  1.00  0.00     0.163 HD
ATOM     43  O   UNL A   1      32.662  35.542  29.303  1.00  0.00    -0.269 OA
BRANCH  41  44
ATOM     44  C   UNL A   1      34.345  33.921  29.100  1.00  0.00     0.039 A 
ATOM     45  C   UNL A   1      35.501  34.155  28.351  1.00  0.00     0.014 A 
ATOM     46  C   UNL A   1      34.387  33.073  30.211  1.00  0.00     0.014 A 
ATOM     47  C   UNL A   1      36.710  33.583  28.748  1.00  0.00     0.010 A 
ATOM     48  C   UNL A   1      35.608  32.567  30.650  1.00  0.00     0.010 A 
ATOM     49  C   UNL A   1      36.780  32.810  29.919  1.00  0.00    -0.014 A 
BRANCH  49  50
ATOM     50  C   UNL A   1      38.072  32.255  30.392  1.00  0.00     0.031 A 
ATOM     51  C   UNL A   1      38.619  30.986  29.801  1.00  0.00     0.074 A 
ATOM     52  C   UNL A   1      38.725  32.862  31.402  1.00  0.00     0.049 A 
ATOM     53  N   UNL A   1      39.704  30.326  30.117  1.00  0.00    -0.248 NA
ATOM     54  C   UNL A   1      37.825  30.357  28.732  1.00  0.00     0.031 C 
ATOM     55  C   UNL A   1      38.269  34.066  32.099  1.00  0.00     0.029 A 
ATOM     56  N   UNL A   1      39.905  32.544  32.026  1.00  0.00    -0.354 N 
ATOM     57  C   UNL A   1      39.715  29.201  29.301  1.00  0.00     0.074 A 
ATOM     58  C   UNL A   1      38.502  29.239  28.515  1.00  0.00     0.031 C 
ATOM     59  C   UNL A   1      39.166  34.395  33.041  1.00  0.00     0.029 A 
ATOM     60  C   UNL A   1      40.241  33.407  33.040  1.00  0.00     0.049 A 
ATOM     61  H   UNL A   1      40.458  31.770  31.771  1.00  0.00     0.167 HD
ATOM     62  C   UNL A   1      40.661  28.236  29.201  1.00  0.00     0.037 A 
ATOM     63  C   UNL A   1      41.290  33.397  33.884  1.00  0.00     0.037 A 
ATOM     64  C   UNL A   1      41.876  28.214  29.972  1.00  0.00     0.049 A 
ATOM     65  C   UNL A   1      42.331  32.322  33.750  1.00  0.00     0.074 A 
ATOM     66  C   UNL A   1      42.933  27.324  29.890  1.00  0.00     0.029 A 
ATOM     67  N   UNL A   1      42.194  29.120  30.973  1.00  0.00    -0.354 N 
ATOM     68  N   UNL A   1      42.373  31.313  32.913  1.00  0.00    -0.248 NA
ATOM     69  C   UNL A   1      43.476  32.389  34.667  1.00  0.00     0.031 C 
ATOM     70  C   UNL A   1      43.862  27.656  30.880  1.00  0.00     0.029 A 
ATOM     71  C   UNL A   1      43.415  28.790  31.540  1.00  0.00     0.049 A 
ATOM     72  H   UNL A   1      41.635  29.884  31.242  1.00  0.00     0.167 HD
ATOM     73  C   UNL A   1      43.555  30.638  33.188  1.00  0.00     0.074 A 
ATOM     74  C   UNL A   1      44.211  31.365  34.256  1.00  0.00     0.031 C 
ATOM     75  C   UNL A   1      44.054  29.519  32.607  1.00  0.00     0.037 A 
BRANCH  62  76
ATOM     76  C   UNL A   1      40.409  27.118  28.229  1.00  0.00     0.057 A 
ATOM     77  C   UNL A   1      41.000  27.090  26.958  1.00  0.00     0.134 A 
ATOM     78  C   UNL A   1      39.586  26.040  28.579  1.00  0.00     0.134 A 
ATOM     79  F   UNL A   1      41.791  28.094  26.553  1.00  0.00    -0.206 F 
ATOM     80  C   UNL A   1      40.752  26.050  26.059  1.00  0.00     0.040 A 
ATOM     81  C   UNL A   1      39.356  24.979  27.701  1.00  0.00     0.040 A 
ATOM     82  F   UNL A   1      38.995  25.997  29.783  1.00  0.00    -0.206 F 
ATOM     83  C   UNL A   1      39.933  24.987  26.433  1.00  0.00     0.006 A 
ENDBRANCH  62  76
BRANCH  63  84
ATOM     84  C   UNL A   1      41.413  34.455  34.919  1.00  0.00     0.057 A 
ATOM     85  C   UNL A   1      42.073  35.659  34.653  1.00  0.00     0.134 A 
ATOM     86  C   UNL A   1      40.864  34.289  36.196  1.00  0.00     0.134 A 
ATOM     87  F   UNL A   1      42.634  35.870  33.453  1.00  0.00    -0.206 F 
ATOM     88  C   UNL A   1      42.198  36.655  35.622  1.00  0.00     0.040 A 
ATOM     89  C   UNL A   1      40.958  35.287  37.168  1.00  0.00     0.040 A 
ATOM     90  F   UNL A   1      40.211  33.162  36.512  1.00  0.00    -0.206 F 
ATOM     91  C   UNL A   1      41.633  36.472  36.883  1.00  0.00     0.006 A 
ENDBRANCH  63  84
BRANCH  75  92
ATOM     92  C   UNL A   1      45.385  29.026  33.097  1.00  0.00     0.057 A 
ATOM     93  C   UNL A   1      45.500  28.182  34.209  1.00  0.00     0.134 A 
ATOM     94  C   UNL A   1      46.565  29.372  32.426  1.00  0.00     0.134 A 
ATOM     95  F   UNL A   1      44.411  27.821  34.905  1.00  0.00    -0.206 F 
ATOM     96  C   UNL A   1      46.742  27.723  34.652  1.00  0.00     0.040 A 
ATOM     97  C   UNL A   1      47.809  28.896  32.840  1.00  0.00     0.040 A 
ATOM     98  F   UNL A   1      46.526  30.170  31.346  1.00  0.00    -0.206 F 
ATOM     99  C   UNL A   1      47.900  28.074  33.960  1.00  0.00     0.006 A 
ENDBRANCH  75  92
ENDBRANCH  49  50
ENDBRANCH  41  44
ENDBRANCH  39  40
ENDBRANCH  38  39
ENDBRANCH  37  38
ENDBRANCH  36  37
ENDBRANCH   1  36
TORSDOF 19
ENDMDL
