MODEL 1
REMARK VINA RESULT:     -10.6      0.000      0.000
REMARK SMILES C[C@H]1[C@@H](C(=O)NCCCCCCNC(=O)c2ccc(-c3c4nc(c(-c5c(F)cccc5F)c5ccc([nH]5)c(-c5c(F)cccc5F)c5nc(c(-c6c(F)cccc6F)c6ccc3[nH]6)C=C5)C=C4)cc2)CC[N@@H+]1CC1(O)CCCC1
REMARK SMILES IDX 9 1 8 2 7 3 6 4 4 5 5 6 3 8 1 9 2 10 72 11 70 12 71 13 73 15
REMARK SMILES IDX 74 16 76 17 79 18 77 19 78 20 75 21 10 23 11 24 12 25 13 26
REMARK SMILES IDX 14 27 15 29 16 30 17 31 69 32 18 33 68 34 19 35 20 36 21 37
REMARK SMILES IDX 62 38 22 39 67 40 61 41 63 42 23 43 66 44 60 45 59 46 24 48
REMARK SMILES IDX 50 49 33 50 49 51 34 52 37 53 48 54 64 55 35 56 36 57 47 59
REMARK SMILES IDX 65 60 38 61 25 62 26 63 31 64 27 65 28 66 30 67 32 68 29 69
REMARK SMILES IDX 51 70 52 71 57 72 53 73 54 74 56 75 58 76 55 77 39 78 40 79
REMARK SMILES IDX 45 80 41 81 42 82 44 83 46 84 43 85
REMARK H PARENT 6 7 72 14 75 22 13 28 63 47 37 58
REMARK Flexibility Score: inf
ROOT
ATOM      1  C   UNL A   1      38.190  22.381  25.567  1.00  0.00     0.002 C 
ENDROOT
BRANCH   1   2
ATOM      2  C   UNL A   1      37.198  23.457  26.010  1.00  0.00     0.021 C 
BRANCH   2   3
ATOM      3  C   UNL A   1      36.364  24.048  24.870  1.00  0.00     0.116 C 
BRANCH   3   4
ATOM      4  N   UNL A   1      35.223  24.719  25.446  1.00  0.00    -0.356 N 
ATOM      5  C   UNL A   1      33.977  24.226  25.692  1.00  0.00     0.229 C 
ATOM      6  O   UNL A   1      33.062  25.052  25.707  1.00  0.00    -0.275 OA
ATOM      7  H   UNL A   1      35.365  25.660  25.697  1.00  0.00     0.163 HD
BRANCH   5   8
ATOM      8  C   UNL A   1      33.781  22.765  26.108  1.00  0.00     0.142 C 
ATOM      9  C   UNL A   1      34.021  21.889  23.614  1.00  0.00     0.076 C 
ATOM     10  C   UNL A   1      33.831  21.596  25.095  1.00  0.00     0.193 C 
ATOM     11  N   UNL A   1      32.544  20.897  25.183  1.00  0.00    -0.330 N 
ATOM     12  C   UNL A   1      32.416  22.596  26.802  1.00  0.00     0.081 C 
ATOM     13  C   UNL A   1      31.591  21.788  25.825  1.00  0.00     0.263 C 
ATOM     14  H   UNL A   1      32.218  20.708  24.235  1.00  0.00     0.348 HD
BRANCH  11  15
ATOM     15  C   UNL A   1      32.568  19.504  25.641  1.00  0.00     0.297 C 
BRANCH  15  16
ATOM     16  C   UNL A   1      32.679  18.321  24.643  1.00  0.00     0.113 C 
ATOM     17  C   UNL A   1      34.093  17.779  24.404  1.00  0.00     0.041 C 
ATOM     18  C   UNL A   1      32.289  18.763  23.226  1.00  0.00     0.041 C 
ATOM     19  C   UNL A   1      34.017  17.056  23.059  1.00  0.00     0.003 C 
ATOM     20  C   UNL A   1      32.817  17.650  22.325  1.00  0.00     0.003 C 
BRANCH  16  21
ATOM     21  O   UNL A   1      31.780  17.278  25.033  1.00  0.00    -0.384 OA
ATOM     22  H   UNL A   1      32.141  16.420  24.762  1.00  0.00     0.211 HD
ENDBRANCH  16  21
ENDBRANCH  15  16
ENDBRANCH  11  15
ENDBRANCH   5   8
ENDBRANCH   3   4
ENDBRANCH   2   3
ENDBRANCH   1   2
BRANCH   1  23
ATOM     23  C   UNL A   1      37.557  21.232  24.782  1.00  0.00     0.002 C 
BRANCH  23  24
ATOM     24  C   UNL A   1      38.328  19.909  24.839  1.00  0.00     0.021 C 
BRANCH  24  25
ATOM     25  C   UNL A   1      39.078  19.661  26.146  1.00  0.00     0.116 C 
BRANCH  25  26
ATOM     26  N   UNL A   1      40.355  19.007  25.918  1.00  0.00    -0.352 N 
ATOM     27  C   UNL A   1      41.614  19.543  25.921  1.00  0.00     0.251 C 
ATOM     28  H   UNL A   1      40.308  18.041  25.735  1.00  0.00     0.163 HD
ATOM     29  O   UNL A   1      42.563  18.905  25.467  1.00  0.00    -0.269 OA
BRANCH  27  30
ATOM     30  C   UNL A   1      41.833  20.898  26.463  1.00  0.00     0.039 A 
ATOM     31  C   UNL A   1      41.746  21.098  27.841  1.00  0.00     0.014 A 
ATOM     32  C   UNL A   1      42.102  21.972  25.607  1.00  0.00     0.014 A 
ATOM     33  C   UNL A   1      41.978  22.368  28.370  1.00  0.00     0.010 A 
ATOM     34  C   UNL A   1      42.401  23.222  26.141  1.00  0.00     0.010 A 
ATOM     35  C   UNL A   1      42.332  23.434  27.526  1.00  0.00    -0.014 A 
BRANCH  35  36
ATOM     36  C   UNL A   1      42.623  24.780  28.075  1.00  0.00     0.031 A 
ATOM     37  C   UNL A   1      44.018  25.129  28.515  1.00  0.00     0.074 A 
ATOM     38  C   UNL A   1      41.622  25.666  28.230  1.00  0.00     0.049 A 
ATOM     39  N   UNL A   1      44.457  26.230  29.070  1.00  0.00    -0.248 NA
ATOM     40  C   UNL A   1      45.049  24.097  28.331  1.00  0.00     0.031 C 
ATOM     41  C   UNL A   1      40.219  25.428  27.882  1.00  0.00     0.029 A 
ATOM     42  N   UNL A   1      41.628  26.945  28.728  1.00  0.00    -0.354 N 
ATOM     43  C   UNL A   1      45.809  26.017  29.311  1.00  0.00     0.074 A 
ATOM     44  C   UNL A   1      46.105  24.664  28.892  1.00  0.00     0.031 C 
ATOM     45  C   UNL A   1      39.505  26.531  28.157  1.00  0.00     0.029 A 
ATOM     46  C   UNL A   1      40.390  27.540  28.731  1.00  0.00     0.049 A 
ATOM     47  H   UNL A   1      42.442  27.392  29.054  1.00  0.00     0.167 HD
ATOM     48  C   UNL A   1      46.725  26.879  29.814  1.00  0.00     0.037 A 
ATOM     49  C   UNL A   1      40.012  28.760  29.156  1.00  0.00     0.037 A 
ATOM     50  C   UNL A   1      46.430  28.231  30.209  1.00  0.00     0.049 A 
ATOM     51  C   UNL A   1      41.046  29.695  29.718  1.00  0.00     0.074 A 
ATOM     52  C   UNL A   1      47.300  29.203  30.674  1.00  0.00     0.029 A 
ATOM     53  N   UNL A   1      45.166  28.802  30.188  1.00  0.00    -0.354 N 
ATOM     54  N   UNL A   1      42.333  29.504  29.878  1.00  0.00    -0.248 NA
ATOM     55  C   UNL A   1      40.575  31.016  30.156  1.00  0.00     0.031 C 
ATOM     56  C   UNL A   1      46.554  30.348  30.974  1.00  0.00     0.029 A 
ATOM     57  C   UNL A   1      45.228  30.104  30.653  1.00  0.00     0.049 A 
ATOM     58  H   UNL A   1      44.347  28.347  29.886  1.00  0.00     0.167 HD
ATOM     59  C   UNL A   1      42.829  30.686  30.410  1.00  0.00     0.074 A 
ATOM     60  C   UNL A   1      41.707  31.594  30.531  1.00  0.00     0.031 C 
ATOM     61  C   UNL A   1      44.100  30.995  30.766  1.00  0.00     0.037 A 
BRANCH  48  62
ATOM     62  C   UNL A   1      48.134  26.381  29.962  1.00  0.00     0.057 A 
ATOM     63  C   UNL A   1      49.072  26.502  28.928  1.00  0.00     0.134 A 
ATOM     64  C   UNL A   1      48.566  25.798  31.160  1.00  0.00     0.134 A 
ATOM     65  F   UNL A   1      48.721  27.040  27.750  1.00  0.00    -0.206 F 
ATOM     66  C   UNL A   1      50.380  26.036  29.070  1.00  0.00     0.040 A 
ATOM     67  C   UNL A   1      49.879  25.354  31.324  1.00  0.00     0.040 A 
ATOM     68  F   UNL A   1      47.721  25.656  32.192  1.00  0.00    -0.206 F 
ATOM     69  C   UNL A   1      50.788  25.465  30.273  1.00  0.00     0.006 A 
ENDBRANCH  48  62
BRANCH  49  70
ATOM     70  C   UNL A   1      38.592  29.177  29.041  1.00  0.00     0.057 A 
ATOM     71  C   UNL A   1      37.732  29.116  30.143  1.00  0.00     0.134 A 
ATOM     72  C   UNL A   1      38.061  29.642  27.832  1.00  0.00     0.134 A 
ATOM     73  F   UNL A   1      38.179  28.662  31.324  1.00  0.00    -0.206 F 
ATOM     74  C   UNL A   1      36.389  29.486  30.045  1.00  0.00     0.040 A 
ATOM     75  C   UNL A   1      36.726  30.037  27.725  1.00  0.00     0.040 A 
ATOM     76  F   UNL A   1      38.836  29.731  26.741  1.00  0.00    -0.206 F 
ATOM     77  C   UNL A   1      35.885  29.953  28.833  1.00  0.00     0.006 A 
ENDBRANCH  49  70
BRANCH  61  78
ATOM     78  C   UNL A   1      44.348  32.377  31.295  1.00  0.00     0.057 A 
ATOM     79  C   UNL A   1      44.634  33.452  30.445  1.00  0.00     0.134 A 
ATOM     80  C   UNL A   1      44.263  32.641  32.668  1.00  0.00     0.134 A 
ATOM     81  F   UNL A   1      44.745  33.261  29.120  1.00  0.00    -0.206 F 
ATOM     82  C   UNL A   1      44.849  34.737  30.943  1.00  0.00     0.040 A 
ATOM     83  C   UNL A   1      44.448  33.926  33.176  1.00  0.00     0.040 A 
ATOM     84  F   UNL A   1      43.984  31.656  33.535  1.00  0.00    -0.206 F 
ATOM     85  C   UNL A   1      44.749  34.979  32.312  1.00  0.00     0.006 A 
ENDBRANCH  61  78
ENDBRANCH  35  36
ENDBRANCH  27  30
ENDBRANCH  25  26
ENDBRANCH  24  25
ENDBRANCH  23  24
ENDBRANCH   1  23
TORSDOF 16
ENDMDL
MODEL 2
REMARK VINA RESULT:     -10.5      5.992     10.924
REMARK SMILES C[C@H]1[C@@H](C(=O)NCCCCCCNC(=O)c2ccc(-c3c4nc(c(-c5c(F)cccc5F)c5ccc([nH]5)c(-c5c(F)cccc5F)c5nc(c(-c6c(F)cccc6F)c6ccc3[nH]6)C=C5)C=C4)cc2)CC[N@@H+]1CC1(O)CCCC1
REMARK SMILES IDX 9 1 8 2 7 3 6 4 4 5 5 6 3 8 1 9 2 10 72 11 70 12 71 13 73 15
REMARK SMILES IDX 74 16 76 17 79 18 77 19 78 20 75 21 10 23 11 24 12 25 13 26
REMARK SMILES IDX 14 27 15 29 16 30 17 31 69 32 18 33 68 34 19 35 20 36 21 37
REMARK SMILES IDX 62 38 22 39 67 40 61 41 63 42 23 43 66 44 60 45 59 46 24 48
REMARK SMILES IDX 50 49 33 50 49 51 34 52 37 53 48 54 64 55 35 56 36 57 47 59
REMARK SMILES IDX 65 60 38 61 25 62 26 63 31 64 27 65 28 66 30 67 32 68 29 69
REMARK SMILES IDX 51 70 52 71 57 72 53 73 54 74 56 75 58 76 55 77 39 78 40 79
REMARK SMILES IDX 45 80 41 81 42 82 44 83 46 84 43 85
REMARK H PARENT 6 7 72 14 75 22 13 28 63 47 37 58
REMARK Flexibility Score: inf
ROOT
ATOM      1  C   UNL A   1      34.451  32.627  29.195  1.00  0.00     0.002 C 
ENDROOT
BRANCH   1   2
ATOM      2  C   UNL A   1      34.396  31.954  27.823  1.00  0.00     0.021 C 
BRANCH   2   3
ATOM      3  C   UNL A   1      35.446  30.857  27.621  1.00  0.00     0.116 C 
BRANCH   3   4
ATOM      4  N   UNL A   1      34.858  29.594  28.002  1.00  0.00    -0.356 N 
ATOM      5  C   UNL A   1      33.768  28.968  27.477  1.00  0.00     0.229 C 
ATOM      6  O   UNL A   1      33.168  28.203  28.235  1.00  0.00    -0.275 OA
ATOM      7  H   UNL A   1      35.306  29.121  28.739  1.00  0.00     0.163 HD
BRANCH   5   8
ATOM      8  C   UNL A   1      33.445  29.078  25.984  1.00  0.00     0.142 C 
ATOM      9  C   UNL A   1      31.397  30.710  26.417  1.00  0.00     0.076 C 
ATOM     10  C   UNL A   1      32.294  29.960  25.443  1.00  0.00     0.193 C 
ATOM     11  N   UNL A   1      31.391  29.077  24.697  1.00  0.00    -0.330 N 
ATOM     12  C   UNL A   1      33.143  27.681  25.408  1.00  0.00     0.081 C 
ATOM     13  C   UNL A   1      31.662  27.708  25.105  1.00  0.00     0.263 C 
ATOM     14  H   UNL A   1      30.432  29.307  24.957  1.00  0.00     0.348 HD
BRANCH  11  15
ATOM     15  C   UNL A   1      31.246  29.329  23.259  1.00  0.00     0.297 C 
BRANCH  15  16
ATOM     16  C   UNL A   1      29.891  29.765  22.642  1.00  0.00     0.113 C 
ATOM     17  C   UNL A   1      29.165  30.906  23.362  1.00  0.00     0.041 C 
ATOM     18  C   UNL A   1      28.853  28.639  22.751  1.00  0.00     0.041 C 
ATOM     19  C   UNL A   1      27.702  30.777  22.935  1.00  0.00     0.003 C 
ATOM     20  C   UNL A   1      27.518  29.329  22.484  1.00  0.00     0.003 C 
BRANCH  16  21
ATOM     21  O   UNL A   1      30.068  30.054  21.251  1.00  0.00    -0.384 OA
ATOM     22  H   UNL A   1      30.985  30.324  21.090  1.00  0.00     0.211 HD
ENDBRANCH  16  21
ENDBRANCH  15  16
ENDBRANCH  11  15
ENDBRANCH   5   8
ENDBRANCH   3   4
ENDBRANCH   2   3
ENDBRANCH   1   2
BRANCH   1  23
ATOM     23  C   UNL A   1      34.601  34.147  29.139  1.00  0.00     0.002 C 
BRANCH  23  24
ATOM     24  C   UNL A   1      33.281  34.925  29.100  1.00  0.00     0.021 C 
BRANCH  24  25
ATOM     25  C   UNL A   1      33.335  36.310  29.740  1.00  0.00     0.116 C 
BRANCH  25  26
ATOM     26  N   UNL A   1      32.425  36.418  30.868  1.00  0.00    -0.352 N 
ATOM     27  C   UNL A   1      32.466  35.778  32.077  1.00  0.00     0.251 C 
ATOM     28  H   UNL A   1      31.672  37.041  30.745  1.00  0.00     0.163 HD
ATOM     29  O   UNL A   1      31.488  35.795  32.823  1.00  0.00    -0.269 OA
BRANCH  27  30
ATOM     30  C   UNL A   1      33.687  35.057  32.484  1.00  0.00     0.039 A 
ATOM     31  C   UNL A   1      33.584  33.724  32.885  1.00  0.00     0.014 A 
ATOM     32  C   UNL A   1      34.928  35.703  32.486  1.00  0.00     0.014 A 
ATOM     33  C   UNL A   1      34.735  33.021  33.246  1.00  0.00     0.010 A 
ATOM     34  C   UNL A   1      36.081  34.982  32.779  1.00  0.00     0.010 A 
ATOM     35  C   UNL A   1      35.994  33.638  33.170  1.00  0.00    -0.014 A 
BRANCH  35  36
ATOM     36  C   UNL A   1      37.232  32.892  33.509  1.00  0.00     0.031 A 
ATOM     37  C   UNL A   1      37.958  33.181  34.792  1.00  0.00     0.074 A 
ATOM     38  C   UNL A   1      37.729  31.999  32.633  1.00  0.00     0.049 A 
ATOM     39  N   UNL A   1      39.081  32.676  35.237  1.00  0.00    -0.248 NA
ATOM     40  C   UNL A   1      37.358  34.186  35.682  1.00  0.00     0.031 C 
ATOM     41  C   UNL A   1      37.139  31.666  31.336  1.00  0.00     0.029 A 
ATOM     42  N   UNL A   1      38.852  31.212  32.700  1.00  0.00    -0.354 N 
ATOM     43  C   UNL A   1      39.326  33.311  36.448  1.00  0.00     0.074 A 
ATOM     44  C   UNL A   1      38.264  34.275  36.643  1.00  0.00     0.031 C 
ATOM     45  C   UNL A   1      37.892  30.727  30.739  1.00  0.00     0.029 A 
ATOM     46  C   UNL A   1      39.034  30.419  31.594  1.00  0.00     0.049 A 
ATOM     47  H   UNL A   1      39.468  31.216  33.468  1.00  0.00     0.167 HD
ATOM     48  C   UNL A   1      40.332  33.093  37.329  1.00  0.00     0.037 A 
ATOM     49  C   UNL A   1      40.016  29.546  31.300  1.00  0.00     0.037 A 
ATOM     50  C   UNL A   1      41.372  32.118  37.142  1.00  0.00     0.049 A 
ATOM     51  C   UNL A   1      41.125  29.329  32.291  1.00  0.00     0.074 A 
ATOM     52  C   UNL A   1      42.403  31.779  38.003  1.00  0.00     0.029 A 
ATOM     53  N   UNL A   1      41.519  31.326  36.013  1.00  0.00    -0.354 N 
ATOM     54  N   UNL A   1      41.308  29.888  33.462  1.00  0.00    -0.248 NA
ATOM     55  C   UNL A   1      42.163  28.357  31.919  1.00  0.00     0.031 C 
ATOM     56  C   UNL A   1      43.195  30.813  37.376  1.00  0.00     0.029 A 
ATOM     57  C   UNL A   1      42.634  30.516  36.144  1.00  0.00     0.049 A 
ATOM     58  H   UNL A   1      40.917  31.339  35.234  1.00  0.00     0.167 HD
ATOM     59  C   UNL A   1      42.464  29.318  33.978  1.00  0.00     0.074 A 
ATOM     60  C   UNL A   1      42.932  28.360  32.998  1.00  0.00     0.031 C 
ATOM     61  C   UNL A   1      43.084  29.566  35.158  1.00  0.00     0.037 A 
BRANCH  48  62
ATOM     62  C   UNL A   1      40.348  33.928  38.578  1.00  0.00     0.057 A 
ATOM     63  C   UNL A   1      39.628  33.558  39.722  1.00  0.00     0.134 A 
ATOM     64  C   UNL A   1      41.113  35.099  38.647  1.00  0.00     0.134 A 
ATOM     65  F   UNL A   1      38.866  32.455  39.719  1.00  0.00    -0.206 F 
ATOM     66  C   UNL A   1      39.646  34.338  40.880  1.00  0.00     0.040 A 
ATOM     67  C   UNL A   1      41.161  35.872  39.808  1.00  0.00     0.040 A 
ATOM     68  F   UNL A   1      41.830  35.507  37.590  1.00  0.00    -0.206 F 
ATOM     69  C   UNL A   1      40.419  35.496  40.927  1.00  0.00     0.006 A 
ENDBRANCH  48  62
BRANCH  49  70
ATOM     70  C   UNL A   1      39.979  28.793  30.022  1.00  0.00     0.057 A 
ATOM     71  C   UNL A   1      39.284  27.582  29.919  1.00  0.00     0.134 A 
ATOM     72  C   UNL A   1      40.638  29.258  28.878  1.00  0.00     0.134 A 
ATOM     73  F   UNL A   1      38.648  27.076  30.987  1.00  0.00    -0.206 F 
ATOM     74  C   UNL A   1      39.258  26.853  28.729  1.00  0.00     0.040 A 
ATOM     75  C   UNL A   1      40.601  28.550  27.676  1.00  0.00     0.040 A 
ATOM     76  F   UNL A   1      41.316  30.415  28.910  1.00  0.00    -0.206 F 
ATOM     77  C   UNL A   1      39.915  27.340  27.601  1.00  0.00     0.006 A 
ENDBRANCH  49  70
BRANCH  61  78
ATOM     78  C   UNL A   1      44.319  28.770  35.465  1.00  0.00     0.057 A 
ATOM     79  C   UNL A   1      45.596  29.226  35.116  1.00  0.00     0.134 A 
ATOM     80  C   UNL A   1      44.230  27.551  36.149  1.00  0.00     0.134 A 
ATOM     81  F   UNL A   1      45.747  30.379  34.446  1.00  0.00    -0.206 F 
ATOM     82  C   UNL A   1      46.740  28.487  35.418  1.00  0.00     0.040 A 
ATOM     83  C   UNL A   1      45.368  26.817  36.480  1.00  0.00     0.040 A 
ATOM     84  F   UNL A   1      43.037  27.063  36.519  1.00  0.00    -0.206 F 
ATOM     85  C   UNL A   1      46.629  27.282  36.109  1.00  0.00     0.006 A 
ENDBRANCH  61  78
ENDBRANCH  35  36
ENDBRANCH  27  30
ENDBRANCH  25  26
ENDBRANCH  24  25
ENDBRANCH  23  24
ENDBRANCH   1  23
TORSDOF 16
ENDMDL
MODEL 3
REMARK VINA RESULT:     -10.4      5.187      9.823
REMARK SMILES C[C@H]1[C@@H](C(=O)NCCCCCCNC(=O)c2ccc(-c3c4nc(c(-c5c(F)cccc5F)c5ccc([nH]5)c(-c5c(F)cccc5F)c5nc(c(-c6c(F)cccc6F)c6ccc3[nH]6)C=C5)C=C4)cc2)CC[N@@H+]1CC1(O)CCCC1
REMARK SMILES IDX 9 1 8 2 7 3 6 4 4 5 5 6 3 8 1 9 2 10 72 11 70 12 71 13 73 15
REMARK SMILES IDX 74 16 76 17 79 18 77 19 78 20 75 21 10 23 11 24 12 25 13 26
REMARK SMILES IDX 14 27 15 29 16 30 17 31 69 32 18 33 68 34 19 35 20 36 21 37
REMARK SMILES IDX 62 38 22 39 67 40 61 41 63 42 23 43 66 44 60 45 59 46 24 48
REMARK SMILES IDX 50 49 33 50 49 51 34 52 37 53 48 54 64 55 35 56 36 57 47 59
REMARK SMILES IDX 65 60 38 61 25 62 26 63 31 64 27 65 28 66 30 67 32 68 29 69
REMARK SMILES IDX 51 70 52 71 57 72 53 73 54 74 56 75 58 76 55 77 39 78 40 79
REMARK SMILES IDX 45 80 41 81 42 82 44 83 46 84 43 85
REMARK H PARENT 6 7 72 14 75 22 13 28 63 47 37 58
REMARK Flexibility Score: inf
ROOT
ATOM      1  C   UNL A   1      31.754  29.673  27.325  1.00  0.00     0.002 C 
ENDROOT
BRANCH   1   2
ATOM      2  C   UNL A   1      33.111  28.969  27.305  1.00  0.00     0.021 C 
BRANCH   2   3
ATOM      3  C   UNL A   1      34.073  29.490  26.233  1.00  0.00     0.116 C 
BRANCH   3   4
ATOM      4  N   UNL A   1      34.433  28.386  25.374  1.00  0.00    -0.356 N 
ATOM      5  C   UNL A   1      33.632  27.642  24.561  1.00  0.00     0.229 C 
ATOM      6  O   UNL A   1      34.019  26.495  24.325  1.00  0.00    -0.275 OA
ATOM      7  H   UNL A   1      35.385  28.139  25.376  1.00  0.00     0.163 HD
BRANCH   5   8
ATOM      8  C   UNL A   1      32.436  28.276  23.846  1.00  0.00     0.142 C 
ATOM      9  C   UNL A   1      30.682  26.930  25.313  1.00  0.00     0.076 C 
ATOM     10  C   UNL A   1      30.971  27.957  24.228  1.00  0.00     0.193 C 
ATOM     11  N   UNL A   1      30.318  27.432  23.024  1.00  0.00    -0.330 N 
ATOM     12  C   UNL A   1      32.501  27.967  22.338  1.00  0.00     0.081 C 
ATOM     13  C   UNL A   1      31.356  27.009  22.098  1.00  0.00     0.263 C 
ATOM     14  H   UNL A   1      29.770  26.613  23.288  1.00  0.00     0.348 HD
BRANCH  11  15
ATOM     15  C   UNL A   1      29.207  28.213  22.470  1.00  0.00     0.297 C 
BRANCH  15  16
ATOM     16  C   UNL A   1      29.314  29.748  22.266  1.00  0.00     0.113 C 
ATOM     17  C   UNL A   1      29.295  30.594  23.543  1.00  0.00     0.041 C 
ATOM     18  C   UNL A   1      28.078  30.289  21.534  1.00  0.00     0.041 C 
ATOM     19  C   UNL A   1      28.869  31.991  23.086  1.00  0.00     0.003 C 
ATOM     20  C   UNL A   1      28.137  31.798  21.760  1.00  0.00     0.003 C 
BRANCH  16  21
ATOM     21  O   UNL A   1      30.458  30.046  21.459  1.00  0.00    -0.384 OA
ATOM     22  H   UNL A   1      30.265  29.835  20.533  1.00  0.00     0.211 HD
ENDBRANCH  16  21
ENDBRANCH  15  16
ENDBRANCH  11  15
ENDBRANCH   5   8
ENDBRANCH   3   4
ENDBRANCH   2   3
ENDBRANCH   1   2
BRANCH   1  23
ATOM     23  C   UNL A   1      31.620  30.799  26.300  1.00  0.00     0.002 C 
BRANCH  23  24
ATOM     24  C   UNL A   1      31.444  32.199  26.898  1.00  0.00     0.021 C 
BRANCH  24  25
ATOM     25  C   UNL A   1      32.746  32.946  27.175  1.00  0.00     0.116 C 
BRANCH  25  26
ATOM     26  N   UNL A   1      32.503  34.290  27.668  1.00  0.00    -0.352 N 
ATOM     27  C   UNL A   1      33.077  34.942  28.726  1.00  0.00     0.251 C 
ATOM     28  H   UNL A   1      31.827  34.806  27.171  1.00  0.00     0.163 HD
ATOM     29  O   UNL A   1      32.583  35.982  29.158  1.00  0.00    -0.269 OA
BRANCH  27  30
ATOM     30  C   UNL A   1      34.292  34.388  29.355  1.00  0.00     0.039 A 
ATOM     31  C   UNL A   1      34.165  33.629  30.519  1.00  0.00     0.014 A 
ATOM     32  C   UNL A   1      35.554  34.636  28.806  1.00  0.00     0.014 A 
ATOM     33  C   UNL A   1      35.302  33.076  31.110  1.00  0.00     0.010 A 
ATOM     34  C   UNL A   1      36.678  34.028  29.356  1.00  0.00     0.010 A 
ATOM     35  C   UNL A   1      36.563  33.250  30.518  1.00  0.00    -0.014 A 
BRANCH  35  36
ATOM     36  C   UNL A   1      37.776  32.633  31.109  1.00  0.00     0.031 A 
ATOM     37  C   UNL A   1      38.384  31.412  30.478  1.00  0.00     0.074 A 
ATOM     38  C   UNL A   1      38.294  33.141  32.243  1.00  0.00     0.049 A 
ATOM     39  N   UNL A   1      39.407  30.699  30.877  1.00  0.00    -0.248 NA
ATOM     40  C   UNL A   1      37.744  30.910  29.253  1.00  0.00     0.031 C 
ATOM     41  C   UNL A   1      37.767  34.295  32.973  1.00  0.00     0.029 A 
ATOM     42  N   UNL A   1      39.377  32.744  32.986  1.00  0.00    -0.354 N 
ATOM     43  C   UNL A   1      39.523  29.662  29.960  1.00  0.00     0.074 A 
ATOM     44  C   UNL A   1      38.436  29.807  29.017  1.00  0.00     0.031 C 
ATOM     45  C   UNL A   1      38.540  34.527  34.046  1.00  0.00     0.029 A 
ATOM     46  C   UNL A   1      39.594  33.519  34.100  1.00  0.00     0.049 A 
ATOM     47  H   UNL A   1      39.945  31.976  32.745  1.00  0.00     0.167 HD
ATOM     48  C   UNL A   1      40.465  28.690  29.897  1.00  0.00     0.037 A 
ATOM     49  C   UNL A   1      40.534  33.421  35.058  1.00  0.00     0.037 A 
ATOM     50  C   UNL A   1      41.557  28.563  30.824  1.00  0.00     0.049 A 
ATOM     51  C   UNL A   1      41.563  32.329  34.970  1.00  0.00     0.074 A 
ATOM     52  C   UNL A   1      42.598  27.649  30.812  1.00  0.00     0.029 A 
ATOM     53  N   UNL A   1      41.750  29.373  31.934  1.00  0.00    -0.354 N 
ATOM     54  N   UNL A   1      41.700  31.395  34.061  1.00  0.00    -0.248 NA
ATOM     55  C   UNL A   1      42.569  32.280  36.040  1.00  0.00     0.031 C 
ATOM     56  C   UNL A   1      43.395  27.881  31.938  1.00  0.00     0.029 A 
ATOM     57  C   UNL A   1      42.878  28.966  32.626  1.00  0.00     0.049 A 
ATOM     58  H   UNL A   1      41.169  30.125  32.190  1.00  0.00     0.167 HD
ATOM     59  C   UNL A   1      42.820  30.664  34.434  1.00  0.00     0.074 A 
ATOM     60  C   UNL A   1      43.333  31.273  35.644  1.00  0.00     0.031 C 
ATOM     61  C   UNL A   1      43.375  29.585  33.829  1.00  0.00     0.037 A 
BRANCH  48  62
ATOM     62  C   UNL A   1      40.351  27.689  28.783  1.00  0.00     0.057 A 
ATOM     63  C   UNL A   1      41.035  27.854  27.570  1.00  0.00     0.134 A 
ATOM     64  C   UNL A   1      39.572  26.536  28.932  1.00  0.00     0.134 A 
ATOM     65  F   UNL A   1      41.789  28.943  27.357  1.00  0.00    -0.206 F 
ATOM     66  C   UNL A   1      40.925  26.922  26.537  1.00  0.00     0.040 A 
ATOM     67  C   UNL A   1      39.477  25.583  27.916  1.00  0.00     0.040 A 
ATOM     68  F   UNL A   1      38.896  26.313  30.069  1.00  0.00    -0.206 F 
ATOM     69  C   UNL A   1      40.148  25.779  26.711  1.00  0.00     0.006 A 
ENDBRANCH  48  62
BRANCH  49  70
ATOM     70  C   UNL A   1      40.561  34.404  36.171  1.00  0.00     0.057 A 
ATOM     71  C   UNL A   1      41.338  35.565  36.087  1.00  0.00     0.134 A 
ATOM     72  C   UNL A   1      39.819  34.206  37.341  1.00  0.00     0.134 A 
ATOM     73  F   UNL A   1      42.084  35.801  34.998  1.00  0.00    -0.206 F 
ATOM     74  C   UNL A   1      41.389  36.487  37.134  1.00  0.00     0.040 A 
ATOM     75  C   UNL A   1      39.843  35.131  38.386  1.00  0.00     0.040 A 
ATOM     76  F   UNL A   1      39.049  33.116  37.479  1.00  0.00    -0.206 F 
ATOM     77  C   UNL A   1      40.635  36.273  38.286  1.00  0.00     0.006 A 
ENDBRANCH  49  70
BRANCH  61  78
ATOM     78  C   UNL A   1      44.614  29.012  34.452  1.00  0.00     0.057 A 
ATOM     79  C   UNL A   1      44.555  27.982  35.398  1.00  0.00     0.134 A 
ATOM     80  C   UNL A   1      45.882  29.471  34.071  1.00  0.00     0.134 A 
ATOM     81  F   UNL A   1      43.371  27.508  35.815  1.00  0.00    -0.206 F 
ATOM     82  C   UNL A   1      45.713  27.444  35.961  1.00  0.00     0.040 A 
ATOM     83  C   UNL A   1      47.047  28.923  34.607  1.00  0.00     0.040 A 
ATOM     84  F   UNL A   1      46.007  30.451  33.163  1.00  0.00    -0.206 F 
ATOM     85  C   UNL A   1      46.964  27.910  35.560  1.00  0.00     0.006 A 
ENDBRANCH  61  78
ENDBRANCH  35  36
ENDBRANCH  27  30
ENDBRANCH  25  26
ENDBRANCH  24  25
ENDBRANCH  23  24
ENDBRANCH   1  23
TORSDOF 16
ENDMDL
