MODEL 1
REMARK VINA RESULT:     -11.5      0.000      0.000
REMARK SMILES NS(=O)(=O)c1ccc(-n2nc(NC(=O)NCCCC(=O)NCCCCCCNC(=O)c3ccc(-c4c5nc(c(-c6c(F)cccc6F)c6ccc([nH]6)c(-c6c(F)cccc6F)c6nc(c(-c7c(F)cccc7F)c7ccc4[nH]7)C=C6)C=C5)cc3)cc2-c2ccccc2)cc1
REMARK SMILES IDX 22 1 21 2 19 3 20 4 18 6 17 7 16 8 15 9 12 10 13 11 14 13
REMARK SMILES IDX 11 15 9 16 10 17 86 18 85 19 8 20 5 21 6 22 94 23 7 24 93 25
REMARK SMILES IDX 2 26 3 27 4 28 1 29 87 32 88 33 92 34 89 35 91 36 90 37
REMARK SMILES IDX 23 38 24 39 25 40 26 41 27 42 28 43 29 44 30 46 31 47 32 48
REMARK SMILES IDX 84 49 33 50 83 51 34 52 35 53 36 54 77 55 37 56 82 57 76 58
REMARK SMILES IDX 78 59 38 60 81 61 75 62 74 63 39 65 65 66 48 67 64 68 49 69
REMARK SMILES IDX 52 70 63 71 79 72 50 73 51 74 62 76 80 77 53 78 40 79 41 80
REMARK SMILES IDX 46 81 42 82 43 83 45 84 47 85 44 86 66 87 67 88 72 89 68 90
REMARK SMILES IDX 69 91 71 92 73 93 70 94 54 95 55 96 60 97 56 98 57 99 59 100
REMARK SMILES IDX 61 101 58 102
REMARK H PARENT 21 5 12 12 15 14 1 30 1 31 28 45 78 64 52 75
REMARK Flexibility Score: inf
ROOT
ATOM      1  C   UNL A   1      31.821  29.692  24.908  1.00  0.00     0.116 C 
ENDROOT
BRANCH   1   2
ATOM      2  N   UNL A   1      33.108  29.665  24.241  1.00  0.00    -0.356 N 
ATOM      3  C   UNL A   1      33.508  28.966  23.145  1.00  0.00     0.220 C 
ATOM      4  O   UNL A   1      34.711  28.930  22.884  1.00  0.00    -0.275 OA
ATOM      5  H   UNL A   1      33.798  30.241  24.643  1.00  0.00     0.163 HD
BRANCH   3   6
ATOM      6  C   UNL A   1      32.490  28.295  22.236  1.00  0.00     0.102 C 
BRANCH   6   7
ATOM      7  C   UNL A   1      32.673  26.794  22.044  1.00  0.00     0.031 C 
BRANCH   7   8
ATOM      8  C   UNL A   1      31.399  25.973  22.068  1.00  0.00     0.118 C 
BRANCH   8   9
ATOM      9  N   UNL A   1      30.230  26.490  22.752  1.00  0.00    -0.338 N 
ATOM     10  N   UNL A   1      29.871  24.824  24.432  1.00  0.00    -0.291 N 
ATOM     11  C   UNL A   1      29.573  26.009  23.842  1.00  0.00     0.320 C 
ATOM     12  H   UNL A   1      29.159  24.451  25.000  1.00  0.00     0.173 HD
ATOM     13  O   UNL A   1      28.584  26.633  24.238  1.00  0.00    -0.248 OA
ATOM     14  H   UNL A   1      29.855  27.316  22.369  1.00  0.00     0.165 HD
BRANCH  10  15
ATOM     15  C   UNL A   1      31.012  24.066  24.356  1.00  0.00     0.157 A 
ATOM     16  N   UNL A   1      32.128  22.289  24.324  1.00  0.00    -0.231 N 
ATOM     17  N   UNL A   1      31.086  22.891  23.732  1.00  0.00    -0.149 NA
ATOM     18  C   UNL A   1      33.009  23.234  24.806  1.00  0.00     0.076 A 
ATOM     19  C   UNL A   1      32.284  24.413  24.859  1.00  0.00     0.078 A 
BRANCH  16  20
ATOM     20  C   UNL A   1      32.222  20.870  24.402  1.00  0.00     0.065 A 
ATOM     21  C   UNL A   1      32.907  18.170  24.440  1.00  0.00     0.082 A 
ATOM     22  C   UNL A   1      32.923  18.898  25.632  1.00  0.00     0.024 A 
ATOM     23  C   UNL A   1      32.490  18.764  23.244  1.00  0.00     0.024 A 
ATOM     24  C   UNL A   1      32.564  20.248  25.617  1.00  0.00     0.030 A 
ATOM     25  C   UNL A   1      32.152  20.116  23.225  1.00  0.00     0.030 A 
BRANCH  21  26
ATOM     26  S   UNL A   1      33.517  16.511  24.362  1.00  0.00     0.238 S 
ATOM     27  O   UNL A   1      34.051  16.298  23.038  1.00  0.00    -0.207 OA
ATOM     28  O   UNL A   1      32.544  15.632  24.965  1.00  0.00    -0.207 OA
BRANCH  26  29
ATOM     29  N   UNL A   1      34.844  16.485  25.393  1.00  0.00    -0.225 NA
ATOM     30  H   UNL A   1      34.530  16.308  26.347  1.00  0.00     0.137 HD
ATOM     31  H   UNL A   1      35.323  17.384  25.353  1.00  0.00     0.137 HD
ENDBRANCH  26  29
ENDBRANCH  21  26
ENDBRANCH  16  20
BRANCH  18  32
ATOM     32  C   UNL A   1      34.415  22.933  25.003  1.00  0.00     0.000 A 
ATOM     33  C   UNL A   1      35.375  22.573  23.518  1.00  0.00     0.010 A 
ATOM     34  C   UNL A   1      35.155  23.217  26.573  1.00  0.00     0.010 A 
ATOM     35  C   UNL A   1      37.109  22.413  23.474  1.00  0.00     0.001 A 
ATOM     36  C   UNL A   1      36.946  23.116  26.668  1.00  0.00     0.001 A 
ATOM     37  C   UNL A   1      37.982  22.663  25.003  1.00  0.00     0.000 A 
ENDBRANCH  18  32
ENDBRANCH  10  15
ENDBRANCH   8   9
ENDBRANCH   7   8
ENDBRANCH   6   7
ENDBRANCH   3   6
ENDBRANCH   1   2
BRANCH   1  38
ATOM     38  C   UNL A   1      31.726  28.536  25.899  1.00  0.00     0.021 C 
BRANCH  38  39
ATOM     39  C   UNL A   1      32.398  28.798  27.245  1.00  0.00     0.002 C 
BRANCH  39  40
ATOM     40  C   UNL A   1      33.899  28.497  27.249  1.00  0.00     0.002 C 
BRANCH  40  41
ATOM     41  C   UNL A   1      34.810  29.733  27.239  1.00  0.00     0.021 C 
BRANCH  41  42
ATOM     42  C   UNL A   1      36.074  29.520  28.049  1.00  0.00     0.116 C 
BRANCH  42  43
ATOM     43  N   UNL A   1      35.965  30.102  29.395  1.00  0.00    -0.352 N 
ATOM     44  C   UNL A   1      36.653  29.747  30.542  1.00  0.00     0.251 C 
ATOM     45  H   UNL A   1      35.319  30.839  29.493  1.00  0.00     0.163 HD
ATOM     46  O   UNL A   1      36.256  30.049  31.658  1.00  0.00    -0.269 OA
BRANCH  44  47
ATOM     47  C   UNL A   1      37.942  29.071  30.363  1.00  0.00     0.039 A 
ATOM     48  C   UNL A   1      38.198  27.720  30.603  1.00  0.00     0.014 A 
ATOM     49  C   UNL A   1      38.972  29.897  29.962  1.00  0.00     0.014 A 
ATOM     50  C   UNL A   1      39.514  27.275  30.430  1.00  0.00     0.010 A 
ATOM     51  C   UNL A   1      39.981  29.315  29.283  1.00  0.00     0.010 A 
ATOM     52  C   UNL A   1      40.435  28.152  29.841  1.00  0.00    -0.014 A 
BRANCH  52  53
ATOM     53  C   UNL A   1      41.809  27.864  29.476  1.00  0.00     0.031 A 
ATOM     54  C   UNL A   1      41.883  26.708  28.553  1.00  0.00     0.074 A 
ATOM     55  C   UNL A   1      42.829  28.718  29.756  1.00  0.00     0.049 A 
ATOM     56  N   UNL A   1      42.195  25.496  28.865  1.00  0.00    -0.248 NA
ATOM     57  C   UNL A   1      41.288  26.831  27.207  1.00  0.00     0.031 C 
ATOM     58  C   UNL A   1      42.805  30.037  30.408  1.00  0.00     0.029 A 
ATOM     59  N   UNL A   1      44.165  28.555  29.499  1.00  0.00    -0.354 N 
ATOM     60  C   UNL A   1      42.127  24.781  27.677  1.00  0.00     0.074 A 
ATOM     61  C   UNL A   1      41.316  25.563  26.789  1.00  0.00     0.031 C 
ATOM     62  C   UNL A   1      44.024  30.626  30.318  1.00  0.00     0.029 A 
ATOM     63  C   UNL A   1      44.967  29.693  29.718  1.00  0.00     0.049 A 
ATOM     64  H   UNL A   1      44.539  27.700  29.183  1.00  0.00     0.167 HD
ATOM     65  C   UNL A   1      43.028  23.792  27.431  1.00  0.00     0.037 A 
ATOM     66  C   UNL A   1      46.290  29.808  29.366  1.00  0.00     0.037 A 
ATOM     67  C   UNL A   1      43.693  23.407  28.658  1.00  0.00     0.049 A 
ATOM     68  C   UNL A   1      46.814  28.436  29.229  1.00  0.00     0.074 A 
ATOM     69  C   UNL A   1      43.279  22.879  29.866  1.00  0.00     0.029 A 
ATOM     70  N   UNL A   1      44.907  24.000  28.911  1.00  0.00    -0.354 N 
ATOM     71  N   UNL A   1      46.883  27.631  30.256  1.00  0.00    -0.248 NA
ATOM     72  C   UNL A   1      46.640  27.811  27.923  1.00  0.00     0.031 C 
ATOM     73  C   UNL A   1      44.002  23.612  30.857  1.00  0.00     0.029 A 
ATOM     74  C   UNL A   1      44.900  24.456  30.207  1.00  0.00     0.049 A 
ATOM     75  H   UNL A   1      45.652  24.084  28.272  1.00  0.00     0.167 HD
ATOM     76  C   UNL A   1      46.321  26.450  29.800  1.00  0.00     0.074 A 
ATOM     77  C   UNL A   1      46.188  26.624  28.346  1.00  0.00     0.031 C 
ATOM     78  C   UNL A   1      45.691  25.581  30.644  1.00  0.00     0.037 A 
BRANCH  65  79
ATOM     79  C   UNL A   1      43.631  23.514  26.073  1.00  0.00     0.057 A 
ATOM     80  C   UNL A   1      43.653  22.188  25.609  1.00  0.00     0.134 A 
ATOM     81  C   UNL A   1      44.438  24.413  25.341  1.00  0.00     0.134 A 
ATOM     82  F   UNL A   1      42.936  21.234  26.220  1.00  0.00    -0.206 F 
ATOM     83  C   UNL A   1      44.477  21.773  24.555  1.00  0.00     0.040 A 
ATOM     84  C   UNL A   1      45.227  24.018  24.258  1.00  0.00     0.040 A 
ATOM     85  F   UNL A   1      44.595  25.696  25.683  1.00  0.00    -0.206 F 
ATOM     86  C   UNL A   1      45.275  22.687  23.881  1.00  0.00     0.006 A 
ENDBRANCH  65  79
BRANCH  66  87
ATOM     87  C   UNL A   1      46.962  30.978  28.748  1.00  0.00     0.057 A 
ATOM     88  C   UNL A   1      46.846  31.585  27.091  1.00  0.00     0.134 A 
ATOM     89  C   UNL A   1      47.847  32.013  29.890  1.00  0.00     0.134 A 
ATOM     90  F   UNL A   1      46.130  30.889  26.194  1.00  0.00    -0.206 F 
ATOM     91  C   UNL A   1      47.600  33.107  26.500  1.00  0.00     0.040 A 
ATOM     92  C   UNL A   1      48.721  33.714  29.259  1.00  0.00     0.040 A 
ATOM     93  F   UNL A   1      47.711  31.538  31.165  1.00  0.00    -0.206 F 
ATOM     94  C   UNL A   1      48.540  34.185  27.536  1.00  0.00     0.006 A 
ENDBRANCH  66  87
BRANCH  78  95
ATOM     95  C   UNL A   1      45.700  25.894  32.122  1.00  0.00     0.057 A 
ATOM     96  C   UNL A   1      46.813  25.762  32.974  1.00  0.00     0.134 A 
ATOM     97  C   UNL A   1      44.571  26.497  32.673  1.00  0.00     0.134 A 
ATOM     98  F   UNL A   1      47.977  25.286  32.526  1.00  0.00    -0.206 F 
ATOM     99  C   UNL A   1      46.790  26.181  34.312  1.00  0.00     0.040 A 
ATOM    100  C   UNL A   1      44.539  26.943  33.997  1.00  0.00     0.040 A 
ATOM    101  F   UNL A   1      43.490  26.710  31.908  1.00  0.00    -0.206 F 
ATOM    102  C   UNL A   1      45.646  26.780  34.826  1.00  0.00     0.006 A 
ENDBRANCH  78  95
ENDBRANCH  52  53
ENDBRANCH  44  47
ENDBRANCH  42  43
ENDBRANCH  41  42
ENDBRANCH  40  41
ENDBRANCH  39  40
ENDBRANCH  38  39
ENDBRANCH   1  38
TORSDOF 21
ENDMDL
MODEL 2
REMARK VINA RESULT:     -11.4      1.787      6.000
REMARK SMILES NS(=O)(=O)c1ccc(-n2nc(NC(=O)NCCCC(=O)NCCCCCCNC(=O)c3ccc(-c4c5nc(c(-c6c(F)cccc6F)c6ccc([nH]6)c(-c6c(F)cccc6F)c6nc(c(-c7c(F)cccc7F)c7ccc4[nH]7)C=C6)C=C5)cc3)cc2-c2ccccc2)cc1
REMARK SMILES IDX 22 1 21 2 19 3 20 4 18 6 17 7 16 8 15 9 12 10 13 11 14 13
REMARK SMILES IDX 11 15 9 16 10 17 86 18 85 19 8 20 5 21 6 22 94 23 7 24 93 25
REMARK SMILES IDX 2 26 3 27 4 28 1 29 87 32 88 33 92 34 89 35 91 36 90 37
REMARK SMILES IDX 23 38 24 39 25 40 26 41 27 42 28 43 29 44 30 46 31 47 32 48
REMARK SMILES IDX 84 49 33 50 83 51 34 52 35 53 36 54 77 55 37 56 82 57 76 58
REMARK SMILES IDX 78 59 38 60 81 61 75 62 74 63 39 65 65 66 48 67 64 68 49 69
REMARK SMILES IDX 52 70 63 71 79 72 50 73 51 74 62 76 80 77 53 78 40 79 41 80
REMARK SMILES IDX 46 81 42 82 43 83 45 84 47 85 44 86 66 87 67 88 72 89 68 90
REMARK SMILES IDX 69 91 71 92 73 93 70 94 54 95 55 96 60 97 56 98 57 99 59 100
REMARK SMILES IDX 61 101 58 102
REMARK H PARENT 21 5 12 12 15 14 1 30 1 31 28 45 78 64 52 75
REMARK Flexibility Score: inf
ROOT
ATOM      1  C   UNL A   1      31.748  29.294  24.733  1.00  0.00     0.116 C 
ENDROOT
BRANCH   1   2
ATOM      2  N   UNL A   1      33.080  29.423  24.175  1.00  0.00    -0.356 N 
ATOM      3  C   UNL A   1      33.616  28.860  23.059  1.00  0.00     0.220 C 
ATOM      4  O   UNL A   1      34.834  28.934  22.895  1.00  0.00    -0.275 OA
ATOM      5  H   UNL A   1      33.690  30.008  24.680  1.00  0.00     0.163 HD
BRANCH   3   6
ATOM      6  C   UNL A   1      32.725  28.204  22.014  1.00  0.00     0.102 C 
BRANCH   6   7
ATOM      7  C   UNL A   1      32.810  26.684  21.942  1.00  0.00     0.031 C 
BRANCH   7   8
ATOM      8  C   UNL A   1      31.481  25.958  21.884  1.00  0.00     0.118 C 
BRANCH   8   9
ATOM      9  N   UNL A   1      30.329  26.524  22.560  1.00  0.00    -0.338 N 
ATOM     10  N   UNL A   1      29.965  24.938  24.314  1.00  0.00    -0.291 N 
ATOM     11  C   UNL A   1      29.679  26.101  23.678  1.00  0.00     0.320 C 
ATOM     12  H   UNL A   1      29.256  24.602  24.908  1.00  0.00     0.173 HD
ATOM     13  O   UNL A   1      28.705  26.757  24.058  1.00  0.00    -0.248 OA
ATOM     14  H   UNL A   1      29.962  27.338  22.146  1.00  0.00     0.165 HD
BRANCH  10  15
ATOM     15  C   UNL A   1      31.093  24.158  24.258  1.00  0.00     0.157 A 
ATOM     16  N   UNL A   1      32.176  22.361  24.243  1.00  0.00    -0.231 N 
ATOM     17  N   UNL A   1      31.156  22.983  23.633  1.00  0.00    -0.149 NA
ATOM     18  C   UNL A   1      33.066  23.289  24.742  1.00  0.00     0.076 A 
ATOM     19  C   UNL A   1      32.362  24.481  24.784  1.00  0.00     0.078 A 
BRANCH  16  20
ATOM     20  C   UNL A   1      32.242  20.940  24.320  1.00  0.00     0.065 A 
ATOM     21  C   UNL A   1      32.882  18.230  24.407  1.00  0.00     0.082 A 
ATOM     22  C   UNL A   1      32.792  18.951  25.600  1.00  0.00     0.024 A 
ATOM     23  C   UNL A   1      32.591  18.837  23.180  1.00  0.00     0.024 A 
ATOM     24  C   UNL A   1      32.456  20.307  25.558  1.00  0.00     0.030 A 
ATOM     25  C   UNL A   1      32.275  20.194  23.137  1.00  0.00     0.030 A 
BRANCH  21  26
ATOM     26  S   UNL A   1      33.472  16.563  24.377  1.00  0.00     0.238 S 
ATOM     27  O   UNL A   1      33.845  16.250  23.018  1.00  0.00    -0.207 OA
ATOM     28  O   UNL A   1      32.576  15.740  25.153  1.00  0.00    -0.207 OA
BRANCH  26  29
ATOM     29  N   UNL A   1      34.913  16.594  25.243  1.00  0.00    -0.225 NA
ATOM     30  H   UNL A   1      34.938  15.806  25.889  1.00  0.00     0.137 HD
ATOM     31  H   UNL A   1      34.975  17.467  25.767  1.00  0.00     0.137 HD
ENDBRANCH  26  29
ENDBRANCH  21  26
ENDBRANCH  16  20
BRANCH  18  32
ATOM     32  C   UNL A   1      34.462  22.961  24.963  1.00  0.00     0.000 A 
ATOM     33  C   UNL A   1      35.454  22.637  23.491  1.00  0.00     0.010 A 
ATOM     34  C   UNL A   1      35.167  23.181  26.560  1.00  0.00     0.010 A 
ATOM     35  C   UNL A   1      37.186  22.453  23.484  1.00  0.00     0.001 A 
ATOM     36  C   UNL A   1      36.953  23.052  26.695  1.00  0.00     0.001 A 
ATOM     37  C   UNL A   1      38.024  22.640  25.042  1.00  0.00     0.000 A 
ENDBRANCH  18  32
ENDBRANCH  10  15
ENDBRANCH   8   9
ENDBRANCH   7   8
ENDBRANCH   6   7
ENDBRANCH   3   6
ENDBRANCH   1   2
BRANCH   1  38
ATOM     38  C   UNL A   1      31.830  28.704  26.138  1.00  0.00     0.021 C 
BRANCH  38  39
ATOM     39  C   UNL A   1      32.060  29.730  27.245  1.00  0.00     0.002 C 
BRANCH  39  40
ATOM     40  C   UNL A   1      33.540  30.014  27.517  1.00  0.00     0.002 C 
BRANCH  40  41
ATOM     41  C   UNL A   1      33.938  31.496  27.464  1.00  0.00     0.021 C 
BRANCH  41  42
ATOM     42  C   UNL A   1      35.392  31.714  27.835  1.00  0.00     0.116 C 
BRANCH  42  43
ATOM     43  N   UNL A   1      35.535  32.651  28.959  1.00  0.00    -0.352 N 
ATOM     44  C   UNL A   1      36.080  32.416  30.208  1.00  0.00     0.251 C 
ATOM     45  H   UNL A   1      35.200  33.564  28.802  1.00  0.00     0.163 HD
ATOM     46  O   UNL A   1      35.849  33.140  31.165  1.00  0.00    -0.269 OA
BRANCH  44  47
ATOM     47  C   UNL A   1      37.035  31.309  30.321  1.00  0.00     0.039 A 
ATOM     48  C   UNL A   1      36.712  29.953  30.392  1.00  0.00     0.014 A 
ATOM     49  C   UNL A   1      38.357  31.698  30.403  1.00  0.00     0.014 A 
ATOM     50  C   UNL A   1      37.767  29.049  30.558  1.00  0.00     0.010 A 
ATOM     51  C   UNL A   1      39.274  30.806  29.977  1.00  0.00     0.010 A 
ATOM     52  C   UNL A   1      39.077  29.534  30.440  1.00  0.00    -0.014 A 
BRANCH  52  53
ATOM     53  C   UNL A   1      40.304  28.761  30.470  1.00  0.00     0.031 A 
ATOM     54  C   UNL A   1      40.883  28.734  31.832  1.00  0.00     0.074 A 
ATOM     55  C   UNL A   1      40.691  27.975  29.431  1.00  0.00     0.049 A 
ATOM     56  N   UNL A   1      41.866  29.451  32.262  1.00  0.00    -0.248 NA
ATOM     57  C   UNL A   1      40.137  28.057  32.911  1.00  0.00     0.031 C 
ATOM     58  C   UNL A   1      40.021  27.704  28.149  1.00  0.00     0.029 A 
ATOM     59  N   UNL A   1      41.832  27.224  29.316  1.00  0.00    -0.354 N 
ATOM     60  C   UNL A   1      42.043  29.075  33.586  1.00  0.00     0.074 A 
ATOM     61  C   UNL A   1      40.815  28.454  33.991  1.00  0.00     0.031 C 
ATOM     62  C   UNL A   1      40.667  26.715  27.482  1.00  0.00     0.029 A 
ATOM     63  C   UNL A   1      41.873  26.350  28.210  1.00  0.00     0.049 A 
ATOM     64  H   UNL A   1      42.573  27.292  29.961  1.00  0.00     0.167 HD
ATOM     65  C   UNL A   1      43.298  29.001  34.106  1.00  0.00     0.037 A 
ATOM     66  C   UNL A   1      42.833  25.391  27.996  1.00  0.00     0.037 A 
ATOM     67  C   UNL A   1      44.233  29.705  33.254  1.00  0.00     0.049 A 
ATOM     68  C   UNL A   1      44.014  25.786  28.787  1.00  0.00     0.074 A 
ATOM     69  C   UNL A   1      44.368  31.013  32.829  1.00  0.00     0.029 A 
ATOM     70  N   UNL A   1      44.921  28.947  32.338  1.00  0.00    -0.354 N 
ATOM     71  N   UNL A   1      44.672  26.883  28.520  1.00  0.00    -0.248 NA
ATOM     72  C   UNL A   1      44.037  25.336  30.174  1.00  0.00     0.031 C 
ATOM     73  C   UNL A   1      44.685  30.919  31.438  1.00  0.00     0.029 A 
ATOM     74  C   UNL A   1      44.845  29.573  31.118  1.00  0.00     0.049 A 
ATOM     75  H   UNL A   1      45.387  28.099  32.525  1.00  0.00     0.167 HD
ATOM     76  C   UNL A   1      44.816  27.501  29.751  1.00  0.00     0.074 A 
ATOM     77  C   UNL A   1      44.401  26.494  30.738  1.00  0.00     0.031 C 
ATOM     78  C   UNL A   1      44.916  28.859  29.865  1.00  0.00     0.037 A 
BRANCH  65  79
ATOM     79  C   UNL A   1      43.750  27.938  35.081  1.00  0.00     0.057 A 
ATOM     80  C   UNL A   1      44.450  28.338  36.232  1.00  0.00     0.134 A 
ATOM     81  C   UNL A   1      43.792  26.552  34.813  1.00  0.00     0.134 A 
ATOM     82  F   UNL A   1      44.494  29.629  36.595  1.00  0.00    -0.206 F 
ATOM     83  C   UNL A   1      45.202  27.445  37.005  1.00  0.00     0.040 A 
ATOM     84  C   UNL A   1      44.501  25.645  35.605  1.00  0.00     0.040 A 
ATOM     85  F   UNL A   1      43.244  26.002  33.724  1.00  0.00    -0.206 F 
ATOM     86  C   UNL A   1      45.237  26.094  36.688  1.00  0.00     0.006 A 
ENDBRANCH  65  79
BRANCH  66  87
ATOM     87  C   UNL A   1      42.630  24.001  27.517  1.00  0.00     0.057 A 
ATOM     88  C   UNL A   1      41.172  23.000  27.582  1.00  0.00     0.134 A 
ATOM     89  C   UNL A   1      43.984  23.334  26.582  1.00  0.00     0.134 A 
ATOM     90  F   UNL A   1      40.086  23.476  28.211  1.00  0.00    -0.206 F 
ATOM     91  C   UNL A   1      41.010  21.374  26.832  1.00  0.00     0.040 A 
ATOM     92  C   UNL A   1      43.845  21.507  25.745  1.00  0.00     0.040 A 
ATOM     93  F   UNL A   1      44.975  24.267  26.449  1.00  0.00    -0.206 F 
ATOM     94  C   UNL A   1      42.308  20.596  25.921  1.00  0.00     0.006 A 
ENDBRANCH  66  87
BRANCH  78  95
ATOM     95  C   UNL A   1      44.960  29.678  28.597  1.00  0.00     0.057 A 
ATOM     96  C   UNL A   1      43.861  30.342  28.020  1.00  0.00     0.134 A 
ATOM     97  C   UNL A   1      46.203  29.927  28.019  1.00  0.00     0.134 A 
ATOM     98  F   UNL A   1      42.639  30.252  28.551  1.00  0.00    -0.206 F 
ATOM     99  C   UNL A   1      43.992  31.183  26.906  1.00  0.00     0.040 A 
ATOM    100  C   UNL A   1      46.355  30.782  26.924  1.00  0.00     0.040 A 
ATOM    101  F   UNL A   1      47.306  29.376  28.547  1.00  0.00    -0.206 F 
ATOM    102  C   UNL A   1      45.248  31.409  26.357  1.00  0.00     0.006 A 
ENDBRANCH  78  95
ENDBRANCH  52  53
ENDBRANCH  44  47
ENDBRANCH  42  43
ENDBRANCH  41  42
ENDBRANCH  40  41
ENDBRANCH  39  40
ENDBRANCH  38  39
ENDBRANCH   1  38
TORSDOF 21
ENDMDL
MODEL 3
REMARK VINA RESULT:     -11.4      2.651      6.566
REMARK SMILES NS(=O)(=O)c1ccc(-n2nc(NC(=O)NCCCC(=O)NCCCCCCNC(=O)c3ccc(-c4c5nc(c(-c6c(F)cccc6F)c6ccc([nH]6)c(-c6c(F)cccc6F)c6nc(c(-c7c(F)cccc7F)c7ccc4[nH]7)C=C6)C=C5)cc3)cc2-c2ccccc2)cc1
REMARK SMILES IDX 22 1 21 2 19 3 20 4 18 6 17 7 16 8 15 9 12 10 13 11 14 13
REMARK SMILES IDX 11 15 9 16 10 17 86 18 85 19 8 20 5 21 6 22 94 23 7 24 93 25
REMARK SMILES IDX 2 26 3 27 4 28 1 29 87 32 88 33 92 34 89 35 91 36 90 37
REMARK SMILES IDX 23 38 24 39 25 40 26 41 27 42 28 43 29 44 30 46 31 47 32 48
REMARK SMILES IDX 84 49 33 50 83 51 34 52 35 53 36 54 77 55 37 56 82 57 76 58
REMARK SMILES IDX 78 59 38 60 81 61 75 62 74 63 39 65 65 66 48 67 64 68 49 69
REMARK SMILES IDX 52 70 63 71 79 72 50 73 51 74 62 76 80 77 53 78 40 79 41 80
REMARK SMILES IDX 46 81 42 82 43 83 45 84 47 85 44 86 66 87 67 88 72 89 68 90
REMARK SMILES IDX 69 91 71 92 73 93 70 94 54 95 55 96 60 97 56 98 57 99 59 100
REMARK SMILES IDX 61 101 58 102
REMARK H PARENT 21 5 12 12 15 14 1 30 1 31 28 45 78 64 52 75
REMARK Flexibility Score: inf
ROOT
ATOM      1  C   UNL A   1      33.853  27.408  22.850  1.00  0.00     0.116 C 
ENDROOT
BRANCH   1   2
ATOM      2  N   UNL A   1      33.293  26.993  21.578  1.00  0.00    -0.356 N 
ATOM      3  C   UNL A   1      32.889  25.763  21.163  1.00  0.00     0.220 C 
ATOM      4  O   UNL A   1      32.649  25.602  19.966  1.00  0.00    -0.275 OA
ATOM      5  H   UNL A   1      33.189  27.713  20.914  1.00  0.00     0.163 HD
BRANCH   3   6
ATOM      6  C   UNL A   1      32.688  24.632  22.160  1.00  0.00     0.102 C 
BRANCH   6   7
ATOM      7  C   UNL A   1      31.485  24.780  23.084  1.00  0.00     0.031 C 
BRANCH   7   8
ATOM      8  C   UNL A   1      31.802  25.191  24.508  1.00  0.00     0.118 C 
BRANCH   8   9
ATOM      9  N   UNL A   1      30.766  25.797  25.323  1.00  0.00    -0.338 N 
ATOM     10  N   UNL A   1      29.982  23.922  26.586  1.00  0.00    -0.291 N 
ATOM     11  C   UNL A   1      29.985  25.246  26.291  1.00  0.00     0.320 C 
ATOM     12  H   UNL A   1      29.187  23.605  27.073  1.00  0.00     0.173 HD
ATOM     13  O   UNL A   1      29.157  25.975  26.844  1.00  0.00    -0.248 OA
ATOM     14  H   UNL A   1      30.604  26.752  25.148  1.00  0.00     0.165 HD
BRANCH  10  15
ATOM     15  C   UNL A   1      30.917  22.957  26.310  1.00  0.00     0.157 A 
ATOM     16  N   UNL A   1      32.845  22.211  25.949  1.00  0.00    -0.231 N 
ATOM     17  N   UNL A   1      32.143  22.935  26.832  1.00  0.00    -0.149 NA
ATOM     18  C   UNL A   1      32.012  21.330  25.291  1.00  0.00     0.076 A 
ATOM     19  C   UNL A   1      30.732  21.819  25.495  1.00  0.00     0.078 A 
BRANCH  16  20
ATOM     20  C   UNL A   1      34.247  22.399  25.779  1.00  0.00     0.065 A 
ATOM     21  C   UNL A   1      37.001  22.773  25.966  1.00  0.00     0.082 A 
ATOM     22  C   UNL A   1      36.492  21.477  25.854  1.00  0.00     0.024 A 
ATOM     23  C   UNL A   1      36.151  23.882  25.920  1.00  0.00     0.024 A 
ATOM     24  C   UNL A   1      35.111  21.289  25.745  1.00  0.00     0.030 A 
ATOM     25  C   UNL A   1      34.772  23.695  25.831  1.00  0.00     0.030 A 
BRANCH  21  26
ATOM     26  S   UNL A   1      38.716  23.068  26.284  1.00  0.00     0.238 S 
ATOM     27  O   UNL A   1      39.465  21.965  25.729  1.00  0.00    -0.207 OA
ATOM     28  O   UNL A   1      38.865  23.507  27.650  1.00  0.00    -0.207 OA
BRANCH  26  29
ATOM     29  N   UNL A   1      39.112  24.401  25.339  1.00  0.00    -0.225 NA
ATOM     30  H   UNL A   1      38.346  25.074  25.363  1.00  0.00     0.137 HD
ATOM     31  H   UNL A   1      39.271  24.100  24.378  1.00  0.00     0.137 HD
ENDBRANCH  26  29
ENDBRANCH  21  26
ENDBRANCH  16  20
BRANCH  18  32
ATOM     32  C   UNL A   1      32.515  20.103  24.702  1.00  0.00     0.000 A 
ATOM     33  C   UNL A   1      32.865  18.750  25.843  1.00  0.00     0.010 A 
ATOM     34  C   UNL A   1      32.476  19.894  22.956  1.00  0.00     0.010 A 
ATOM     35  C   UNL A   1      33.250  17.121  25.360  1.00  0.00     0.001 A 
ATOM     36  C   UNL A   1      32.823  18.252  22.317  1.00  0.00     0.001 A 
ATOM     37  C   UNL A   1      33.258  16.776  23.616  1.00  0.00     0.000 A 
ENDBRANCH  18  32
ENDBRANCH  10  15
ENDBRANCH   8   9
ENDBRANCH   7   8
ENDBRANCH   6   7
ENDBRANCH   3   6
ENDBRANCH   1   2
BRANCH   1  38
ATOM     38  C   UNL A   1      33.107  28.632  23.372  1.00  0.00     0.021 C 
BRANCH  38  39
ATOM     39  C   UNL A   1      33.285  28.895  24.865  1.00  0.00     0.002 C 
BRANCH  39  40
ATOM     40  C   UNL A   1      32.127  29.677  25.491  1.00  0.00     0.002 C 
BRANCH  40  41
ATOM     41  C   UNL A   1      32.402  30.231  26.896  1.00  0.00     0.021 C 
BRANCH  41  42
ATOM     42  C   UNL A   1      33.881  30.238  27.230  1.00  0.00     0.116 C 
BRANCH  42  43
ATOM     43  N   UNL A   1      34.401  31.604  27.389  1.00  0.00    -0.352 N 
ATOM     44  C   UNL A   1      35.544  32.016  28.050  1.00  0.00     0.251 C 
ATOM     45  H   UNL A   1      33.865  32.318  26.971  1.00  0.00     0.163 HD
ATOM     46  O   UNL A   1      35.705  33.172  28.412  1.00  0.00    -0.269 OA
BRANCH  44  47
ATOM     47  C   UNL A   1      36.611  31.024  28.216  1.00  0.00     0.039 A 
ATOM     48  C   UNL A   1      36.649  29.757  27.632  1.00  0.00     0.014 A 
ATOM     49  C   UNL A   1      37.625  31.409  29.069  1.00  0.00     0.014 A 
ATOM     50  C   UNL A   1      37.729  28.929  27.961  1.00  0.00     0.010 A 
ATOM     51  C   UNL A   1      38.831  30.843  28.864  1.00  0.00     0.010 A 
ATOM     52  C   UNL A   1      38.792  29.488  28.683  1.00  0.00    -0.014 A 
BRANCH  52  53
ATOM     53  C   UNL A   1      40.044  28.847  29.035  1.00  0.00     0.031 A 
ATOM     54  C   UNL A   1      40.182  28.718  30.504  1.00  0.00     0.074 A 
ATOM     55  C   UNL A   1      40.830  28.234  28.111  1.00  0.00     0.049 A 
ATOM     56  N   UNL A   1      40.883  29.476  31.278  1.00  0.00    -0.248 NA
ATOM     57  C   UNL A   1      39.242  27.845  31.234  1.00  0.00     0.031 C 
ATOM     58  C   UNL A   1      40.622  28.050  26.666  1.00  0.00     0.029 A 
ATOM     59  N   UNL A   1      42.043  27.624  28.301  1.00  0.00    -0.354 N 
ATOM     60  C   UNL A   1      40.700  28.966  32.556  1.00  0.00     0.074 A 
ATOM     61  C   UNL A   1      39.502  28.179  32.501  1.00  0.00     0.031 C 
ATOM     62  C   UNL A   1      41.567  27.219  26.158  1.00  0.00     0.029 A 
ATOM     63  C   UNL A   1      42.533  26.896  27.198  1.00  0.00     0.049 A 
ATOM     64  H   UNL A   1      42.537  27.690  29.150  1.00  0.00     0.167 HD
ATOM     65  C   UNL A   1      41.737  28.960  33.436  1.00  0.00     0.037 A 
ATOM     66  C   UNL A   1      43.633  26.072  27.220  1.00  0.00     0.037 A 
ATOM     67  C   UNL A   1      42.781  29.853  32.982  1.00  0.00     0.049 A 
ATOM     68  C   UNL A   1      44.455  26.491  28.372  1.00  0.00     0.074 A 
ATOM     69  C   UNL A   1      42.861  31.209  32.729  1.00  0.00     0.029 A 
ATOM     70  N   UNL A   1      43.810  29.283  32.271  1.00  0.00    -0.354 N 
ATOM     71  N   UNL A   1      45.009  27.673  28.415  1.00  0.00    -0.248 NA
ATOM     72  C   UNL A   1      44.117  25.884  29.654  1.00  0.00     0.031 C 
ATOM     73  C   UNL A   1      43.595  31.314  31.506  1.00  0.00     0.029 A 
ATOM     74  C   UNL A   1      44.024  30.039  31.144  1.00  0.00     0.049 A 
ATOM     75  H   UNL A   1      44.307  28.472  32.526  1.00  0.00     0.167 HD
ATOM     76  C   UNL A   1      44.689  28.152  29.675  1.00  0.00     0.074 A 
ATOM     77  C   UNL A   1      44.134  26.997  30.396  1.00  0.00     0.031 C 
ATOM     78  C   UNL A   1      44.566  29.490  29.924  1.00  0.00     0.037 A 
BRANCH  65  79
ATOM     79  C   UNL A   1      42.010  27.841  34.414  1.00  0.00     0.057 A 
ATOM     80  C   UNL A   1      41.749  28.063  35.777  1.00  0.00     0.134 A 
ATOM     81  C   UNL A   1      42.776  26.686  34.138  1.00  0.00     0.134 A 
ATOM     82  F   UNL A   1      41.039  29.129  36.175  1.00  0.00    -0.206 F 
ATOM     83  C   UNL A   1      42.277  27.251  36.788  1.00  0.00     0.040 A 
ATOM     84  C   UNL A   1      43.268  25.842  35.137  1.00  0.00     0.040 A 
ATOM     85  F   UNL A   1      43.180  26.357  32.907  1.00  0.00    -0.206 F 
ATOM     86  C   UNL A   1      43.048  26.140  36.470  1.00  0.00     0.006 A 
ENDBRANCH  65  79
BRANCH  66  87
ATOM     87  C   UNL A   1      43.773  24.736  26.591  1.00  0.00     0.057 A 
ATOM     88  C   UNL A   1      42.891  23.242  26.935  1.00  0.00     0.134 A 
ATOM     89  C   UNL A   1      44.838  24.693  25.170  1.00  0.00     0.134 A 
ATOM     90  F   UNL A   1      42.013  23.227  27.951  1.00  0.00    -0.206 F 
ATOM     91  C   UNL A   1      43.051  21.716  25.998  1.00  0.00     0.040 A 
ATOM     92  C   UNL A   1      45.058  22.996  24.108  1.00  0.00     0.040 A 
ATOM     93  F   UNL A   1      45.317  25.945  24.898  1.00  0.00    -0.206 F 
ATOM     94  C   UNL A   1      44.116  21.549  24.598  1.00  0.00     0.006 A 
ENDBRANCH  66  87
BRANCH  78  95
ATOM     95  C   UNL A   1      44.881  30.454  28.805  1.00  0.00     0.057 A 
ATOM     96  C   UNL A   1      43.937  31.010  27.922  1.00  0.00     0.134 A 
ATOM     97  C   UNL A   1      46.178  30.955  28.716  1.00  0.00     0.134 A 
ATOM     98  F   UNL A   1      42.647  30.673  27.984  1.00  0.00    -0.206 F 
ATOM     99  C   UNL A   1      44.277  31.990  26.978  1.00  0.00     0.040 A 
ATOM    100  C   UNL A   1      46.528  31.950  27.799  1.00  0.00     0.040 A 
ATOM    101  F   UNL A   1      47.122  30.516  29.562  1.00  0.00    -0.206 F 
ATOM    102  C   UNL A   1      45.580  32.467  26.920  1.00  0.00     0.006 A 
ENDBRANCH  78  95
ENDBRANCH  52  53
ENDBRANCH  44  47
ENDBRANCH  42  43
ENDBRANCH  41  42
ENDBRANCH  40  41
ENDBRANCH  39  40
ENDBRANCH  38  39
ENDBRANCH   1  38
TORSDOF 21
ENDMDL
