MODEL 1
REMARK VINA RESULT:     -14.1      0.000      0.000
REMARK SMILES C[C@]1(C(=O)NCCCCCCNC(=O)c2ccc(-c3c4nc(c(-c5c(F)cccc5F)c5ccc([nH]5)c(-c5c(F)cccc5F)c5nc(c(-c6c(F)cccc6F)c6ccc3[nH]6)C=C5)C=C4)cc2)[NH2+]C2(C(=O)c3ccccc3C2=O)[C@@H]2C(=O)N(c3ccccc3)C(=O)[C@H]21
REMARK SMILES IDX 9 1 8 2 7 3 6 4 5 5 3 6 4 7 2 9 1 10 69 11 93 12 70 13 81 16
REMARK SMILES IDX 91 17 71 18 79 19 82 20 84 21 92 22 72 23 73 24 78 25 80 26
REMARK SMILES IDX 83 27 74 28 77 29 75 30 76 31 85 32 86 33 90 34 87 35 89 36
REMARK SMILES IDX 88 37 10 38 11 39 12 40 13 41 14 43 15 44 16 45 68 46 17 47
REMARK SMILES IDX 67 48 18 49 19 50 20 51 61 52 21 53 66 54 60 55 62 56 22 57
REMARK SMILES IDX 65 58 59 59 58 60 23 62 49 63 32 64 48 65 33 66 36 67 47 68
REMARK SMILES IDX 63 69 34 70 35 71 46 73 64 74 37 75 24 76 25 77 30 78 26 79
REMARK SMILES IDX 27 80 29 81 31 82 28 83 50 84 51 85 56 86 52 87 53 88 55 89
REMARK SMILES IDX 57 90 54 91 38 92 39 93 44 94 40 95 41 96 43 97 45 98 42 99
REMARK H PARENT 5 8 69 14 69 15 12 42 62 61 36 72
REMARK Flexibility Score: inf
ROOT
ATOM      1  C   UNL A   1      34.748  34.053  29.087  1.00  0.00     0.002 C 
ENDROOT
BRANCH   1   2
ATOM      2  C   UNL A   1      33.986  33.224  28.044  1.00  0.00     0.002 C 
BRANCH   2   3
ATOM      3  C   UNL A   1      34.224  31.718  28.044  1.00  0.00     0.021 C 
BRANCH   3   4
ATOM      4  C   UNL A   1      33.258  30.876  27.221  1.00  0.00     0.116 C 
BRANCH   4   5
ATOM      5  N   UNL A   1      32.626  29.765  27.870  1.00  0.00    -0.351 N 
ATOM      6  C   UNL A   1      32.501  28.459  27.496  1.00  0.00     0.281 C 
ATOM      7  O   UNL A   1      31.814  27.792  28.285  1.00  0.00    -0.268 OA
ATOM      8  H   UNL A   1      32.211  29.983  28.735  1.00  0.00     0.163 HD
BRANCH   6   9
ATOM      9  C   UNL A   1      33.129  27.760  26.205  1.00  0.00     0.186 C 
ATOM     10  C   UNL A   1      34.525  28.422  26.028  1.00  0.00     0.091 C 
ATOM     11  N   UNL A   1      33.330  26.258  26.353  1.00  0.00    -0.314 N 
ATOM     12  C   UNL A   1      32.423  27.835  24.881  1.00  0.00     0.170 C 
ATOM     13  C   UNL A   1      32.454  25.531  25.330  1.00  0.00     0.236 C 
ATOM     14  H   UNL A   1      33.066  25.968  27.295  1.00  0.00     0.348 HD
ATOM     15  H   UNL A   1      34.310  26.025  26.191  1.00  0.00     0.348 HD
ATOM     16  C   UNL A   1      31.540  26.607  24.826  1.00  0.00     0.177 C 
ATOM     17  C   UNL A   1      31.480  28.886  24.426  1.00  0.00     0.244 C 
ATOM     18  C   UNL A   1      33.262  24.792  24.257  1.00  0.00     0.232 C 
ATOM     19  C   UNL A   1      31.753  24.363  26.054  1.00  0.00     0.232 C 
ATOM     20  C   UNL A   1      30.868  26.845  23.514  1.00  0.00     0.245 C 
ATOM     21  N   UNL A   1      30.693  28.232  23.475  1.00  0.00    -0.250 N 
ATOM     22  O   UNL A   1      31.461  30.039  24.804  1.00  0.00    -0.273 OA
ATOM     23  O   UNL A   1      34.043  25.290  23.466  1.00  0.00    -0.286 OA
ATOM     24  C   UNL A   1      32.982  23.347  24.362  1.00  0.00     0.036 A 
ATOM     25  C   UNL A   1      32.130  23.115  25.427  1.00  0.00     0.036 A 
ATOM     26  O   UNL A   1      30.993  24.361  27.005  1.00  0.00    -0.286 OA
ATOM     27  O   UNL A   1      30.428  25.968  22.791  1.00  0.00    -0.273 OA
ATOM     28  C   UNL A   1      33.440  22.287  23.602  1.00  0.00     0.013 A 
ATOM     29  C   UNL A   1      31.714  21.849  25.810  1.00  0.00     0.013 A 
ATOM     30  C   UNL A   1      33.020  20.993  23.956  1.00  0.00     0.001 A 
ATOM     31  C   UNL A   1      32.169  20.774  25.057  1.00  0.00     0.001 A 
BRANCH  21  32
ATOM     32  C   UNL A   1      29.681  28.912  22.775  1.00  0.00     0.052 A 
ATOM     33  C   UNL A   1      30.017  29.884  21.825  1.00  0.00     0.027 A 
ATOM     34  C   UNL A   1      28.341  28.738  23.140  1.00  0.00     0.027 A 
ATOM     35  C   UNL A   1      29.024  30.668  21.238  1.00  0.00     0.002 A 
ATOM     36  C   UNL A   1      27.357  29.565  22.594  1.00  0.00     0.002 A 
ATOM     37  C   UNL A   1      27.697  30.523  21.639  1.00  0.00     0.000 A 
ENDBRANCH  21  32
ENDBRANCH   6   9
ENDBRANCH   4   5
ENDBRANCH   3   4
ENDBRANCH   2   3
ENDBRANCH   1   2
BRANCH   1  38
ATOM     38  C   UNL A   1      34.325  33.922  30.553  1.00  0.00     0.021 C 
BRANCH  38  39
ATOM     39  C   UNL A   1      34.610  32.588  31.239  1.00  0.00     0.116 C 
BRANCH  39  40
ATOM     40  N   UNL A   1      35.116  32.727  32.595  1.00  0.00    -0.352 N 
ATOM     41  C   UNL A   1      36.291  32.297  33.163  1.00  0.00     0.251 C 
ATOM     42  H   UNL A   1      34.516  33.210  33.209  1.00  0.00     0.163 HD
ATOM     43  O   UNL A   1      36.476  32.442  34.368  1.00  0.00    -0.269 OA
BRANCH  41  44
ATOM     44  C   UNL A   1      37.323  31.624  32.343  1.00  0.00     0.039 A 
ATOM     45  C   UNL A   1      38.314  30.834  32.927  1.00  0.00     0.014 A 
ATOM     46  C   UNL A   1      37.294  31.790  30.954  1.00  0.00     0.014 A 
ATOM     47  C   UNL A   1      39.369  30.363  32.149  1.00  0.00     0.010 A 
ATOM     48  C   UNL A   1      38.310  31.244  30.163  1.00  0.00     0.010 A 
ATOM     49  C   UNL A   1      39.388  30.574  30.761  1.00  0.00    -0.014 A 
BRANCH  49  50
ATOM     50  C   UNL A   1      40.553  30.111  29.961  1.00  0.00     0.031 A 
ATOM     51  C   UNL A   1      41.719  31.030  29.701  1.00  0.00     0.074 A 
ATOM     52  C   UNL A   1      40.586  28.843  29.507  1.00  0.00     0.049 A 
ATOM     53  N   UNL A   1      42.826  30.796  29.039  1.00  0.00    -0.248 NA
ATOM     54  C   UNL A   1      41.632  32.391  30.254  1.00  0.00     0.031 C 
ATOM     55  C   UNL A   1      39.524  27.852  29.691  1.00  0.00     0.029 A 
ATOM     56  N   UNL A   1      41.556  28.165  28.812  1.00  0.00    -0.354 N 
ATOM     57  C   UNL A   1      43.553  31.980  29.079  1.00  0.00     0.074 A 
ATOM     58  C   UNL A   1      42.752  32.942  29.804  1.00  0.00     0.031 C 
ATOM     59  C   UNL A   1      39.916  26.684  29.159  1.00  0.00     0.029 A 
ATOM     60  C   UNL A   1      41.228  26.857  28.546  1.00  0.00     0.049 A 
ATOM     61  H   UNL A   1      42.405  28.576  28.531  1.00  0.00     0.167 HD
ATOM     62  C   UNL A   1      44.782  32.240  28.570  1.00  0.00     0.037 A 
ATOM     63  C   UNL A   1      41.900  25.909  27.869  1.00  0.00     0.037 A 
ATOM     64  C   UNL A   1      45.591  31.278  27.867  1.00  0.00     0.049 A 
ATOM     65  C   UNL A   1      43.242  26.238  27.278  1.00  0.00     0.074 A 
ATOM     66  C   UNL A   1      46.863  31.439  27.344  1.00  0.00     0.029 A 
ATOM     67  N   UNL A   1      45.205  29.977  27.584  1.00  0.00    -0.354 N 
ATOM     68  N   UNL A   1      43.927  27.353  27.352  1.00  0.00    -0.248 NA
ATOM     69  C   UNL A   1      43.901  25.177  26.505  1.00  0.00     0.031 C 
ATOM     70  C   UNL A   1      47.228  30.248  26.705  1.00  0.00     0.029 A 
ATOM     71  C   UNL A   1      46.204  29.331  26.873  1.00  0.00     0.049 A 
ATOM     72  H   UNL A   1      44.347  29.572  27.849  1.00  0.00     0.167 HD
ATOM     73  C   UNL A   1      45.105  27.122  26.653  1.00  0.00     0.074 A 
ATOM     74  C   UNL A   1      45.050  25.753  26.183  1.00  0.00     0.031 C 
ATOM     75  C   UNL A   1      46.137  27.967  26.415  1.00  0.00     0.037 A 
BRANCH  62  76
ATOM     76  C   UNL A   1      45.326  33.629  28.744  1.00  0.00     0.057 A 
ATOM     77  C   UNL A   1      46.085  33.962  29.874  1.00  0.00     0.134 A 
ATOM     78  C   UNL A   1      45.066  34.649  27.819  1.00  0.00     0.134 A 
ATOM     79  F   UNL A   1      46.364  33.035  30.804  1.00  0.00    -0.206 F 
ATOM     80  C   UNL A   1      46.562  35.258  30.079  1.00  0.00     0.040 A 
ATOM     81  C   UNL A   1      45.559  35.943  28.002  1.00  0.00     0.040 A 
ATOM     82  F   UNL A   1      44.356  34.396  26.710  1.00  0.00    -0.206 F 
ATOM     83  C   UNL A   1      46.304  36.252  29.138  1.00  0.00     0.006 A 
ENDBRANCH  62  76
BRANCH  63  84
ATOM     84  C   UNL A   1      41.308  24.559  27.688  1.00  0.00     0.057 A 
ATOM     85  C   UNL A   1      40.288  24.331  26.757  1.00  0.00     0.134 A 
ATOM     86  C   UNL A   1      41.772  23.460  28.421  1.00  0.00     0.134 A 
ATOM     87  F   UNL A   1      39.798  25.344  26.027  1.00  0.00    -0.206 F 
ATOM     88  C   UNL A   1      39.746  23.061  26.563  1.00  0.00     0.040 A 
ATOM     89  C   UNL A   1      41.259  22.178  28.216  1.00  0.00     0.040 A 
ATOM     90  F   UNL A   1      42.761  23.611  29.313  1.00  0.00    -0.206 F 
ATOM     91  C   UNL A   1      40.240  21.977  27.287  1.00  0.00     0.006 A 
ENDBRANCH  63  84
BRANCH  75  92
ATOM     92  C   UNL A   1      47.299  27.420  25.641  1.00  0.00     0.057 A 
ATOM     93  C   UNL A   1      48.343  26.756  26.296  1.00  0.00     0.134 A 
ATOM     94  C   UNL A   1      47.392  27.558  24.250  1.00  0.00     0.134 A 
ATOM     95  F   UNL A   1      48.319  26.595  27.629  1.00  0.00    -0.206 F 
ATOM     96  C   UNL A   1      49.437  26.245  25.595  1.00  0.00     0.040 A 
ATOM     97  C   UNL A   1      48.467  27.028  23.534  1.00  0.00     0.040 A 
ATOM     98  F   UNL A   1      46.416  28.170  23.561  1.00  0.00    -0.206 F 
ATOM     99  C   UNL A   1      49.496  26.374  24.210  1.00  0.00     0.006 A 
ENDBRANCH  75  92
ENDBRANCH  49  50
ENDBRANCH  41  44
ENDBRANCH  39  40
ENDBRANCH  38  39
ENDBRANCH   1  38
TORSDOF 14
ENDMDL
MODEL 2
REMARK VINA RESULT:     -14.0      4.150      9.918
REMARK SMILES C[C@]1(C(=O)NCCCCCCNC(=O)c2ccc(-c3c4nc(c(-c5c(F)cccc5F)c5ccc([nH]5)c(-c5c(F)cccc5F)c5nc(c(-c6c(F)cccc6F)c6ccc3[nH]6)C=C5)C=C4)cc2)[NH2+]C2(C(=O)c3ccccc3C2=O)[C@@H]2C(=O)N(c3ccccc3)C(=O)[C@H]21
REMARK SMILES IDX 9 1 8 2 7 3 6 4 5 5 3 6 4 7 2 9 1 10 69 11 93 12 70 13 81 16
REMARK SMILES IDX 91 17 71 18 79 19 82 20 84 21 92 22 72 23 73 24 78 25 80 26
REMARK SMILES IDX 83 27 74 28 77 29 75 30 76 31 85 32 86 33 90 34 87 35 89 36
REMARK SMILES IDX 88 37 10 38 11 39 12 40 13 41 14 43 15 44 16 45 68 46 17 47
REMARK SMILES IDX 67 48 18 49 19 50 20 51 61 52 21 53 66 54 60 55 62 56 22 57
REMARK SMILES IDX 65 58 59 59 58 60 23 62 49 63 32 64 48 65 33 66 36 67 47 68
REMARK SMILES IDX 63 69 34 70 35 71 46 73 64 74 37 75 24 76 25 77 30 78 26 79
REMARK SMILES IDX 27 80 29 81 31 82 28 83 50 84 51 85 56 86 52 87 53 88 55 89
REMARK SMILES IDX 57 90 54 91 38 92 39 93 44 94 40 95 41 96 43 97 45 98 42 99
REMARK H PARENT 5 8 69 14 69 15 12 42 62 61 36 72
REMARK Flexibility Score: inf
ROOT
ATOM      1  C   UNL A   1      42.150  20.837  27.088  1.00  0.00     0.002 C 
ENDROOT
BRANCH   1   2
ATOM      2  C   UNL A   1      40.772  21.497  27.219  1.00  0.00     0.002 C 
BRANCH   2   3
ATOM      3  C   UNL A   1      39.751  21.200  26.125  1.00  0.00     0.021 C 
BRANCH   3   4
ATOM      4  C   UNL A   1      38.532  22.111  26.067  1.00  0.00     0.116 C 
BRANCH   4   5
ATOM      5  N   UNL A   1      38.136  22.608  24.781  1.00  0.00    -0.351 N 
ATOM      6  C   UNL A   1      36.963  23.159  24.354  1.00  0.00     0.281 C 
ATOM      7  O   UNL A   1      36.958  23.407  23.138  1.00  0.00    -0.268 OA
ATOM      8  H   UNL A   1      38.831  22.540  24.088  1.00  0.00     0.163 HD
BRANCH   6   9
ATOM      9  C   UNL A   1      35.675  23.493  25.237  1.00  0.00     0.186 C 
ATOM     10  C   UNL A   1      36.226  23.776  26.663  1.00  0.00     0.091 C 
ATOM     11  N   UNL A   1      34.908  24.722  24.770  1.00  0.00    -0.314 N 
ATOM     12  C   UNL A   1      34.566  22.487  25.373  1.00  0.00     0.170 C 
ATOM     13  C   UNL A   1      33.505  24.302  24.328  1.00  0.00     0.236 C 
ATOM     14  H   UNL A   1      35.398  25.153  23.985  1.00  0.00     0.348 HD
ATOM     15  H   UNL A   1      34.839  25.394  25.534  1.00  0.00     0.348 HD
ATOM     16  C   UNL A   1      33.594  22.806  24.258  1.00  0.00     0.177 C 
ATOM     17  C   UNL A   1      34.672  21.013  25.246  1.00  0.00     0.244 C 
ATOM     18  C   UNL A   1      32.395  24.857  25.228  1.00  0.00     0.232 C 
ATOM     19  C   UNL A   1      33.201  25.002  22.988  1.00  0.00     0.232 C 
ATOM     20  C   UNL A   1      32.602  21.712  24.475  1.00  0.00     0.245 C 
ATOM     21  N   UNL A   1      33.387  20.623  24.866  1.00  0.00    -0.250 N 
ATOM     22  O   UNL A   1      35.664  20.348  25.465  1.00  0.00    -0.273 OA
ATOM     23  O   UNL A   1      32.252  24.644  26.419  1.00  0.00    -0.286 OA
ATOM     24  C   UNL A   1      31.534  25.747  24.426  1.00  0.00     0.036 A 
ATOM     25  C   UNL A   1      32.034  25.843  23.140  1.00  0.00     0.036 A 
ATOM     26  O   UNL A   1      33.774  24.945  21.915  1.00  0.00    -0.286 OA
ATOM     27  O   UNL A   1      31.424  21.775  24.170  1.00  0.00    -0.273 OA
ATOM     28  C   UNL A   1      30.395  26.449  24.777  1.00  0.00     0.013 A 
ATOM     29  C   UNL A   1      31.467  26.641  22.158  1.00  0.00     0.013 A 
ATOM     30  C   UNL A   1      29.788  27.253  23.796  1.00  0.00     0.001 A 
ATOM     31  C   UNL A   1      30.325  27.354  22.498  1.00  0.00     0.001 A 
BRANCH  21  32
ATOM     32  C   UNL A   1      33.064  19.269  24.671  1.00  0.00     0.052 A 
ATOM     33  C   UNL A   1      32.796  18.446  25.772  1.00  0.00     0.027 A 
ATOM     34  C   UNL A   1      33.170  18.701  23.396  1.00  0.00     0.027 A 
ATOM     35  C   UNL A   1      32.626  17.072  25.602  1.00  0.00     0.002 A 
ATOM     36  C   UNL A   1      33.057  17.318  23.238  1.00  0.00     0.002 A 
ATOM     37  C   UNL A   1      32.778  16.506  24.338  1.00  0.00     0.000 A 
ENDBRANCH  21  32
ENDBRANCH   6   9
ENDBRANCH   4   5
ENDBRANCH   3   4
ENDBRANCH   2   3
ENDBRANCH   1   2
BRANCH   1  38
ATOM     38  C   UNL A   1      43.015  21.219  25.883  1.00  0.00     0.021 C 
BRANCH  38  39
ATOM     39  C   UNL A   1      42.740  22.573  25.235  1.00  0.00     0.116 C 
BRANCH  39  40
ATOM     40  N   UNL A   1      43.944  23.281  24.832  1.00  0.00    -0.352 N 
ATOM     41  C   UNL A   1      44.415  24.523  25.184  1.00  0.00     0.251 C 
ATOM     42  H   UNL A   1      44.517  22.789  24.200  1.00  0.00     0.163 HD
ATOM     43  O   UNL A   1      45.422  24.971  24.644  1.00  0.00    -0.269 OA
BRANCH  41  44
ATOM     44  C   UNL A   1      43.699  25.346  26.184  1.00  0.00     0.039 A 
ATOM     45  C   UNL A   1      43.849  26.732  26.227  1.00  0.00     0.014 A 
ATOM     46  C   UNL A   1      42.854  24.709  27.100  1.00  0.00     0.014 A 
ATOM     47  C   UNL A   1      43.303  27.454  27.286  1.00  0.00     0.010 A 
ATOM     48  C   UNL A   1      42.238  25.449  28.115  1.00  0.00     0.010 A 
ATOM     49  C   UNL A   1      42.503  26.820  28.250  1.00  0.00    -0.014 A 
BRANCH  49  50
ATOM     50  C   UNL A   1      41.979  27.601  29.402  1.00  0.00     0.031 A 
ATOM     51  C   UNL A   1      42.684  27.570  30.734  1.00  0.00     0.074 A 
ATOM     52  C   UNL A   1      40.893  28.380  29.238  1.00  0.00     0.049 A 
ATOM     53  N   UNL A   1      42.382  28.197  31.846  1.00  0.00    -0.248 NA
ATOM     54  C   UNL A   1      43.883  26.723  30.835  1.00  0.00     0.031 C 
ATOM     55  C   UNL A   1      40.120  28.502  28.001  1.00  0.00     0.029 A 
ATOM     56  N   UNL A   1      40.260  29.231  30.109  1.00  0.00    -0.354 N 
ATOM     57  C   UNL A   1      43.338  27.806  32.776  1.00  0.00     0.074 A 
ATOM     58  C   UNL A   1      44.213  26.865  32.112  1.00  0.00     0.031 C 
ATOM     59  C   UNL A   1      39.142  29.404  28.180  1.00  0.00     0.029 A 
ATOM     60  C   UNL A   1      39.182  29.880  29.558  1.00  0.00     0.049 A 
ATOM     61  H   UNL A   1      40.550  29.362  31.041  1.00  0.00     0.167 HD
ATOM     62  C   UNL A   1      43.482  28.204  34.064  1.00  0.00     0.037 A 
ATOM     63  C   UNL A   1      38.311  30.748  30.104  1.00  0.00     0.037 A 
ATOM     64  C   UNL A   1      42.625  29.156  34.721  1.00  0.00     0.049 A 
ATOM     65  C   UNL A   1      38.470  31.138  31.547  1.00  0.00     0.074 A 
ATOM     66  C   UNL A   1      42.712  29.647  36.014  1.00  0.00     0.029 A 
ATOM     67  N   UNL A   1      41.521  29.760  34.139  1.00  0.00    -0.354 N 
ATOM     68  N   UNL A   1      39.397  30.782  32.404  1.00  0.00    -0.248 NA
ATOM     69  C   UNL A   1      37.457  32.047  32.099  1.00  0.00     0.031 C 
ATOM     70  C   UNL A   1      41.633  30.514  36.227  1.00  0.00     0.029 A 
ATOM     71  C   UNL A   1      40.904  30.600  35.052  1.00  0.00     0.049 A 
ATOM     72  H   UNL A   1      41.219  29.613  33.213  1.00  0.00     0.167 HD
ATOM     73  C   UNL A   1      39.090  31.438  33.588  1.00  0.00     0.074 A 
ATOM     74  C   UNL A   1      37.905  32.231  33.333  1.00  0.00     0.031 C 
ATOM     75  C   UNL A   1      39.727  31.385  34.783  1.00  0.00     0.037 A 
BRANCH  62  76
ATOM     76  C   UNL A   1      44.604  27.598  34.857  1.00  0.00     0.057 A 
ATOM     77  C   UNL A   1      45.870  28.200  34.876  1.00  0.00     0.134 A 
ATOM     78  C   UNL A   1      44.450  26.399  35.565  1.00  0.00     0.134 A 
ATOM     79  F   UNL A   1      46.089  29.345  34.212  1.00  0.00    -0.206 F 
ATOM     80  C   UNL A   1      46.940  27.631  35.568  1.00  0.00     0.040 A 
ATOM     81  C   UNL A   1      45.508  25.833  36.282  1.00  0.00     0.040 A 
ATOM     82  F   UNL A   1      43.263  25.777  35.597  1.00  0.00    -0.206 F 
ATOM     83  C   UNL A   1      46.759  26.446  36.279  1.00  0.00     0.006 A 
ENDBRANCH  62  76
BRANCH  63  84
ATOM     84  C   UNL A   1      37.193  31.294  29.295  1.00  0.00     0.057 A 
ATOM     85  C   UNL A   1      36.035  30.544  29.055  1.00  0.00     0.134 A 
ATOM     86  C   UNL A   1      37.243  32.590  28.769  1.00  0.00     0.134 A 
ATOM     87  F   UNL A   1      35.927  29.294  29.528  1.00  0.00    -0.206 F 
ATOM     88  C   UNL A   1      34.970  31.060  28.319  1.00  0.00     0.040 A 
ATOM     89  C   UNL A   1      36.172  33.130  28.056  1.00  0.00     0.040 A 
ATOM     90  F   UNL A   1      38.316  33.364  28.983  1.00  0.00    -0.206 F 
ATOM     91  C   UNL A   1      35.033  32.362  27.825  1.00  0.00     0.006 A 
ENDBRANCH  63  84
BRANCH  75  92
ATOM     92  C   UNL A   1      39.171  32.234  35.888  1.00  0.00     0.057 A 
ATOM     93  C   UNL A   1      38.241  31.707  36.791  1.00  0.00     0.134 A 
ATOM     94  C   UNL A   1      39.548  33.573  36.053  1.00  0.00     0.134 A 
ATOM     95  F   UNL A   1      37.832  30.433  36.686  1.00  0.00    -0.206 F 
ATOM     96  C   UNL A   1      37.706  32.481  37.823  1.00  0.00     0.040 A 
ATOM     97  C   UNL A   1      39.041  34.350  37.097  1.00  0.00     0.040 A 
ATOM     98  F   UNL A   1      40.448  34.132  35.230  1.00  0.00    -0.206 F 
ATOM     99  C   UNL A   1      38.114  33.804  37.982  1.00  0.00     0.006 A 
ENDBRANCH  75  92
ENDBRANCH  49  50
ENDBRANCH  41  44
ENDBRANCH  39  40
ENDBRANCH  38  39
ENDBRANCH   1  38
TORSDOF 14
ENDMDL
MODEL 3
REMARK VINA RESULT:     -14.0      3.355      8.950
REMARK SMILES C[C@]1(C(=O)NCCCCCCNC(=O)c2ccc(-c3c4nc(c(-c5c(F)cccc5F)c5ccc([nH]5)c(-c5c(F)cccc5F)c5nc(c(-c6c(F)cccc6F)c6ccc3[nH]6)C=C5)C=C4)cc2)[NH2+]C2(C(=O)c3ccccc3C2=O)[C@@H]2C(=O)N(c3ccccc3)C(=O)[C@H]21
REMARK SMILES IDX 9 1 8 2 7 3 6 4 5 5 3 6 4 7 2 9 1 10 69 11 93 12 70 13 81 16
REMARK SMILES IDX 91 17 71 18 79 19 82 20 84 21 92 22 72 23 73 24 78 25 80 26
REMARK SMILES IDX 83 27 74 28 77 29 75 30 76 31 85 32 86 33 90 34 87 35 89 36
REMARK SMILES IDX 88 37 10 38 11 39 12 40 13 41 14 43 15 44 16 45 68 46 17 47
REMARK SMILES IDX 67 48 18 49 19 50 20 51 61 52 21 53 66 54 60 55 62 56 22 57
REMARK SMILES IDX 65 58 59 59 58 60 23 62 49 63 32 64 48 65 33 66 36 67 47 68
REMARK SMILES IDX 63 69 34 70 35 71 46 73 64 74 37 75 24 76 25 77 30 78 26 79
REMARK SMILES IDX 27 80 29 81 31 82 28 83 50 84 51 85 56 86 52 87 53 88 55 89
REMARK SMILES IDX 57 90 54 91 38 92 39 93 44 94 40 95 41 96 43 97 45 98 42 99
REMARK H PARENT 5 8 69 14 69 15 12 42 62 61 36 72
REMARK Flexibility Score: inf
ROOT
ATOM      1  C   UNL A   1      41.893  21.372  27.211  1.00  0.00     0.002 C 
ENDROOT
BRANCH   1   2
ATOM      2  C   UNL A   1      40.564  22.010  27.635  1.00  0.00     0.002 C 
BRANCH   2   3
ATOM      3  C   UNL A   1      39.799  22.794  26.574  1.00  0.00     0.021 C 
BRANCH   3   4
ATOM      4  C   UNL A   1      38.597  22.099  25.947  1.00  0.00     0.116 C 
BRANCH   4   5
ATOM      5  N   UNL A   1      38.150  22.570  24.669  1.00  0.00    -0.351 N 
ATOM      6  C   UNL A   1      36.953  23.090  24.272  1.00  0.00     0.281 C 
ATOM      7  O   UNL A   1      36.904  23.320  23.054  1.00  0.00    -0.268 OA
ATOM      8  H   UNL A   1      38.824  22.507  23.955  1.00  0.00     0.163 HD
BRANCH   6   9
ATOM      9  C   UNL A   1      35.687  23.409  25.191  1.00  0.00     0.186 C 
ATOM     10  C   UNL A   1      36.274  23.691  26.603  1.00  0.00     0.091 C 
ATOM     11  N   UNL A   1      34.897  24.634  24.751  1.00  0.00    -0.314 N 
ATOM     12  C   UNL A   1      34.591  22.393  25.353  1.00  0.00     0.170 C 
ATOM     13  C   UNL A   1      33.486  24.203  24.346  1.00  0.00     0.236 C 
ATOM     14  H   UNL A   1      35.361  25.072  23.955  1.00  0.00     0.348 HD
ATOM     15  H   UNL A   1      34.843  25.302  25.520  1.00  0.00     0.348 HD
ATOM     16  C   UNL A   1      33.586  22.709  24.267  1.00  0.00     0.177 C 
ATOM     17  C   UNL A   1      34.705  20.920  25.217  1.00  0.00     0.244 C 
ATOM     18  C   UNL A   1      32.396  24.745  25.278  1.00  0.00     0.232 C 
ATOM     19  C   UNL A   1      33.140  24.907  23.018  1.00  0.00     0.232 C 
ATOM     20  C   UNL A   1      32.608  21.605  24.505  1.00  0.00     0.245 C 
ATOM     21  N   UNL A   1      33.413  20.521  24.870  1.00  0.00    -0.250 N 
ATOM     22  O   UNL A   1      35.708  20.263  25.405  1.00  0.00    -0.273 OA
ATOM     23  O   UNL A   1      32.288  24.526  26.472  1.00  0.00    -0.286 OA
ATOM     24  C   UNL A   1      31.506  25.631  24.504  1.00  0.00     0.036 A 
ATOM     25  C   UNL A   1      31.970  25.737  23.205  1.00  0.00     0.036 A 
ATOM     26  O   UNL A   1      33.684  24.859  21.929  1.00  0.00    -0.286 OA
ATOM     27  O   UNL A   1      31.422  21.659  24.233  1.00  0.00    -0.273 OA
ATOM     28  C   UNL A   1      30.372  26.322  24.890  1.00  0.00     0.013 A 
ATOM     29  C   UNL A   1      31.370  26.534  22.243  1.00  0.00     0.013 A 
ATOM     30  C   UNL A   1      29.732  27.125  23.929  1.00  0.00     0.001 A 
ATOM     31  C   UNL A   1      30.231  27.237  22.617  1.00  0.00     0.001 A 
BRANCH  21  32
ATOM     32  C   UNL A   1      33.097  19.165  24.678  1.00  0.00     0.052 A 
ATOM     33  C   UNL A   1      32.784  18.356  25.777  1.00  0.00     0.027 A 
ATOM     34  C   UNL A   1      33.253  18.582  23.415  1.00  0.00     0.027 A 
ATOM     35  C   UNL A   1      32.618  16.980  25.615  1.00  0.00     0.002 A 
ATOM     36  C   UNL A   1      33.144  17.198  23.268  1.00  0.00     0.002 A 
ATOM     37  C   UNL A   1      32.820  16.399  24.365  1.00  0.00     0.000 A 
ENDBRANCH  21  32
ENDBRANCH   6   9
ENDBRANCH   4   5
ENDBRANCH   3   4
ENDBRANCH   2   3
ENDBRANCH   1   2
BRANCH   1  38
ATOM     38  C   UNL A   1      41.845  20.227  26.195  1.00  0.00     0.021 C 
BRANCH  38  39
ATOM     39  C   UNL A   1      42.913  19.144  26.323  1.00  0.00     0.116 C 
BRANCH  39  40
ATOM     40  N   UNL A   1      43.580  18.832  25.068  1.00  0.00    -0.352 N 
ATOM     41  C   UNL A   1      44.391  19.601  24.269  1.00  0.00     0.251 C 
ATOM     42  H   UNL A   1      43.423  17.919  24.737  1.00  0.00     0.163 HD
ATOM     43  O   UNL A   1      44.776  19.163  23.188  1.00  0.00    -0.269 OA
BRANCH  41  44
ATOM     44  C   UNL A   1      44.776  20.970  24.678  1.00  0.00     0.039 A 
ATOM     45  C   UNL A   1      45.559  21.198  25.811  1.00  0.00     0.014 A 
ATOM     46  C   UNL A   1      44.341  22.052  23.904  1.00  0.00     0.014 A 
ATOM     47  C   UNL A   1      45.753  22.500  26.266  1.00  0.00     0.010 A 
ATOM     48  C   UNL A   1      44.609  23.361  24.318  1.00  0.00     0.010 A 
ATOM     49  C   UNL A   1      45.269  23.596  25.535  1.00  0.00    -0.014 A 
BRANCH  49  50
ATOM     50  C   UNL A   1      45.439  24.973  26.071  1.00  0.00     0.031 A 
ATOM     51  C   UNL A   1      46.775  25.666  25.994  1.00  0.00     0.074 A 
ATOM     52  C   UNL A   1      44.377  25.622  26.585  1.00  0.00     0.049 A 
ATOM     53  N   UNL A   1      47.108  26.869  26.396  1.00  0.00    -0.248 NA
ATOM     54  C   UNL A   1      47.885  24.911  25.392  1.00  0.00     0.031 C 
ATOM     55  C   UNL A   1      43.029  25.065  26.715  1.00  0.00     0.029 A 
ATOM     56  N   UNL A   1      44.258  26.897  27.078  1.00  0.00    -0.354 N 
ATOM     57  C   UNL A   1      48.462  27.005  26.113  1.00  0.00     0.074 A 
ATOM     58  C   UNL A   1      48.899  25.754  25.534  1.00  0.00     0.031 C 
ATOM     59  C   UNL A   1      42.212  26.005  27.216  1.00  0.00     0.029 A 
ATOM     60  C   UNL A   1      42.987  27.209  27.496  1.00  0.00     0.049 A 
ATOM     61  H   UNL A   1      45.012  27.528  27.129  1.00  0.00     0.167 HD
ATOM     62  C   UNL A   1      49.266  28.079  26.306  1.00  0.00     0.037 A 
ATOM     63  C   UNL A   1      42.502  28.330  28.058  1.00  0.00     0.037 A 
ATOM     64  C   UNL A   1      48.828  29.333  26.863  1.00  0.00     0.049 A 
ATOM     65  C   UNL A   1      43.427  29.490  28.300  1.00  0.00     0.074 A 
ATOM     66  C   UNL A   1      49.562  30.490  27.066  1.00  0.00     0.029 A 
ATOM     67  N   UNL A   1      47.542  29.593  27.310  1.00  0.00    -0.354 N 
ATOM     68  N   UNL A   1      44.697  29.613  27.999  1.00  0.00    -0.248 NA
ATOM     69  C   UNL A   1      42.850  30.666  28.965  1.00  0.00     0.031 C 
ATOM     70  C   UNL A   1      48.730  31.435  27.678  1.00  0.00     0.029 A 
ATOM     71  C   UNL A   1      47.466  30.884  27.810  1.00  0.00     0.049 A 
ATOM     72  H   UNL A   1      46.793  28.955  27.277  1.00  0.00     0.167 HD
ATOM     73  C   UNL A   1      45.065  30.884  28.419  1.00  0.00     0.074 A 
ATOM     74  C   UNL A   1      43.879  31.501  28.975  1.00  0.00     0.031 C 
ATOM     75  C   UNL A   1      46.278  31.485  28.357  1.00  0.00     0.037 A 
BRANCH  62  76
ATOM     76  C   UNL A   1      50.712  27.942  25.924  1.00  0.00     0.057 A 
ATOM     77  C   UNL A   1      51.689  27.710  26.902  1.00  0.00     0.134 A 
ATOM     78  C   UNL A   1      51.146  28.082  24.599  1.00  0.00     0.134 A 
ATOM     79  F   UNL A   1      51.343  27.574  28.191  1.00  0.00    -0.206 F 
ATOM     80  C   UNL A   1      53.044  27.624  26.575  1.00  0.00     0.040 A 
ATOM     81  C   UNL A   1      52.496  27.973  24.258  1.00  0.00     0.040 A 
ATOM     82  F   UNL A   1      50.262  28.294  23.614  1.00  0.00    -0.206 F 
ATOM     83  C   UNL A   1      53.450  27.750  25.249  1.00  0.00     0.006 A 
ENDBRANCH  62  76
BRANCH  63  84
ATOM     84  C   UNL A   1      41.074  28.410  28.456  1.00  0.00     0.057 A 
ATOM     85  C   UNL A   1      40.090  28.832  27.554  1.00  0.00     0.134 A 
ATOM     86  C   UNL A   1      40.656  28.037  29.738  1.00  0.00     0.134 A 
ATOM     87  F   UNL A   1      40.427  29.207  26.311  1.00  0.00    -0.206 F 
ATOM     88  C   UNL A   1      38.744  28.884  27.912  1.00  0.00     0.040 A 
ATOM     89  C   UNL A   1      39.308  28.056  30.101  1.00  0.00     0.040 A 
ATOM     90  F   UNL A   1      41.548  27.604  30.641  1.00  0.00    -0.206 F 
ATOM     91  C   UNL A   1      38.348  28.485  29.187  1.00  0.00     0.006 A 
ENDBRANCH  63  84
BRANCH  75  92
ATOM     92  C   UNL A   1      46.367  32.891  28.874  1.00  0.00     0.057 A 
ATOM     93  C   UNL A   1      46.119  33.978  28.029  1.00  0.00     0.134 A 
ATOM     94  C   UNL A   1      46.708  33.169  30.205  1.00  0.00     0.134 A 
ATOM     95  F   UNL A   1      45.793  33.782  26.742  1.00  0.00    -0.206 F 
ATOM     96  C   UNL A   1      46.202  35.294  28.489  1.00  0.00     0.040 A 
ATOM     97  C   UNL A   1      46.769  34.478  30.683  1.00  0.00     0.040 A 
ATOM     98  F   UNL A   1      46.942  32.169  31.069  1.00  0.00    -0.206 F 
ATOM     99  C   UNL A   1      46.520  35.546  29.821  1.00  0.00     0.006 A 
ENDBRANCH  75  92
ENDBRANCH  49  50
ENDBRANCH  41  44
ENDBRANCH  39  40
ENDBRANCH  38  39
ENDBRANCH   1  38
TORSDOF 14
ENDMDL
