MODEL 1
REMARK VINA RESULT:     -13.0      0.000      0.000
REMARK SMILES O=C(NCCCCCCNC(=O)[C@H]1CN(C(=O)C[C@H]2NC(=O)c3ccccc32)C[C@@H]1c1ccc(F)cc1)c1ccc(-c2c3nc(c(-c4c(F)cccc4F)c4ccc([nH]4)c(-c4c(F)cccc4F)c4nc(c(-c5c(F)cccc5F)c5ccc2[nH]5)C=C4)C=C3)cc1
REMARK SMILES IDX 7 1 6 2 5 3 4 4 3 5 1 6 2 7 38 9 39 10 91 11 40 12 90 13
REMARK SMILES IDX 41 14 42 15 43 16 84 17 44 18 89 19 83 20 85 21 45 22 88 23
REMARK SMILES IDX 82 24 81 25 46 27 72 28 55 29 71 30 56 31 59 32 70 33 86 34
REMARK SMILES IDX 57 35 58 36 69 38 87 39 60 40 47 41 48 42 53 43 49 44 50 45
REMARK SMILES IDX 52 46 54 47 51 48 73 49 74 50 79 51 75 52 76 53 78 54 80 55
REMARK SMILES IDX 77 56 61 57 62 58 67 59 63 60 64 61 66 62 68 63 65 64 8 65
REMARK SMILES IDX 9 66 10 67 11 68 12 70 13 71 14 72 30 73 15 74 29 75 31 76
REMARK SMILES IDX 32 77 37 78 33 79 36 80 34 81 35 82 16 83 17 84 18 85 19 86
REMARK SMILES IDX 20 87 28 88 21 89 23 91 27 92 22 93 24 94 26 95 25 96
REMARK H PARENT 3 8 85 26 59 37 10 69 20 90
REMARK Flexibility Score: inf
ROOT
ATOM      1  C   UNL A   1      31.752  29.548  27.021  1.00  0.00     0.002 C 
ENDROOT
BRANCH   1   2
ATOM      2  C   UNL A   1      31.293  30.538  25.942  1.00  0.00     0.002 C 
BRANCH   2   3
ATOM      3  C   UNL A   1      31.288  32.008  26.367  1.00  0.00     0.021 C 
BRANCH   3   4
ATOM      4  C   UNL A   1      32.531  32.432  27.137  1.00  0.00     0.116 C 
BRANCH   4   5
ATOM      5  N   UNL A   1      32.406  33.780  27.670  1.00  0.00    -0.352 N 
ATOM      6  O   UNL A   1      32.778  35.465  29.125  1.00  0.00    -0.269 OA
ATOM      7  C   UNL A   1      33.168  34.421  28.615  1.00  0.00     0.251 C 
ATOM      8  H   UNL A   1      31.664  34.312  27.298  1.00  0.00     0.163 HD
BRANCH   7   9
ATOM      9  C   UNL A   1      34.464  33.838  29.012  1.00  0.00     0.039 A 
ATOM     10  C   UNL A   1      35.608  34.118  28.264  1.00  0.00     0.014 A 
ATOM     11  C   UNL A   1      34.544  33.016  30.140  1.00  0.00     0.014 A 
ATOM     12  C   UNL A   1      36.789  33.452  28.541  1.00  0.00     0.010 A 
ATOM     13  C   UNL A   1      35.769  32.440  30.491  1.00  0.00     0.010 A 
ATOM     14  C   UNL A   1      36.898  32.637  29.680  1.00  0.00    -0.014 A 
BRANCH  14  15
ATOM     15  C   UNL A   1      38.238  32.105  30.036  1.00  0.00     0.031 A 
ATOM     16  C   UNL A   1      39.123  32.793  31.035  1.00  0.00     0.074 A 
ATOM     17  C   UNL A   1      38.613  30.933  29.485  1.00  0.00     0.049 A 
ATOM     18  N   UNL A   1      40.282  32.401  31.503  1.00  0.00    -0.248 NA
ATOM     19  C   UNL A   1      38.664  34.081  31.578  1.00  0.00     0.031 C 
ATOM     20  C   UNL A   1      37.833  30.186  28.491  1.00  0.00     0.029 A 
ATOM     21  N   UNL A   1      39.707  30.139  29.706  1.00  0.00    -0.354 N 
ATOM     22  C   UNL A   1      40.692  33.391  32.386  1.00  0.00     0.074 A 
ATOM     23  C   UNL A   1      39.675  34.420  32.368  1.00  0.00     0.031 C 
ATOM     24  C   UNL A   1      38.429  29.010  28.254  1.00  0.00     0.029 A 
ATOM     25  C   UNL A   1      39.675  28.956  29.007  1.00  0.00     0.049 A 
ATOM     26  H   UNL A   1      40.446  30.392  30.305  1.00  0.00     0.167 HD
ATOM     27  C   UNL A   1      41.812  33.424  33.147  1.00  0.00     0.037 A 
ATOM     28  C   UNL A   1      40.556  27.940  28.962  1.00  0.00     0.037 A 
ATOM     29  C   UNL A   1      42.810  32.384  33.169  1.00  0.00     0.049 A 
ATOM     30  C   UNL A   1      41.802  28.030  29.792  1.00  0.00     0.074 A 
ATOM     31  C   UNL A   1      43.965  32.320  33.929  1.00  0.00     0.029 A 
ATOM     32  N   UNL A   1      42.774  31.230  32.400  1.00  0.00    -0.354 N 
ATOM     33  N   UNL A   1      42.161  28.962  30.641  1.00  0.00    -0.248 NA
ATOM     34  C   UNL A   1      42.770  26.934  29.651  1.00  0.00     0.031 C 
ATOM     35  C   UNL A   1      44.657  31.157  33.579  1.00  0.00     0.029 A 
ATOM     36  C   UNL A   1      43.901  30.463  32.649  1.00  0.00     0.049 A 
ATOM     37  H   UNL A   1      42.055  30.991  31.771  1.00  0.00     0.167 HD
ATOM     38  C   UNL A   1      43.388  28.558  31.147  1.00  0.00     0.074 A 
ATOM     39  C   UNL A   1      43.696  27.283  30.533  1.00  0.00     0.031 C 
ATOM     40  C   UNL A   1      44.193  29.194  32.033  1.00  0.00     0.037 A 
BRANCH  27  41
ATOM     41  C   UNL A   1      42.038  34.614  34.036  1.00  0.00     0.057 A 
ATOM     42  C   UNL A   1      41.510  34.645  35.334  1.00  0.00     0.134 A 
ATOM     43  C   UNL A   1      42.660  35.776  33.564  1.00  0.00     0.134 A 
ATOM     44  F   UNL A   1      40.894  33.568  35.845  1.00  0.00    -0.206 F 
ATOM     45  C   UNL A   1      41.564  35.799  36.118  1.00  0.00     0.040 A 
ATOM     46  C   UNL A   1      42.742  36.929  34.348  1.00  0.00     0.040 A 
ATOM     47  F   UNL A   1      43.194  35.810  32.334  1.00  0.00    -0.206 F 
ATOM     48  C   UNL A   1      42.179  36.948  35.623  1.00  0.00     0.006 A 
ENDBRANCH  27  41
BRANCH  28  49
ATOM     49  C   UNL A   1      40.288  26.761  28.098  1.00  0.00     0.057 A 
ATOM     50  C   UNL A   1      39.448  25.723  28.519  1.00  0.00     0.134 A 
ATOM     51  C   UNL A   1      40.875  26.641  26.833  1.00  0.00     0.134 A 
ATOM     52  F   UNL A   1      38.863  25.770  29.724  1.00  0.00    -0.206 F 
ATOM     53  C   UNL A   1      39.216  24.601  27.724  1.00  0.00     0.040 A 
ATOM     54  C   UNL A   1      40.623  25.542  26.012  1.00  0.00     0.040 A 
ATOM     55  F   UNL A   1      41.678  27.609  26.367  1.00  0.00    -0.206 F 
ATOM     56  C   UNL A   1      39.796  24.513  26.461  1.00  0.00     0.006 A 
ENDBRANCH  28  49
BRANCH  40  57
ATOM     57  C   UNL A   1      45.475  28.510  32.408  1.00  0.00     0.057 A 
ATOM     58  C   UNL A   1      46.648  28.740  31.677  1.00  0.00     0.134 A 
ATOM     59  C   UNL A   1      45.540  27.590  33.462  1.00  0.00     0.134 A 
ATOM     60  F   UNL A   1      46.653  29.601  30.649  1.00  0.00    -0.206 F 
ATOM     61  C   UNL A   1      47.837  28.073  31.977  1.00  0.00     0.040 A 
ATOM     62  C   UNL A   1      46.731  26.942  33.792  1.00  0.00     0.040 A 
ATOM     63  F   UNL A   1      44.456  27.335  34.210  1.00  0.00    -0.206 F 
ATOM     64  C   UNL A   1      47.882  27.175  33.041  1.00  0.00     0.006 A 
ENDBRANCH  40  57
ENDBRANCH  14  15
ENDBRANCH   7   9
ENDBRANCH   4   5
ENDBRANCH   3   4
ENDBRANCH   2   3
ENDBRANCH   1   2
BRANCH   1  65
ATOM     65  C   UNL A   1      33.004  28.746  26.663  1.00  0.00     0.021 C 
BRANCH  65  66
ATOM     66  C   UNL A   1      32.732  27.568  25.730  1.00  0.00     0.116 C 
BRANCH  66  67
ATOM     67  N   UNL A   1      31.847  26.582  26.306  1.00  0.00    -0.356 N 
ATOM     68  C   UNL A   1      31.862  25.228  26.327  1.00  0.00     0.225 C 
ATOM     69  H   UNL A   1      31.078  26.973  26.779  1.00  0.00     0.163 HD
ATOM     70  O   UNL A   1      31.110  24.698  27.155  1.00  0.00    -0.275 OA
BRANCH  68  71
ATOM     71  C   UNL A   1      32.672  24.325  25.402  1.00  0.00     0.107 C 
ATOM     72  C   UNL A   1      32.176  24.133  23.990  1.00  0.00     0.133 C 
ATOM     73  C   UNL A   1      34.154  24.713  25.208  1.00  0.00     0.053 C 
ATOM     74  N   UNL A   1      32.951  25.028  23.155  1.00  0.00    -0.341 N 
ATOM     75  C   UNL A   1      34.096  25.541  23.901  1.00  0.00     0.128 C 
BRANCH  73  76
ATOM     76  C   UNL A   1      35.149  23.549  25.061  1.00  0.00    -0.042 A 
ATOM     77  C   UNL A   1      35.942  23.482  23.897  1.00  0.00     0.007 A 
ATOM     78  C   UNL A   1      35.318  22.529  26.018  1.00  0.00     0.007 A 
ATOM     79  C   UNL A   1      36.823  22.417  23.677  1.00  0.00     0.039 A 
ATOM     80  C   UNL A   1      36.202  21.467  25.800  1.00  0.00     0.039 A 
ATOM     81  C   UNL A   1      36.940  21.416  24.630  1.00  0.00     0.123 A 
ATOM     82  F   UNL A   1      37.776  20.391  24.420  1.00  0.00    -0.207 F 
ENDBRANCH  73  76
BRANCH  74  83
ATOM     83  C   UNL A   1      32.655  25.485  21.890  1.00  0.00     0.225 C 
ATOM     84  O   UNL A   1      33.434  25.305  20.949  1.00  0.00    -0.275 OA
BRANCH  83  85
ATOM     85  C   UNL A   1      31.410  26.343  21.668  1.00  0.00     0.130 C 
BRANCH  85  86
ATOM     86  C   UNL A   1      31.144  27.468  22.667  1.00  0.00     0.123 C 
ATOM     87  N   UNL A   1      31.246  28.779  22.077  1.00  0.00    -0.345 N 
ATOM     88  C   UNL A   1      29.748  27.470  23.220  1.00  0.00    -0.012 A 
ATOM     89  C   UNL A   1      30.053  29.473  22.088  1.00  0.00     0.252 C 
ATOM     90  H   UNL A   1      32.081  29.143  21.703  1.00  0.00     0.164 HD
ATOM     91  C   UNL A   1      29.089  28.629  22.808  1.00  0.00     0.045 A 
ATOM     92  C   UNL A   1      29.066  26.492  23.934  1.00  0.00     0.007 A 
ATOM     93  O   UNL A   1      29.831  30.559  21.606  1.00  0.00    -0.269 OA
ATOM     94  C   UNL A   1      27.734  28.821  22.998  1.00  0.00     0.014 A 
ATOM     95  C   UNL A   1      27.690  26.661  24.129  1.00  0.00     0.000 A 
ATOM     96  C   UNL A   1      27.027  27.807  23.651  1.00  0.00     0.001 A 
ENDBRANCH  85  86
ENDBRANCH  83  85
ENDBRANCH  74  83
ENDBRANCH  68  71
ENDBRANCH  66  67
ENDBRANCH  65  66
ENDBRANCH   1  65
TORSDOF 17
ENDMDL
MODEL 2
REMARK VINA RESULT:     -13.0      5.015      9.695
REMARK SMILES O=C(NCCCCCCNC(=O)[C@H]1CN(C(=O)C[C@H]2NC(=O)c3ccccc32)C[C@@H]1c1ccc(F)cc1)c1ccc(-c2c3nc(c(-c4c(F)cccc4F)c4ccc([nH]4)c(-c4c(F)cccc4F)c4nc(c(-c5c(F)cccc5F)c5ccc2[nH]5)C=C4)C=C3)cc1
REMARK SMILES IDX 7 1 6 2 5 3 4 4 3 5 1 6 2 7 38 9 39 10 91 11 40 12 90 13
REMARK SMILES IDX 41 14 42 15 43 16 84 17 44 18 89 19 83 20 85 21 45 22 88 23
REMARK SMILES IDX 82 24 81 25 46 27 72 28 55 29 71 30 56 31 59 32 70 33 86 34
REMARK SMILES IDX 57 35 58 36 69 38 87 39 60 40 47 41 48 42 53 43 49 44 50 45
REMARK SMILES IDX 52 46 54 47 51 48 73 49 74 50 79 51 75 52 76 53 78 54 80 55
REMARK SMILES IDX 77 56 61 57 62 58 67 59 63 60 64 61 66 62 68 63 65 64 8 65
REMARK SMILES IDX 9 66 10 67 11 68 12 70 13 71 14 72 30 73 15 74 29 75 31 76
REMARK SMILES IDX 32 77 37 78 33 79 36 80 34 81 35 82 16 83 17 84 18 85 19 86
REMARK SMILES IDX 20 87 28 88 21 89 23 91 27 92 22 93 24 94 26 95 25 96
REMARK H PARENT 3 8 85 26 59 37 10 69 20 90
REMARK Flexibility Score: inf
ROOT
ATOM      1  C   UNL A   1      41.451  21.820  26.170  1.00  0.00     0.002 C 
ENDROOT
BRANCH   1   2
ATOM      2  C   UNL A   1      42.057  20.938  27.272  1.00  0.00     0.002 C 
BRANCH   2   3
ATOM      3  C   UNL A   1      42.293  19.478  26.881  1.00  0.00     0.021 C 
BRANCH   3   4
ATOM      4  C   UNL A   1      42.351  19.243  25.379  1.00  0.00     0.116 C 
BRANCH   4   5
ATOM      5  N   UNL A   1      43.644  18.722  24.960  1.00  0.00    -0.352 N 
ATOM      6  O   UNL A   1      45.707  18.813  24.048  1.00  0.00    -0.269 OA
ATOM      7  C   UNL A   1      44.786  19.398  24.608  1.00  0.00     0.251 C 
ATOM      8  H   UNL A   1      43.710  17.740  24.924  1.00  0.00     0.163 HD
BRANCH   7   9
ATOM      9  C   UNL A   1      44.894  20.838  24.910  1.00  0.00     0.039 A 
ATOM     10  C   UNL A   1      45.418  21.251  26.135  1.00  0.00     0.014 A 
ATOM     11  C   UNL A   1      44.481  21.784  23.967  1.00  0.00     0.014 A 
ATOM     12  C   UNL A   1      45.376  22.591  26.484  1.00  0.00     0.010 A 
ATOM     13  C   UNL A   1      44.555  23.146  24.274  1.00  0.00     0.010 A 
ATOM     14  C   UNL A   1      44.984  23.559  25.545  1.00  0.00    -0.014 A 
BRANCH  14  15
ATOM     15  C   UNL A   1      45.145  24.990  25.906  1.00  0.00     0.031 A 
ATOM     16  C   UNL A   1      44.015  25.792  26.484  1.00  0.00     0.074 A 
ATOM     17  C   UNL A   1      46.369  25.538  25.767  1.00  0.00     0.049 A 
ATOM     18  N   UNL A   1      44.032  27.027  26.921  1.00  0.00    -0.248 NA
ATOM     19  C   UNL A   1      42.699  25.141  26.584  1.00  0.00     0.031 C 
ATOM     20  C   UNL A   1      47.537  24.850  25.203  1.00  0.00     0.029 A 
ATOM     21  N   UNL A   1      46.856  26.768  26.125  1.00  0.00    -0.354 N 
ATOM     22  C   UNL A   1      42.737  27.302  27.339  1.00  0.00     0.074 A 
ATOM     23  C   UNL A   1      41.948  26.118  27.077  1.00  0.00     0.031 C 
ATOM     24  C   UNL A   1      48.615  25.633  25.330  1.00  0.00     0.029 A 
ATOM     25  C   UNL A   1      48.205  26.909  25.901  1.00  0.00     0.049 A 
ATOM     26  H   UNL A   1      46.294  27.481  26.504  1.00  0.00     0.167 HD
ATOM     27  C   UNL A   1      42.261  28.438  27.902  1.00  0.00     0.037 A 
ATOM     28  C   UNL A   1      49.024  27.954  26.117  1.00  0.00     0.037 A 
ATOM     29  C   UNL A   1      43.060  29.606  28.174  1.00  0.00     0.049 A 
ATOM     30  C   UNL A   1      48.452  29.208  26.707  1.00  0.00     0.074 A 
ATOM     31  C   UNL A   1      42.669  30.795  28.765  1.00  0.00     0.029 A 
ATOM     32  N   UNL A   1      44.409  29.735  27.875  1.00  0.00    -0.354 N 
ATOM     33  N   UNL A   1      47.231  29.441  27.122  1.00  0.00    -0.248 NA
ATOM     34  C   UNL A   1      49.368  30.347  26.852  1.00  0.00     0.031 C 
ATOM     35  C   UNL A   1      43.764  31.663  28.773  1.00  0.00     0.029 A 
ATOM     36  C   UNL A   1      44.855  30.993  28.246  1.00  0.00     0.049 A 
ATOM     37  H   UNL A   1      44.966  29.037  27.461  1.00  0.00     0.167 HD
ATOM     38  C   UNL A   1      47.234  30.747  27.590  1.00  0.00     0.074 A 
ATOM     39  C   UNL A   1      48.586  31.243  27.437  1.00  0.00     0.031 C 
ATOM     40  C   UNL A   1      46.205  31.474  28.090  1.00  0.00     0.037 A 
BRANCH  27  41
ATOM     41  C   UNL A   1      40.807  28.497  28.277  1.00  0.00     0.057 A 
ATOM     42  C   UNL A   1      39.858  28.997  27.376  1.00  0.00     0.134 A 
ATOM     43  C   UNL A   1      40.367  28.184  29.569  1.00  0.00     0.134 A 
ATOM     44  F   UNL A   1      40.213  29.325  26.124  1.00  0.00    -0.206 F 
ATOM     45  C   UNL A   1      38.532  29.214  27.755  1.00  0.00     0.040 A 
ATOM     46  C   UNL A   1      39.039  28.373  29.953  1.00  0.00     0.040 A 
ATOM     47  F   UNL A   1      41.223  27.691  30.478  1.00  0.00    -0.206 F 
ATOM     48  C   UNL A   1      38.120  28.905  29.050  1.00  0.00     0.006 A 
ENDBRANCH  27  41
BRANCH  28  49
ATOM     49  C   UNL A   1      50.464  27.854  25.765  1.00  0.00     0.057 A 
ATOM     50  C   UNL A   1      50.902  27.973  24.440  1.00  0.00     0.134 A 
ATOM     51  C   UNL A   1      51.437  27.628  26.746  1.00  0.00     0.134 A 
ATOM     52  F   UNL A   1      50.021  28.180  23.451  1.00  0.00    -0.206 F 
ATOM     53  C   UNL A   1      52.250  27.852  24.100  1.00  0.00     0.040 A 
ATOM     54  C   UNL A   1      52.792  27.541  26.425  1.00  0.00     0.040 A 
ATOM     55  F   UNL A   1      51.083  27.518  28.035  1.00  0.00    -0.206 F 
ATOM     56  C   UNL A   1      53.200  27.645  25.096  1.00  0.00     0.006 A 
ENDBRANCH  28  49
BRANCH  40  57
ATOM     57  C   UNL A   1      46.506  32.877  28.530  1.00  0.00     0.057 A 
ATOM     58  C   UNL A   1      46.890  33.145  29.851  1.00  0.00     0.134 A 
ATOM     59  C   UNL A   1      46.372  33.967  27.662  1.00  0.00     0.134 A 
ATOM     60  F   UNL A   1      47.028  32.147  30.737  1.00  0.00    -0.206 F 
ATOM     61  C   UNL A   1      47.122  34.448  30.293  1.00  0.00     0.040 A 
ATOM     62  C   UNL A   1      46.633  35.272  28.084  1.00  0.00     0.040 A 
ATOM     63  F   UNL A   1      46.020  33.777  26.381  1.00  0.00    -0.206 F 
ATOM     64  C   UNL A   1      47.000  35.515  29.406  1.00  0.00     0.006 A 
ENDBRANCH  40  57
ENDBRANCH  14  15
ENDBRANCH   7   9
ENDBRANCH   4   5
ENDBRANCH   3   4
ENDBRANCH   2   3
ENDBRANCH   1   2
BRANCH   1  65
ATOM     65  C   UNL A   1      40.076  22.401  26.500  1.00  0.00     0.021 C 
BRANCH  65  66
ATOM     66  C   UNL A   1      38.915  21.484  26.123  1.00  0.00     0.116 C 
BRANCH  66  67
ATOM     67  N   UNL A   1      38.144  21.975  25.004  1.00  0.00    -0.356 N 
ATOM     68  C   UNL A   1      36.823  21.943  24.706  1.00  0.00     0.225 C 
ATOM     69  H   UNL A   1      38.689  22.426  24.319  1.00  0.00     0.163 HD
ATOM     70  O   UNL A   1      36.459  22.712  23.808  1.00  0.00    -0.275 OA
BRANCH  68  71
ATOM     71  C   UNL A   1      35.784  21.025  25.339  1.00  0.00     0.107 C 
ATOM     72  C   UNL A   1      35.065  21.514  26.573  1.00  0.00     0.133 C 
ATOM     73  C   UNL A   1      34.633  20.570  24.415  1.00  0.00     0.053 C 
ATOM     74  N   UNL A   1      33.781  22.019  26.129  1.00  0.00    -0.341 N 
ATOM     75  C   UNL A   1      33.529  21.602  24.753  1.00  0.00     0.128 C 
BRANCH  73  76
ATOM     76  C   UNL A   1      34.111  19.138  24.629  1.00  0.00    -0.042 A 
ATOM     77  C   UNL A   1      34.992  18.060  24.413  1.00  0.00     0.007 A 
ATOM     78  C   UNL A   1      32.794  18.829  25.023  1.00  0.00     0.007 A 
ATOM     79  C   UNL A   1      34.562  16.734  24.535  1.00  0.00     0.039 A 
ATOM     80  C   UNL A   1      32.366  17.504  25.149  1.00  0.00     0.039 A 
ATOM     81  C   UNL A   1      33.250  16.469  24.896  1.00  0.00     0.123 A 
ATOM     82  F   UNL A   1      32.832  15.201  25.006  1.00  0.00    -0.207 F 
ENDBRANCH  73  76
BRANCH  74  83
ATOM     83  C   UNL A   1      32.928  22.876  26.788  1.00  0.00     0.225 C 
ATOM     84  O   UNL A   1      32.464  22.587  27.895  1.00  0.00    -0.275 OA
BRANCH  83  85
ATOM     85  C   UNL A   1      32.441  24.144  26.088  1.00  0.00     0.130 C 
BRANCH  85  86
ATOM     86  C   UNL A   1      33.499  25.153  25.644  1.00  0.00     0.123 C 
ATOM     87  N   UNL A   1      34.021  24.877  24.329  1.00  0.00    -0.345 N 
ATOM     88  C   UNL A   1      32.978  26.553  25.498  1.00  0.00    -0.012 A 
ATOM     89  C   UNL A   1      33.738  25.870  23.415  1.00  0.00     0.252 C 
ATOM     90  H   UNL A   1      34.527  24.063  24.105  1.00  0.00     0.164 HD
ATOM     91  C   UNL A   1      33.058  26.939  24.159  1.00  0.00     0.045 A 
ATOM     92  C   UNL A   1      32.381  27.389  26.434  1.00  0.00     0.007 A 
ATOM     93  O   UNL A   1      33.994  25.874  22.232  1.00  0.00    -0.269 OA
ATOM     94  C   UNL A   1      32.477  28.100  23.685  1.00  0.00     0.014 A 
ATOM     95  C   UNL A   1      31.777  28.565  25.974  1.00  0.00     0.000 A 
ATOM     96  C   UNL A   1      31.810  28.908  24.608  1.00  0.00     0.001 A 
ENDBRANCH  85  86
ENDBRANCH  83  85
ENDBRANCH  74  83
ENDBRANCH  68  71
ENDBRANCH  66  67
ENDBRANCH  65  66
ENDBRANCH   1  65
TORSDOF 17
ENDMDL
MODEL 3
REMARK VINA RESULT:     -12.8      1.610      2.528
REMARK SMILES O=C(NCCCCCCNC(=O)[C@H]1CN(C(=O)C[C@H]2NC(=O)c3ccccc32)C[C@@H]1c1ccc(F)cc1)c1ccc(-c2c3nc(c(-c4c(F)cccc4F)c4ccc([nH]4)c(-c4c(F)cccc4F)c4nc(c(-c5c(F)cccc5F)c5ccc2[nH]5)C=C4)C=C3)cc1
REMARK SMILES IDX 7 1 6 2 5 3 4 4 3 5 1 6 2 7 38 9 39 10 91 11 40 12 90 13
REMARK SMILES IDX 41 14 42 15 43 16 84 17 44 18 89 19 83 20 85 21 45 22 88 23
REMARK SMILES IDX 82 24 81 25 46 27 72 28 55 29 71 30 56 31 59 32 70 33 86 34
REMARK SMILES IDX 57 35 58 36 69 38 87 39 60 40 47 41 48 42 53 43 49 44 50 45
REMARK SMILES IDX 52 46 54 47 51 48 73 49 74 50 79 51 75 52 76 53 78 54 80 55
REMARK SMILES IDX 77 56 61 57 62 58 67 59 63 60 64 61 66 62 68 63 65 64 8 65
REMARK SMILES IDX 9 66 10 67 11 68 12 70 13 71 14 72 30 73 15 74 29 75 31 76
REMARK SMILES IDX 32 77 37 78 33 79 36 80 34 81 35 82 16 83 17 84 18 85 19 86
REMARK SMILES IDX 20 87 28 88 21 89 23 91 27 92 22 93 24 94 26 95 25 96
REMARK H PARENT 3 8 85 26 59 37 10 69 20 90
REMARK Flexibility Score: inf
ROOT
ATOM      1  C   UNL A   1      32.479  30.123  26.428  1.00  0.00     0.002 C 
ENDROOT
BRANCH   1   2
ATOM      2  C   UNL A   1      31.230  30.883  25.960  1.00  0.00     0.002 C 
BRANCH   2   3
ATOM      3  C   UNL A   1      31.164  32.352  26.385  1.00  0.00     0.021 C 
BRANCH   3   4
ATOM      4  C   UNL A   1      32.348  32.804  27.227  1.00  0.00     0.116 C 
BRANCH   4   5
ATOM      5  N   UNL A   1      32.232  34.200  27.620  1.00  0.00    -0.352 N 
ATOM      6  O   UNL A   1      32.566  36.009  28.929  1.00  0.00    -0.269 OA
ATOM      7  C   UNL A   1      32.954  34.910  28.547  1.00  0.00     0.251 C 
ATOM      8  H   UNL A   1      31.531  34.712  27.154  1.00  0.00     0.163 HD
BRANCH   7   9
ATOM      9  C   UNL A   1      34.205  34.337  29.081  1.00  0.00     0.039 A 
ATOM     10  C   UNL A   1      34.180  33.608  30.270  1.00  0.00     0.014 A 
ATOM     11  C   UNL A   1      35.407  34.516  28.390  1.00  0.00     0.014 A 
ATOM     12  C   UNL A   1      35.369  33.204  30.853  1.00  0.00     0.010 A 
ATOM     13  C   UNL A   1      36.593  33.998  28.920  1.00  0.00     0.010 A 
ATOM     14  C   UNL A   1      36.586  33.356  30.167  1.00  0.00    -0.014 A 
BRANCH  14  15
ATOM     15  C   UNL A   1      37.800  32.731  30.749  1.00  0.00     0.031 A 
ATOM     16  C   UNL A   1      38.406  33.222  32.032  1.00  0.00     0.074 A 
ATOM     17  C   UNL A   1      38.308  31.649  30.125  1.00  0.00     0.049 A 
ATOM     18  N   UNL A   1      39.417  32.723  32.700  1.00  0.00    -0.248 NA
ATOM     19  C   UNL A   1      37.818  34.422  32.647  1.00  0.00     0.031 C 
ATOM     20  C   UNL A   1      37.804  31.094  28.863  1.00  0.00     0.029 A 
ATOM     21  N   UNL A   1      39.321  30.795  30.476  1.00  0.00    -0.354 N 
ATOM     22  C   UNL A   1      39.589  33.547  33.804  1.00  0.00     0.074 A 
ATOM     23  C   UNL A   1      38.600  34.599  33.705  1.00  0.00     0.031 C 
ATOM     24  C   UNL A   1      38.449  29.953  28.593  1.00  0.00     0.029 A 
ATOM     25  C   UNL A   1      39.471  29.739  29.608  1.00  0.00     0.049 A 
ATOM     26  H   UNL A   1      39.887  30.925  31.270  1.00  0.00     0.167 HD
ATOM     27  C   UNL A   1      40.486  33.422  34.811  1.00  0.00     0.037 A 
ATOM     28  C   UNL A   1      40.343  28.715  29.617  1.00  0.00     0.037 A 
ATOM     29  C   UNL A   1      41.456  32.360  34.908  1.00  0.00     0.049 A 
ATOM     30  C   UNL A   1      41.345  28.632  30.729  1.00  0.00     0.074 A 
ATOM     31  C   UNL A   1      42.388  32.139  35.907  1.00  0.00     0.029 A 
ATOM     32  N   UNL A   1      41.620  31.344  33.978  1.00  0.00    -0.354 N 
ATOM     33  N   UNL A   1      41.477  29.404  31.780  1.00  0.00    -0.248 NA
ATOM     34  C   UNL A   1      42.326  27.541  30.654  1.00  0.00     0.031 C 
ATOM     35  C   UNL A   1      43.153  31.024  35.554  1.00  0.00     0.029 A 
ATOM     36  C   UNL A   1      42.656  30.511  34.368  1.00  0.00     0.049 A 
ATOM     37  H   UNL A   1      41.080  31.232  33.162  1.00  0.00     0.167 HD
ATOM     38  C   UNL A   1      42.544  28.886  32.499  1.00  0.00     0.074 A 
ATOM     39  C   UNL A   1      43.003  27.715  31.781  1.00  0.00     0.031 C 
ATOM     40  C   UNL A   1      43.101  29.347  33.645  1.00  0.00     0.037 A 
BRANCH  27  41
ATOM     41  C   UNL A   1      40.477  34.449  35.909  1.00  0.00     0.057 A 
ATOM     42  C   UNL A   1      41.318  35.568  35.845  1.00  0.00     0.134 A 
ATOM     43  C   UNL A   1      39.737  34.263  37.083  1.00  0.00     0.134 A 
ATOM     44  F   UNL A   1      42.059  35.802  34.752  1.00  0.00    -0.206 F 
ATOM     45  C   UNL A   1      41.447  36.447  36.922  1.00  0.00     0.040 A 
ATOM     46  C   UNL A   1      39.841  35.148  38.158  1.00  0.00     0.040 A 
ATOM     47  F   UNL A   1      38.906  33.216  37.205  1.00  0.00    -0.206 F 
ATOM     48  C   UNL A   1      40.710  36.235  38.085  1.00  0.00     0.006 A 
ENDBRANCH  27  41
BRANCH  28  49
ATOM     49  C   UNL A   1      40.306  27.697  28.535  1.00  0.00     0.057 A 
ATOM     50  C   UNL A   1      39.595  26.500  28.682  1.00  0.00     0.134 A 
ATOM     51  C   UNL A   1      40.989  27.895  27.330  1.00  0.00     0.134 A 
ATOM     52  F   UNL A   1      38.927  26.243  29.816  1.00  0.00    -0.206 F 
ATOM     53  C   UNL A   1      39.580  25.528  27.681  1.00  0.00     0.040 A 
ATOM     54  C   UNL A   1      40.953  26.948  26.305  1.00  0.00     0.040 A 
ATOM     55  F   UNL A   1      41.678  29.027  27.122  1.00  0.00    -0.206 F 
ATOM     56  C   UNL A   1      40.252  25.756  26.484  1.00  0.00     0.006 A 
ENDBRANCH  28  49
BRANCH  40  57
ATOM     57  C   UNL A   1      44.256  28.571  34.207  1.00  0.00     0.057 A 
ATOM     58  C   UNL A   1      45.571  28.876  33.834  1.00  0.00     0.134 A 
ATOM     59  C   UNL A   1      44.066  27.492  35.081  1.00  0.00     0.134 A 
ATOM     60  F   UNL A   1      45.823  29.890  32.993  1.00  0.00    -0.206 F 
ATOM     61  C   UNL A   1      46.654  28.132  34.303  1.00  0.00     0.040 A 
ATOM     62  C   UNL A   1      45.143  26.762  35.583  1.00  0.00     0.040 A 
ATOM     63  F   UNL A   1      42.832  27.157  35.487  1.00  0.00    -0.206 F 
ATOM     64  C   UNL A   1      46.441  27.075  35.186  1.00  0.00     0.006 A 
ENDBRANCH  40  57
ENDBRANCH  14  15
ENDBRANCH   7   9
ENDBRANCH   4   5
ENDBRANCH   3   4
ENDBRANCH   2   3
ENDBRANCH   1   2
BRANCH   1  65
ATOM     65  C   UNL A   1      32.824  28.886  25.598  1.00  0.00     0.021 C 
BRANCH  65  66
ATOM     66  C   UNL A   1      34.196  28.958  24.931  1.00  0.00     0.116 C 
BRANCH  66  67
ATOM     67  N   UNL A   1      34.218  28.364  23.614  1.00  0.00    -0.356 N 
ATOM     68  C   UNL A   1      34.030  27.100  23.168  1.00  0.00     0.225 C 
ATOM     69  H   UNL A   1      34.408  29.009  22.896  1.00  0.00     0.163 HD
ATOM     70  O   UNL A   1      33.830  26.987  21.952  1.00  0.00    -0.275 OA
BRANCH  68  71
ATOM     71  C   UNL A   1      34.090  25.832  24.012  1.00  0.00     0.107 C 
ATOM     72  C   UNL A   1      33.172  25.733  25.206  1.00  0.00     0.133 C 
ATOM     73  C   UNL A   1      33.838  24.507  23.260  1.00  0.00     0.053 C 
ATOM     74  N   UNL A   1      32.037  24.934  24.789  1.00  0.00    -0.341 N 
ATOM     75  C   UNL A   1      32.328  24.279  23.517  1.00  0.00     0.128 C 
BRANCH  73  76
ATOM     76  C   UNL A   1      34.651  23.289  23.733  1.00  0.00    -0.042 A 
ATOM     77  C   UNL A   1      33.957  22.136  24.155  1.00  0.00     0.007 A 
ATOM     78  C   UNL A   1      36.058  23.250  23.783  1.00  0.00     0.007 A 
ATOM     79  C   UNL A   1      34.636  21.019  24.651  1.00  0.00     0.039 A 
ATOM     80  C   UNL A   1      36.738  22.131  24.274  1.00  0.00     0.039 A 
ATOM     81  C   UNL A   1      36.022  21.030  24.711  1.00  0.00     0.123 A 
ATOM     82  F   UNL A   1      36.676  19.965  25.193  1.00  0.00    -0.207 F 
ENDBRANCH  73  76
BRANCH  74  83
ATOM     83  C   UNL A   1      30.790  24.854  25.369  1.00  0.00     0.225 C 
ATOM     84  O   UNL A   1      30.395  23.805  25.886  1.00  0.00    -0.275 OA
BRANCH  83  85
ATOM     85  C   UNL A   1      29.828  26.036  25.260  1.00  0.00     0.130 C 
BRANCH  85  86
ATOM     86  C   UNL A   1      29.097  26.227  23.932  1.00  0.00     0.123 C 
ATOM     87  N   UNL A   1      27.672  26.378  24.092  1.00  0.00    -0.345 N 
ATOM     88  C   UNL A   1      29.476  27.487  23.207  1.00  0.00    -0.012 A 
ATOM     89  C   UNL A   1      27.210  27.613  23.689  1.00  0.00     0.252 C 
ATOM     90  H   UNL A   1      27.088  25.671  24.451  1.00  0.00     0.164 HD
ATOM     91  C   UNL A   1      28.366  28.330  23.135  1.00  0.00     0.045 A 
ATOM     92  C   UNL A   1      30.713  27.914  22.742  1.00  0.00     0.007 A 
ATOM     93  O   UNL A   1      26.079  28.036  23.770  1.00  0.00    -0.269 OA
ATOM     94  C   UNL A   1      28.454  29.638  22.698  1.00  0.00     0.014 A 
ATOM     95  C   UNL A   1      30.828  29.239  22.304  1.00  0.00     0.000 A 
ATOM     96  C   UNL A   1      29.712  30.098  22.298  1.00  0.00     0.001 A 
ENDBRANCH  85  86
ENDBRANCH  83  85
ENDBRANCH  74  83
ENDBRANCH  68  71
ENDBRANCH  66  67
ENDBRANCH  65  66
ENDBRANCH   1  65
TORSDOF 17
ENDMDL
