MODEL 1
REMARK VINA RESULT:     -14.0      0.000      0.000
REMARK SMILES C[C@@H](Cc1cnn(-c2ccccc2)n1)C(=O)NCCCCCCNC(=O)c1ccc(-c2c3nc(c(-c4c(F)cccc4F)c4ccc([nH]4)c(-c4c(F)cccc4F)c4nc(c(-c5c(F)cccc5F)c5ccc2[nH]5)C=C4)C=C3)cc1
REMARK SMILES IDX 20 1 19 2 18 3 17 4 15 5 16 6 2 8 1 9 3 10 4 11 5 12 14 13
REMARK SMILES IDX 6 14 7 15 8 16 9 17 13 18 10 19 12 20 11 21 21 22 22 23
REMARK SMILES IDX 23 24 24 25 25 26 26 28 27 29 28 30 80 31 29 32 79 33 30 34
REMARK SMILES IDX 31 35 32 36 73 37 33 38 78 39 72 40 74 41 34 42 77 43 71 44
REMARK SMILES IDX 70 45 35 47 61 48 44 49 60 50 45 51 48 52 59 53 75 54 46 55
REMARK SMILES IDX 47 56 58 58 76 59 49 60 36 61 37 62 42 63 38 64 39 65 41 66
REMARK SMILES IDX 43 67 40 68 62 69 63 70 68 71 64 72 65 73 67 74 69 75 66 76
REMARK SMILES IDX 50 77 51 78 56 79 52 80 53 81 55 82 57 83 54 84
REMARK H PARENT 17 7 24 27 74 46 48 57
REMARK Flexibility Score: inf
ROOT
ATOM      1  C   UNL A   1      39.191  22.070  26.189  1.00  0.00     0.002 C 
ENDROOT
BRANCH   1   2
ATOM      2  C   UNL A   1      38.053  21.509  25.292  1.00  0.00     0.021 C 
BRANCH   2   3
ATOM      3  C   UNL A   1      36.821  22.373  25.272  1.00  0.00     0.116 C 
BRANCH   3   4
ATOM      4  N   UNL A   1      35.963  22.205  26.401  1.00  0.00    -0.356 N 
ATOM      5  C   UNL A   1      34.746  21.606  26.375  1.00  0.00     0.223 C 
ATOM      6  O   UNL A   1      34.190  21.402  27.458  1.00  0.00    -0.275 OA
ATOM      7  H   UNL A   1      36.280  22.552  27.266  1.00  0.00     0.163 HD
BRANCH   5   8
ATOM      8  C   UNL A   1      34.071  21.200  25.055  1.00  0.00     0.081 C 
ATOM      9  C   UNL A   1      34.075  19.702  24.776  1.00  0.00     0.018 C 
BRANCH   8  10
ATOM     10  C   UNL A   1      32.791  21.968  24.688  1.00  0.00     0.073 C 
BRANCH  10  11
ATOM     11  C   UNL A   1      32.172  23.059  25.544  1.00  0.00     0.084 A 
ATOM     12  C   UNL A   1      31.145  22.839  26.486  1.00  0.00     0.161 A 
ATOM     13  N   UNL A   1      32.435  24.384  25.517  1.00  0.00    -0.153 NA
ATOM     14  N   UNL A   1      30.820  23.979  27.100  1.00  0.00    -0.157 NA
ATOM     15  N   UNL A   1      31.476  24.911  26.344  1.00  0.00    -0.151 N 
BRANCH  15  16
ATOM     16  C   UNL A   1      30.817  26.195  26.100  1.00  0.00     0.086 A 
ATOM     17  C   UNL A   1      29.908  26.249  24.573  1.00  0.00     0.030 A 
ATOM     18  C   UNL A   1      31.623  27.689  26.686  1.00  0.00     0.030 A 
ATOM     19  C   UNL A   1      29.877  27.705  23.548  1.00  0.00     0.002 A 
ATOM     20  C   UNL A   1      31.660  29.203  25.628  1.00  0.00     0.002 A 
ATOM     21  C   UNL A   1      30.755  29.191  24.037  1.00  0.00     0.000 A 
ENDBRANCH  15  16
ENDBRANCH  10  11
ENDBRANCH   8  10
ENDBRANCH   5   8
ENDBRANCH   3   4
ENDBRANCH   2   3
ENDBRANCH   1   2
BRANCH   1  22
ATOM     22  C   UNL A   1      40.659  21.394  26.432  1.00  0.00     0.002 C 
BRANCH  22  23
ATOM     23  C   UNL A   1      41.249  19.645  26.587  1.00  0.00     0.021 C 
BRANCH  23  24
ATOM     24  C   UNL A   1      43.035  18.688  25.709  1.00  0.00     0.116 C 
BRANCH  24  25
ATOM     25  N   UNL A   1      44.579  19.384  25.748  1.00  0.00    -0.352 N 
ATOM     26  C   UNL A   1      45.358  20.046  24.851  1.00  0.00     0.251 C 
ATOM     27  H   UNL A   1      45.014  19.286  26.626  1.00  0.00     0.163 HD
ATOM     28  O   UNL A   1      46.330  19.587  24.275  1.00  0.00    -0.269 OA
BRANCH  26  29
ATOM     29  C   UNL A   1      45.097  21.475  24.920  1.00  0.00     0.039 A 
ATOM     30  C   UNL A   1      43.870  22.015  24.545  1.00  0.00     0.014 A 
ATOM     31  C   UNL A   1      46.004  22.160  25.716  1.00  0.00     0.014 A 
ATOM     32  C   UNL A   1      43.594  23.285  25.015  1.00  0.00     0.010 A 
ATOM     33  C   UNL A   1      45.394  22.984  26.560  1.00  0.00     0.010 A 
ATOM     34  C   UNL A   1      44.437  23.783  26.010  1.00  0.00    -0.014 A 
BRANCH  34  35
ATOM     35  C   UNL A   1      44.254  24.975  26.783  1.00  0.00     0.031 A 
ATOM     36  C   UNL A   1      45.327  25.926  26.468  1.00  0.00     0.074 A 
ATOM     37  C   UNL A   1      43.089  25.195  27.437  1.00  0.00     0.049 A 
ATOM     38  N   UNL A   1      46.472  25.957  27.064  1.00  0.00    -0.248 NA
ATOM     39  C   UNL A   1      45.333  26.619  25.162  1.00  0.00     0.031 C 
ATOM     40  C   UNL A   1      41.860  24.380  27.479  1.00  0.00     0.029 A 
ATOM     41  N   UNL A   1      42.751  26.261  28.206  1.00  0.00    -0.354 N 
ATOM     42  C   UNL A   1      47.146  26.992  26.449  1.00  0.00     0.074 A 
ATOM     43  C   UNL A   1      46.589  27.076  25.129  1.00  0.00     0.031 C 
ATOM     44  C   UNL A   1      40.854  25.084  28.051  1.00  0.00     0.029 A 
ATOM     45  C   UNL A   1      41.400  26.321  28.570  1.00  0.00     0.049 A 
ATOM     46  H   UNL A   1      43.405  26.941  28.485  1.00  0.00     0.167 HD
ATOM     47  C   UNL A   1      47.713  27.946  27.237  1.00  0.00     0.037 A 
ATOM     48  C   UNL A   1      40.832  27.345  29.262  1.00  0.00     0.037 A 
ATOM     49  C   UNL A   1      47.767  27.473  28.613  1.00  0.00     0.049 A 
ATOM     50  C   UNL A   1      41.952  28.056  29.945  1.00  0.00     0.074 A 
ATOM     51  C   UNL A   1      48.297  26.360  29.240  1.00  0.00     0.029 A 
ATOM     52  N   UNL A   1      46.790  27.953  29.456  1.00  0.00    -0.354 N 
ATOM     53  N   UNL A   1      42.673  27.506  30.887  1.00  0.00    -0.248 NA
ATOM     54  C   UNL A   1      42.609  29.116  29.194  1.00  0.00     0.031 C 
ATOM     55  C   UNL A   1      47.327  25.976  30.215  1.00  0.00     0.029 A 
ATOM     56  C   UNL A   1      46.313  26.935  30.241  1.00  0.00     0.049 A 
ATOM     57  H   UNL A   1      46.480  28.887  29.490  1.00  0.00     0.167 HD
ATOM     58  C   UNL A   1      43.987  27.809  30.547  1.00  0.00     0.074 A 
ATOM     59  C   UNL A   1      43.878  28.851  29.522  1.00  0.00     0.031 C 
ATOM     60  C   UNL A   1      45.005  26.952  30.868  1.00  0.00     0.037 A 
BRANCH  47  61
ATOM     61  C   UNL A   1      47.725  29.423  26.909  1.00  0.00     0.057 A 
ATOM     62  C   UNL A   1      48.935  30.116  27.080  1.00  0.00     0.134 A 
ATOM     63  C   UNL A   1      46.591  30.244  26.725  1.00  0.00     0.134 A 
ATOM     64  F   UNL A   1      50.087  29.451  27.258  1.00  0.00    -0.206 F 
ATOM     65  C   UNL A   1      48.997  31.510  27.167  1.00  0.00     0.040 A 
ATOM     66  C   UNL A   1      46.649  31.638  26.767  1.00  0.00     0.040 A 
ATOM     67  F   UNL A   1      45.350  29.770  26.585  1.00  0.00    -0.206 F 
ATOM     68  C   UNL A   1      47.848  32.276  27.023  1.00  0.00     0.006 A 
ENDBRANCH  47  61
BRANCH  48  69
ATOM     69  C   UNL A   1      39.495  27.969  29.096  1.00  0.00     0.057 A 
ATOM     70  C   UNL A   1      38.602  28.058  30.178  1.00  0.00     0.134 A 
ATOM     71  C   UNL A   1      39.187  28.764  27.980  1.00  0.00     0.134 A 
ATOM     72  F   UNL A   1      38.827  27.366  31.304  1.00  0.00    -0.206 F 
ATOM     73  C   UNL A   1      37.495  28.921  30.167  1.00  0.00     0.040 A 
ATOM     74  C   UNL A   1      38.084  29.629  27.957  1.00  0.00     0.040 A 
ATOM     75  F   UNL A   1      39.997  28.802  26.913  1.00  0.00    -0.206 F 
ATOM     76  C   UNL A   1      37.243  29.723  29.061  1.00  0.00     0.006 A 
ENDBRANCH  48  69
BRANCH  60  77
ATOM     77  C   UNL A   1      44.704  25.830  31.833  1.00  0.00     0.057 A 
ATOM     78  C   UNL A   1      44.402  24.505  31.472  1.00  0.00     0.134 A 
ATOM     79  C   UNL A   1      44.869  26.080  33.198  1.00  0.00     0.134 A 
ATOM     80  F   UNL A   1      44.311  24.138  30.188  1.00  0.00    -0.206 F 
ATOM     81  C   UNL A   1      44.236  23.493  32.426  1.00  0.00     0.040 A 
ATOM     82  C   UNL A   1      44.736  25.075  34.159  1.00  0.00     0.040 A 
ATOM     83  F   UNL A   1      45.211  27.307  33.619  1.00  0.00    -0.206 F 
ATOM     84  C   UNL A   1      44.408  23.778  33.777  1.00  0.00     0.006 A 
ENDBRANCH  60  77
ENDBRANCH  34  35
ENDBRANCH  26  29
ENDBRANCH  24  25
ENDBRANCH  23  24
ENDBRANCH  22  23
ENDBRANCH   1  22
TORSDOF 16
ENDMDL
MODEL 2
REMARK VINA RESULT:     -13.6      5.016     10.470
REMARK SMILES C[C@@H](Cc1cnn(-c2ccccc2)n1)C(=O)NCCCCCCNC(=O)c1ccc(-c2c3nc(c(-c4c(F)cccc4F)c4ccc([nH]4)c(-c4c(F)cccc4F)c4nc(c(-c5c(F)cccc5F)c5ccc2[nH]5)C=C4)C=C3)cc1
REMARK SMILES IDX 20 1 19 2 18 3 17 4 15 5 16 6 2 8 1 9 3 10 4 11 5 12 14 13
REMARK SMILES IDX 6 14 7 15 8 16 9 17 13 18 10 19 12 20 11 21 21 22 22 23
REMARK SMILES IDX 23 24 24 25 25 26 26 28 27 29 28 30 80 31 29 32 79 33 30 34
REMARK SMILES IDX 31 35 32 36 73 37 33 38 78 39 72 40 74 41 34 42 77 43 71 44
REMARK SMILES IDX 70 45 35 47 61 48 44 49 60 50 45 51 48 52 59 53 75 54 46 55
REMARK SMILES IDX 47 56 58 58 76 59 49 60 36 61 37 62 42 63 38 64 39 65 41 66
REMARK SMILES IDX 43 67 40 68 62 69 63 70 68 71 64 72 65 73 67 74 69 75 66 76
REMARK SMILES IDX 50 77 51 78 56 79 52 80 53 81 55 82 57 83 54 84
REMARK H PARENT 17 7 24 27 74 46 48 57
REMARK Flexibility Score: inf
ROOT
ATOM      1  C   UNL A   1      33.964  30.944  27.515  1.00  0.00     0.002 C 
ENDROOT
BRANCH   1   2
ATOM      2  C   UNL A   1      34.597  29.526  27.547  1.00  0.00     0.021 C 
BRANCH   2   3
ATOM      3  C   UNL A   1      33.965  28.562  26.578  1.00  0.00     0.116 C 
BRANCH   3   4
ATOM      4  N   UNL A   1      34.171  28.887  25.204  1.00  0.00    -0.356 N 
ATOM      5  C   UNL A   1      33.204  28.908  24.253  1.00  0.00     0.223 C 
ATOM      6  O   UNL A   1      33.507  29.353  23.143  1.00  0.00    -0.275 OA
ATOM      7  H   UNL A   1      35.087  29.114  24.924  1.00  0.00     0.163 HD
BRANCH   5   8
ATOM      8  C   UNL A   1      31.783  28.390  24.531  1.00  0.00     0.081 C 
ATOM      9  C   UNL A   1      30.671  29.373  24.184  1.00  0.00     0.018 C 
BRANCH   8  10
ATOM     10  C   UNL A   1      31.526  26.911  24.199  1.00  0.00     0.073 C 
BRANCH  10  11
ATOM     11  C   UNL A   1      32.483  26.032  23.413  1.00  0.00     0.084 A 
ATOM     12  C   UNL A   1      32.323  25.709  22.049  1.00  0.00     0.161 A 
ATOM     13  N   UNL A   1      33.575  25.379  23.869  1.00  0.00    -0.153 NA
ATOM     14  N   UNL A   1      33.329  24.939  21.628  1.00  0.00    -0.157 NA
ATOM     15  N   UNL A   1      33.946  24.602  22.801  1.00  0.00    -0.151 N 
BRANCH  15  16
ATOM     16  C   UNL A   1      34.485  23.249  22.936  1.00  0.00     0.086 A 
ATOM     17  C   UNL A   1      33.370  22.114  23.732  1.00  0.00     0.030 A 
ATOM     18  C   UNL A   1      36.252  23.061  23.200  1.00  0.00     0.030 A 
ATOM     19  C   UNL A   1      33.946  20.878  24.878  1.00  0.00     0.002 A 
ATOM     20  C   UNL A   1      36.885  21.827  24.421  1.00  0.00     0.002 A 
ATOM     21  C   UNL A   1      35.691  20.719  25.257  1.00  0.00     0.000 A 
ENDBRANCH  15  16
ENDBRANCH  10  11
ENDBRANCH   8  10
ENDBRANCH   5   8
ENDBRANCH   3   4
ENDBRANCH   2   3
ENDBRANCH   1   2
BRANCH   1  22
ATOM     22  C   UNL A   1      34.370  32.210  28.466  1.00  0.00     0.002 C 
BRANCH  22  23
ATOM     23  C   UNL A   1      34.649  34.013  28.142  1.00  0.00     0.021 C 
BRANCH  23  24
ATOM     24  C   UNL A   1      33.753  35.768  29.136  1.00  0.00     0.116 C 
BRANCH  24  25
ATOM     25  N   UNL A   1      33.850  36.044  30.805  1.00  0.00    -0.352 N 
ATOM     26  C   UNL A   1      33.430  35.380  31.916  1.00  0.00     0.251 C 
ATOM     27  H   UNL A   1      34.321  36.882  31.021  1.00  0.00     0.163 HD
ATOM     28  O   UNL A   1      32.480  35.688  32.614  1.00  0.00    -0.269 OA
BRANCH  26  29
ATOM     29  C   UNL A   1      34.460  34.456  32.365  1.00  0.00     0.039 A 
ATOM     30  C   UNL A   1      34.234  33.084  32.434  1.00  0.00     0.014 A 
ATOM     31  C   UNL A   1      35.734  35.004  32.348  1.00  0.00     0.014 A 
ATOM     32  C   UNL A   1      35.358  32.282  32.482  1.00  0.00     0.010 A 
ATOM     33  C   UNL A   1      36.611  34.190  31.771  1.00  0.00     0.010 A 
ATOM     34  C   UNL A   1      36.578  32.896  32.196  1.00  0.00    -0.014 A 
BRANCH  34  35
ATOM     35  C   UNL A   1      37.844  32.256  31.997  1.00  0.00     0.031 A 
ATOM     36  C   UNL A   1      38.510  32.085  33.295  1.00  0.00     0.074 A 
ATOM     37  C   UNL A   1      38.141  31.682  30.808  1.00  0.00     0.049 A 
ATOM     38  N   UNL A   1      39.272  32.970  33.845  1.00  0.00    -0.248 NA
ATOM     39  C   UNL A   1      38.005  31.077  34.250  1.00  0.00     0.031 C 
ATOM     40  C   UNL A   1      37.322  31.556  29.588  1.00  0.00     0.029 A 
ATOM     41  N   UNL A   1      39.283  31.038  30.453  1.00  0.00    -0.354 N 
ATOM     42  C   UNL A   1      39.665  32.386  35.032  1.00  0.00     0.074 A 
ATOM     43  C   UNL A   1      38.612  31.474  35.375  1.00  0.00     0.031 C 
ATOM     44  C   UNL A   1      37.910  30.700  28.718  1.00  0.00     0.029 A 
ATOM     45  C   UNL A   1      39.218  30.352  29.233  1.00  0.00     0.049 A 
ATOM     46  H   UNL A   1      40.093  31.051  31.011  1.00  0.00     0.167 HD
ATOM     47  C   UNL A   1      40.995  32.359  35.323  1.00  0.00     0.037 A 
ATOM     48  C   UNL A   1      40.214  29.573  28.732  1.00  0.00     0.037 A 
ATOM     49  C   UNL A   1      41.706  33.274  34.443  1.00  0.00     0.049 A 
ATOM     50  C   UNL A   1      41.464  29.999  29.429  1.00  0.00     0.074 A 
ATOM     51  C   UNL A   1      41.599  34.621  34.146  1.00  0.00     0.029 A 
ATOM     52  N   UNL A   1      42.356  32.701  33.372  1.00  0.00    -0.354 N 
ATOM     53  N   UNL A   1      41.993  31.184  29.278  1.00  0.00    -0.248 NA
ATOM     54  C   UNL A   1      41.769  29.333  30.687  1.00  0.00     0.031 C 
ATOM     55  C   UNL A   1      41.799  34.715  32.735  1.00  0.00     0.029 A 
ATOM     56  C   UNL A   1      42.150  33.456  32.247  1.00  0.00     0.049 A 
ATOM     57  H   UNL A   1      42.889  31.874  33.410  1.00  0.00     0.167 HD
ATOM     58  C   UNL A   1      42.295  31.602  30.570  1.00  0.00     0.074 A 
ATOM     59  C   UNL A   1      42.183  30.392  31.390  1.00  0.00     0.031 C 
ATOM     60  C   UNL A   1      42.260  32.930  30.899  1.00  0.00     0.037 A 
BRANCH  47  61
ATOM     61  C   UNL A   1      41.697  31.191  35.981  1.00  0.00     0.057 A 
ATOM     62  C   UNL A   1      42.606  31.478  37.013  1.00  0.00     0.134 A 
ATOM     63  C   UNL A   1      41.758  29.870  35.486  1.00  0.00     0.134 A 
ATOM     64  F   UNL A   1      42.645  32.696  37.574  1.00  0.00    -0.206 F 
ATOM     65  C   UNL A   1      43.568  30.560  37.444  1.00  0.00     0.040 A 
ATOM     66  C   UNL A   1      42.687  28.932  35.941  1.00  0.00     0.040 A 
ATOM     67  F   UNL A   1      41.000  29.421  34.482  1.00  0.00    -0.206 F 
ATOM     68  C   UNL A   1      43.619  29.285  36.898  1.00  0.00     0.006 A 
ENDBRANCH  47  61
BRANCH  48  69
ATOM     69  C   UNL A   1      40.126  28.285  27.999  1.00  0.00     0.057 A 
ATOM     70  C   UNL A   1      40.788  28.108  26.772  1.00  0.00     0.134 A 
ATOM     71  C   UNL A   1      39.667  27.113  28.621  1.00  0.00     0.134 A 
ATOM     72  F   UNL A   1      41.298  29.161  26.115  1.00  0.00    -0.206 F 
ATOM     73  C   UNL A   1      41.019  26.839  26.220  1.00  0.00     0.040 A 
ATOM     74  C   UNL A   1      39.890  25.840  28.080  1.00  0.00     0.040 A 
ATOM     75  F   UNL A   1      39.071  27.156  29.821  1.00  0.00    -0.206 F 
ATOM     76  C   UNL A   1      40.584  25.698  26.884  1.00  0.00     0.006 A 
ENDBRANCH  48  69
BRANCH  60  77
ATOM     77  C   UNL A   1      42.166  33.933  29.773  1.00  0.00     0.057 A 
ATOM     78  C   UNL A   1      40.995  34.597  29.372  1.00  0.00     0.134 A 
ATOM     79  C   UNL A   1      43.355  34.344  29.164  1.00  0.00     0.134 A 
ATOM     80  F   UNL A   1      39.817  34.344  29.954  1.00  0.00    -0.206 F 
ATOM     81  C   UNL A   1      41.004  35.593  28.386  1.00  0.00     0.040 A 
ATOM     82  C   UNL A   1      43.385  35.356  28.201  1.00  0.00     0.040 A 
ATOM     83  F   UNL A   1      44.522  33.797  29.532  1.00  0.00    -0.206 F 
ATOM     84  C   UNL A   1      42.206  35.978  27.801  1.00  0.00     0.006 A 
ENDBRANCH  60  77
ENDBRANCH  34  35
ENDBRANCH  26  29
ENDBRANCH  24  25
ENDBRANCH  23  24
ENDBRANCH  22  23
ENDBRANCH   1  22
TORSDOF 16
ENDMDL
MODEL 3
REMARK VINA RESULT:     -13.0      1.520      3.381
REMARK SMILES C[C@@H](Cc1cnn(-c2ccccc2)n1)C(=O)NCCCCCCNC(=O)c1ccc(-c2c3nc(c(-c4c(F)cccc4F)c4ccc([nH]4)c(-c4c(F)cccc4F)c4nc(c(-c5c(F)cccc5F)c5ccc2[nH]5)C=C4)C=C3)cc1
REMARK SMILES IDX 20 1 19 2 18 3 17 4 15 5 16 6 2 8 1 9 3 10 4 11 5 12 14 13
REMARK SMILES IDX 6 14 7 15 8 16 9 17 13 18 10 19 12 20 11 21 21 22 22 23
REMARK SMILES IDX 23 24 24 25 25 26 26 28 27 29 28 30 80 31 29 32 79 33 30 34
REMARK SMILES IDX 31 35 32 36 73 37 33 38 78 39 72 40 74 41 34 42 77 43 71 44
REMARK SMILES IDX 70 45 35 47 61 48 44 49 60 50 45 51 48 52 59 53 75 54 46 55
REMARK SMILES IDX 47 56 58 58 76 59 49 60 36 61 37 62 42 63 38 64 39 65 41 66
REMARK SMILES IDX 43 67 40 68 62 69 63 70 68 71 64 72 65 73 67 74 69 75 66 76
REMARK SMILES IDX 50 77 51 78 56 79 52 80 53 81 55 82 57 83 54 84
REMARK H PARENT 17 7 24 27 74 46 48 57
REMARK Flexibility Score: inf
ROOT
ATOM      1  C   UNL A   1      38.292  22.081  25.547  1.00  0.00     0.002 C 
ENDROOT
BRANCH   1   2
ATOM      2  C   UNL A   1      37.106  21.952  24.552  1.00  0.00     0.021 C 
BRANCH   2   3
ATOM      3  C   UNL A   1      36.514  23.275  24.147  1.00  0.00     0.116 C 
BRANCH   3   4
ATOM      4  N   UNL A   1      35.533  23.192  23.114  1.00  0.00    -0.356 N 
ATOM      5  C   UNL A   1      34.393  23.926  23.058  1.00  0.00     0.223 C 
ATOM      6  O   UNL A   1      33.718  23.851  22.028  1.00  0.00    -0.275 OA
ATOM      7  H   UNL A   1      35.695  22.551  22.385  1.00  0.00     0.163 HD
BRANCH   5   8
ATOM      8  C   UNL A   1      33.944  24.814  24.230  1.00  0.00     0.081 C 
ATOM      9  C   UNL A   1      33.618  26.252  23.847  1.00  0.00     0.018 C 
BRANCH   8  10
ATOM     10  C   UNL A   1      33.022  24.149  25.266  1.00  0.00     0.073 C 
BRANCH  10  11
ATOM     11  C   UNL A   1      33.063  22.674  25.626  1.00  0.00     0.084 A 
ATOM     12  C   UNL A   1      33.827  22.138  26.684  1.00  0.00     0.161 A 
ATOM     13  N   UNL A   1      32.454  21.648  24.991  1.00  0.00    -0.153 NA
ATOM     14  N   UNL A   1      33.646  20.819  26.772  1.00  0.00    -0.157 NA
ATOM     15  N   UNL A   1      32.975  20.541  25.613  1.00  0.00    -0.151 N 
BRANCH  15  16
ATOM     16  C   UNL A   1      33.286  19.295  24.913  1.00  0.00     0.086 A 
ATOM     17  C   UNL A   1      32.143  17.978  25.261  1.00  0.00     0.030 A 
ATOM     18  C   UNL A   1      35.013  18.893  24.622  1.00  0.00     0.030 A 
ATOM     19  C   UNL A   1      32.681  16.291  25.451  1.00  0.00     0.002 A 
ATOM     20  C   UNL A   1      35.620  17.165  24.862  1.00  0.00     0.002 A 
ATOM     21  C   UNL A   1      34.411  15.853  25.275  1.00  0.00     0.000 A 
ENDBRANCH  15  16
ENDBRANCH  10  11
ENDBRANCH   8  10
ENDBRANCH   5   8
ENDBRANCH   3   4
ENDBRANCH   2   3
ENDBRANCH   1   2
BRANCH   1  22
ATOM     22  C   UNL A   1      39.231  20.863  26.102  1.00  0.00     0.002 C 
BRANCH  22  23
ATOM     23  C   UNL A   1      41.023  20.735  26.551  1.00  0.00     0.021 C 
BRANCH  23  24
ATOM     24  C   UNL A   1      42.509  19.213  25.959  1.00  0.00     0.116 C 
BRANCH  24  25
ATOM     25  N   UNL A   1      44.142  19.565  25.677  1.00  0.00    -0.352 N 
ATOM     26  C   UNL A   1      44.844  20.112  24.648  1.00  0.00     0.251 C 
ATOM     27  H   UNL A   1      44.718  19.315  26.436  1.00  0.00     0.163 HD
ATOM     28  O   UNL A   1      45.549  19.503  23.863  1.00  0.00    -0.269 OA
BRANCH  26  29
ATOM     29  C   UNL A   1      44.925  21.555  24.809  1.00  0.00     0.039 A 
ATOM     30  C   UNL A   1      44.122  22.421  24.071  1.00  0.00     0.014 A 
ATOM     31  C   UNL A   1      45.565  21.942  25.977  1.00  0.00     0.014 A 
ATOM     32  C   UNL A   1      43.989  23.703  24.570  1.00  0.00     0.010 A 
ATOM     33  C   UNL A   1      44.880  22.874  26.628  1.00  0.00     0.010 A 
ATOM     34  C   UNL A   1      44.448  23.921  25.870  1.00  0.00    -0.014 A 
BRANCH  34  35
ATOM     35  C   UNL A   1      44.256  25.093  26.670  1.00  0.00     0.031 A 
ATOM     36  C   UNL A   1      45.327  26.056  26.384  1.00  0.00     0.074 A 
ATOM     37  C   UNL A   1      43.087  25.292  27.324  1.00  0.00     0.049 A 
ATOM     38  N   UNL A   1      46.468  26.077  26.986  1.00  0.00    -0.248 NA
ATOM     39  C   UNL A   1      45.336  26.780  25.095  1.00  0.00     0.031 C 
ATOM     40  C   UNL A   1      41.861  24.472  27.340  1.00  0.00     0.029 A 
ATOM     41  N   UNL A   1      42.741  26.339  28.116  1.00  0.00    -0.354 N 
ATOM     42  C   UNL A   1      47.141  27.130  26.399  1.00  0.00     0.074 A 
ATOM     43  C   UNL A   1      46.590  27.244  25.079  1.00  0.00     0.031 C 
ATOM     44  C   UNL A   1      40.849  25.158  27.924  1.00  0.00     0.029 A 
ATOM     45  C   UNL A   1      41.387  26.384  28.476  1.00  0.00     0.049 A 
ATOM     46  H   UNL A   1      43.391  27.014  28.415  1.00  0.00     0.167 HD
ATOM     47  C   UNL A   1      47.700  28.067  27.213  1.00  0.00     0.037 A 
ATOM     48  C   UNL A   1      40.812  27.389  29.189  1.00  0.00     0.037 A 
ATOM     49  C   UNL A   1      47.749  27.561  28.577  1.00  0.00     0.049 A 
ATOM     50  C   UNL A   1      41.926  28.087  29.895  1.00  0.00     0.074 A 
ATOM     51  C   UNL A   1      48.282  26.435  29.180  1.00  0.00     0.029 A 
ATOM     52  N   UNL A   1      46.766  28.016  29.427  1.00  0.00    -0.354 N 
ATOM     53  N   UNL A   1      42.645  27.518  30.827  1.00  0.00    -0.248 NA
ATOM     54  C   UNL A   1      42.582  29.168  29.172  1.00  0.00     0.031 C 
ATOM     55  C   UNL A   1      47.308  26.024  30.141  1.00  0.00     0.029 A 
ATOM     56  C   UNL A   1      46.290  26.978  30.185  1.00  0.00     0.049 A 
ATOM     57  H   UNL A   1      46.453  28.948  29.482  1.00  0.00     0.167 HD
ATOM     58  C   UNL A   1      43.959  27.834  30.501  1.00  0.00     0.074 A 
ATOM     59  C   UNL A   1      43.850  28.900  29.500  1.00  0.00     0.031 C 
ATOM     60  C   UNL A   1      44.980  26.974  30.805  1.00  0.00     0.037 A 
BRANCH  47  61
ATOM     61  C   UNL A   1      47.707  29.551  26.921  1.00  0.00     0.057 A 
ATOM     62  C   UNL A   1      48.916  30.243  27.106  1.00  0.00     0.134 A 
ATOM     63  C   UNL A   1      46.571  30.373  26.759  1.00  0.00     0.134 A 
ATOM     64  F   UNL A   1      50.070  29.578  27.266  1.00  0.00    -0.206 F 
ATOM     65  C   UNL A   1      48.974  31.635  27.227  1.00  0.00     0.040 A 
ATOM     66  C   UNL A   1      46.626  31.766  26.835  1.00  0.00     0.040 A 
ATOM     67  F   UNL A   1      45.331  29.899  26.609  1.00  0.00    -0.206 F 
ATOM     68  C   UNL A   1      47.823  32.401  27.104  1.00  0.00     0.006 A 
ENDBRANCH  47  61
BRANCH  48  69
ATOM     69  C   UNL A   1      39.473  28.010  29.031  1.00  0.00     0.057 A 
ATOM     70  C   UNL A   1      38.574  28.069  30.110  1.00  0.00     0.134 A 
ATOM     71  C   UNL A   1      39.168  28.833  27.935  1.00  0.00     0.134 A 
ATOM     72  F   UNL A   1      38.796  27.349  31.220  1.00  0.00    -0.206 F 
ATOM     73  C   UNL A   1      37.464  28.926  30.116  1.00  0.00     0.040 A 
ATOM     74  C   UNL A   1      38.061  29.693  27.928  1.00  0.00     0.040 A 
ATOM     75  F   UNL A   1      39.983  28.901  26.874  1.00  0.00    -0.206 F 
ATOM     76  C   UNL A   1      37.214  29.755  29.029  1.00  0.00     0.006 A 
ENDBRANCH  48  69
BRANCH  60  77
ATOM     77  C   UNL A   1      44.678  25.827  31.741  1.00  0.00     0.057 A 
ATOM     78  C   UNL A   1      44.397  24.508  31.348  1.00  0.00     0.134 A 
ATOM     79  C   UNL A   1      44.822  26.050  33.114  1.00  0.00     0.134 A 
ATOM     80  F   UNL A   1      44.328  24.168  30.055  1.00  0.00    -0.206 F 
ATOM     81  C   UNL A   1      44.230  23.473  32.278  1.00  0.00     0.040 A 
ATOM     82  C   UNL A   1      44.687  25.023  34.051  1.00  0.00     0.040 A 
ATOM     83  F   UNL A   1      45.144  27.271  33.566  1.00  0.00    -0.206 F 
ATOM     84  C   UNL A   1      44.380  23.731  33.636  1.00  0.00     0.006 A 
ENDBRANCH  60  77
ENDBRANCH  34  35
ENDBRANCH  26  29
ENDBRANCH  24  25
ENDBRANCH  23  24
ENDBRANCH  22  23
ENDBRANCH   1  22
TORSDOF 16
ENDMDL
