MODEL 1
REMARK VINA RESULT:     -11.4      0.000      0.000
REMARK SMILES CCOc1cc(C[NH+]2CCC3(CC2)[C@H](C(=O)NCCCCCCNC(=O)c2ccc(-c4c5nc(c(-c6c(F)cccc6F)c6ccc([nH]6)c(-c6c(F)cccc6F)c6nc(c(-c7c(F)cccc7F)c7ccc4[nH]7)C=C6)C=C5)cc2)CC(=O)N3C)ccc1OC
REMARK SMILES IDX 19 1 18 2 17 3 15 4 16 5 14 7 8 8 9 9 13 10 10 12 12 13
REMARK SMILES IDX 11 14 84 15 81 16 82 17 85 18 83 19 7 20 6 21 4 22 5 23
REMARK SMILES IDX 88 24 87 25 86 26 3 27 2 28 1 29 89 30 90 31 20 32 21 33
REMARK SMILES IDX 22 34 23 35 24 36 25 37 26 39 27 40 28 41 80 42 29 43 79 44
REMARK SMILES IDX 30 45 31 46 32 47 73 48 33 49 78 50 72 51 74 52 34 53 77 54
REMARK SMILES IDX 71 55 70 56 35 58 61 59 44 60 60 61 45 62 48 63 59 64 75 65
REMARK SMILES IDX 46 66 47 67 58 69 76 70 49 71 36 72 37 73 42 74 38 75 39 76
REMARK SMILES IDX 41 77 43 78 40 79 62 80 63 81 68 82 64 83 65 84 67 85 69 86
REMARK SMILES IDX 66 87 50 88 51 89 56 90 52 91 53 92 55 93 57 94 54 95
REMARK H PARENT 17 6 8 11 24 38 74 57 48 68
REMARK Flexibility Score: inf
ROOT
ATOM      1  C   UNL A   1      36.263  23.546  26.139  1.00  0.00     0.021 C 
ENDROOT
BRANCH   1   2
ATOM      2  C   UNL A   1      35.408  24.492  25.310  1.00  0.00     0.116 C 
BRANCH   2   3
ATOM      3  N   UNL A   1      34.319  24.978  26.098  1.00  0.00    -0.356 N 
ATOM      4  C   UNL A   1      33.614  26.115  25.985  1.00  0.00     0.226 C 
ATOM      5  O   UNL A   1      33.055  26.463  27.027  1.00  0.00    -0.275 OA
ATOM      6  H   UNL A   1      34.044  24.388  26.837  1.00  0.00     0.163 HD
BRANCH   4   7
ATOM      7  C   UNL A   1      33.490  26.929  24.691  1.00  0.00     0.114 C 
ATOM      8  N   UNL A   1      31.753  24.628  21.803  1.00  0.00    -0.331 N 
ATOM      9  C   UNL A   1      30.924  24.646  22.989  1.00  0.00     0.265 C 
ATOM     10  C   UNL A   1      31.951  25.966  21.293  1.00  0.00     0.265 C 
ATOM     11  H   UNL A   1      31.207  24.143  21.091  1.00  0.00     0.348 HD
ATOM     12  C   UNL A   1      31.506  25.468  24.123  1.00  0.00     0.091 C 
ATOM     13  C   UNL A   1      32.617  26.939  22.266  1.00  0.00     0.091 C 
ATOM     14  C   UNL A   1      32.238  26.787  23.770  1.00  0.00     0.065 C 
ATOM     15  N   UNL A   1      31.504  28.020  24.117  1.00  0.00    -0.339 N 
ATOM     16  C   UNL A   1      33.692  28.418  24.918  1.00  0.00     0.116 C 
ATOM     17  C   UNL A   1      32.335  29.003  24.658  1.00  0.00     0.223 C 
ATOM     18  C   UNL A   1      30.239  28.396  23.522  1.00  0.00     0.147 C 
ATOM     19  O   UNL A   1      32.033  30.170  24.866  1.00  0.00    -0.275 OA
BRANCH   8  20
ATOM     20  C   UNL A   1      32.846  23.647  21.704  1.00  0.00     0.299 C 
BRANCH  20  21
ATOM     21  C   UNL A   1      32.789  22.357  22.510  1.00  0.00     0.010 A 
ATOM     22  C   UNL A   1      33.016  21.163  24.624  1.00  0.00     0.161 A 
ATOM     23  C   UNL A   1      33.340  22.254  23.803  1.00  0.00     0.060 A 
ATOM     24  C   UNL A   1      32.411  20.032  24.067  1.00  0.00     0.160 A 
ATOM     25  C   UNL A   1      32.049  20.041  22.723  1.00  0.00     0.051 A 
ATOM     26  C   UNL A   1      32.168  21.217  21.972  1.00  0.00     0.013 A 
BRANCH  22  27
ATOM     27  O   UNL A   1      32.740  21.377  25.951  1.00  0.00    -0.490 OA
BRANCH  27  28
ATOM     28  C   UNL A   1      33.742  21.272  26.940  1.00  0.00     0.226 C 
ATOM     29  C   UNL A   1      33.303  22.264  28.015  1.00  0.00     0.049 C 
ENDBRANCH  27  28
ENDBRANCH  22  27
BRANCH  24  30
ATOM     30  O   UNL A   1      32.156  18.889  24.780  1.00  0.00    -0.493 OA
ATOM     31  C   UNL A   1      33.052  17.816  24.491  1.00  0.00     0.278 C 
ENDBRANCH  24  30
ENDBRANCH  20  21
ENDBRANCH   8  20
ENDBRANCH   4   7
ENDBRANCH   2   3
ENDBRANCH   1   2
BRANCH   1  32
ATOM     32  C   UNL A   1      37.438  22.931  25.380  1.00  0.00     0.002 C 
BRANCH  32  33
ATOM     33  C   UNL A   1      37.089  21.726  24.506  1.00  0.00     0.002 C 
BRANCH  33  34
ATOM     34  C   UNL A   1      37.797  20.423  24.877  1.00  0.00     0.021 C 
BRANCH  34  35
ATOM     35  C   UNL A   1      38.879  20.572  25.928  1.00  0.00     0.116 C 
BRANCH  35  36
ATOM     36  N   UNL A   1      39.875  19.526  25.832  1.00  0.00    -0.352 N 
ATOM     37  C   UNL A   1      41.224  19.658  26.024  1.00  0.00     0.251 C 
ATOM     38  H   UNL A   1      39.548  18.626  25.605  1.00  0.00     0.163 HD
ATOM     39  O   UNL A   1      42.003  18.757  25.743  1.00  0.00    -0.269 OA
BRANCH  37  40
ATOM     40  C   UNL A   1      41.711  20.941  26.559  1.00  0.00     0.039 A 
ATOM     41  C   UNL A   1      42.078  21.946  25.668  1.00  0.00     0.014 A 
ATOM     42  C   UNL A   1      41.698  21.166  27.941  1.00  0.00     0.014 A 
ATOM     43  C   UNL A   1      42.423  23.200  26.166  1.00  0.00     0.010 A 
ATOM     44  C   UNL A   1      41.958  22.440  28.427  1.00  0.00     0.010 A 
ATOM     45  C   UNL A   1      42.349  23.460  27.546  1.00  0.00    -0.014 A 
BRANCH  45  46
ATOM     46  C   UNL A   1      42.744  24.778  28.094  1.00  0.00     0.031 A 
ATOM     47  C   UNL A   1      41.692  25.833  28.298  1.00  0.00     0.074 A 
ATOM     48  C   UNL A   1      44.035  25.032  28.378  1.00  0.00     0.049 A 
ATOM     49  N   UNL A   1      41.826  27.067  28.710  1.00  0.00    -0.248 NA
ATOM     50  C   UNL A   1      40.304  25.459  27.968  1.00  0.00     0.031 C 
ATOM     51  C   UNL A   1      45.146  24.096  28.193  1.00  0.00     0.029 A 
ATOM     52  N   UNL A   1      44.631  26.159  28.884  1.00  0.00    -0.354 N 
ATOM     53  C   UNL A   1      40.549  27.612  28.685  1.00  0.00     0.074 A 
ATOM     54  C   UNL A   1      39.663  26.603  28.150  1.00  0.00     0.031 C 
ATOM     55  C   UNL A   1      46.284  24.679  28.607  1.00  0.00     0.029 A 
ATOM     56  C   UNL A   1      45.991  26.040  29.045  1.00  0.00     0.049 A 
ATOM     57  H   UNL A   1      44.132  26.977  29.110  1.00  0.00     0.167 HD
ATOM     58  C   UNL A   1      40.144  28.833  29.103  1.00  0.00     0.037 A 
ATOM     59  C   UNL A   1      46.894  26.933  29.490  1.00  0.00     0.037 A 
ATOM     60  C   UNL A   1      41.026  29.825  29.655  1.00  0.00     0.049 A 
ATOM     61  C   UNL A   1      46.419  28.301  29.910  1.00  0.00     0.074 A 
ATOM     62  C   UNL A   1      40.713  31.084  30.134  1.00  0.00     0.029 A 
ATOM     63  N   UNL A   1      42.395  29.665  29.804  1.00  0.00    -0.354 N 
ATOM     64  N   UNL A   1      45.201  28.785  29.929  1.00  0.00    -0.248 NA
ATOM     65  C   UNL A   1      47.446  29.242  30.375  1.00  0.00     0.031 C 
ATOM     66  C   UNL A   1      41.902  31.703  30.533  1.00  0.00     0.029 A 
ATOM     67  C   UNL A   1      42.945  30.810  30.354  1.00  0.00     0.049 A 
ATOM     68  H   UNL A   1      42.900  28.857  29.556  1.00  0.00     0.167 HD
ATOM     69  C   UNL A   1      45.311  30.070  30.446  1.00  0.00     0.074 A 
ATOM     70  C   UNL A   1      46.713  30.284  30.738  1.00  0.00     0.031 C 
ATOM     71  C   UNL A   1      44.340  30.990  30.662  1.00  0.00     0.037 A 
BRANCH  58  72
ATOM     72  C   UNL A   1      38.683  29.156  28.992  1.00  0.00     0.057 A 
ATOM     73  C   UNL A   1      37.820  29.056  30.093  1.00  0.00     0.134 A 
ATOM     74  C   UNL A   1      38.137  29.612  27.785  1.00  0.00     0.134 A 
ATOM     75  F   UNL A   1      38.276  28.610  31.274  1.00  0.00    -0.206 F 
ATOM     76  C   UNL A   1      36.466  29.377  29.992  1.00  0.00     0.040 A 
ATOM     77  C   UNL A   1      36.791  29.965  27.680  1.00  0.00     0.040 A 
ATOM     78  F   UNL A   1      38.907  29.733  26.692  1.00  0.00    -0.206 F 
ATOM     79  C   UNL A   1      35.950  29.843  28.785  1.00  0.00     0.006 A 
ENDBRANCH  58  72
BRANCH  59  80
ATOM     80  C   UNL A   1      48.332  26.575  29.576  1.00  0.00     0.057 A 
ATOM     81  C   UNL A   1      49.214  26.864  28.526  1.00  0.00     0.134 A 
ATOM     82  C   UNL A   1      48.855  25.897  30.684  1.00  0.00     0.134 A 
ATOM     83  F   UNL A   1      48.772  27.497  27.429  1.00  0.00    -0.206 F 
ATOM     84  C   UNL A   1      50.551  26.463  28.560  1.00  0.00     0.040 A 
ATOM     85  C   UNL A   1      50.196  25.516  30.744  1.00  0.00     0.040 A 
ATOM     86  F   UNL A   1      48.067  25.596  31.727  1.00  0.00    -0.206 F 
ATOM     87  C   UNL A   1      51.046  25.788  29.673  1.00  0.00     0.006 A 
ENDBRANCH  59  80
BRANCH  71  88
ATOM     88  C   UNL A   1      44.747  32.287  31.297  1.00  0.00     0.057 A 
ATOM     89  C   UNL A   1      45.115  33.405  30.538  1.00  0.00     0.134 A 
ATOM     90  C   UNL A   1      44.719  32.432  32.690  1.00  0.00     0.134 A 
ATOM     91  F   UNL A   1      45.172  33.329  29.199  1.00  0.00    -0.206 F 
ATOM     92  C   UNL A   1      45.463  34.613  31.143  1.00  0.00     0.040 A 
ATOM     93  C   UNL A   1      45.035  33.643  33.305  1.00  0.00     0.040 A 
ATOM     94  F   UNL A   1      44.364  31.402  33.476  1.00  0.00    -0.206 F 
ATOM     95  C   UNL A   1      45.414  34.737  32.531  1.00  0.00     0.006 A 
ENDBRANCH  71  88
ENDBRANCH  45  46
ENDBRANCH  37  40
ENDBRANCH  35  36
ENDBRANCH  34  35
ENDBRANCH  33  34
ENDBRANCH  32  33
ENDBRANCH   1  32
TORSDOF 18
ENDMDL
MODEL 2
REMARK VINA RESULT:     -11.3      3.828      8.667
REMARK SMILES CCOc1cc(C[NH+]2CCC3(CC2)[C@H](C(=O)NCCCCCCNC(=O)c2ccc(-c4c5nc(c(-c6c(F)cccc6F)c6ccc([nH]6)c(-c6c(F)cccc6F)c6nc(c(-c7c(F)cccc7F)c7ccc4[nH]7)C=C6)C=C5)cc2)CC(=O)N3C)ccc1OC
REMARK SMILES IDX 19 1 18 2 17 3 15 4 16 5 14 7 8 8 9 9 13 10 10 12 12 13
REMARK SMILES IDX 11 14 84 15 81 16 82 17 85 18 83 19 7 20 6 21 4 22 5 23
REMARK SMILES IDX 88 24 87 25 86 26 3 27 2 28 1 29 89 30 90 31 20 32 21 33
REMARK SMILES IDX 22 34 23 35 24 36 25 37 26 39 27 40 28 41 80 42 29 43 79 44
REMARK SMILES IDX 30 45 31 46 32 47 73 48 33 49 78 50 72 51 74 52 34 53 77 54
REMARK SMILES IDX 71 55 70 56 35 58 61 59 44 60 60 61 45 62 48 63 59 64 75 65
REMARK SMILES IDX 46 66 47 67 58 69 76 70 49 71 36 72 37 73 42 74 38 75 39 76
REMARK SMILES IDX 41 77 43 78 40 79 62 80 63 81 68 82 64 83 65 84 67 85 69 86
REMARK SMILES IDX 66 87 50 88 51 89 56 90 52 91 53 92 55 93 57 94 54 95
REMARK H PARENT 17 6 8 11 24 38 74 57 48 68
REMARK Flexibility Score: inf
ROOT
ATOM      1  C   UNL A   1      33.744  28.894  26.056  1.00  0.00     0.021 C 
ENDROOT
BRANCH   1   2
ATOM      2  C   UNL A   1      33.914  27.423  26.403  1.00  0.00     0.116 C 
BRANCH   2   3
ATOM      3  N   UNL A   1      34.278  26.689  25.233  1.00  0.00    -0.356 N 
ATOM      4  C   UNL A   1      34.534  25.379  25.082  1.00  0.00     0.226 C 
ATOM      5  O   UNL A   1      35.228  25.114  24.099  1.00  0.00    -0.275 OA
ATOM      6  H   UNL A   1      34.352  27.225  24.410  1.00  0.00     0.163 HD
BRANCH   4   7
ATOM      7  C   UNL A   1      34.021  24.285  26.027  1.00  0.00     0.114 C 
ATOM      8  N   UNL A   1      30.016  23.763  25.450  1.00  0.00    -0.331 N 
ATOM      9  C   UNL A   1      30.719  23.641  24.190  1.00  0.00     0.265 C 
ATOM     10  C   UNL A   1      30.492  22.786  26.402  1.00  0.00     0.265 C 
ATOM     11  H   UNL A   1      29.049  23.503  25.253  1.00  0.00     0.348 HD
ATOM     12  C   UNL A   1      32.218  23.839  24.312  1.00  0.00     0.091 C 
ATOM     13  C   UNL A   1      31.982  22.876  26.734  1.00  0.00     0.091 C 
ATOM     14  C   UNL A   1      32.932  23.268  25.562  1.00  0.00     0.065 C 
ATOM     15  N   UNL A   1      33.764  22.074  25.315  1.00  0.00    -0.339 N 
ATOM     16  C   UNL A   1      35.147  23.464  26.634  1.00  0.00     0.116 C 
ATOM     17  C   UNL A   1      34.974  22.110  26.011  1.00  0.00     0.223 C 
ATOM     18  C   UNL A   1      33.233  20.805  24.863  1.00  0.00     0.147 C 
ATOM     19  O   UNL A   1      35.766  21.186  26.131  1.00  0.00    -0.275 OA
BRANCH   8  20
ATOM     20  C   UNL A   1      29.612  25.097  25.922  1.00  0.00     0.299 C 
BRANCH  20  21
ATOM     21  C   UNL A   1      29.562  26.268  24.951  1.00  0.00     0.010 A 
ATOM     22  C   UNL A   1      30.680  28.038  23.700  1.00  0.00     0.161 A 
ATOM     23  C   UNL A   1      30.641  27.162  24.796  1.00  0.00     0.060 A 
ATOM     24  C   UNL A   1      29.525  28.251  22.941  1.00  0.00     0.160 A 
ATOM     25  C   UNL A   1      28.376  27.518  23.223  1.00  0.00     0.051 A 
ATOM     26  C   UNL A   1      28.416  26.485  24.168  1.00  0.00     0.013 A 
BRANCH  22  27
ATOM     27  O   UNL A   1      31.861  28.220  23.026  1.00  0.00    -0.490 OA
BRANCH  27  28
ATOM     28  C   UNL A   1      32.489  27.158  22.338  1.00  0.00     0.226 C 
ATOM     29  C   UNL A   1      33.850  27.728  21.944  1.00  0.00     0.049 C 
ENDBRANCH  27  28
ENDBRANCH  22  27
BRANCH  24  30
ATOM     30  O   UNL A   1      29.456  29.164  21.920  1.00  0.00    -0.493 OA
ATOM     31  C   UNL A   1      28.835  30.395  22.288  1.00  0.00     0.278 C 
ENDBRANCH  24  30
ENDBRANCH  20  21
ENDBRANCH   8  20
ENDBRANCH   4   7
ENDBRANCH   2   3
ENDBRANCH   1   2
BRANCH   1  32
ATOM     32  C   UNL A   1      32.656  29.607  26.857  1.00  0.00     0.002 C 
BRANCH  32  33
ATOM     33  C   UNL A   1      31.696  30.466  26.032  1.00  0.00     0.002 C 
BRANCH  33  34
ATOM     34  C   UNL A   1      31.507  31.898  26.532  1.00  0.00     0.021 C 
BRANCH  34  35
ATOM     35  C   UNL A   1      32.731  32.500  27.192  1.00  0.00     0.116 C 
BRANCH  35  36
ATOM     36  N   UNL A   1      32.520  33.883  27.563  1.00  0.00    -0.352 N 
ATOM     37  C   UNL A   1      33.171  34.577  28.549  1.00  0.00     0.251 C 
ATOM     38  H   UNL A   1      31.837  34.377  27.054  1.00  0.00     0.163 HD
ATOM     39  O   UNL A   1      32.796  35.685  28.908  1.00  0.00    -0.269 OA
BRANCH  37  40
ATOM     40  C   UNL A   1      34.328  33.925  29.185  1.00  0.00     0.039 A 
ATOM     41  C   UNL A   1      34.105  32.897  30.096  1.00  0.00     0.014 A 
ATOM     42  C   UNL A   1      35.625  34.276  28.789  1.00  0.00     0.014 A 
ATOM     43  C   UNL A   1      35.195  32.197  30.608  1.00  0.00     0.010 A 
ATOM     44  C   UNL A   1      36.701  33.520  29.235  1.00  0.00     0.010 A 
ATOM     45  C   UNL A   1      36.497  32.493  30.170  1.00  0.00    -0.014 A 
BRANCH  45  46
ATOM     46  C   UNL A   1      37.669  31.780  30.729  1.00  0.00     0.031 A 
ATOM     47  C   UNL A   1      38.136  32.113  32.119  1.00  0.00     0.074 A 
ATOM     48  C   UNL A   1      38.320  30.865  29.986  1.00  0.00     0.049 A 
ATOM     49  N   UNL A   1      39.168  31.652  32.777  1.00  0.00    -0.248 NA
ATOM     50  C   UNL A   1      37.354  33.119  32.859  1.00  0.00     0.031 C 
ATOM     51  C   UNL A   1      37.976  30.482  28.615  1.00  0.00     0.029 A 
ATOM     52  N   UNL A   1      39.413  30.091  30.282  1.00  0.00    -0.354 N 
ATOM     53  C   UNL A   1      39.158  32.313  33.999  1.00  0.00     0.074 A 
ATOM     54  C   UNL A   1      38.066  33.257  33.967  1.00  0.00     0.031 C 
ATOM     55  C   UNL A   1      38.823  29.525  28.201  1.00  0.00     0.029 A 
ATOM     56  C   UNL A   1      39.793  29.258  29.258  1.00  0.00     0.049 A 
ATOM     57  H   UNL A   1      39.880  30.128  31.149  1.00  0.00     0.167 HD
ATOM     58  C   UNL A   1      39.968  32.125  35.066  1.00  0.00     0.037 A 
ATOM     59  C   UNL A   1      40.816  28.385  29.183  1.00  0.00     0.037 A 
ATOM     60  C   UNL A   1      41.040  31.167  35.101  1.00  0.00     0.049 A 
ATOM     61  C   UNL A   1      41.726  28.226  30.373  1.00  0.00     0.074 A 
ATOM     62  C   UNL A   1      41.903  30.878  36.143  1.00  0.00     0.029 A 
ATOM     63  N   UNL A   1      41.392  30.342  34.045  1.00  0.00    -0.354 N 
ATOM     64  N   UNL A   1      41.675  28.821  31.541  1.00  0.00    -0.248 NA
ATOM     65  C   UNL A   1      42.834  27.271  30.235  1.00  0.00     0.031 C 
ATOM     66  C   UNL A   1      42.806  29.907  35.701  1.00  0.00     0.029 A 
ATOM     67  C   UNL A   1      42.470  29.553  34.404  1.00  0.00     0.049 A 
ATOM     68  H   UNL A   1      40.942  30.320  33.170  1.00  0.00     0.167 HD
ATOM     69  C   UNL A   1      42.714  28.281  32.288  1.00  0.00     0.074 A 
ATOM     70  C   UNL A   1      43.371  27.304  31.445  1.00  0.00     0.031 C 
ATOM     71  C   UNL A   1      43.091  28.566  33.558  1.00  0.00     0.037 A 
BRANCH  58  72
ATOM     72  C   UNL A   1      39.714  32.960  36.287  1.00  0.00     0.057 A 
ATOM     73  C   UNL A   1      40.355  34.192  36.482  1.00  0.00     0.134 A 
ATOM     74  C   UNL A   1      38.790  32.553  37.258  1.00  0.00     0.134 A 
ATOM     75  F   UNL A   1      41.263  34.634  35.599  1.00  0.00    -0.206 F 
ATOM     76  C   UNL A   1      40.101  34.977  37.609  1.00  0.00     0.040 A 
ATOM     77  C   UNL A   1      38.506  33.343  38.372  1.00  0.00     0.040 A 
ATOM     78  F   UNL A   1      38.140  31.385  37.131  1.00  0.00    -0.206 F 
ATOM     79  C   UNL A   1      39.167  34.556  38.553  1.00  0.00     0.006 A 
ENDBRANCH  58  72
BRANCH  59  80
ATOM     80  C   UNL A   1      41.037  27.584  27.952  1.00  0.00     0.057 A 
ATOM     81  C   UNL A   1      41.785  28.092  26.882  1.00  0.00     0.134 A 
ATOM     82  C   UNL A   1      40.472  26.313  27.793  1.00  0.00     0.134 A 
ATOM     83  F   UNL A   1      42.337  29.312  26.965  1.00  0.00    -0.206 F 
ATOM     84  C   UNL A   1      41.934  27.383  25.689  1.00  0.00     0.040 A 
ATOM     85  C   UNL A   1      40.639  25.579  26.618  1.00  0.00     0.040 A 
ATOM     86  F   UNL A   1      39.751  25.763  28.782  1.00  0.00    -0.206 F 
ATOM     87  C   UNL A   1      41.361  26.120  25.555  1.00  0.00     0.006 A 
ENDBRANCH  59  80
BRANCH  71  88
ATOM     88  C   UNL A   1      44.226  27.772  34.136  1.00  0.00     0.057 A 
ATOM     89  C   UNL A   1      44.027  26.537  34.763  1.00  0.00     0.134 A 
ATOM     90  C   UNL A   1      45.544  28.232  34.014  1.00  0.00     0.134 A 
ATOM     91  F   UNL A   1      42.788  26.046  34.922  1.00  0.00    -0.206 F 
ATOM     92  C   UNL A   1      45.096  25.798  35.270  1.00  0.00     0.040 A 
ATOM     93  C   UNL A   1      46.623  27.489  34.489  1.00  0.00     0.040 A 
ATOM     94  F   UNL A   1      45.804  29.404  33.413  1.00  0.00    -0.206 F 
ATOM     95  C   UNL A   1      46.401  26.269  35.125  1.00  0.00     0.006 A 
ENDBRANCH  71  88
ENDBRANCH  45  46
ENDBRANCH  37  40
ENDBRANCH  35  36
ENDBRANCH  34  35
ENDBRANCH  33  34
ENDBRANCH  32  33
ENDBRANCH   1  32
TORSDOF 18
ENDMDL
MODEL 3
REMARK VINA RESULT:     -10.7      4.682      9.317
REMARK SMILES CCOc1cc(C[NH+]2CCC3(CC2)[C@H](C(=O)NCCCCCCNC(=O)c2ccc(-c4c5nc(c(-c6c(F)cccc6F)c6ccc([nH]6)c(-c6c(F)cccc6F)c6nc(c(-c7c(F)cccc7F)c7ccc4[nH]7)C=C6)C=C5)cc2)CC(=O)N3C)ccc1OC
REMARK SMILES IDX 19 1 18 2 17 3 15 4 16 5 14 7 8 8 9 9 13 10 10 12 12 13
REMARK SMILES IDX 11 14 84 15 81 16 82 17 85 18 83 19 7 20 6 21 4 22 5 23
REMARK SMILES IDX 88 24 87 25 86 26 3 27 2 28 1 29 89 30 90 31 20 32 21 33
REMARK SMILES IDX 22 34 23 35 24 36 25 37 26 39 27 40 28 41 80 42 29 43 79 44
REMARK SMILES IDX 30 45 31 46 32 47 73 48 33 49 78 50 72 51 74 52 34 53 77 54
REMARK SMILES IDX 71 55 70 56 35 58 61 59 44 60 60 61 45 62 48 63 59 64 75 65
REMARK SMILES IDX 46 66 47 67 58 69 76 70 49 71 36 72 37 73 42 74 38 75 39 76
REMARK SMILES IDX 41 77 43 78 40 79 62 80 63 81 68 82 64 83 65 84 67 85 69 86
REMARK SMILES IDX 66 87 50 88 51 89 56 90 52 91 53 92 55 93 57 94 54 95
REMARK H PARENT 17 6 8 11 24 38 74 57 48 68
REMARK Flexibility Score: inf
ROOT
ATOM      1  C   UNL A   1      34.641  31.239  28.378  1.00  0.00     0.021 C 
ENDROOT
BRANCH   1   2
ATOM      2  C   UNL A   1      34.527  30.119  27.354  1.00  0.00     0.116 C 
BRANCH   2   3
ATOM      3  N   UNL A   1      33.442  29.256  27.699  1.00  0.00    -0.356 N 
ATOM      4  C   UNL A   1      32.401  28.843  26.957  1.00  0.00     0.226 C 
ATOM      5  O   UNL A   1      31.427  28.480  27.620  1.00  0.00    -0.275 OA
ATOM      6  H   UNL A   1      33.460  28.910  28.621  1.00  0.00     0.163 HD
BRANCH   4   7
ATOM      7  C   UNL A   1      32.393  28.808  25.424  1.00  0.00     0.114 C 
ATOM      8  N   UNL A   1      33.132  25.004  24.149  1.00  0.00    -0.331 N 
ATOM      9  C   UNL A   1      32.023  25.009  25.079  1.00  0.00     0.265 C 
ATOM     10  C   UNL A   1      32.851  25.844  23.007  1.00  0.00     0.265 C 
ATOM     11  H   UNL A   1      33.181  24.053  23.783  1.00  0.00     0.348 HD
ATOM     12  C   UNL A   1      31.691  26.387  25.618  1.00  0.00     0.091 C 
ATOM     13  C   UNL A   1      32.574  27.312  23.334  1.00  0.00     0.091 C 
ATOM     14  C   UNL A   1      31.790  27.594  24.651  1.00  0.00     0.065 C 
ATOM     15  N   UNL A   1      30.495  28.160  24.224  1.00  0.00    -0.339 N 
ATOM     16  C   UNL A   1      31.774  30.057  24.817  1.00  0.00     0.116 C 
ATOM     17  C   UNL A   1      30.504  29.556  24.194  1.00  0.00     0.223 C 
ATOM     18  C   UNL A   1      29.519  27.431  23.442  1.00  0.00     0.147 C 
ATOM     19  O   UNL A   1      29.638  30.274  23.715  1.00  0.00    -0.275 OA
BRANCH   8  20
ATOM     20  C   UNL A   1      34.506  24.926  24.669  1.00  0.00     0.299 C 
BRANCH  20  21
ATOM     21  C   UNL A   1      35.178  23.573  24.853  1.00  0.00     0.010 A 
ATOM     22  C   UNL A   1      35.116  21.259  25.623  1.00  0.00     0.161 A 
ATOM     23  C   UNL A   1      34.648  22.580  25.702  1.00  0.00     0.060 A 
ATOM     24  C   UNL A   1      36.306  20.986  24.942  1.00  0.00     0.160 A 
ATOM     25  C   UNL A   1      36.961  22.013  24.268  1.00  0.00     0.051 A 
ATOM     26  C   UNL A   1      36.364  23.275  24.161  1.00  0.00     0.013 A 
BRANCH  22  27
ATOM     27  O   UNL A   1      34.219  20.223  25.665  1.00  0.00    -0.490 OA
BRANCH  27  28
ATOM     28  C   UNL A   1      33.313  19.987  24.608  1.00  0.00     0.226 C 
ATOM     29  C   UNL A   1      32.700  18.629  24.943  1.00  0.00     0.049 C 
ENDBRANCH  27  28
ENDBRANCH  22  27
BRANCH  24  30
ATOM     30  O   UNL A   1      36.882  19.741  24.906  1.00  0.00    -0.493 OA
ATOM     31  C   UNL A   1      38.300  19.757  25.063  1.00  0.00     0.278 C 
ENDBRANCH  24  30
ENDBRANCH  20  21
ENDBRANCH   8  20
ENDBRANCH   4   7
ENDBRANCH   2   3
ENDBRANCH   1   2
BRANCH   1  32
ATOM     32  C   UNL A   1      33.990  32.553  27.949  1.00  0.00     0.002 C 
BRANCH  32  33
ATOM     33  C   UNL A   1      34.118  33.701  28.951  1.00  0.00     0.002 C 
BRANCH  33  34
ATOM     34  C   UNL A   1      32.939  34.673  28.984  1.00  0.00     0.021 C 
BRANCH  34  35
ATOM     35  C   UNL A   1      33.262  36.034  29.567  1.00  0.00     0.116 C 
BRANCH  35  36
ATOM     36  N   UNL A   1      32.478  36.316  30.750  1.00  0.00    -0.352 N 
ATOM     37  C   UNL A   1      32.668  35.798  32.004  1.00  0.00     0.251 C 
ATOM     38  H   UNL A   1      31.729  36.946  30.643  1.00  0.00     0.163 HD
ATOM     39  O   UNL A   1      31.845  35.955  32.895  1.00  0.00    -0.269 OA
BRANCH  37  40
ATOM     40  C   UNL A   1      33.895  35.016  32.235  1.00  0.00     0.039 A 
ATOM     41  C   UNL A   1      35.127  35.659  32.159  1.00  0.00     0.014 A 
ATOM     42  C   UNL A   1      33.799  33.674  32.624  1.00  0.00     0.014 A 
ATOM     43  C   UNL A   1      36.280  34.954  32.494  1.00  0.00     0.010 A 
ATOM     44  C   UNL A   1      34.940  33.002  33.040  1.00  0.00     0.010 A 
ATOM     45  C   UNL A   1      36.193  33.627  32.951  1.00  0.00    -0.014 A 
BRANCH  45  46
ATOM     46  C   UNL A   1      37.413  32.854  33.280  1.00  0.00     0.031 A 
ATOM     47  C   UNL A   1      38.139  33.139  34.566  1.00  0.00     0.074 A 
ATOM     48  C   UNL A   1      37.876  31.926  32.422  1.00  0.00     0.049 A 
ATOM     49  N   UNL A   1      39.250  32.622  35.021  1.00  0.00    -0.248 NA
ATOM     50  C   UNL A   1      37.550  34.164  35.447  1.00  0.00     0.031 C 
ATOM     51  C   UNL A   1      37.272  31.585  31.132  1.00  0.00     0.029 A 
ATOM     52  N   UNL A   1      38.968  31.100  32.505  1.00  0.00    -0.354 N 
ATOM     53  C   UNL A   1      39.493  33.258  36.232  1.00  0.00     0.074 A 
ATOM     54  C   UNL A   1      38.456  34.250  36.409  1.00  0.00     0.031 C 
ATOM     55  C   UNL A   1      37.986  30.600  30.560  1.00  0.00     0.029 A 
ATOM     56  C   UNL A   1      39.118  30.272  31.419  1.00  0.00     0.049 A 
ATOM     57  H   UNL A   1      39.586  31.100  33.273  1.00  0.00     0.167 HD
ATOM     58  C   UNL A   1      40.472  33.016  37.132  1.00  0.00     0.037 A 
ATOM     59  C   UNL A   1      40.069  29.358  31.150  1.00  0.00     0.037 A 
ATOM     60  C   UNL A   1      41.488  32.012  36.960  1.00  0.00     0.049 A 
ATOM     61  C   UNL A   1      41.172  29.137  32.153  1.00  0.00     0.074 A 
ATOM     62  C   UNL A   1      42.511  31.666  37.825  1.00  0.00     0.029 A 
ATOM     63  N   UNL A   1      41.605  31.193  35.848  1.00  0.00    -0.354 N 
ATOM     64  N   UNL A   1      41.360  29.710  33.317  1.00  0.00    -0.248 NA
ATOM     65  C   UNL A   1      42.191  28.137  31.806  1.00  0.00     0.031 C 
ATOM     66  C   UNL A   1      43.274  30.666  37.215  1.00  0.00     0.029 A 
ATOM     67  C   UNL A   1      42.693  30.351  35.997  1.00  0.00     0.049 A 
ATOM     68  H   UNL A   1      41.003  31.208  35.069  1.00  0.00     0.167 HD
ATOM     69  C   UNL A   1      42.491  29.112  33.858  1.00  0.00     0.074 A 
ATOM     70  C   UNL A   1      42.940  28.124  32.898  1.00  0.00     0.031 C 
ATOM     71  C   UNL A   1      43.105  29.355  35.041  1.00  0.00     0.037 A 
BRANCH  58  72
ATOM     72  C   UNL A   1      40.482  33.837  38.387  1.00  0.00     0.057 A 
ATOM     73  C   UNL A   1      41.254  35.003  38.498  1.00  0.00     0.134 A 
ATOM     74  C   UNL A   1      39.683  33.486  39.482  1.00  0.00     0.134 A 
ATOM     75  F   UNL A   1      42.054  35.387  37.493  1.00  0.00    -0.206 F 
ATOM     76  C   UNL A   1      41.245  35.776  39.660  1.00  0.00     0.040 A 
ATOM     77  C   UNL A   1      39.642  34.269  40.637  1.00  0.00     0.040 A 
ATOM     78  F   UNL A   1      38.918  32.384  39.442  1.00  0.00    -0.206 F 
ATOM     79  C   UNL A   1      40.430  35.414  40.730  1.00  0.00     0.006 A 
ENDBRANCH  58  72
BRANCH  59  80
ATOM     80  C   UNL A   1      40.026  28.571  29.891  1.00  0.00     0.057 A 
ATOM     81  C   UNL A   1      39.316  27.366  29.814  1.00  0.00     0.134 A 
ATOM     82  C   UNL A   1      40.727  28.977  28.748  1.00  0.00     0.134 A 
ATOM     83  F   UNL A   1      38.638  26.914  30.879  1.00  0.00    -0.206 F 
ATOM     84  C   UNL A   1      39.332  26.578  28.662  1.00  0.00     0.040 A 
ATOM     85  C   UNL A   1      40.727  28.215  27.580  1.00  0.00     0.040 A 
ATOM     86  F   UNL A   1      41.421  30.126  28.752  1.00  0.00    -0.206 F 
ATOM     87  C   UNL A   1      40.039  27.003  27.539  1.00  0.00     0.006 A 
ENDBRANCH  59  80
BRANCH  71  88
ATOM     88  C   UNL A   1      44.288  28.503  35.394  1.00  0.00     0.057 A 
ATOM     89  C   UNL A   1      45.597  28.875  35.066  1.00  0.00     0.134 A 
ATOM     90  C   UNL A   1      44.113  27.317  36.119  1.00  0.00     0.134 A 
ATOM     91  F   UNL A   1      45.832  29.993  34.364  1.00  0.00    -0.206 F 
ATOM     92  C   UNL A   1      46.690  28.085  35.428  1.00  0.00     0.040 A 
ATOM     93  C   UNL A   1      45.199  26.536  36.513  1.00  0.00     0.040 A 
ATOM     94  F   UNL A   1      42.884  26.910  36.475  1.00  0.00    -0.206 F 
ATOM     95  C   UNL A   1      46.492  26.916  36.162  1.00  0.00     0.006 A 
ENDBRANCH  71  88
ENDBRANCH  45  46
ENDBRANCH  37  40
ENDBRANCH  35  36
ENDBRANCH  34  35
ENDBRANCH  33  34
ENDBRANCH  32  33
ENDBRANCH   1  32
TORSDOF 18
ENDMDL
