MODEL 1
REMARK VINA RESULT:      -9.9      0.000      0.000
REMARK SMILES C[NH2+]CCC(=O)N1CC[C@@H](C(=O)NCCCCCCNC(=O)c2ccc(-c3c4nc(c(-c5c(F)cccc5F)c5ccc([nH]5)c(-c5c(F)cccc5F)c5nc(c(-c6c(F)cccc6F)c6ccc3[nH]6)C=C5)C=C4)cc2)[C@@H]1C
REMARK SMILES IDX 15 1 14 2 13 3 11 4 12 5 10 7 7 8 8 9 77 10 9 11 78 12 5 13
REMARK SMILES IDX 6 14 4 15 3 16 2 17 1 18 16 21 17 22 18 23 19 24 20 25 21 26
REMARK SMILES IDX 22 28 23 29 24 30 76 31 25 32 75 33 26 34 27 35 28 36 69 37
REMARK SMILES IDX 29 38 74 39 68 40 70 41 30 42 73 43 67 44 66 45 31 47 57 48
REMARK SMILES IDX 40 49 56 50 41 51 44 52 55 53 71 54 42 55 43 56 54 58 72 59
REMARK SMILES IDX 45 60 32 61 33 62 38 63 34 64 35 65 37 66 39 67 36 68 58 69
REMARK SMILES IDX 59 70 64 71 60 72 61 73 63 74 65 75 62 76 46 77 47 78 52 79
REMARK SMILES IDX 48 80 49 81 51 82 53 83 50 84
REMARK H PARENT 13 6 2 19 2 20 20 27 70 46 44 57
REMARK Flexibility Score: inf
ROOT
ATOM      1  C   UNL A   1      36.222  23.788  26.148  1.00  0.00     0.021 C 
ENDROOT
BRANCH   1   2
ATOM      2  C   UNL A   1      35.161  24.556  25.362  1.00  0.00     0.116 C 
BRANCH   2   3
ATOM      3  N   UNL A   1      33.828  24.197  25.806  1.00  0.00    -0.356 N 
ATOM      4  C   UNL A   1      33.000  23.185  25.441  1.00  0.00     0.225 C 
ATOM      5  O   UNL A   1      31.872  23.178  25.943  1.00  0.00    -0.275 OA
ATOM      6  H   UNL A   1      33.457  24.794  26.497  1.00  0.00     0.163 HD
BRANCH   4   7
ATOM      7  C   UNL A   1      33.388  22.098  24.451  1.00  0.00     0.102 C 
ATOM      8  N   UNL A   1      32.872  19.779  24.355  1.00  0.00    -0.339 N 
ATOM      9  C   UNL A   1      32.514  20.329  23.065  1.00  0.00     0.120 C 
ATOM     10  C   UNL A   1      33.679  20.737  25.109  1.00  0.00     0.094 C 
ATOM     11  C   UNL A   1      32.371  21.820  23.338  1.00  0.00     0.037 C 
ATOM     12  C   UNL A   1      35.168  20.393  24.946  1.00  0.00     0.032 C 
BRANCH   8  13
ATOM     13  C   UNL A   1      32.582  18.470  24.675  1.00  0.00     0.228 C 
ATOM     14  O   UNL A   1      32.181  18.156  25.798  1.00  0.00    -0.275 OA
BRANCH  13  15
ATOM     15  C   UNL A   1      32.963  17.395  23.671  1.00  0.00     0.161 C 
BRANCH  15  16
ATOM     16  C   UNL A   1      33.729  16.180  24.193  1.00  0.00     0.270 C 
BRANCH  16  17
ATOM     17  N   UNL A   1      34.438  16.310  25.471  1.00  0.00    -0.348 N 
ATOM     18  C   UNL A   1      35.812  15.842  25.461  1.00  0.00     0.330 C 
ATOM     19  H   UNL A   1      34.442  17.297  25.730  1.00  0.00     0.346 HD
ATOM     20  H   UNL A   1      33.940  15.718  26.135  1.00  0.00     0.346 HD
ENDBRANCH  16  17
ENDBRANCH  15  16
ENDBRANCH  13  15
ENDBRANCH   8  13
ENDBRANCH   4   7
ENDBRANCH   2   3
ENDBRANCH   1   2
BRANCH   1  21
ATOM     21  C   UNL A   1      37.464  23.377  25.353  1.00  0.00     0.002 C 
BRANCH  21  22
ATOM     22  C   UNL A   1      38.444  22.451  26.076  1.00  0.00     0.002 C 
BRANCH  22  23
ATOM     23  C   UNL A   1      38.809  21.156  25.346  1.00  0.00     0.021 C 
BRANCH  23  24
ATOM     24  C   UNL A   1      39.048  19.936  26.233  1.00  0.00     0.116 C 
BRANCH  24  25
ATOM     25  N   UNL A   1      40.260  19.213  25.886  1.00  0.00    -0.352 N 
ATOM     26  C   UNL A   1      41.566  19.621  25.908  1.00  0.00     0.251 C 
ATOM     27  H   UNL A   1      40.118  18.285  25.587  1.00  0.00     0.163 HD
ATOM     28  O   UNL A   1      42.442  18.898  25.427  1.00  0.00    -0.269 OA
BRANCH  26  29
ATOM     29  C   UNL A   1      41.940  20.931  26.480  1.00  0.00     0.039 A 
ATOM     30  C   UNL A   1      42.379  21.940  25.617  1.00  0.00     0.014 A 
ATOM     31  C   UNL A   1      41.886  21.165  27.857  1.00  0.00     0.014 A 
ATOM     32  C   UNL A   1      42.701  23.200  26.126  1.00  0.00     0.010 A 
ATOM     33  C   UNL A   1      42.145  22.442  28.355  1.00  0.00     0.010 A 
ATOM     34  C   UNL A   1      42.554  23.472  27.495  1.00  0.00    -0.014 A 
BRANCH  34  35
ATOM     35  C   UNL A   1      42.818  24.830  28.040  1.00  0.00     0.031 A 
ATOM     36  C   UNL A   1      44.196  25.204  28.514  1.00  0.00     0.074 A 
ATOM     37  C   UNL A   1      41.802  25.705  28.167  1.00  0.00     0.049 A 
ATOM     38  N   UNL A   1      44.600  26.312  29.084  1.00  0.00    -0.248 NA
ATOM     39  C   UNL A   1      45.253  24.193  28.352  1.00  0.00     0.031 C 
ATOM     40  C   UNL A   1      40.409  25.447  27.793  1.00  0.00     0.029 A 
ATOM     41  N   UNL A   1      41.778  26.985  28.663  1.00  0.00    -0.354 N 
ATOM     42  C   UNL A   1      45.947  26.123  29.366  1.00  0.00     0.074 A 
ATOM     43  C   UNL A   1      46.285  24.783  28.939  1.00  0.00     0.031 C 
ATOM     44  C   UNL A   1      39.671  26.536  28.063  1.00  0.00     0.029 A 
ATOM     45  C   UNL A   1      40.528  27.556  28.659  1.00  0.00     0.049 A 
ATOM     46  H   UNL A   1      42.582  27.450  28.990  1.00  0.00     0.167 HD
ATOM     47  C   UNL A   1      46.826  26.995  29.914  1.00  0.00     0.037 A 
ATOM     48  C   UNL A   1      40.116  28.761  29.098  1.00  0.00     0.037 A 
ATOM     49  C   UNL A   1      46.502  28.343  30.298  1.00  0.00     0.049 A 
ATOM     50  C   UNL A   1      41.120  29.716  29.683  1.00  0.00     0.074 A 
ATOM     51  C   UNL A   1      47.346  29.327  30.784  1.00  0.00     0.029 A 
ATOM     52  N   UNL A   1      45.233  28.898  30.241  1.00  0.00    -0.354 N 
ATOM     53  N   UNL A   1      42.408  29.552  29.865  1.00  0.00    -0.248 NA
ATOM     54  C   UNL A   1      40.615  31.027  30.116  1.00  0.00     0.031 C 
ATOM     55  C   UNL A   1      46.581  30.464  31.059  1.00  0.00     0.029 A 
ATOM     56  C   UNL A   1      45.268  30.203  30.704  1.00  0.00     0.049 A 
ATOM     57  H   UNL A   1      44.426  28.432  29.921  1.00  0.00     0.167 HD
ATOM     58  C   UNL A   1      42.870  30.745  30.405  1.00  0.00     0.074 A 
ATOM     59  C   UNL A   1      41.729  31.630  30.507  1.00  0.00     0.031 C 
ATOM     60  C   UNL A   1      44.127  31.077  30.785  1.00  0.00     0.037 A 
BRANCH  47  61
ATOM     61  C   UNL A   1      48.237  26.529  30.125  1.00  0.00     0.057 A 
ATOM     62  C   UNL A   1      48.631  25.877  31.299  1.00  0.00     0.134 A 
ATOM     63  C   UNL A   1      49.193  26.669  29.111  1.00  0.00     0.134 A 
ATOM     64  F   UNL A   1      47.766  25.719  32.313  1.00  0.00    -0.206 F 
ATOM     65  C   UNL A   1      49.929  25.391  31.463  1.00  0.00     0.040 A 
ATOM     66  C   UNL A   1      50.487  26.167  29.253  1.00  0.00     0.040 A 
ATOM     67  F   UNL A   1      48.878  27.279  27.958  1.00  0.00    -0.206 F 
ATOM     68  C   UNL A   1      50.859  25.527  30.434  1.00  0.00     0.006 A 
ENDBRANCH  47  61
BRANCH  48  69
ATOM     69  C   UNL A   1      38.684  29.144  28.999  1.00  0.00     0.057 A 
ATOM     70  C   UNL A   1      37.829  29.039  30.102  1.00  0.00     0.134 A 
ATOM     71  C   UNL A   1      38.130  29.589  27.793  1.00  0.00     0.134 A 
ATOM     72  F   UNL A   1      38.297  28.599  31.280  1.00  0.00    -0.206 F 
ATOM     73  C   UNL A   1      36.468  29.336  30.003  1.00  0.00     0.040 A 
ATOM     74  C   UNL A   1      36.778  29.915  27.686  1.00  0.00     0.040 A 
ATOM     75  F   UNL A   1      38.899  29.720  26.702  1.00  0.00    -0.206 F 
ATOM     76  C   UNL A   1      35.940  29.778  28.792  1.00  0.00     0.006 A 
ENDBRANCH  48  69
BRANCH  60  77
ATOM     77  C   UNL A   1      44.343  32.465  31.308  1.00  0.00     0.057 A 
ATOM     78  C   UNL A   1      44.630  33.540  30.458  1.00  0.00     0.134 A 
ATOM     79  C   UNL A   1      44.224  32.736  32.678  1.00  0.00     0.134 A 
ATOM     80  F   UNL A   1      44.768  33.345  29.138  1.00  0.00    -0.206 F 
ATOM     81  C   UNL A   1      44.811  34.832  30.954  1.00  0.00     0.040 A 
ATOM     82  C   UNL A   1      44.379  34.028  33.182  1.00  0.00     0.040 A 
ATOM     83  F   UNL A   1      43.944  31.751  33.545  1.00  0.00    -0.206 F 
ATOM     84  C   UNL A   1      44.679  35.079  32.320  1.00  0.00     0.006 A 
ENDBRANCH  60  77
ENDBRANCH  34  35
ENDBRANCH  26  29
ENDBRANCH  24  25
ENDBRANCH  23  24
ENDBRANCH  22  23
ENDBRANCH  21  22
ENDBRANCH   1  21
TORSDOF 17
ENDMDL
MODEL 2
REMARK VINA RESULT:      -9.8      0.989      6.363
REMARK SMILES C[NH2+]CCC(=O)N1CC[C@@H](C(=O)NCCCCCCNC(=O)c2ccc(-c3c4nc(c(-c5c(F)cccc5F)c5ccc([nH]5)c(-c5c(F)cccc5F)c5nc(c(-c6c(F)cccc6F)c6ccc3[nH]6)C=C5)C=C4)cc2)[C@@H]1C
REMARK SMILES IDX 15 1 14 2 13 3 11 4 12 5 10 7 7 8 8 9 77 10 9 11 78 12 5 13
REMARK SMILES IDX 6 14 4 15 3 16 2 17 1 18 16 21 17 22 18 23 19 24 20 25 21 26
REMARK SMILES IDX 22 28 23 29 24 30 76 31 25 32 75 33 26 34 27 35 28 36 69 37
REMARK SMILES IDX 29 38 74 39 68 40 70 41 30 42 73 43 67 44 66 45 31 47 57 48
REMARK SMILES IDX 40 49 56 50 41 51 44 52 55 53 71 54 42 55 43 56 54 58 72 59
REMARK SMILES IDX 45 60 32 61 33 62 38 63 34 64 35 65 37 66 39 67 36 68 58 69
REMARK SMILES IDX 59 70 64 71 60 72 61 73 63 74 65 75 62 76 46 77 47 78 52 79
REMARK SMILES IDX 48 80 49 81 51 82 53 83 50 84
REMARK H PARENT 13 6 2 19 2 20 20 27 70 46 44 57
REMARK Flexibility Score: inf
ROOT
ATOM      1  C   UNL A   1      37.260  23.770  25.512  1.00  0.00     0.021 C 
ENDROOT
BRANCH   1   2
ATOM      2  C   UNL A   1      35.936  23.788  24.750  1.00  0.00     0.116 C 
BRANCH   2   3
ATOM      3  N   UNL A   1      35.047  24.802  25.282  1.00  0.00    -0.356 N 
ATOM      4  C   UNL A   1      33.882  24.705  25.973  1.00  0.00     0.225 C 
ATOM      5  O   UNL A   1      33.297  25.762  26.231  1.00  0.00    -0.275 OA
ATOM      6  H   UNL A   1      35.341  25.727  25.113  1.00  0.00     0.163 HD
BRANCH   4   7
ATOM      7  C   UNL A   1      33.276  23.383  26.416  1.00  0.00     0.102 C 
ATOM      8  N   UNL A   1      33.101  21.273  25.335  1.00  0.00    -0.339 N 
ATOM      9  C   UNL A   1      33.706  21.021  26.625  1.00  0.00     0.120 C 
ATOM     10  C   UNL A   1      32.550  22.626  25.290  1.00  0.00     0.094 C 
ATOM     11  C   UNL A   1      34.254  22.380  27.038  1.00  0.00     0.037 C 
ATOM     12  C   UNL A   1      31.044  22.576  25.590  1.00  0.00     0.032 C 
BRANCH   8  13
ATOM     13  C   UNL A   1      32.972  20.268  24.401  1.00  0.00     0.228 C 
ATOM     14  O   UNL A   1      32.280  20.413  23.392  1.00  0.00    -0.275 OA
BRANCH  13  15
ATOM     15  C   UNL A   1      33.539  18.902  24.749  1.00  0.00     0.161 C 
BRANCH  15  16
ATOM     16  C   UNL A   1      32.599  17.891  25.404  1.00  0.00     0.270 C 
BRANCH  16  17
ATOM     17  N   UNL A   1      33.196  16.739  26.088  1.00  0.00    -0.348 N 
ATOM     18  C   UNL A   1      33.028  15.467  25.407  1.00  0.00     0.330 C 
ATOM     19  H   UNL A   1      34.196  16.915  26.188  1.00  0.00     0.346 HD
ATOM     20  H   UNL A   1      32.708  16.652  26.979  1.00  0.00     0.346 HD
ENDBRANCH  16  17
ENDBRANCH  15  16
ENDBRANCH  13  15
ENDBRANCH   8  13
ENDBRANCH   4   7
ENDBRANCH   2   3
ENDBRANCH   1   2
BRANCH   1  21
ATOM     21  C   UNL A   1      38.047  22.459  25.438  1.00  0.00     0.002 C 
BRANCH  21  22
ATOM     22  C   UNL A   1      37.387  21.326  24.649  1.00  0.00     0.002 C 
BRANCH  22  23
ATOM     23  C   UNL A   1      38.067  19.958  24.738  1.00  0.00     0.021 C 
BRANCH  23  24
ATOM     24  C   UNL A   1      38.808  19.667  26.042  1.00  0.00     0.116 C 
BRANCH  24  25
ATOM     25  N   UNL A   1      40.074  18.984  25.832  1.00  0.00    -0.352 N 
ATOM     26  C   UNL A   1      41.356  19.451  25.950  1.00  0.00     0.251 C 
ATOM     27  H   UNL A   1      39.998  18.041  25.562  1.00  0.00     0.163 HD
ATOM     28  O   UNL A   1      42.300  18.749  25.577  1.00  0.00    -0.269 OA
BRANCH  26  29
ATOM     29  C   UNL A   1      41.624  20.797  26.495  1.00  0.00     0.039 A 
ATOM     30  C   UNL A   1      41.619  20.974  27.883  1.00  0.00     0.014 A 
ATOM     31  C   UNL A   1      41.855  21.889  25.654  1.00  0.00     0.014 A 
ATOM     32  C   UNL A   1      41.909  22.227  28.426  1.00  0.00     0.010 A 
ATOM     33  C   UNL A   1      42.207  23.124  26.199  1.00  0.00     0.010 A 
ATOM     34  C   UNL A   1      42.239  23.305  27.590  1.00  0.00    -0.014 A 
BRANCH  34  35
ATOM     35  C   UNL A   1      42.624  24.625  28.156  1.00  0.00     0.031 A 
ATOM     36  C   UNL A   1      41.585  25.688  28.382  1.00  0.00     0.074 A 
ATOM     37  C   UNL A   1      43.922  24.888  28.405  1.00  0.00     0.049 A 
ATOM     38  N   UNL A   1      41.741  26.920  28.798  1.00  0.00    -0.248 NA
ATOM     39  C   UNL A   1      40.190  25.331  28.078  1.00  0.00     0.031 C 
ATOM     40  C   UNL A   1      45.034  23.961  28.180  1.00  0.00     0.029 A 
ATOM     41  N   UNL A   1      44.530  26.020  28.888  1.00  0.00    -0.354 N 
ATOM     42  C   UNL A   1      40.474  27.488  28.785  1.00  0.00     0.074 A 
ATOM     43  C   UNL A   1      39.563  26.481  28.286  1.00  0.00     0.031 C 
ATOM     44  C   UNL A   1      46.184  24.558  28.533  1.00  0.00     0.029 A 
ATOM     45  C   UNL A   1      45.897  25.919  28.976  1.00  0.00     0.049 A 
ATOM     46  H   UNL A   1      44.032  26.830  29.147  1.00  0.00     0.167 HD
ATOM     47  C   UNL A   1      40.100  28.731  29.171  1.00  0.00     0.037 A 
ATOM     48  C   UNL A   1      46.819  26.823  29.360  1.00  0.00     0.037 A 
ATOM     49  C   UNL A   1      40.998  29.719  29.709  1.00  0.00     0.049 A 
ATOM     50  C   UNL A   1      46.371  28.189  29.804  1.00  0.00     0.074 A 
ATOM     51  C   UNL A   1      40.697  30.976  30.205  1.00  0.00     0.029 A 
ATOM     52  N   UNL A   1      42.371  29.563  29.820  1.00  0.00    -0.354 N 
ATOM     53  N   UNL A   1      45.158  28.682  29.864  1.00  0.00    -0.248 NA
ATOM     54  C   UNL A   1      47.420  29.121  30.240  1.00  0.00     0.031 C 
ATOM     55  C   UNL A   1      41.893  31.597  30.580  1.00  0.00     0.029 A 
ATOM     56  C   UNL A   1      42.933  30.710  30.357  1.00  0.00     0.049 A 
ATOM     57  H   UNL A   1      42.872  28.758  29.556  1.00  0.00     0.167 HD
ATOM     58  C   UNL A   1      45.295  29.967  30.371  1.00  0.00     0.074 A 
ATOM     59  C   UNL A   1      46.707  30.174  30.616  1.00  0.00     0.031 C 
ATOM     60  C   UNL A   1      44.338  30.895  30.610  1.00  0.00     0.037 A 
BRANCH  47  61
ATOM     61  C   UNL A   1      38.652  29.101  29.041  1.00  0.00     0.057 A 
ATOM     62  C   UNL A   1      37.776  29.049  30.131  1.00  0.00     0.134 A 
ATOM     63  C   UNL A   1      38.147  29.585  27.827  1.00  0.00     0.134 A 
ATOM     64  F   UNL A   1      38.195  28.586  31.319  1.00  0.00    -0.206 F 
ATOM     65  C   UNL A   1      36.445  29.453  30.016  1.00  0.00     0.040 A 
ATOM     66  C   UNL A   1      36.825  30.014  27.706  1.00  0.00     0.040 A 
ATOM     67  F   UNL A   1      38.936  29.667  26.745  1.00  0.00    -0.206 F 
ATOM     68  C   UNL A   1      35.969  29.946  28.803  1.00  0.00     0.006 A 
ENDBRANCH  47  61
BRANCH  48  69
ATOM     69  C   UNL A   1      48.262  26.472  29.351  1.00  0.00     0.057 A 
ATOM     70  C   UNL A   1      48.861  25.845  30.450  1.00  0.00     0.134 A 
ATOM     71  C   UNL A   1      49.082  26.786  28.262  1.00  0.00     0.134 A 
ATOM     72  F   UNL A   1      48.131  25.537  31.532  1.00  0.00    -0.206 F 
ATOM     73  C   UNL A   1      50.230  25.569  30.478  1.00  0.00     0.040 A 
ATOM     74  C   UNL A   1      50.446  26.493  28.265  1.00  0.00     0.040 A 
ATOM     75  F   UNL A   1      48.567  27.380  27.175  1.00  0.00    -0.206 F 
ATOM     76  C   UNL A   1      51.026  25.891  29.381  1.00  0.00     0.006 A 
ENDBRANCH  48  69
BRANCH  60  77
ATOM     77  C   UNL A   1      44.778  32.201  31.200  1.00  0.00     0.057 A 
ATOM     78  C   UNL A   1      45.115  33.298  30.398  1.00  0.00     0.134 A 
ATOM     79  C   UNL A   1      44.827  32.374  32.590  1.00  0.00     0.134 A 
ATOM     80  F   UNL A   1      45.100  33.193  29.062  1.00  0.00    -0.206 F 
ATOM     81  C   UNL A   1      45.506  34.516  30.958  1.00  0.00     0.040 A 
ATOM     82  C   UNL A   1      45.193  33.593  33.161  1.00  0.00     0.040 A 
ATOM     83  F   UNL A   1      44.509  31.364  33.414  1.00  0.00    -0.206 F 
ATOM     84  C   UNL A   1      45.540  34.667  32.344  1.00  0.00     0.006 A 
ENDBRANCH  60  77
ENDBRANCH  34  35
ENDBRANCH  26  29
ENDBRANCH  24  25
ENDBRANCH  23  24
ENDBRANCH  22  23
ENDBRANCH  21  22
ENDBRANCH   1  21
TORSDOF 17
ENDMDL
MODEL 3
REMARK VINA RESULT:      -9.8      0.360      6.440
REMARK SMILES C[NH2+]CCC(=O)N1CC[C@@H](C(=O)NCCCCCCNC(=O)c2ccc(-c3c4nc(c(-c5c(F)cccc5F)c5ccc([nH]5)c(-c5c(F)cccc5F)c5nc(c(-c6c(F)cccc6F)c6ccc3[nH]6)C=C5)C=C4)cc2)[C@@H]1C
REMARK SMILES IDX 15 1 14 2 13 3 11 4 12 5 10 7 7 8 8 9 77 10 9 11 78 12 5 13
REMARK SMILES IDX 6 14 4 15 3 16 2 17 1 18 16 21 17 22 18 23 19 24 20 25 21 26
REMARK SMILES IDX 22 28 23 29 24 30 76 31 25 32 75 33 26 34 27 35 28 36 69 37
REMARK SMILES IDX 29 38 74 39 68 40 70 41 30 42 73 43 67 44 66 45 31 47 57 48
REMARK SMILES IDX 40 49 56 50 41 51 44 52 55 53 71 54 42 55 43 56 54 58 72 59
REMARK SMILES IDX 45 60 32 61 33 62 38 63 34 64 35 65 37 66 39 67 36 68 58 69
REMARK SMILES IDX 59 70 64 71 60 72 61 73 63 74 65 75 62 76 46 77 47 78 52 79
REMARK SMILES IDX 48 80 49 81 51 82 53 83 50 84
REMARK H PARENT 13 6 2 19 2 20 20 27 70 46 44 57
REMARK Flexibility Score: inf
ROOT
ATOM      1  C   UNL A   1      36.184  23.782  26.133  1.00  0.00     0.021 C 
ENDROOT
BRANCH   1   2
ATOM      2  C   UNL A   1      35.105  24.535  25.359  1.00  0.00     0.116 C 
BRANCH   2   3
ATOM      3  N   UNL A   1      33.782  24.176  25.834  1.00  0.00    -0.356 N 
ATOM      4  C   UNL A   1      32.936  23.179  25.470  1.00  0.00     0.225 C 
ATOM      5  O   UNL A   1      31.823  23.169  26.006  1.00  0.00    -0.275 OA
ATOM      6  H   UNL A   1      33.437  24.760  26.548  1.00  0.00     0.163 HD
BRANCH   4   7
ATOM      7  C   UNL A   1      33.286  22.111  24.446  1.00  0.00     0.102 C 
ATOM      8  N   UNL A   1      32.831  19.779  24.363  1.00  0.00    -0.339 N 
ATOM      9  C   UNL A   1      32.370  20.329  23.105  1.00  0.00     0.120 C 
ATOM     10  C   UNL A   1      33.659  20.754  25.069  1.00  0.00     0.094 C 
ATOM     11  C   UNL A   1      32.204  21.814  23.402  1.00  0.00     0.037 C 
ATOM     12  C   UNL A   1      35.143  20.455  24.801  1.00  0.00     0.032 C 
BRANCH   8  13
ATOM     13  C   UNL A   1      32.600  18.461  24.688  1.00  0.00     0.228 C 
ATOM     14  O   UNL A   1      32.244  18.130  25.821  1.00  0.00    -0.275 OA
BRANCH  13  15
ATOM     15  C   UNL A   1      32.994  17.401  23.672  1.00  0.00     0.161 C 
BRANCH  15  16
ATOM     16  C   UNL A   1      33.745  16.173  24.185  1.00  0.00     0.270 C 
BRANCH  16  17
ATOM     17  N   UNL A   1      34.395  16.264  25.497  1.00  0.00    -0.348 N 
ATOM     18  C   UNL A   1      35.800  15.898  25.511  1.00  0.00     0.330 C 
ATOM     19  H   UNL A   1      34.316  17.227  25.823  1.00  0.00     0.346 HD
ATOM     20  H   UNL A   1      33.920  15.591  26.098  1.00  0.00     0.346 HD
ENDBRANCH  16  17
ENDBRANCH  15  16
ENDBRANCH  13  15
ENDBRANCH   8  13
ENDBRANCH   4   7
ENDBRANCH   2   3
ENDBRANCH   1   2
BRANCH   1  21
ATOM     21  C   UNL A   1      37.392  23.329  25.309  1.00  0.00     0.002 C 
BRANCH  21  22
ATOM     22  C   UNL A   1      38.350  22.359  26.004  1.00  0.00     0.002 C 
BRANCH  22  23
ATOM     23  C   UNL A   1      38.745  21.114  25.206  1.00  0.00     0.021 C 
BRANCH  23  24
ATOM     24  C   UNL A   1      38.830  19.812  26.001  1.00  0.00     0.116 C 
BRANCH  24  25
ATOM     25  N   UNL A   1      40.095  19.120  25.818  1.00  0.00    -0.352 N 
ATOM     26  C   UNL A   1      41.377  19.576  25.966  1.00  0.00     0.251 C 
ATOM     27  H   UNL A   1      40.017  18.177  25.546  1.00  0.00     0.163 HD
ATOM     28  O   UNL A   1      42.323  18.867  25.614  1.00  0.00    -0.269 OA
BRANCH  26  29
ATOM     29  C   UNL A   1      41.644  20.920  26.519  1.00  0.00     0.039 A 
ATOM     30  C   UNL A   1      41.438  21.137  27.886  1.00  0.00     0.014 A 
ATOM     31  C   UNL A   1      42.068  21.971  25.702  1.00  0.00     0.014 A 
ATOM     32  C   UNL A   1      41.720  22.387  28.443  1.00  0.00     0.010 A 
ATOM     33  C   UNL A   1      42.411  23.198  26.270  1.00  0.00     0.010 A 
ATOM     34  C   UNL A   1      42.241  23.418  27.646  1.00  0.00    -0.014 A 
BRANCH  34  35
ATOM     35  C   UNL A   1      42.618  24.728  28.238  1.00  0.00     0.031 A 
ATOM     36  C   UNL A   1      41.581  25.800  28.435  1.00  0.00     0.074 A 
ATOM     37  C   UNL A   1      43.908  24.976  28.538  1.00  0.00     0.049 A 
ATOM     38  N   UNL A   1      41.735  27.027  28.868  1.00  0.00    -0.248 NA
ATOM     39  C   UNL A   1      40.196  25.461  28.075  1.00  0.00     0.031 C 
ATOM     40  C   UNL A   1      45.018  24.039  28.346  1.00  0.00     0.029 A 
ATOM     41  N   UNL A   1      44.509  26.098  29.054  1.00  0.00    -0.354 N 
ATOM     42  C   UNL A   1      40.474  27.609  28.812  1.00  0.00     0.074 A 
ATOM     43  C   UNL A   1      39.573  26.615  28.270  1.00  0.00     0.031 C 
ATOM     44  C   UNL A   1      46.160  24.621  28.748  1.00  0.00     0.029 A 
ATOM     45  C   UNL A   1      45.871  25.981  29.193  1.00  0.00     0.049 A 
ATOM     46  H   UNL A   1      44.010  26.910  29.301  1.00  0.00     0.167 HD
ATOM     47  C   UNL A   1      40.099  28.852  29.196  1.00  0.00     0.037 A 
ATOM     48  C   UNL A   1      46.786  26.872  29.619  1.00  0.00     0.037 A 
ATOM     49  C   UNL A   1      40.986  29.826  29.776  1.00  0.00     0.049 A 
ATOM     50  C   UNL A   1      46.336  28.239  30.059  1.00  0.00     0.074 A 
ATOM     51  C   UNL A   1      40.679  31.081  30.272  1.00  0.00     0.029 A 
ATOM     52  N   UNL A   1      42.352  29.654  29.937  1.00  0.00    -0.354 N 
ATOM     53  N   UNL A   1      45.127  28.743  30.078  1.00  0.00    -0.248 NA
ATOM     54  C   UNL A   1      47.377  29.156  30.543  1.00  0.00     0.031 C 
ATOM     55  C   UNL A   1      41.866  31.686  30.697  1.00  0.00     0.029 A 
ATOM     56  C   UNL A   1      42.905  30.791  30.505  1.00  0.00     0.049 A 
ATOM     57  H   UNL A   1      42.854  28.846  29.684  1.00  0.00     0.167 HD
ATOM     58  C   UNL A   1      45.257  30.023  30.602  1.00  0.00     0.074 A 
ATOM     59  C   UNL A   1      46.661  30.212  30.901  1.00  0.00     0.031 C 
ATOM     60  C   UNL A   1      44.301  30.959  30.813  1.00  0.00     0.037 A 
BRANCH  47  61
ATOM     61  C   UNL A   1      38.661  29.238  29.014  1.00  0.00     0.057 A 
ATOM     62  C   UNL A   1      38.144  29.593  27.762  1.00  0.00     0.134 A 
ATOM     63  C   UNL A   1      37.766  29.180  30.091  1.00  0.00     0.134 A 
ATOM     64  F   UNL A   1      38.950  29.676  26.693  1.00  0.00    -0.206 F 
ATOM     65  C   UNL A   1      36.791  29.891  27.590  1.00  0.00     0.040 A 
ATOM     66  C   UNL A   1      36.407  29.452  29.926  1.00  0.00     0.040 A 
ATOM     67  F   UNL A   1      38.195  28.839  31.315  1.00  0.00    -0.206 F 
ATOM     68  C   UNL A   1      35.917  29.811  28.673  1.00  0.00     0.006 A 
ENDBRANCH  47  61
BRANCH  48  69
ATOM     69  C   UNL A   1      48.225  26.506  29.661  1.00  0.00     0.057 A 
ATOM     70  C   UNL A   1      49.061  26.729  28.561  1.00  0.00     0.134 A 
ATOM     71  C   UNL A   1      48.789  25.893  30.786  1.00  0.00     0.134 A 
ATOM     72  F   UNL A   1      48.574  27.294  27.447  1.00  0.00    -0.206 F 
ATOM     73  C   UNL A   1      50.400  26.330  28.567  1.00  0.00     0.040 A 
ATOM     74  C   UNL A   1      50.131  25.514  30.816  1.00  0.00     0.040 A 
ATOM     75  F   UNL A   1      48.042  25.660  31.876  1.00  0.00    -0.206 F 
ATOM     76  C   UNL A   1      50.938  25.722  29.699  1.00  0.00     0.006 A 
ENDBRANCH  48  69
BRANCH  60  77
ATOM     77  C   UNL A   1      44.731  32.255  31.431  1.00  0.00     0.057 A 
ATOM     78  C   UNL A   1      44.763  32.438  32.819  1.00  0.00     0.134 A 
ATOM     79  C   UNL A   1      45.157  33.320  30.626  1.00  0.00     0.134 A 
ATOM     80  F   UNL A   1      44.357  31.460  33.643  1.00  0.00    -0.206 F 
ATOM     81  C   UNL A   1      45.183  33.643  33.384  1.00  0.00     0.040 A 
ATOM     82  C   UNL A   1      45.602  34.521  31.181  1.00  0.00     0.040 A 
ATOM     83  F   UNL A   1      45.157  33.206  29.289  1.00  0.00    -0.206 F 
ATOM     84  C   UNL A   1      45.610  34.686  32.564  1.00  0.00     0.006 A 
ENDBRANCH  60  77
ENDBRANCH  34  35
ENDBRANCH  26  29
ENDBRANCH  24  25
ENDBRANCH  23  24
ENDBRANCH  22  23
ENDBRANCH  21  22
ENDBRANCH   1  21
TORSDOF 17
ENDMDL
