MODEL 1
REMARK VINA RESULT:     -12.0      0.000      0.000
REMARK SMILES C[C@H]1SC[C@H](C(=O)NCCCCCCNC(=O)c2ccc(-c3c4nc(c(-c5c(F)cccc5F)c5ccc([nH]5)c(-c5c(F)cccc5F)c5nc(c(-c6c(F)cccc6F)c6ccc3[nH]6)C=C5)C=C4)cc2)N1C(=O)[C@@H]1CSc2ccccc21
REMARK SMILES IDX 11 1 10 2 9 3 8 4 6 5 7 6 5 8 1 9 2 10 3 11 72 12 4 13 73 14
REMARK SMILES IDX 74 15 75 16 76 17 83 18 77 19 78 20 82 21 79 22 81 23 80 24
REMARK SMILES IDX 12 25 13 26 14 27 15 28 16 29 17 31 18 32 19 33 71 34 20 35
REMARK SMILES IDX 70 36 21 37 22 38 23 39 64 40 24 41 69 42 63 43 65 44 25 45
REMARK SMILES IDX 68 46 62 47 61 48 26 50 52 51 35 52 51 53 36 54 39 55 50 56
REMARK SMILES IDX 66 57 37 58 38 59 49 61 67 62 40 63 27 64 28 65 33 66 29 67
REMARK SMILES IDX 30 68 32 69 34 70 31 71 53 72 54 73 59 74 55 75 56 76 58 77
REMARK SMILES IDX 60 78 57 79 41 80 42 81 47 82 43 83 44 84 46 85 48 86 45 87
REMARK H PARENT 8 7 15 30 65 49 39 60
REMARK Flexibility Score: inf
ROOT
ATOM      1  C   UNL A   1      32.397  29.977  26.749  1.00  0.00     0.002 C 
ENDROOT
BRANCH   1   2
ATOM      2  C   UNL A   1      31.798  28.724  27.396  1.00  0.00     0.021 C 
BRANCH   2   3
ATOM      3  C   UNL A   1      32.377  27.413  26.873  1.00  0.00     0.116 C 
BRANCH   3   4
ATOM      4  N   UNL A   1      31.410  26.340  26.922  1.00  0.00    -0.354 N 
ATOM      5  C   UNL A   1      30.826  25.641  25.909  1.00  0.00     0.243 C 
ATOM      6  O   UNL A   1      29.874  24.911  26.210  1.00  0.00    -0.273 OA
ATOM      7  H   UNL A   1      31.132  26.072  27.828  1.00  0.00     0.163 HD
BRANCH   5   8
ATOM      8  C   UNL A   1      31.160  25.911  24.431  1.00  0.00     0.185 C 
ATOM      9  C   UNL A   1      32.401  25.821  21.536  1.00  0.00     0.043 C 
ATOM     10  C   UNL A   1      32.758  26.653  22.771  1.00  0.00     0.141 C 
ATOM     11  S   UNL A   1      31.613  28.055  22.850  1.00  0.00    -0.135 SA
ATOM     12  N   UNL A   1      32.576  25.912  24.010  1.00  0.00    -0.318 N 
ATOM     13  C   UNL A   1      30.552  27.284  24.095  1.00  0.00     0.107 C 
BRANCH  12  14
ATOM     14  C   UNL A   1      33.407  24.876  24.419  1.00  0.00     0.232 C 
ATOM     15  O   UNL A   1      34.223  25.069  25.326  1.00  0.00    -0.274 OA
BRANCH  14  16
ATOM     16  C   UNL A   1      33.449  23.514  23.694  1.00  0.00     0.120 C 
ATOM     17  C   UNL A   1      32.222  22.631  23.959  1.00  0.00     0.093 C 
ATOM     18  C   UNL A   1      34.676  22.675  23.914  1.00  0.00    -0.021 A 
ATOM     19  S   UNL A   1      32.740  21.168  24.908  1.00  0.00    -0.125 SA
ATOM     20  C   UNL A   1      34.452  21.482  24.606  1.00  0.00     0.011 A 
ATOM     21  C   UNL A   1      35.961  23.018  23.503  1.00  0.00     0.006 A 
ATOM     22  C   UNL A   1      35.510  20.691  25.023  1.00  0.00     0.015 A 
ATOM     23  C   UNL A   1      37.028  22.203  23.883  1.00  0.00     0.000 A 
ATOM     24  C   UNL A   1      36.807  21.065  24.668  1.00  0.00     0.001 A 
ENDBRANCH  14  16
ENDBRANCH  12  14
ENDBRANCH   5   8
ENDBRANCH   3   4
ENDBRANCH   2   3
ENDBRANCH   1   2
BRANCH   1  25
ATOM     25  C   UNL A   1      31.402  30.851  25.979  1.00  0.00     0.002 C 
BRANCH  25  26
ATOM     26  C   UNL A   1      31.253  32.283  26.500  1.00  0.00     0.021 C 
BRANCH  26  27
ATOM     27  C   UNL A   1      32.473  32.823  27.239  1.00  0.00     0.116 C 
BRANCH  27  28
ATOM     28  N   UNL A   1      32.309  34.213  27.634  1.00  0.00    -0.352 N 
ATOM     29  C   UNL A   1      32.975  34.931  28.593  1.00  0.00     0.251 C 
ATOM     30  H   UNL A   1      31.619  34.711  27.139  1.00  0.00     0.163 HD
ATOM     31  O   UNL A   1      32.578  36.051  28.911  1.00  0.00    -0.269 OA
BRANCH  29  32
ATOM     32  C   UNL A   1      34.157  34.354  29.264  1.00  0.00     0.039 A 
ATOM     33  C   UNL A   1      33.973  33.613  30.433  1.00  0.00     0.014 A 
ATOM     34  C   UNL A   1      35.442  34.543  28.746  1.00  0.00     0.014 A 
ATOM     35  C   UNL A   1      35.071  33.011  31.050  1.00  0.00     0.010 A 
ATOM     36  C   UNL A   1      36.523  33.880  29.318  1.00  0.00     0.010 A 
ATOM     37  C   UNL A   1      36.351  33.108  30.477  1.00  0.00    -0.014 A 
BRANCH  37  38
ATOM     38  C   UNL A   1      37.514  32.403  31.074  1.00  0.00     0.031 A 
ATOM     39  C   UNL A   1      38.138  32.910  32.343  1.00  0.00     0.074 A 
ATOM     40  C   UNL A   1      38.043  31.341  30.437  1.00  0.00     0.049 A 
ATOM     41  N   UNL A   1      39.190  32.461  32.982  1.00  0.00    -0.248 NA
ATOM     42  C   UNL A   1      37.517  34.089  32.964  1.00  0.00     0.031 C 
ATOM     43  C   UNL A   1      37.556  30.781  29.174  1.00  0.00     0.029 A 
ATOM     44  N   UNL A   1      39.114  30.546  30.760  1.00  0.00    -0.354 N 
ATOM     45  C   UNL A   1      39.361  33.309  34.071  1.00  0.00     0.074 A 
ATOM     46  C   UNL A   1      38.341  34.330  33.974  1.00  0.00     0.031 C 
ATOM     47  C   UNL A   1      38.311  29.722  28.843  1.00  0.00     0.029 A 
ATOM     48  C   UNL A   1      39.358  29.551  29.845  1.00  0.00     0.049 A 
ATOM     49  H   UNL A   1      39.656  30.676  31.572  1.00  0.00     0.167 HD
ATOM     50  C   UNL A   1      40.270  33.230  35.071  1.00  0.00     0.037 A 
ATOM     51  C   UNL A   1      40.323  28.612  29.811  1.00  0.00     0.037 A 
ATOM     52  C   UNL A   1      41.274  32.202  35.171  1.00  0.00     0.049 A 
ATOM     53  C   UNL A   1      41.333  28.557  30.923  1.00  0.00     0.074 A 
ATOM     54  C   UNL A   1      42.204  32.002  36.176  1.00  0.00     0.029 A 
ATOM     55  N   UNL A   1      41.484  31.207  34.228  1.00  0.00    -0.354 N 
ATOM     56  N   UNL A   1      41.438  29.321  31.984  1.00  0.00    -0.248 NA
ATOM     57  C   UNL A   1      42.357  27.507  30.837  1.00  0.00     0.031 C 
ATOM     58  C   UNL A   1      43.013  30.920  35.815  1.00  0.00     0.029 A 
ATOM     59  C   UNL A   1      42.548  30.407  34.614  1.00  0.00     0.049 A 
ATOM     60  H   UNL A   1      40.956  31.086  33.406  1.00  0.00     0.167 HD
ATOM     61  C   UNL A   1      42.516  28.825  32.706  1.00  0.00     0.074 A 
ATOM     62  C   UNL A   1      43.022  27.685  31.969  1.00  0.00     0.031 C 
ATOM     63  C   UNL A   1      43.040  29.273  33.874  1.00  0.00     0.037 A 
BRANCH  50  64
ATOM     64  C   UNL A   1      40.223  34.286  36.137  1.00  0.00     0.057 A 
ATOM     65  C   UNL A   1      40.966  35.470  36.041  1.00  0.00     0.134 A 
ATOM     66  C   UNL A   1      39.394  34.137  37.257  1.00  0.00     0.134 A 
ATOM     67  F   UNL A   1      41.788  35.675  35.000  1.00  0.00    -0.206 F 
ATOM     68  C   UNL A   1      40.911  36.452  37.032  1.00  0.00     0.040 A 
ATOM     69  C   UNL A   1      39.307  35.125  38.239  1.00  0.00     0.040 A 
ATOM     70  F   UNL A   1      38.649  33.032  37.410  1.00  0.00    -0.206 F 
ATOM     71  C   UNL A   1      40.073  36.283  38.132  1.00  0.00     0.006 A 
ENDBRANCH  50  64
BRANCH  51  72
ATOM     72  C   UNL A   1      40.374  27.636  28.692  1.00  0.00     0.057 A 
ATOM     73  C   UNL A   1      41.141  27.884  27.549  1.00  0.00     0.134 A 
ATOM     74  C   UNL A   1      39.649  26.438  28.734  1.00  0.00     0.134 A 
ATOM     75  F   UNL A   1      41.843  29.022  27.442  1.00  0.00    -0.206 F 
ATOM     76  C   UNL A   1      41.169  26.990  26.477  1.00  0.00     0.040 A 
ATOM     77  C   UNL A   1      39.689  25.522  27.682  1.00  0.00     0.040 A 
ATOM     78  F   UNL A   1      38.900  26.136  29.805  1.00  0.00    -0.206 F 
ATOM     79  C   UNL A   1      40.444  25.802  26.545  1.00  0.00     0.006 A 
ENDBRANCH  51  72
BRANCH  63  80
ATOM     80  C   UNL A   1      44.196  28.506  34.449  1.00  0.00     0.057 A 
ATOM     81  C   UNL A   1      45.526  28.859  34.184  1.00  0.00     0.134 A 
ATOM     82  C   UNL A   1      43.974  27.423  35.308  1.00  0.00     0.134 A 
ATOM     83  F   UNL A   1      45.809  29.879  33.359  1.00  0.00    -0.206 F 
ATOM     84  C   UNL A   1      46.593  28.146  34.734  1.00  0.00     0.040 A 
ATOM     85  C   UNL A   1      45.032  26.721  35.888  1.00  0.00     0.040 A 
ATOM     86  F   UNL A   1      42.726  27.037  35.610  1.00  0.00    -0.206 F 
ATOM     87  C   UNL A   1      46.346  27.077  35.594  1.00  0.00     0.006 A 
ENDBRANCH  63  80
ENDBRANCH  37  38
ENDBRANCH  29  32
ENDBRANCH  27  28
ENDBRANCH  26  27
ENDBRANCH  25  26
ENDBRANCH   1  25
TORSDOF 15
ENDMDL
MODEL 2
REMARK VINA RESULT:     -12.0      4.141      9.371
REMARK SMILES C[C@H]1SC[C@H](C(=O)NCCCCCCNC(=O)c2ccc(-c3c4nc(c(-c5c(F)cccc5F)c5ccc([nH]5)c(-c5c(F)cccc5F)c5nc(c(-c6c(F)cccc6F)c6ccc3[nH]6)C=C5)C=C4)cc2)N1C(=O)[C@@H]1CSc2ccccc21
REMARK SMILES IDX 11 1 10 2 9 3 8 4 6 5 7 6 5 8 1 9 2 10 3 11 72 12 4 13 73 14
REMARK SMILES IDX 74 15 75 16 76 17 83 18 77 19 78 20 82 21 79 22 81 23 80 24
REMARK SMILES IDX 12 25 13 26 14 27 15 28 16 29 17 31 18 32 19 33 71 34 20 35
REMARK SMILES IDX 70 36 21 37 22 38 23 39 64 40 24 41 69 42 63 43 65 44 25 45
REMARK SMILES IDX 68 46 62 47 61 48 26 50 52 51 35 52 51 53 36 54 39 55 50 56
REMARK SMILES IDX 66 57 37 58 38 59 49 61 67 62 40 63 27 64 28 65 33 66 29 67
REMARK SMILES IDX 30 68 32 69 34 70 31 71 53 72 54 73 59 74 55 75 56 76 58 77
REMARK SMILES IDX 60 78 57 79 41 80 42 81 47 82 43 83 44 84 46 85 48 86 45 87
REMARK H PARENT 8 7 15 30 65 49 39 60
REMARK Flexibility Score: inf
ROOT
ATOM      1  C   UNL A   1      38.775  22.159  26.103  1.00  0.00     0.002 C 
ENDROOT
BRANCH   1   2
ATOM      2  C   UNL A   1      38.206  23.582  26.097  1.00  0.00     0.021 C 
BRANCH   2   3
ATOM      3  C   UNL A   1      36.719  23.659  25.768  1.00  0.00     0.116 C 
BRANCH   3   4
ATOM      4  N   UNL A   1      35.898  23.246  26.883  1.00  0.00    -0.354 N 
ATOM      5  C   UNL A   1      34.639  22.725  26.898  1.00  0.00     0.243 C 
ATOM      6  O   UNL A   1      34.079  22.647  27.997  1.00  0.00    -0.273 OA
ATOM      7  H   UNL A   1      36.314  23.357  27.769  1.00  0.00     0.163 HD
BRANCH   5   8
ATOM      8  C   UNL A   1      33.848  22.463  25.603  1.00  0.00     0.185 C 
ATOM      9  C   UNL A   1      32.020  22.755  23.054  1.00  0.00     0.043 C 
ATOM     10  C   UNL A   1      31.710  22.293  24.481  1.00  0.00     0.141 C 
ATOM     11  S   UNL A   1      32.204  20.555  24.624  1.00  0.00    -0.135 SA
ATOM     12  N   UNL A   1      32.484  23.017  25.479  1.00  0.00    -0.318 N 
ATOM     13  C   UNL A   1      33.769  20.934  25.449  1.00  0.00     0.107 C 
BRANCH  12  14
ATOM     14  C   UNL A   1      32.257  24.345  25.817  1.00  0.00     0.232 C 
ATOM     15  O   UNL A   1      31.414  24.620  26.678  1.00  0.00    -0.274 OA
BRANCH  14  16
ATOM     16  C   UNL A   1      32.923  25.517  25.065  1.00  0.00     0.120 C 
ATOM     17  C   UNL A   1      33.985  26.259  25.886  1.00  0.00     0.093 C 
ATOM     18  C   UNL A   1      32.000  26.543  24.471  1.00  0.00    -0.021 A 
ATOM     19  S   UNL A   1      33.397  27.946  26.229  1.00  0.00    -0.125 SA
ATOM     20  C   UNL A   1      32.090  27.812  25.047  1.00  0.00     0.011 A 
ATOM     21  C   UNL A   1      31.092  26.301  23.444  1.00  0.00     0.006 A 
ATOM     22  C   UNL A   1      31.189  28.811  24.715  1.00  0.00     0.015 A 
ATOM     23  C   UNL A   1      30.209  27.316  23.074  1.00  0.00     0.000 A 
ATOM     24  C   UNL A   1      30.235  28.553  23.731  1.00  0.00     0.001 A 
ENDBRANCH  14  16
ENDBRANCH  12  14
ENDBRANCH   5   8
ENDBRANCH   3   4
ENDBRANCH   2   3
ENDBRANCH   1   2
BRANCH   1  25
ATOM     25  C   UNL A   1      38.157  21.207  25.075  1.00  0.00     0.002 C 
BRANCH  25  26
ATOM     26  C   UNL A   1      38.804  19.822  24.998  1.00  0.00     0.021 C 
BRANCH  26  27
ATOM     27  C   UNL A   1      39.591  19.415  26.238  1.00  0.00     0.116 C 
BRANCH  27  28
ATOM     28  N   UNL A   1      40.909  18.895  25.911  1.00  0.00    -0.352 N 
ATOM     29  C   UNL A   1      42.118  19.541  25.879  1.00  0.00     0.251 C 
ATOM     30  H   UNL A   1      40.938  17.939  25.678  1.00  0.00     0.163 HD
ATOM     31  O   UNL A   1      43.104  18.981  25.405  1.00  0.00    -0.269 OA
BRANCH  29  32
ATOM     32  C   UNL A   1      42.234  20.921  26.394  1.00  0.00     0.039 A 
ATOM     33  C   UNL A   1      42.128  21.138  27.770  1.00  0.00     0.014 A 
ATOM     34  C   UNL A   1      42.443  21.997  25.526  1.00  0.00     0.014 A 
ATOM     35  C   UNL A   1      42.293  22.427  28.280  1.00  0.00     0.010 A 
ATOM     36  C   UNL A   1      42.683  23.267  26.043  1.00  0.00     0.010 A 
ATOM     37  C   UNL A   1      42.608  23.496  27.425  1.00  0.00    -0.014 A 
BRANCH  37  38
ATOM     38  C   UNL A   1      42.870  24.856  27.962  1.00  0.00     0.031 A 
ATOM     39  C   UNL A   1      44.260  25.254  28.374  1.00  0.00     0.074 A 
ATOM     40  C   UNL A   1      41.844  25.711  28.133  1.00  0.00     0.049 A 
ATOM     41  N   UNL A   1      44.673  26.373  28.914  1.00  0.00    -0.248 NA
ATOM     42  C   UNL A   1      45.322  24.255  28.178  1.00  0.00     0.031 C 
ATOM     43  C   UNL A   1      40.443  25.427  27.815  1.00  0.00     0.029 A 
ATOM     44  N   UNL A   1      41.819  26.991  28.626  1.00  0.00    -0.354 N 
ATOM     45  C   UNL A   1      46.036  26.208  29.130  1.00  0.00     0.074 A 
ATOM     46  C   UNL A   1      46.368  24.862  28.718  1.00  0.00     0.031 C 
ATOM     47  C   UNL A   1      39.700  26.508  28.099  1.00  0.00     0.029 A 
ATOM     48  C   UNL A   1      40.562  27.545  28.656  1.00  0.00     0.049 A 
ATOM     49  H   UNL A   1      42.625  27.468  28.929  1.00  0.00     0.167 HD
ATOM     50  C   UNL A   1      46.932  27.104  29.609  1.00  0.00     0.037 A 
ATOM     51  C   UNL A   1      40.148  28.751  29.093  1.00  0.00     0.037 A 
ATOM     52  C   UNL A   1      46.598  28.448  30.005  1.00  0.00     0.049 A 
ATOM     53  C   UNL A   1      41.159  29.720  29.638  1.00  0.00     0.074 A 
ATOM     54  C   UNL A   1      47.444  29.450  30.448  1.00  0.00     0.029 A 
ATOM     55  N   UNL A   1      45.314  28.975  30.013  1.00  0.00    -0.354 N 
ATOM     56  N   UNL A   1      42.456  29.577  29.769  1.00  0.00    -0.248 NA
ATOM     57  C   UNL A   1      40.651  31.023  30.091  1.00  0.00     0.031 C 
ATOM     58  C   UNL A   1      46.666  30.565  30.776  1.00  0.00     0.029 A 
ATOM     59  C   UNL A   1      45.342  30.279  30.481  1.00  0.00     0.049 A 
ATOM     60  H   UNL A   1      44.504  28.494  29.729  1.00  0.00     0.167 HD
ATOM     61  C   UNL A   1      42.922  30.778  30.289  1.00  0.00     0.074 A 
ATOM     62  C   UNL A   1      41.770  31.644  30.434  1.00  0.00     0.031 C 
ATOM     63  C   UNL A   1      44.189  31.132  30.616  1.00  0.00     0.037 A 
BRANCH  50  64
ATOM     64  C   UNL A   1      48.360  26.658  29.734  1.00  0.00     0.057 A 
ATOM     65  C   UNL A   1      49.292  26.860  28.706  1.00  0.00     0.134 A 
ATOM     66  C   UNL A   1      48.822  26.054  30.910  1.00  0.00     0.134 A 
ATOM     67  F   UNL A   1      48.916  27.424  27.548  1.00  0.00    -0.206 F 
ATOM     68  C   UNL A   1      50.620  26.450  28.832  1.00  0.00     0.040 A 
ATOM     69  C   UNL A   1      50.155  25.668  31.059  1.00  0.00     0.040 A 
ATOM     70  F   UNL A   1      47.986  25.837  31.937  1.00  0.00    -0.206 F 
ATOM     71  C   UNL A   1      51.056  25.858  30.015  1.00  0.00     0.006 A 
ENDBRANCH  50  64
BRANCH  51  72
ATOM     72  C   UNL A   1      38.710  29.116  29.019  1.00  0.00     0.057 A 
ATOM     73  C   UNL A   1      38.147  29.602  27.834  1.00  0.00     0.134 A 
ATOM     74  C   UNL A   1      37.867  28.999  30.132  1.00  0.00     0.134 A 
ATOM     75  F   UNL A   1      38.906  29.754  26.739  1.00  0.00    -0.206 F 
ATOM     76  C   UNL A   1      36.805  29.982  27.762  1.00  0.00     0.040 A 
ATOM     77  C   UNL A   1      36.518  29.348  30.067  1.00  0.00     0.040 A 
ATOM     78  F   UNL A   1      38.342  28.532  31.296  1.00  0.00    -0.206 F 
ATOM     79  C   UNL A   1      35.986  29.849  28.881  1.00  0.00     0.006 A 
ENDBRANCH  51  72
BRANCH  63  80
ATOM     80  C   UNL A   1      44.404  32.528  31.127  1.00  0.00     0.057 A 
ATOM     81  C   UNL A   1      44.638  33.607  30.264  1.00  0.00     0.134 A 
ATOM     82  C   UNL A   1      44.337  32.802  32.499  1.00  0.00     0.134 A 
ATOM     83  F   UNL A   1      44.725  33.412  28.939  1.00  0.00    -0.206 F 
ATOM     84  C   UNL A   1      44.823  34.903  30.749  1.00  0.00     0.040 A 
ATOM     85  C   UNL A   1      44.491  34.098  32.994  1.00  0.00     0.040 A 
ATOM     86  F   UNL A   1      44.108  31.817  33.380  1.00  0.00    -0.206 F 
ATOM     87  C   UNL A   1      44.743  35.151  32.119  1.00  0.00     0.006 A 
ENDBRANCH  63  80
ENDBRANCH  37  38
ENDBRANCH  29  32
ENDBRANCH  27  28
ENDBRANCH  26  27
ENDBRANCH  25  26
ENDBRANCH   1  25
TORSDOF 15
ENDMDL
MODEL 3
REMARK VINA RESULT:     -12.0      4.085      9.406
REMARK SMILES C[C@H]1SC[C@H](C(=O)NCCCCCCNC(=O)c2ccc(-c3c4nc(c(-c5c(F)cccc5F)c5ccc([nH]5)c(-c5c(F)cccc5F)c5nc(c(-c6c(F)cccc6F)c6ccc3[nH]6)C=C5)C=C4)cc2)N1C(=O)[C@@H]1CSc2ccccc21
REMARK SMILES IDX 11 1 10 2 9 3 8 4 6 5 7 6 5 8 1 9 2 10 3 11 72 12 4 13 73 14
REMARK SMILES IDX 74 15 75 16 76 17 83 18 77 19 78 20 82 21 79 22 81 23 80 24
REMARK SMILES IDX 12 25 13 26 14 27 15 28 16 29 17 31 18 32 19 33 71 34 20 35
REMARK SMILES IDX 70 36 21 37 22 38 23 39 64 40 24 41 69 42 63 43 65 44 25 45
REMARK SMILES IDX 68 46 62 47 61 48 26 50 52 51 35 52 51 53 36 54 39 55 50 56
REMARK SMILES IDX 66 57 37 58 38 59 49 61 67 62 40 63 27 64 28 65 33 66 29 67
REMARK SMILES IDX 30 68 32 69 34 70 31 71 53 72 54 73 59 74 55 75 56 76 58 77
REMARK SMILES IDX 60 78 57 79 41 80 42 81 47 82 43 83 44 84 46 85 48 86 45 87
REMARK H PARENT 8 7 15 30 65 49 39 60
REMARK Flexibility Score: inf
ROOT
ATOM      1  C   UNL A   1      38.829  22.193  26.074  1.00  0.00     0.002 C 
ENDROOT
BRANCH   1   2
ATOM      2  C   UNL A   1      38.207  23.590  26.166  1.00  0.00     0.021 C 
BRANCH   2   3
ATOM      3  C   UNL A   1      36.731  23.643  25.785  1.00  0.00     0.116 C 
BRANCH   3   4
ATOM      4  N   UNL A   1      35.887  23.092  26.819  1.00  0.00    -0.354 N 
ATOM      5  C   UNL A   1      34.673  22.479  26.725  1.00  0.00     0.243 C 
ATOM      6  O   UNL A   1      34.063  22.282  27.782  1.00  0.00    -0.273 OA
ATOM      7  H   UNL A   1      36.244  23.171  27.734  1.00  0.00     0.163 HD
BRANCH   5   8
ATOM      8  C   UNL A   1      33.976  22.250  25.371  1.00  0.00     0.185 C 
ATOM      9  C   UNL A   1      32.311  22.602  22.720  1.00  0.00     0.043 C 
ATOM     10  C   UNL A   1      31.922  22.074  24.104  1.00  0.00     0.141 C 
ATOM     11  S   UNL A   1      32.452  20.344  24.211  1.00  0.00    -0.135 SA
ATOM     12  N   UNL A   1      32.609  22.776  25.178  1.00  0.00    -0.318 N 
ATOM     13  C   UNL A   1      33.949  20.728  25.152  1.00  0.00     0.107 C 
BRANCH  12  14
ATOM     14  C   UNL A   1      32.323  24.083  25.552  1.00  0.00     0.232 C 
ATOM     15  O   UNL A   1      31.440  24.299  26.389  1.00  0.00    -0.274 OA
BRANCH  14  16
ATOM     16  C   UNL A   1      32.976  25.301  24.867  1.00  0.00     0.120 C 
ATOM     17  C   UNL A   1      34.010  26.025  25.739  1.00  0.00     0.093 C 
ATOM     18  C   UNL A   1      32.042  26.336  24.307  1.00  0.00    -0.021 A 
ATOM     19  S   UNL A   1      33.382  27.682  26.151  1.00  0.00    -0.125 SA
ATOM     20  C   UNL A   1      32.096  27.578  24.943  1.00  0.00     0.011 A 
ATOM     21  C   UNL A   1      31.154  26.125  23.255  1.00  0.00     0.006 A 
ATOM     22  C   UNL A   1      31.180  28.573  24.644  1.00  0.00     0.015 A 
ATOM     23  C   UNL A   1      30.257  27.138  22.919  1.00  0.00     0.000 A 
ATOM     24  C   UNL A   1      30.247  28.343  23.633  1.00  0.00     0.001 A 
ENDBRANCH  14  16
ENDBRANCH  12  14
ENDBRANCH   5   8
ENDBRANCH   3   4
ENDBRANCH   2   3
ENDBRANCH   1   2
BRANCH   1  25
ATOM     25  C   UNL A   1      38.112  21.222  25.131  1.00  0.00     0.002 C 
BRANCH  25  26
ATOM     26  C   UNL A   1      38.725  19.822  25.048  1.00  0.00     0.021 C 
BRANCH  26  27
ATOM     27  C   UNL A   1      39.613  19.442  26.228  1.00  0.00     0.116 C 
BRANCH  27  28
ATOM     28  N   UNL A   1      40.920  18.966  25.805  1.00  0.00    -0.352 N 
ATOM     29  C   UNL A   1      42.111  19.641  25.730  1.00  0.00     0.251 C 
ATOM     30  H   UNL A   1      40.955  18.020  25.535  1.00  0.00     0.163 HD
ATOM     31  O   UNL A   1      43.080  19.121  25.178  1.00  0.00    -0.269 OA
BRANCH  29  32
ATOM     32  C   UNL A   1      42.228  21.003  26.289  1.00  0.00     0.039 A 
ATOM     33  C   UNL A   1      42.072  21.181  27.666  1.00  0.00     0.014 A 
ATOM     34  C   UNL A   1      42.486  22.100  25.462  1.00  0.00     0.014 A 
ATOM     35  C   UNL A   1      42.236  22.452  28.220  1.00  0.00     0.010 A 
ATOM     36  C   UNL A   1      42.724  23.350  26.025  1.00  0.00     0.010 A 
ATOM     37  C   UNL A   1      42.600  23.540  27.410  1.00  0.00    -0.014 A 
BRANCH  37  38
ATOM     38  C   UNL A   1      42.861  24.880  27.996  1.00  0.00     0.031 A 
ATOM     39  C   UNL A   1      44.243  25.247  28.462  1.00  0.00     0.074 A 
ATOM     40  C   UNL A   1      41.840  25.741  28.164  1.00  0.00     0.049 A 
ATOM     41  N   UNL A   1      44.651  26.344  29.049  1.00  0.00    -0.248 NA
ATOM     42  C   UNL A   1      45.298  24.242  28.267  1.00  0.00     0.031 C 
ATOM     43  C   UNL A   1      40.446  25.485  27.796  1.00  0.00     0.029 A 
ATOM     44  N   UNL A   1      41.815  27.006  28.695  1.00  0.00    -0.354 N 
ATOM     45  C   UNL A   1      46.005  26.156  29.300  1.00  0.00     0.074 A 
ATOM     46  C   UNL A   1      46.335  24.819  28.856  1.00  0.00     0.031 C 
ATOM     47  C   UNL A   1      39.707  26.566  28.091  1.00  0.00     0.029 A 
ATOM     48  C   UNL A   1      40.564  27.575  28.705  1.00  0.00     0.049 A 
ATOM     49  H   UNL A   1      42.617  27.464  29.037  1.00  0.00     0.167 HD
ATOM     50  C   UNL A   1      46.897  27.025  29.833  1.00  0.00     0.037 A 
ATOM     51  C   UNL A   1      40.151  28.771  29.167  1.00  0.00     0.037 A 
ATOM     52  C   UNL A   1      46.567  28.360  30.261  1.00  0.00     0.049 A 
ATOM     53  C   UNL A   1      41.156  29.711  29.772  1.00  0.00     0.074 A 
ATOM     54  C   UNL A   1      47.410  29.338  30.760  1.00  0.00     0.029 A 
ATOM     55  N   UNL A   1      45.290  28.903  30.247  1.00  0.00    -0.354 N 
ATOM     56  N   UNL A   1      42.447  29.548  29.937  1.00  0.00    -0.248 NA
ATOM     57  C   UNL A   1      40.650  31.004  30.250  1.00  0.00     0.031 C 
ATOM     58  C   UNL A   1      46.636  30.452  31.099  1.00  0.00     0.029 A 
ATOM     59  C   UNL A   1      45.318  30.191  30.756  1.00  0.00     0.049 A 
ATOM     60  H   UNL A   1      44.483  28.441  29.924  1.00  0.00     0.167 HD
ATOM     61  C   UNL A   1      42.911  30.726  30.508  1.00  0.00     0.074 A 
ATOM     62  C   UNL A   1      41.765  31.601  30.646  1.00  0.00     0.031 C 
ATOM     63  C   UNL A   1      44.171  31.054  30.884  1.00  0.00     0.037 A 
BRANCH  50  64
ATOM     64  C   UNL A   1      48.315  26.558  29.986  1.00  0.00     0.057 A 
ATOM     65  C   UNL A   1      48.741  25.838  31.111  1.00  0.00     0.134 A 
ATOM     66  C   UNL A   1      49.260  26.796  28.980  1.00  0.00     0.134 A 
ATOM     67  F   UNL A   1      47.891  25.583  32.118  1.00  0.00    -0.206 F 
ATOM     68  C   UNL A   1      50.061  25.400  31.243  1.00  0.00     0.040 A 
ATOM     69  C   UNL A   1      50.574  26.336  29.087  1.00  0.00     0.040 A 
ATOM     70  F   UNL A   1      48.920  27.472  27.873  1.00  0.00    -0.206 F 
ATOM     71  C   UNL A   1      50.979  25.643  30.225  1.00  0.00     0.006 A 
ENDBRANCH  50  64
BRANCH  51  72
ATOM     72  C   UNL A   1      38.720  29.156  29.062  1.00  0.00     0.057 A 
ATOM     73  C   UNL A   1      37.864  29.068  30.166  1.00  0.00     0.134 A 
ATOM     74  C   UNL A   1      38.172  29.611  27.856  1.00  0.00     0.134 A 
ATOM     75  F   UNL A   1      38.325  28.622  31.344  1.00  0.00    -0.206 F 
ATOM     76  C   UNL A   1      36.510  29.394  30.070  1.00  0.00     0.040 A 
ATOM     77  C   UNL A   1      36.827  29.968  27.753  1.00  0.00     0.040 A 
ATOM     78  F   UNL A   1      38.940  29.727  26.763  1.00  0.00    -0.206 F 
ATOM     79  C   UNL A   1      35.990  29.851  28.861  1.00  0.00     0.006 A 
ENDBRANCH  51  72
BRANCH  63  80
ATOM     80  C   UNL A   1      44.386  32.431  31.444  1.00  0.00     0.057 A 
ATOM     81  C   UNL A   1      44.342  32.687  32.821  1.00  0.00     0.134 A 
ATOM     82  C   UNL A   1      44.679  33.506  30.595  1.00  0.00     0.134 A 
ATOM     83  F   UNL A   1      44.056  31.704  33.688  1.00  0.00    -0.206 F 
ATOM     84  C   UNL A   1      44.556  33.970  33.331  1.00  0.00     0.040 A 
ATOM     85  C   UNL A   1      44.924  34.786  31.095  1.00  0.00     0.040 A 
ATOM     86  F   UNL A   1      44.745  33.328  29.268  1.00  0.00    -0.206 F 
ATOM     87  C   UNL A   1      44.854  35.022  32.466  1.00  0.00     0.006 A 
ENDBRANCH  63  80
ENDBRANCH  37  38
ENDBRANCH  29  32
ENDBRANCH  27  28
ENDBRANCH  26  27
ENDBRANCH  25  26
ENDBRANCH   1  25
TORSDOF 15
ENDMDL
