MODEL 1
REMARK VINA RESULT:     -11.9      0.000      0.000
REMARK SMILES Cc1cc2c(c(C)c1Br)C=C(C(=O)NCCCCCCNC(=O)c1ccc(-c3c4nc(c(-c5c(F)cccc5F)c5ccc([nH]5)c(-c5c(F)cccc5F)c5nc(c(-c6c(F)cccc6F)c6ccc3[nH]6)C=C5)C=C4)cc1)[C@@H](C(F)(F)F)O2
REMARK SMILES IDX 18 1 17 2 16 3 15 4 14 5 12 6 13 7 11 9 1 10 2 11 3 12 8 13
REMARK SMILES IDX 4 14 6 15 9 16 5 17 83 18 7 19 10 20 78 21 79 22 80 23 81 24
REMARK SMILES IDX 82 25 19 26 20 27 21 28 22 29 23 31 24 32 25 33 77 34 26 35
REMARK SMILES IDX 76 36 27 37 28 38 29 39 70 40 30 41 75 42 69 43 71 44 31 45
REMARK SMILES IDX 74 46 68 47 67 48 32 50 58 51 41 52 57 53 42 54 45 55 56 56
REMARK SMILES IDX 72 57 43 58 44 59 55 61 73 62 46 63 33 64 34 65 39 66 35 67
REMARK SMILES IDX 36 68 38 69 40 70 37 71 59 72 60 73 65 74 61 75 62 76 64 77
REMARK SMILES IDX 66 78 63 79 47 80 48 81 53 82 49 83 50 84 52 85 54 86 51 87
REMARK H PARENT 14 8 21 30 71 49 45 60
REMARK Flexibility Score: inf
ROOT
ATOM      1  C   UNL A   1      31.472  30.785  26.154  1.00  0.00     0.002 C 
ENDROOT
BRANCH   1   2
ATOM      2  C   UNL A   1      32.154  29.896  27.202  1.00  0.00     0.002 C 
BRANCH   2   3
ATOM      3  C   UNL A   1      32.640  28.540  26.684  1.00  0.00     0.021 C 
BRANCH   3   4
ATOM      4  C   UNL A   1      34.018  28.590  26.035  1.00  0.00     0.116 C 
BRANCH   4   5
ATOM      5  N   UNL A   1      33.941  28.474  24.590  1.00  0.00    -0.352 N 
ATOM      6  C   UNL A   1      33.659  27.507  23.687  1.00  0.00     0.251 C 
ATOM      7  O   UNL A   1      33.675  27.870  22.507  1.00  0.00    -0.270 OA
ATOM      8  H   UNL A   1      34.149  29.329  24.149  1.00  0.00     0.163 HD
BRANCH   6   9
ATOM      9  C   UNL A   1      33.343  26.083  24.017  1.00  0.00     0.067 C 
ATOM     10  C   UNL A   1      33.278  19.814  25.750  1.00  0.00     0.046 C 
ATOM     11  C   UNL A   1      33.666  21.179  25.249  1.00  0.00    -0.033 A 
ATOM     12  C   UNL A   1      32.653  22.142  25.225  1.00  0.00     0.051 A 
ATOM     13  C   UNL A   1      34.972  21.562  24.880  1.00  0.00     0.024 A 
ATOM     14  C   UNL A   1      32.918  23.446  24.826  1.00  0.00     0.128 A 
ATOM     15  C   UNL A   1      35.253  22.889  24.453  1.00  0.00    -0.026 A 
ATOM     16  Br  UNL A   1      36.375  20.266  25.001  1.00  0.00    -0.050 Br
ATOM     17  C   UNL A   1      34.202  23.842  24.451  1.00  0.00     0.021 A 
ATOM     18  O   UNL A   1      31.847  24.286  24.885  1.00  0.00    -0.475 OA
ATOM     19  C   UNL A   1      36.635  23.328  24.024  1.00  0.00     0.046 C 
ATOM     20  C   UNL A   1      34.403  25.260  24.130  1.00  0.00     0.026 C 
ATOM     21  C   UNL A   1      31.954  25.552  24.196  1.00  0.00     0.314 C 
BRANCH  21  22
ATOM     22  C   UNL A   1      31.167  25.473  22.877  1.00  0.00     0.429 C 
ATOM     23  F   UNL A   1      30.517  26.642  22.645  1.00  0.00    -0.167 F 
ATOM     24  F   UNL A   1      31.963  25.264  21.803  1.00  0.00    -0.167 F 
ATOM     25  F   UNL A   1      30.243  24.487  22.882  1.00  0.00    -0.167 F 
ENDBRANCH  21  22
ENDBRANCH   6   9
ENDBRANCH   4   5
ENDBRANCH   3   4
ENDBRANCH   2   3
ENDBRANCH   1   2
BRANCH   1  26
ATOM     26  C   UNL A   1      31.403  32.276  26.501  1.00  0.00     0.021 C 
BRANCH  26  27
ATOM     27  C   UNL A   1      32.620  32.809  27.251  1.00  0.00     0.116 C 
BRANCH  27  28
ATOM     28  N   UNL A   1      32.453  34.203  27.626  1.00  0.00    -0.352 N 
ATOM     29  C   UNL A   1      33.064  34.908  28.625  1.00  0.00     0.251 C 
ATOM     30  H   UNL A   1      31.808  34.711  27.083  1.00  0.00     0.163 HD
ATOM     31  O   UNL A   1      32.644  36.022  28.944  1.00  0.00    -0.269 OA
BRANCH  29  32
ATOM     32  C   UNL A   1      34.225  34.332  29.331  1.00  0.00     0.039 A 
ATOM     33  C   UNL A   1      34.011  33.600  30.501  1.00  0.00     0.014 A 
ATOM     34  C   UNL A   1      35.522  34.536  28.849  1.00  0.00     0.014 A 
ATOM     35  C   UNL A   1      35.098  33.031  31.166  1.00  0.00     0.010 A 
ATOM     36  C   UNL A   1      36.597  33.916  29.476  1.00  0.00     0.010 A 
ATOM     37  C   UNL A   1      36.394  33.165  30.644  1.00  0.00    -0.014 A 
BRANCH  37  38
ATOM     38  C   UNL A   1      37.561  32.540  31.311  1.00  0.00     0.031 A 
ATOM     39  C   UNL A   1      38.248  31.367  30.673  1.00  0.00     0.074 A 
ATOM     40  C   UNL A   1      37.961  32.994  32.514  1.00  0.00     0.049 A 
ATOM     41  N   UNL A   1      39.216  30.623  31.141  1.00  0.00    -0.248 NA
ATOM     42  C   UNL A   1      37.769  30.965  29.340  1.00  0.00     0.031 C 
ATOM     43  C   UNL A   1      37.361  34.116  33.237  1.00  0.00     0.029 A 
ATOM     44  N   UNL A   1      38.962  32.559  33.344  1.00  0.00    -0.354 N 
ATOM     45  C   UNL A   1      39.459  29.664  30.166  1.00  0.00     0.074 A 
ATOM     46  C   UNL A   1      38.502  29.887  29.104  1.00  0.00     0.031 C 
ATOM     47  C   UNL A   1      38.020  34.294  34.393  1.00  0.00     0.029 A 
ATOM     48  C   UNL A   1      39.058  33.274  34.513  1.00  0.00     0.049 A 
ATOM     49  H   UNL A   1      39.557  31.805  33.123  1.00  0.00     0.167 HD
ATOM     50  C   UNL A   1      40.410  28.701  30.149  1.00  0.00     0.037 A 
ATOM     51  C   UNL A   1      39.881  33.118  35.566  1.00  0.00     0.037 A 
ATOM     52  C   UNL A   1      41.366  28.492  31.203  1.00  0.00     0.049 A 
ATOM     53  C   UNL A   1      40.901  32.014  35.540  1.00  0.00     0.074 A 
ATOM     54  C   UNL A   1      42.384  27.556  31.271  1.00  0.00     0.029 A 
ATOM     55  N   UNL A   1      41.425  29.233  32.375  1.00  0.00    -0.354 N 
ATOM     56  N   UNL A   1      41.136  31.129  34.602  1.00  0.00    -0.248 NA
ATOM     57  C   UNL A   1      41.771  31.889  36.717  1.00  0.00     0.031 C 
ATOM     58  C   UNL A   1      43.030  27.702  32.501  1.00  0.00     0.029 A 
ATOM     59  C   UNL A   1      42.451  28.765  33.178  1.00  0.00     0.049 A 
ATOM     60  H   UNL A   1      40.826  29.980  32.602  1.00  0.00     0.167 HD
ATOM     61  C   UNL A   1      42.198  30.360  35.061  1.00  0.00     0.074 A 
ATOM     62  C   UNL A   1      42.569  30.893  36.356  1.00  0.00     0.031 C 
ATOM     63  C   UNL A   1      42.811  29.309  34.464  1.00  0.00     0.037 A 
BRANCH  50  64
ATOM     64  C   UNL A   1      40.470  27.803  28.946  1.00  0.00     0.057 A 
ATOM     65  C   UNL A   1      39.685  26.646  28.853  1.00  0.00     0.134 A 
ATOM     66  C   UNL A   1      41.275  28.127  27.848  1.00  0.00     0.134 A 
ATOM     67  F   UNL A   1      38.903  26.271  29.877  1.00  0.00    -0.206 F 
ATOM     68  C   UNL A   1      39.710  25.836  27.717  1.00  0.00     0.040 A 
ATOM     69  C   UNL A   1      41.288  27.340  26.694  1.00  0.00     0.040 A 
ATOM     70  F   UNL A   1      42.048  29.223  27.868  1.00  0.00    -0.206 F 
ATOM     71  C   UNL A   1      40.506  26.188  26.629  1.00  0.00     0.006 A 
ENDBRANCH  50  64
BRANCH  51  72
ATOM     72  C   UNL A   1      39.793  34.051  36.717  1.00  0.00     0.057 A 
ATOM     73  C   UNL A   1      40.477  35.272  36.704  1.00  0.00     0.134 A 
ATOM     74  C   UNL A   1      39.013  33.760  37.842  1.00  0.00     0.134 A 
ATOM     75  F   UNL A   1      41.254  35.600  35.662  1.00  0.00    -0.206 F 
ATOM     76  C   UNL A   1      40.397  36.167  37.774  1.00  0.00     0.040 A 
ATOM     77  C   UNL A   1      38.903  34.656  38.908  1.00  0.00     0.040 A 
ATOM     78  F   UNL A   1      38.327  32.610  37.912  1.00  0.00    -0.206 F 
ATOM     79  C   UNL A   1      39.601  35.861  38.876  1.00  0.00     0.006 A 
ENDBRANCH  51  72
BRANCH  63  80
ATOM     80  C   UNL A   1      43.968  28.683  35.186  1.00  0.00     0.057 A 
ATOM     81  C   UNL A   1      43.792  27.628  36.092  1.00  0.00     0.134 A 
ATOM     82  C   UNL A   1      45.279  29.103  34.930  1.00  0.00     0.134 A 
ATOM     83  F   UNL A   1      42.561  27.186  36.389  1.00  0.00    -0.206 F 
ATOM     84  C   UNL A   1      44.877  27.029  36.732  1.00  0.00     0.040 A 
ATOM     85  C   UNL A   1      46.375  28.493  35.542  1.00  0.00     0.040 A 
ATOM     86  F   UNL A   1      45.519  30.099  34.064  1.00  0.00    -0.206 F 
ATOM     87  C   UNL A   1      46.174  27.456  36.451  1.00  0.00     0.006 A 
ENDBRANCH  63  80
ENDBRANCH  37  38
ENDBRANCH  29  32
ENDBRANCH  27  28
ENDBRANCH  26  27
ENDBRANCH   1  26
TORSDOF 14
ENDMDL
MODEL 2
REMARK VINA RESULT:     -11.9      4.770      9.530
REMARK SMILES Cc1cc2c(c(C)c1Br)C=C(C(=O)NCCCCCCNC(=O)c1ccc(-c3c4nc(c(-c5c(F)cccc5F)c5ccc([nH]5)c(-c5c(F)cccc5F)c5nc(c(-c6c(F)cccc6F)c6ccc3[nH]6)C=C5)C=C4)cc1)[C@@H](C(F)(F)F)O2
REMARK SMILES IDX 18 1 17 2 16 3 15 4 14 5 12 6 13 7 11 9 1 10 2 11 3 12 8 13
REMARK SMILES IDX 4 14 6 15 9 16 5 17 83 18 7 19 10 20 78 21 79 22 80 23 81 24
REMARK SMILES IDX 82 25 19 26 20 27 21 28 22 29 23 31 24 32 25 33 77 34 26 35
REMARK SMILES IDX 76 36 27 37 28 38 29 39 70 40 30 41 75 42 69 43 71 44 31 45
REMARK SMILES IDX 74 46 68 47 67 48 32 50 58 51 41 52 57 53 42 54 45 55 56 56
REMARK SMILES IDX 72 57 43 58 44 59 55 61 73 62 46 63 33 64 34 65 39 66 35 67
REMARK SMILES IDX 36 68 38 69 40 70 37 71 59 72 60 73 65 74 61 75 62 76 64 77
REMARK SMILES IDX 66 78 63 79 47 80 48 81 53 82 49 83 50 84 52 85 54 86 51 87
REMARK H PARENT 14 8 21 30 71 49 45 60
REMARK Flexibility Score: inf
ROOT
ATOM      1  C   UNL A   1      36.447  19.732  24.982  1.00  0.00     0.002 C 
ENDROOT
BRANCH   1   2
ATOM      2  C   UNL A   1      35.705  21.022  24.607  1.00  0.00     0.002 C 
BRANCH   2   3
ATOM      3  C   UNL A   1      36.604  22.190  24.197  1.00  0.00     0.021 C 
BRANCH   3   4
ATOM      4  C   UNL A   1      36.679  23.301  25.238  1.00  0.00     0.116 C 
BRANCH   4   5
ATOM      5  N   UNL A   1      35.859  23.010  26.399  1.00  0.00    -0.352 N 
ATOM      6  C   UNL A   1      34.594  23.264  26.808  1.00  0.00     0.251 C 
ATOM      7  O   UNL A   1      34.287  22.775  27.900  1.00  0.00    -0.270 OA
ATOM      8  H   UNL A   1      36.356  22.488  27.070  1.00  0.00     0.163 HD
BRANCH   6   9
ATOM      9  C   UNL A   1      33.586  24.068  26.050  1.00  0.00     0.067 C 
ATOM     10  C   UNL A   1      29.949  28.612  23.147  1.00  0.00     0.046 C 
ATOM     11  C   UNL A   1      30.866  27.856  24.071  1.00  0.00    -0.033 A 
ATOM     12  C   UNL A   1      31.036  26.495  23.800  1.00  0.00     0.051 A 
ATOM     13  C   UNL A   1      31.607  28.433  25.124  1.00  0.00     0.024 A 
ATOM     14  C   UNL A   1      31.898  25.718  24.562  1.00  0.00     0.128 A 
ATOM     15  C   UNL A   1      32.480  27.645  25.922  1.00  0.00    -0.026 A 
ATOM     16  Br  UNL A   1      31.443  30.315  25.435  1.00  0.00    -0.050 Br
ATOM     17  C   UNL A   1      32.634  26.270  25.612  1.00  0.00     0.021 A 
ATOM     18  O   UNL A   1      31.992  24.419  24.165  1.00  0.00    -0.475 OA
ATOM     19  C   UNL A   1      33.268  28.224  27.076  1.00  0.00     0.046 C 
ATOM     20  C   UNL A   1      33.584  25.390  26.303  1.00  0.00     0.026 C 
ATOM     21  C   UNL A   1      32.605  23.484  25.081  1.00  0.00     0.314 C 
BRANCH  21  22
ATOM     22  C   UNL A   1      31.504  22.657  25.766  1.00  0.00     0.429 C 
ATOM     23  F   UNL A   1      30.333  22.778  25.091  1.00  0.00    -0.167 F 
ATOM     24  F   UNL A   1      31.786  21.334  25.799  1.00  0.00    -0.167 F 
ATOM     25  F   UNL A   1      31.281  23.045  27.042  1.00  0.00    -0.167 F 
ENDBRANCH  21  22
ENDBRANCH   6   9
ENDBRANCH   4   5
ENDBRANCH   3   4
ENDBRANCH   2   3
ENDBRANCH   1   2
BRANCH   1  26
ATOM     26  C   UNL A   1      37.936  19.702  24.622  1.00  0.00     0.021 C 
BRANCH  26  27
ATOM     27  C   UNL A   1      38.872  20.066  25.770  1.00  0.00     0.116 C 
BRANCH  27  28
ATOM     28  N   UNL A   1      40.057  19.223  25.785  1.00  0.00    -0.352 N 
ATOM     29  C   UNL A   1      41.359  19.566  26.028  1.00  0.00     0.251 C 
ATOM     30  H   UNL A   1      39.899  18.271  25.595  1.00  0.00     0.163 HD
ATOM     31  O   UNL A   1      42.265  18.768  25.785  1.00  0.00    -0.269 OA
BRANCH  29  32
ATOM     32  C   UNL A   1      41.681  20.899  26.573  1.00  0.00     0.039 A 
ATOM     33  C   UNL A   1      41.527  21.125  27.943  1.00  0.00     0.014 A 
ATOM     34  C   UNL A   1      42.110  21.928  25.729  1.00  0.00     0.014 A 
ATOM     35  C   UNL A   1      41.848  22.374  28.475  1.00  0.00     0.010 A 
ATOM     36  C   UNL A   1      42.490  23.151  26.269  1.00  0.00     0.010 A 
ATOM     37  C   UNL A   1      42.356  23.386  27.645  1.00  0.00    -0.014 A 
BRANCH  37  38
ATOM     38  C   UNL A   1      42.739  24.710  28.191  1.00  0.00     0.031 A 
ATOM     39  C   UNL A   1      41.693  25.769  28.389  1.00  0.00     0.074 A 
ATOM     40  C   UNL A   1      44.033  24.972  28.452  1.00  0.00     0.049 A 
ATOM     41  N   UNL A   1      41.839  27.015  28.759  1.00  0.00    -0.248 NA
ATOM     42  C   UNL A   1      40.299  25.381  28.116  1.00  0.00     0.031 C 
ATOM     43  C   UNL A   1      45.138  24.028  28.285  1.00  0.00     0.029 A 
ATOM     44  N   UNL A   1      44.639  26.117  28.906  1.00  0.00    -0.354 N 
ATOM     45  C   UNL A   1      40.561  27.560  28.758  1.00  0.00     0.074 A 
ATOM     46  C   UNL A   1      39.659  26.526  28.300  1.00  0.00     0.031 C 
ATOM     47  C   UNL A   1      46.283  24.624  28.651  1.00  0.00     0.029 A 
ATOM     48  C   UNL A   1      46.001  26.003  29.036  1.00  0.00     0.049 A 
ATOM     49  H   UNL A   1      44.143  26.941  29.118  1.00  0.00     0.167 HD
ATOM     50  C   UNL A   1      40.175  28.803  29.128  1.00  0.00     0.037 A 
ATOM     51  C   UNL A   1      46.919  26.913  29.412  1.00  0.00     0.037 A 
ATOM     52  C   UNL A   1      41.077  29.824  29.594  1.00  0.00     0.049 A 
ATOM     53  C   UNL A   1      46.468  28.299  29.779  1.00  0.00     0.074 A 
ATOM     54  C   UNL A   1      40.781  31.109  30.014  1.00  0.00     0.029 A 
ATOM     55  N   UNL A   1      42.452  29.673  29.704  1.00  0.00    -0.354 N 
ATOM     56  N   UNL A   1      45.256  28.796  29.797  1.00  0.00    -0.248 NA
ATOM     57  C   UNL A   1      47.514  29.251  30.180  1.00  0.00     0.031 C 
ATOM     58  C   UNL A   1      41.981  31.750  30.336  1.00  0.00     0.029 A 
ATOM     59  C   UNL A   1      43.020  30.847  30.170  1.00  0.00     0.049 A 
ATOM     60  H   UNL A   1      42.950  28.853  29.483  1.00  0.00     0.167 HD
ATOM     61  C   UNL A   1      45.386  30.107  30.236  1.00  0.00     0.074 A 
ATOM     62  C   UNL A   1      46.796  30.324  30.487  1.00  0.00     0.031 C 
ATOM     63  C   UNL A   1      44.426  31.045  30.418  1.00  0.00     0.037 A 
BRANCH  50  64
ATOM     64  C   UNL A   1      38.711  29.129  29.055  1.00  0.00     0.057 A 
ATOM     65  C   UNL A   1      37.881  29.040  30.180  1.00  0.00     0.134 A 
ATOM     66  C   UNL A   1      38.137  29.591  27.865  1.00  0.00     0.134 A 
ATOM     67  F   UNL A   1      38.365  28.590  31.348  1.00  0.00    -0.206 F 
ATOM     68  C   UNL A   1      36.530  29.385  30.121  1.00  0.00     0.040 A 
ATOM     69  C   UNL A   1      36.793  29.965  27.799  1.00  0.00     0.040 A 
ATOM     70  F   UNL A   1      38.876  29.704  26.750  1.00  0.00    -0.206 F 
ATOM     71  C   UNL A   1      35.985  29.859  28.929  1.00  0.00     0.006 A 
ENDBRANCH  50  64
BRANCH  51  72
ATOM     72  C   UNL A   1      48.350  26.528  29.491  1.00  0.00     0.057 A 
ATOM     73  C   UNL A   1      48.866  25.914  30.638  1.00  0.00     0.134 A 
ATOM     74  C   UNL A   1      49.230  26.742  28.423  1.00  0.00     0.134 A 
ATOM     75  F   UNL A   1      48.077  25.697  31.701  1.00  0.00    -0.206 F 
ATOM     76  C   UNL A   1      50.208  25.536  30.725  1.00  0.00     0.040 A 
ATOM     77  C   UNL A   1      50.568  26.347  28.486  1.00  0.00     0.040 A 
ATOM     78  F   UNL A   1      48.796  27.319  27.293  1.00  0.00    -0.206 F 
ATOM     79  C   UNL A   1      51.060  25.745  29.643  1.00  0.00     0.006 A 
ENDBRANCH  51  72
BRANCH  63  80
ATOM     80  C   UNL A   1      44.858  32.384  30.942  1.00  0.00     0.057 A 
ATOM     81  C   UNL A   1      45.186  33.443  30.085  1.00  0.00     0.134 A 
ATOM     82  C   UNL A   1      44.893  32.632  32.320  1.00  0.00     0.134 A 
ATOM     83  F   UNL A   1      45.183  33.267  28.756  1.00  0.00    -0.206 F 
ATOM     84  C   UNL A   1      45.554  34.694  30.582  1.00  0.00     0.040 A 
ATOM     85  C   UNL A   1      45.231  33.887  32.828  1.00  0.00     0.040 A 
ATOM     86  F   UNL A   1      44.578  31.665  33.195  1.00  0.00    -0.206 F 
ATOM     87  C   UNL A   1      45.568  34.921  31.957  1.00  0.00     0.006 A 
ENDBRANCH  63  80
ENDBRANCH  37  38
ENDBRANCH  29  32
ENDBRANCH  27  28
ENDBRANCH  26  27
ENDBRANCH   1  26
TORSDOF 14
ENDMDL
MODEL 3
REMARK VINA RESULT:     -11.8      4.000      7.879
REMARK SMILES Cc1cc2c(c(C)c1Br)C=C(C(=O)NCCCCCCNC(=O)c1ccc(-c3c4nc(c(-c5c(F)cccc5F)c5ccc([nH]5)c(-c5c(F)cccc5F)c5nc(c(-c6c(F)cccc6F)c6ccc3[nH]6)C=C5)C=C4)cc1)[C@@H](C(F)(F)F)O2
REMARK SMILES IDX 18 1 17 2 16 3 15 4 14 5 12 6 13 7 11 9 1 10 2 11 3 12 8 13
REMARK SMILES IDX 4 14 6 15 9 16 5 17 83 18 7 19 10 20 78 21 79 22 80 23 81 24
REMARK SMILES IDX 82 25 19 26 20 27 21 28 22 29 23 31 24 32 25 33 77 34 26 35
REMARK SMILES IDX 76 36 27 37 28 38 29 39 70 40 30 41 75 42 69 43 71 44 31 45
REMARK SMILES IDX 74 46 68 47 67 48 32 50 58 51 41 52 57 53 42 54 45 55 56 56
REMARK SMILES IDX 72 57 43 58 44 59 55 61 73 62 46 63 33 64 34 65 39 66 35 67
REMARK SMILES IDX 36 68 38 69 40 70 37 71 59 72 60 73 65 74 61 75 62 76 64 77
REMARK SMILES IDX 66 78 63 79 47 80 48 81 53 82 49 83 50 84 52 85 54 86 51 87
REMARK H PARENT 14 8 21 30 71 49 45 60
REMARK Flexibility Score: inf
ROOT
ATOM      1  C   UNL A   1      33.112  29.197  24.868  1.00  0.00     0.002 C 
ENDROOT
BRANCH   1   2
ATOM      2  C   UNL A   1      31.692  28.732  24.520  1.00  0.00     0.002 C 
BRANCH   2   3
ATOM      3  C   UNL A   1      31.570  27.953  23.208  1.00  0.00     0.021 C 
BRANCH   3   4
ATOM      4  C   UNL A   1      31.539  26.440  23.395  1.00  0.00     0.116 C 
BRANCH   4   5
ATOM      5  N   UNL A   1      31.156  26.070  24.745  1.00  0.00    -0.352 N 
ATOM      6  C   UNL A   1      31.428  25.068  25.613  1.00  0.00     0.251 C 
ATOM      7  O   UNL A   1      30.889  25.171  26.720  1.00  0.00    -0.270 OA
ATOM      8  H   UNL A   1      30.531  26.723  25.134  1.00  0.00     0.163 HD
BRANCH   6   9
ATOM      9  C   UNL A   1      32.305  23.891  25.326  1.00  0.00     0.067 C 
ATOM     10  C   UNL A   1      36.976  19.384  24.908  1.00  0.00     0.046 C 
ATOM     11  C   UNL A   1      36.203  20.666  25.069  1.00  0.00    -0.033 A 
ATOM     12  C   UNL A   1      34.823  20.589  24.861  1.00  0.00     0.051 A 
ATOM     13  C   UNL A   1      36.758  21.896  25.478  1.00  0.00     0.024 A 
ATOM     14  C   UNL A   1      34.013  21.703  25.033  1.00  0.00     0.128 A 
ATOM     15  C   UNL A   1      35.942  23.050  25.640  1.00  0.00    -0.026 A 
ATOM     16  Br  UNL A   1      38.634  21.977  25.849  1.00  0.00    -0.050 Br
ATOM     17  C   UNL A   1      34.544  22.931  25.431  1.00  0.00     0.021 A 
ATOM     18  O   UNL A   1      32.685  21.477  24.832  1.00  0.00    -0.475 OA
ATOM     19  C   UNL A   1      36.506  24.391  26.049  1.00  0.00     0.046 C 
ATOM     20  C   UNL A   1      33.599  24.028  25.670  1.00  0.00     0.026 C 
ATOM     21  C   UNL A   1      31.827  22.629  24.676  1.00  0.00     0.314 C 
BRANCH  21  22
ATOM     22  C   UNL A   1      31.495  22.810  23.185  1.00  0.00     0.429 C 
ATOM     23  F   UNL A   1      32.448  23.561  22.577  1.00  0.00    -0.167 F 
ATOM     24  F   UNL A   1      31.452  21.637  22.512  1.00  0.00    -0.167 F 
ATOM     25  F   UNL A   1      30.306  23.422  22.989  1.00  0.00    -0.167 F 
ENDBRANCH  21  22
ENDBRANCH   6   9
ENDBRANCH   4   5
ENDBRANCH   3   4
ENDBRANCH   2   3
ENDBRANCH   1   2
BRANCH   1  26
ATOM     26  C   UNL A   1      34.023  28.126  25.478  1.00  0.00     0.021 C 
BRANCH  26  27
ATOM     27  C   UNL A   1      34.176  28.213  26.993  1.00  0.00     0.116 C 
BRANCH  27  28
ATOM     28  N   UNL A   1      33.937  29.561  27.483  1.00  0.00    -0.352 N 
ATOM     29  C   UNL A   1      34.746  30.361  28.241  1.00  0.00     0.251 C 
ATOM     30  H   UNL A   1      33.070  29.952  27.232  1.00  0.00     0.163 HD
ATOM     31  O   UNL A   1      34.297  31.390  28.751  1.00  0.00    -0.269 OA
BRANCH  29  32
ATOM     32  C   UNL A   1      36.156  29.988  28.458  1.00  0.00     0.039 A 
ATOM     33  C   UNL A   1      36.535  29.462  29.696  1.00  0.00     0.014 A 
ATOM     34  C   UNL A   1      37.107  30.182  27.450  1.00  0.00     0.014 A 
ATOM     35  C   UNL A   1      37.862  29.086  29.907  1.00  0.00     0.010 A 
ATOM     36  C   UNL A   1      38.413  29.748  27.640  1.00  0.00     0.010 A 
ATOM     37  C   UNL A   1      38.803  29.203  28.872  1.00  0.00    -0.014 A 
BRANCH  37  38
ATOM     38  C   UNL A   1      40.211  28.776  29.059  1.00  0.00     0.031 A 
ATOM     39  C   UNL A   1      41.209  29.730  29.649  1.00  0.00     0.074 A 
ATOM     40  C   UNL A   1      40.596  27.555  28.646  1.00  0.00     0.049 A 
ATOM     41  N   UNL A   1      42.500  29.584  29.802  1.00  0.00    -0.248 NA
ATOM     42  C   UNL A   1      40.691  31.029  30.110  1.00  0.00     0.031 C 
ATOM     43  C   UNL A   1      39.718  26.549  28.045  1.00  0.00     0.029 A 
ATOM     44  N   UNL A   1      41.829  26.955  28.659  1.00  0.00    -0.354 N 
ATOM     45  C   UNL A   1      42.948  30.770  30.370  1.00  0.00     0.074 A 
ATOM     46  C   UNL A   1      41.802  31.645  30.486  1.00  0.00     0.031 C 
ATOM     47  C   UNL A   1      40.437  25.450  27.768  1.00  0.00     0.029 A 
ATOM     48  C   UNL A   1      41.831  25.688  28.129  1.00  0.00     0.049 A 
ATOM     49  H   UNL A   1      42.637  27.391  29.016  1.00  0.00     0.167 HD
ATOM     50  C   UNL A   1      44.198  31.089  30.779  1.00  0.00     0.037 A 
ATOM     51  C   UNL A   1      42.845  24.822  27.944  1.00  0.00     0.037 A 
ATOM     52  C   UNL A   1      45.332  30.209  30.671  1.00  0.00     0.049 A 
ATOM     53  C   UNL A   1      44.231  25.217  28.369  1.00  0.00     0.074 A 
ATOM     54  C   UNL A   1      46.637  30.430  31.076  1.00  0.00     0.029 A 
ATOM     55  N   UNL A   1      45.295  28.936  30.120  1.00  0.00    -0.354 N 
ATOM     56  N   UNL A   1      44.639  26.331  28.926  1.00  0.00    -0.248 NA
ATOM     57  C   UNL A   1      45.299  24.233  28.141  1.00  0.00     0.031 C 
ATOM     58  C   UNL A   1      47.398  29.310  30.731  1.00  0.00     0.029 A 
ATOM     59  C   UNL A   1      46.557  28.367  30.160  1.00  0.00     0.049 A 
ATOM     60  H   UNL A   1      44.491  28.502  29.754  1.00  0.00     0.167 HD
ATOM     61  C   UNL A   1      46.002  26.174  29.143  1.00  0.00     0.074 A 
ATOM     62  C   UNL A   1      46.349  24.850  28.668  1.00  0.00     0.031 C 
ATOM     63  C   UNL A   1      46.885  27.046  29.687  1.00  0.00     0.037 A 
BRANCH  50  64
ATOM     64  C   UNL A   1      44.407  32.444  31.391  1.00  0.00     0.057 A 
ATOM     65  C   UNL A   1      44.293  32.652  32.772  1.00  0.00     0.134 A 
ATOM     66  C   UNL A   1      44.781  33.538  30.601  1.00  0.00     0.134 A 
ATOM     67  F   UNL A   1      43.924  31.649  33.582  1.00  0.00    -0.206 F 
ATOM     68  C   UNL A   1      44.530  33.903  33.344  1.00  0.00     0.040 A 
ATOM     69  C   UNL A   1      45.048  34.788  31.165  1.00  0.00     0.040 A 
ATOM     70  F   UNL A   1      44.912  33.408  29.272  1.00  0.00    -0.206 F 
ATOM     71  C   UNL A   1      44.918  34.973  32.540  1.00  0.00     0.006 A 
ENDBRANCH  50  64
BRANCH  51  72
ATOM     72  C   UNL A   1      42.576  23.486  27.357  1.00  0.00     0.057 A 
ATOM     73  C   UNL A   1      42.722  23.264  25.982  1.00  0.00     0.134 A 
ATOM     74  C   UNL A   1      42.190  22.398  28.149  1.00  0.00     0.134 A 
ATOM     75  F   UNL A   1      43.073  24.270  25.169  1.00  0.00    -0.206 F 
ATOM     76  C   UNL A   1      42.483  22.011  25.414  1.00  0.00     0.040 A 
ATOM     77  C   UNL A   1      41.971  21.133  27.598  1.00  0.00     0.040 A 
ATOM     78  F   UNL A   1      42.040  22.544  29.473  1.00  0.00    -0.206 F 
ATOM     79  C   UNL A   1      42.113  20.940  26.226  1.00  0.00     0.006 A 
ENDBRANCH  51  72
BRANCH  63  80
ATOM     80  C   UNL A   1      48.308  26.589  29.829  1.00  0.00     0.057 A 
ATOM     81  C   UNL A   1      49.272  26.853  28.847  1.00  0.00     0.134 A 
ATOM     82  C   UNL A   1      48.730  25.925  30.988  1.00  0.00     0.134 A 
ATOM     83  F   UNL A   1      48.930  27.475  27.710  1.00  0.00    -0.206 F 
ATOM     84  C   UNL A   1      50.600  26.454  29.005  1.00  0.00     0.040 A 
ATOM     85  C   UNL A   1      50.061  25.547  31.170  1.00  0.00     0.040 A 
ATOM     86  F   UNL A   1      47.860  25.652  31.972  1.00  0.00    -0.206 F 
ATOM     87  C   UNL A   1      50.999  25.806  30.173  1.00  0.00     0.006 A 
ENDBRANCH  63  80
ENDBRANCH  37  38
ENDBRANCH  29  32
ENDBRANCH  27  28
ENDBRANCH  26  27
ENDBRANCH   1  26
TORSDOF 14
ENDMDL
