MODEL 1
REMARK VINA RESULT:     -12.0      0.000      0.000
REMARK SMILES C[C@@H](C(=O)NCCCCCCNC(=O)c1ccc(-c2c3nc(c(-c4c(F)cccc4F)c4ccc([nH]4)c(-c4c(F)cccc4F)c4nc(c(-c5c(F)cccc5F)c5ccc2[nH]5)C=C4)C=C3)cc1)c1ccc(O[C@H]2CCCC2=O)cc1F
REMARK SMILES IDX 8 1 7 2 6 3 5 4 3 5 4 6 2 8 1 9 69 10 70 11 81 12 71 13
REMARK SMILES IDX 80 14 82 15 72 16 73 17 74 18 75 19 78 20 76 21 77 22 79 23
REMARK SMILES IDX 9 24 10 25 11 26 12 27 13 28 14 30 15 31 16 32 68 33 17 34
REMARK SMILES IDX 67 35 18 36 19 37 20 38 61 39 21 40 66 41 60 42 62 43 22 44
REMARK SMILES IDX 65 45 59 46 58 47 23 49 49 50 32 51 48 52 33 53 36 54 47 55
REMARK SMILES IDX 63 56 34 57 35 58 46 60 64 61 37 62 24 63 25 64 30 65 26 66
REMARK SMILES IDX 27 67 29 68 31 69 28 70 50 71 51 72 56 73 52 74 53 75 55 76
REMARK SMILES IDX 57 77 54 78 38 79 39 80 44 81 40 82 41 83 43 84 45 85 42 86
REMARK H PARENT 5 7 12 29 62 48 36 59
REMARK Flexibility Score: inf
ROOT
ATOM      1  C   UNL A   1      32.221  29.313  27.251  1.00  0.00     0.002 C 
ENDROOT
BRANCH   1   2
ATOM      2  C   UNL A   1      32.477  27.867  26.802  1.00  0.00     0.021 C 
BRANCH   2   3
ATOM      3  C   UNL A   1      31.249  27.169  26.214  1.00  0.00     0.116 C 
BRANCH   3   4
ATOM      4  N   UNL A   1      31.051  25.884  26.850  1.00  0.00    -0.356 N 
ATOM      5  C   UNL A   1      31.153  24.624  26.342  1.00  0.00     0.227 C 
ATOM      6  O   UNL A   1      30.750  23.714  27.069  1.00  0.00    -0.274 OA
ATOM      7  H   UNL A   1      30.803  25.927  27.801  1.00  0.00     0.163 HD
BRANCH   5   8
ATOM      8  C   UNL A   1      31.779  24.399  24.954  1.00  0.00     0.108 C 
ATOM      9  C   UNL A   1      30.754  24.431  23.818  1.00  0.00     0.023 C 
BRANCH   8  10
ATOM     10  C   UNL A   1      32.570  23.102  24.869  1.00  0.00     0.000 A 
ATOM     11  C   UNL A   1      32.249  22.102  23.941  1.00  0.00     0.011 A 
ATOM     12  C   UNL A   1      33.661  22.884  25.710  1.00  0.00     0.130 A 
ATOM     13  C   UNL A   1      32.980  20.916  23.898  1.00  0.00     0.047 A 
ATOM     14  C   UNL A   1      34.407  21.705  25.659  1.00  0.00     0.086 A 
ATOM     15  F   UNL A   1      34.024  23.827  26.593  1.00  0.00    -0.207 F 
ATOM     16  C   UNL A   1      34.068  20.710  24.749  1.00  0.00     0.123 A 
BRANCH  16  17
ATOM     17  O   UNL A   1      34.671  19.501  24.588  1.00  0.00    -0.483 OA
BRANCH  17  18
ATOM     18  C   UNL A   1      33.927  18.316  24.450  1.00  0.00     0.239 C 
ATOM     19  C   UNL A   1      34.748  17.117  23.957  1.00  0.00     0.054 C 
ATOM     20  C   UNL A   1      33.061  17.737  25.562  1.00  0.00     0.173 C 
ATOM     21  C   UNL A   1      34.465  15.957  24.909  1.00  0.00     0.012 C 
ATOM     22  C   UNL A   1      33.131  16.237  25.585  1.00  0.00     0.080 C 
ATOM     23  O   UNL A   1      32.354  18.392  26.319  1.00  0.00    -0.296 OA
ENDBRANCH  17  18
ENDBRANCH  16  17
ENDBRANCH   8  10
ENDBRANCH   5   8
ENDBRANCH   3   4
ENDBRANCH   2   3
ENDBRANCH   1   2
BRANCH   1  24
ATOM     24  C   UNL A   1      31.892  30.293  26.121  1.00  0.00     0.002 C 
BRANCH  24  25
ATOM     25  C   UNL A   1      31.608  31.726  26.577  1.00  0.00     0.021 C 
BRANCH  25  26
ATOM     26  C   UNL A   1      32.779  32.409  27.278  1.00  0.00     0.116 C 
BRANCH  26  27
ATOM     27  N   UNL A   1      32.499  33.805  27.574  1.00  0.00    -0.352 N 
ATOM     28  C   UNL A   1      33.088  34.635  28.495  1.00  0.00     0.251 C 
ATOM     29  H   UNL A   1      31.782  34.215  27.036  1.00  0.00     0.163 HD
ATOM     30  O   UNL A   1      32.589  35.728  28.754  1.00  0.00    -0.269 OA
BRANCH  28  31
ATOM     31  C   UNL A   1      34.311  34.198  29.200  1.00  0.00     0.039 A 
ATOM     32  C   UNL A   1      34.186  33.558  30.435  1.00  0.00     0.014 A 
ATOM     33  C   UNL A   1      35.574  34.401  28.636  1.00  0.00     0.014 A 
ATOM     34  C   UNL A   1      35.322  33.043  31.063  1.00  0.00     0.010 A 
ATOM     35  C   UNL A   1      36.696  33.828  29.230  1.00  0.00     0.010 A 
ATOM     36  C   UNL A   1      36.578  33.127  30.438  1.00  0.00    -0.014 A 
BRANCH  36  37
ATOM     37  C   UNL A   1      37.762  32.427  31.002  1.00  0.00     0.031 A 
ATOM     38  C   UNL A   1      38.405  31.288  30.262  1.00  0.00     0.074 A 
ATOM     39  C   UNL A   1      38.203  32.772  32.229  1.00  0.00     0.049 A 
ATOM     40  N   UNL A   1      39.390  30.513  30.639  1.00  0.00    -0.248 NA
ATOM     41  C   UNL A   1      37.860  30.962  28.934  1.00  0.00     0.031 C 
ATOM     42  C   UNL A   1      37.630  33.827  33.069  1.00  0.00     0.029 A 
ATOM     43  N   UNL A   1      39.224  32.262  32.993  1.00  0.00    -0.354 N 
ATOM     44  C   UNL A   1      39.574  29.602  29.607  1.00  0.00     0.074 A 
ATOM     45  C   UNL A   1      38.577  29.897  28.601  1.00  0.00     0.031 C 
ATOM     46  C   UNL A   1      38.311  33.890  34.223  1.00  0.00     0.029 A 
ATOM     47  C   UNL A   1      39.337  32.854  34.229  1.00  0.00     0.049 A 
ATOM     48  H   UNL A   1      39.818  31.540  32.685  1.00  0.00     0.167 HD
ATOM     49  C   UNL A   1      40.500  28.620  29.505  1.00  0.00     0.037 A 
ATOM     50  C   UNL A   1      40.156  32.577  35.261  1.00  0.00     0.037 A 
ATOM     51  C   UNL A   1      41.508  28.350  30.497  1.00  0.00     0.049 A 
ATOM     52  C   UNL A   1      41.159  31.464  35.122  1.00  0.00     0.074 A 
ATOM     53  C   UNL A   1      42.548  27.437  30.437  1.00  0.00     0.029 A 
ATOM     54  N   UNL A   1      41.597  28.976  31.729  1.00  0.00    -0.354 N 
ATOM     55  N   UNL A   1      41.388  30.681  34.098  1.00  0.00    -0.248 NA
ATOM     56  C   UNL A   1      42.018  31.195  36.286  1.00  0.00     0.031 C 
ATOM     57  C   UNL A   1      43.225  27.465  31.659  1.00  0.00     0.029 A 
ATOM     58  C   UNL A   1      42.645  28.436  32.458  1.00  0.00     0.049 A 
ATOM     59  H   UNL A   1      41.004  29.698  32.041  1.00  0.00     0.167 HD
ATOM     60  C   UNL A   1      42.425  29.841  34.484  1.00  0.00     0.074 A 
ATOM     61  C   UNL A   1      42.801  30.231  35.826  1.00  0.00     0.031 C 
ATOM     62  C   UNL A   1      43.009  28.833  33.792  1.00  0.00     0.037 A 
BRANCH  49  63
ATOM     63  C   UNL A   1      40.482  27.751  28.282  1.00  0.00     0.057 A 
ATOM     64  C   UNL A   1      41.192  28.090  27.124  1.00  0.00     0.134 A 
ATOM     65  C   UNL A   1      39.831  26.511  28.302  1.00  0.00     0.134 A 
ATOM     66  F   UNL A   1      41.832  29.265  27.037  1.00  0.00    -0.206 F 
ATOM     67  C   UNL A   1      41.252  27.227  26.027  1.00  0.00     0.040 A 
ATOM     68  C   UNL A   1      39.903  25.630  27.222  1.00  0.00     0.040 A 
ATOM     69  F   UNL A   1      39.139  26.123  29.385  1.00  0.00    -0.206 F 
ATOM     70  C   UNL A   1      40.617  25.988  26.080  1.00  0.00     0.006 A 
ENDBRANCH  49  63
BRANCH  50  71
ATOM     71  C   UNL A   1      40.053  33.340  36.532  1.00  0.00     0.057 A 
ATOM     72  C   UNL A   1      39.166  32.953  37.544  1.00  0.00     0.134 A 
ATOM     73  C   UNL A   1      40.801  34.506  36.746  1.00  0.00     0.134 A 
ATOM     74  F   UNL A   1      38.407  31.858  37.392  1.00  0.00    -0.206 F 
ATOM     75  C   UNL A   1      38.999  33.713  38.703  1.00  0.00     0.040 A 
ATOM     76  C   UNL A   1      40.668  35.258  37.914  1.00  0.00     0.040 A 
ATOM     77  F   UNL A   1      41.674  34.930  35.821  1.00  0.00    -0.206 F 
ATOM     78  C   UNL A   1      39.754  34.869  38.891  1.00  0.00     0.006 A 
ENDBRANCH  50  71
BRANCH  62  79
ATOM     79  C   UNL A   1      44.123  28.089  34.470  1.00  0.00     0.057 A 
ATOM     80  C   UNL A   1      43.876  26.976  35.284  1.00  0.00     0.134 A 
ATOM     81  C   UNL A   1      45.458  28.462  34.271  1.00  0.00     0.134 A 
ATOM     82  F   UNL A   1      42.618  26.577  35.527  1.00  0.00    -0.206 F 
ATOM     83  C   UNL A   1      44.916  26.274  35.894  1.00  0.00     0.040 A 
ATOM     84  C   UNL A   1      46.508  27.750  34.850  1.00  0.00     0.040 A 
ATOM     85  F   UNL A   1      45.764  29.513  33.495  1.00  0.00    -0.206 F 
ATOM     86  C   UNL A   1      46.239  26.656  35.669  1.00  0.00     0.006 A 
ENDBRANCH  62  79
ENDBRANCH  36  37
ENDBRANCH  28  31
ENDBRANCH  26  27
ENDBRANCH  25  26
ENDBRANCH  24  25
ENDBRANCH   1  24
TORSDOF 16
ENDMDL
MODEL 2
REMARK VINA RESULT:     -11.8      4.402      9.182
REMARK SMILES C[C@@H](C(=O)NCCCCCCNC(=O)c1ccc(-c2c3nc(c(-c4c(F)cccc4F)c4ccc([nH]4)c(-c4c(F)cccc4F)c4nc(c(-c5c(F)cccc5F)c5ccc2[nH]5)C=C4)C=C3)cc1)c1ccc(O[C@H]2CCCC2=O)cc1F
REMARK SMILES IDX 8 1 7 2 6 3 5 4 3 5 4 6 2 8 1 9 69 10 70 11 81 12 71 13
REMARK SMILES IDX 80 14 82 15 72 16 73 17 74 18 75 19 78 20 76 21 77 22 79 23
REMARK SMILES IDX 9 24 10 25 11 26 12 27 13 28 14 30 15 31 16 32 68 33 17 34
REMARK SMILES IDX 67 35 18 36 19 37 20 38 61 39 21 40 66 41 60 42 62 43 22 44
REMARK SMILES IDX 65 45 59 46 58 47 23 49 49 50 32 51 48 52 33 53 36 54 47 55
REMARK SMILES IDX 63 56 34 57 35 58 46 60 64 61 37 62 24 63 25 64 30 65 26 66
REMARK SMILES IDX 27 67 29 68 31 69 28 70 50 71 51 72 56 73 52 74 53 75 55 76
REMARK SMILES IDX 57 77 54 78 38 79 39 80 44 81 40 82 41 83 43 84 45 85 42 86
REMARK H PARENT 5 7 12 29 62 48 36 59
REMARK Flexibility Score: inf
ROOT
ATOM      1  C   UNL A   1      34.757  22.871  26.363  1.00  0.00     0.002 C 
ENDROOT
BRANCH   1   2
ATOM      2  C   UNL A   1      35.521  24.028  25.701  1.00  0.00     0.021 C 
BRANCH   2   3
ATOM      3  C   UNL A   1      34.625  25.169  25.212  1.00  0.00     0.116 C 
BRANCH   3   4
ATOM      4  N   UNL A   1      33.501  25.340  26.107  1.00  0.00    -0.356 N 
ATOM      5  C   UNL A   1      32.163  25.348  25.850  1.00  0.00     0.227 C 
ATOM      6  O   UNL A   1      31.436  25.698  26.782  1.00  0.00    -0.274 OA
ATOM      7  H   UNL A   1      33.741  25.471  27.052  1.00  0.00     0.163 HD
BRANCH   5   8
ATOM      8  C   UNL A   1      31.637  24.901  24.474  1.00  0.00     0.108 C 
ATOM      9  C   UNL A   1      30.160  25.230  24.258  1.00  0.00     0.023 C 
BRANCH   8  10
ATOM     10  C   UNL A   1      31.856  23.418  24.215  1.00  0.00     0.000 A 
ATOM     11  C   UNL A   1      32.442  22.954  23.029  1.00  0.00     0.011 A 
ATOM     12  C   UNL A   1      31.493  22.472  25.174  1.00  0.00     0.130 A 
ATOM     13  C   UNL A   1      32.615  21.588  22.811  1.00  0.00     0.047 A 
ATOM     14  C   UNL A   1      31.679  21.104  24.968  1.00  0.00     0.086 A 
ATOM     15  F   UNL A   1      30.956  22.871  26.337  1.00  0.00    -0.207 F 
ATOM     16  C   UNL A   1      32.243  20.653  23.779  1.00  0.00     0.123 A 
BRANCH  16  17
ATOM     17  O   UNL A   1      32.468  19.363  23.412  1.00  0.00    -0.483 OA
BRANCH  17  18
ATOM     18  C   UNL A   1      33.313  18.519  24.156  1.00  0.00     0.239 C 
ATOM     19  C   UNL A   1      32.821  18.244  25.583  1.00  0.00     0.054 C 
ATOM     20  C   UNL A   1      33.785  17.158  23.659  1.00  0.00     0.173 C 
ATOM     21  C   UNL A   1      32.855  16.731  25.785  1.00  0.00     0.012 C 
ATOM     22  C   UNL A   1      33.841  16.158  24.778  1.00  0.00     0.080 C 
ATOM     23  O   UNL A   1      34.126  16.906  22.510  1.00  0.00    -0.296 OA
ENDBRANCH  17  18
ENDBRANCH  16  17
ENDBRANCH   8  10
ENDBRANCH   5   8
ENDBRANCH   3   4
ENDBRANCH   2   3
ENDBRANCH   1   2
BRANCH   1  24
ATOM     24  C   UNL A   1      35.495  21.529  26.370  1.00  0.00     0.002 C 
BRANCH  24  25
ATOM     25  C   UNL A   1      35.859  20.990  24.985  1.00  0.00     0.021 C 
BRANCH  25  26
ATOM     26  C   UNL A   1      37.321  21.191  24.595  1.00  0.00     0.116 C 
BRANCH  26  27
ATOM     27  N   UNL A   1      38.162  20.092  25.042  1.00  0.00    -0.352 N 
ATOM     28  C   UNL A   1      39.341  20.127  25.743  1.00  0.00     0.251 C 
ATOM     29  H   UNL A   1      37.839  19.191  24.808  1.00  0.00     0.163 HD
ATOM     30  O   UNL A   1      40.024  19.112  25.861  1.00  0.00    -0.269 OA
BRANCH  28  31
ATOM     31  C   UNL A   1      39.806  21.399  26.335  1.00  0.00     0.039 A 
ATOM     32  C   UNL A   1      40.922  21.385  27.175  1.00  0.00     0.014 A 
ATOM     33  C   UNL A   1      39.157  22.602  26.045  1.00  0.00     0.014 A 
ATOM     34  C   UNL A   1      41.439  22.590  27.655  1.00  0.00     0.010 A 
ATOM     35  C   UNL A   1      39.714  23.807  26.469  1.00  0.00     0.010 A 
ATOM     36  C   UNL A   1      40.871  23.813  27.261  1.00  0.00    -0.014 A 
BRANCH  36  37
ATOM     37  C   UNL A   1      41.517  25.105  27.612  1.00  0.00     0.031 A 
ATOM     38  C   UNL A   1      40.761  26.160  28.369  1.00  0.00     0.074 A 
ATOM     39  C   UNL A   1      42.766  25.354  27.169  1.00  0.00     0.049 A 
ATOM     40  N   UNL A   1      41.137  27.373  28.688  1.00  0.00    -0.248 NA
ATOM     41  C   UNL A   1      39.399  25.820  28.809  1.00  0.00     0.031 C 
ATOM     42  C   UNL A   1      43.585  24.429  26.380  1.00  0.00     0.029 A 
ATOM     43  N   UNL A   1      43.562  26.465  27.302  1.00  0.00    -0.354 N 
ATOM     44  C   UNL A   1      40.059  27.944  29.351  1.00  0.00     0.074 A 
ATOM     45  C   UNL A   1      38.999  26.959  29.359  1.00  0.00     0.031 C 
ATOM     46  C   UNL A   1      44.765  25.005  26.109  1.00  0.00     0.029 A 
ATOM     47  C   UNL A   1      44.774  26.355  26.660  1.00  0.00     0.049 A 
ATOM     48  H   UNL A   1      43.291  27.264  27.808  1.00  0.00     0.167 HD
ATOM     49  C   UNL A   1      39.969  29.173  29.912  1.00  0.00     0.037 A 
ATOM     50  C   UNL A   1      45.769  27.250  26.510  1.00  0.00     0.037 A 
ATOM     51  C   UNL A   1      41.038  30.138  29.925  1.00  0.00     0.049 A 
ATOM     52  C   UNL A   1      45.628  28.614  27.128  1.00  0.00     0.074 A 
ATOM     53  C   UNL A   1      41.071  31.372  30.553  1.00  0.00     0.029 A 
ATOM     54  N   UNL A   1      42.251  29.987  29.275  1.00  0.00    -0.354 N 
ATOM     55  N   UNL A   1      44.641  29.100  27.840  1.00  0.00    -0.248 NA
ATOM     56  C   UNL A   1      46.738  29.556  26.920  1.00  0.00     0.031 C 
ATOM     57  C   UNL A   1      42.278  31.995  30.227  1.00  0.00     0.029 A 
ATOM     58  C   UNL A   1      43.022  31.127  29.446  1.00  0.00     0.049 A 
ATOM     59  H   UNL A   1      42.526  29.190  28.767  1.00  0.00     0.167 HD
ATOM     60  C   UNL A   1      45.019  30.393  28.180  1.00  0.00     0.074 A 
ATOM     61  C   UNL A   1      46.336  30.606  27.620  1.00  0.00     0.031 C 
ATOM     62  C   UNL A   1      44.332  31.325  28.885  1.00  0.00     0.037 A 
BRANCH  49  63
ATOM     63  C   UNL A   1      38.675  29.563  30.564  1.00  0.00     0.057 A 
ATOM     64  C   UNL A   1      38.419  29.296  31.914  1.00  0.00     0.134 A 
ATOM     65  C   UNL A   1      37.721  30.306  29.858  1.00  0.00     0.134 A 
ATOM     66  F   UNL A   1      39.289  28.584  32.645  1.00  0.00    -0.206 F 
ATOM     67  C   UNL A   1      37.255  29.752  32.538  1.00  0.00     0.040 A 
ATOM     68  C   UNL A   1      36.566  30.788  30.477  1.00  0.00     0.040 A 
ATOM     69  F   UNL A   1      37.910  30.603  28.563  1.00  0.00    -0.206 F 
ATOM     70  C   UNL A   1      36.332  30.510  31.822  1.00  0.00     0.006 A 
ENDBRANCH  49  63
BRANCH  50  71
ATOM     71  C   UNL A   1      46.980  26.906  25.720  1.00  0.00     0.057 A 
ATOM     72  C   UNL A   1      48.020  26.150  26.274  1.00  0.00     0.134 A 
ATOM     73  C   UNL A   1      47.150  27.367  24.408  1.00  0.00     0.134 A 
ATOM     74  F   UNL A   1      47.927  25.696  27.532  1.00  0.00    -0.206 F 
ATOM     75  C   UNL A   1      49.198  25.897  25.569  1.00  0.00     0.040 A 
ATOM     76  C   UNL A   1      48.309  27.094  23.679  1.00  0.00     0.040 A 
ATOM     77  F   UNL A   1      46.190  28.091  23.813  1.00  0.00    -0.206 F 
ATOM     78  C   UNL A   1      49.343  26.368  24.265  1.00  0.00     0.006 A 
ENDBRANCH  50  71
BRANCH  62  79
ATOM     79  C   UNL A   1      44.998  32.652  29.101  1.00  0.00     0.057 A 
ATOM     80  C   UNL A   1      44.790  33.731  28.231  1.00  0.00     0.134 A 
ATOM     81  C   UNL A   1      45.820  32.868  30.214  1.00  0.00     0.134 A 
ATOM     82  F   UNL A   1      44.025  33.585  27.139  1.00  0.00    -0.206 F 
ATOM     83  C   UNL A   1      45.394  34.970  28.449  1.00  0.00     0.040 A 
ATOM     84  C   UNL A   1      46.405  34.111  30.459  1.00  0.00     0.040 A 
ATOM     85  F   UNL A   1      46.053  31.880  31.092  1.00  0.00    -0.206 F 
ATOM     86  C   UNL A   1      46.197  35.165  29.572  1.00  0.00     0.006 A 
ENDBRANCH  62  79
ENDBRANCH  36  37
ENDBRANCH  28  31
ENDBRANCH  26  27
ENDBRANCH  25  26
ENDBRANCH  24  25
ENDBRANCH   1  24
TORSDOF 16
ENDMDL
MODEL 3
REMARK VINA RESULT:     -11.8      5.158     10.669
REMARK SMILES C[C@@H](C(=O)NCCCCCCNC(=O)c1ccc(-c2c3nc(c(-c4c(F)cccc4F)c4ccc([nH]4)c(-c4c(F)cccc4F)c4nc(c(-c5c(F)cccc5F)c5ccc2[nH]5)C=C4)C=C3)cc1)c1ccc(O[C@H]2CCCC2=O)cc1F
REMARK SMILES IDX 8 1 7 2 6 3 5 4 3 5 4 6 2 8 1 9 69 10 70 11 81 12 71 13
REMARK SMILES IDX 80 14 82 15 72 16 73 17 74 18 75 19 78 20 76 21 77 22 79 23
REMARK SMILES IDX 9 24 10 25 11 26 12 27 13 28 14 30 15 31 16 32 68 33 17 34
REMARK SMILES IDX 67 35 18 36 19 37 20 38 61 39 21 40 66 41 60 42 62 43 22 44
REMARK SMILES IDX 65 45 59 46 58 47 23 49 49 50 32 51 48 52 33 53 36 54 47 55
REMARK SMILES IDX 63 56 34 57 35 58 46 60 64 61 37 62 24 63 25 64 30 65 26 66
REMARK SMILES IDX 27 67 29 68 31 69 28 70 50 71 51 72 56 73 52 74 53 75 55 76
REMARK SMILES IDX 57 77 54 78 38 79 39 80 44 81 40 82 41 83 43 84 45 85 42 86
REMARK H PARENT 5 7 12 29 62 48 36 59
REMARK Flexibility Score: inf
ROOT
ATOM      1  C   UNL A   1      35.564  21.259  25.536  1.00  0.00     0.002 C 
ENDROOT
BRANCH   1   2
ATOM      2  C   UNL A   1      34.398  20.440  24.964  1.00  0.00     0.021 C 
BRANCH   2   3
ATOM      3  C   UNL A   1      33.029  21.105  25.125  1.00  0.00     0.116 C 
BRANCH   3   4
ATOM      4  N   UNL A   1      33.183  22.442  25.656  1.00  0.00    -0.356 N 
ATOM      5  C   UNL A   1      33.313  23.636  25.015  1.00  0.00     0.227 C 
ATOM      6  O   UNL A   1      33.612  24.601  25.723  1.00  0.00    -0.274 OA
ATOM      7  H   UNL A   1      33.195  22.497  26.640  1.00  0.00     0.163 HD
BRANCH   5   8
ATOM      8  C   UNL A   1      33.055  23.732  23.501  1.00  0.00     0.108 C 
ATOM      9  C   UNL A   1      34.321  23.558  22.660  1.00  0.00     0.023 C 
BRANCH   8  10
ATOM     10  C   UNL A   1      32.372  25.033  23.102  1.00  0.00     0.000 A 
ATOM     11  C   UNL A   1      33.101  26.139  22.646  1.00  0.00     0.011 A 
ATOM     12  C   UNL A   1      30.983  25.149  23.162  1.00  0.00     0.130 A 
ATOM     13  C   UNL A   1      32.451  27.324  22.304  1.00  0.00     0.047 A 
ATOM     14  C   UNL A   1      30.326  26.327  22.805  1.00  0.00     0.086 A 
ATOM     15  F   UNL A   1      30.242  24.105  23.563  1.00  0.00    -0.207 F 
ATOM     16  C   UNL A   1      31.060  27.426  22.373  1.00  0.00     0.123 A 
BRANCH  16  17
ATOM     17  O   UNL A   1      30.581  28.647  22.014  1.00  0.00    -0.483 OA
BRANCH  17  18
ATOM     18  C   UNL A   1      29.501  29.246  22.688  1.00  0.00     0.239 C 
ATOM     19  C   UNL A   1      29.897  29.969  23.982  1.00  0.00     0.054 C 
ATOM     20  C   UNL A   1      28.520  30.199  22.018  1.00  0.00     0.173 C 
ATOM     21  C   UNL A   1      29.285  31.367  23.919  1.00  0.00     0.012 C 
ATOM     22  C   UNL A   1      28.119  31.311  22.944  1.00  0.00     0.080 C 
ATOM     23  O   UNL A   1      28.068  30.066  20.887  1.00  0.00    -0.296 OA
ENDBRANCH  17  18
ENDBRANCH  16  17
ENDBRANCH   8  10
ENDBRANCH   5   8
ENDBRANCH   3   4
ENDBRANCH   2   3
ENDBRANCH   1   2
BRANCH   1  24
ATOM     24  C   UNL A   1      36.847  21.231  24.700  1.00  0.00     0.002 C 
BRANCH  24  25
ATOM     25  C   UNL A   1      37.763  20.035  24.970  1.00  0.00     0.021 C 
BRANCH  25  26
ATOM     26  C   UNL A   1      39.026  20.373  25.757  1.00  0.00     0.116 C 
BRANCH  26  27
ATOM     27  N   UNL A   1      39.944  19.246  25.826  1.00  0.00    -0.352 N 
ATOM     28  C   UNL A   1      41.303  19.241  26.015  1.00  0.00     0.251 C 
ATOM     29  H   UNL A   1      39.530  18.358  25.723  1.00  0.00     0.163 HD
ATOM     30  O   UNL A   1      41.949  18.210  25.843  1.00  0.00    -0.269 OA
BRANCH  28  31
ATOM     31  C   UNL A   1      41.996  20.488  26.398  1.00  0.00     0.039 A 
ATOM     32  C   UNL A   1      42.454  21.342  25.393  1.00  0.00     0.014 A 
ATOM     33  C   UNL A   1      42.174  20.824  27.743  1.00  0.00     0.014 A 
ATOM     34  C   UNL A   1      43.013  22.575  25.736  1.00  0.00     0.010 A 
ATOM     35  C   UNL A   1      42.669  22.082  28.082  1.00  0.00     0.010 A 
ATOM     36  C   UNL A   1      43.075  22.976  27.081  1.00  0.00    -0.014 A 
BRANCH  36  37
ATOM     37  C   UNL A   1      43.496  24.353  27.451  1.00  0.00     0.031 A 
ATOM     38  C   UNL A   1      42.481  25.382  27.860  1.00  0.00     0.074 A 
ATOM     39  C   UNL A   1      44.796  24.694  27.334  1.00  0.00     0.049 A 
ATOM     40  N   UNL A   1      42.658  26.649  28.136  1.00  0.00    -0.248 NA
ATOM     41  C   UNL A   1      41.081  24.939  27.954  1.00  0.00     0.031 C 
ATOM     42  C   UNL A   1      45.870  23.798  26.897  1.00  0.00     0.029 A 
ATOM     43  N   UNL A   1      45.435  25.889  27.555  1.00  0.00    -0.354 N 
ATOM     44  C   UNL A   1      41.398  27.157  28.421  1.00  0.00     0.074 A 
ATOM     45  C   UNL A   1      40.457  26.071  28.252  1.00  0.00     0.031 C 
ATOM     46  C   UNL A   1      47.031  24.470  26.890  1.00  0.00     0.029 A 
ATOM     47  C   UNL A   1      46.781  25.854  27.276  1.00  0.00     0.049 A 
ATOM     48  H   UNL A   1      44.973  26.694  27.881  1.00  0.00     0.167 HD
ATOM     49  C   UNL A   1      41.060  28.412  28.802  1.00  0.00     0.037 A 
ATOM     50  C   UNL A   1      47.706  26.833  27.301  1.00  0.00     0.037 A 
ATOM     51  C   UNL A   1      42.005  29.481  28.997  1.00  0.00     0.049 A 
ATOM     52  C   UNL A   1      47.293  28.221  27.709  1.00  0.00     0.074 A 
ATOM     53  C   UNL A   1      41.767  30.759  29.474  1.00  0.00     0.029 A 
ATOM     54  N   UNL A   1      43.358  29.405  28.714  1.00  0.00    -0.354 N 
ATOM     55  N   UNL A   1      46.114  28.658  28.075  1.00  0.00    -0.248 NA
ATOM     56  C   UNL A   1      48.340  29.254  27.705  1.00  0.00     0.031 C 
ATOM     57  C   UNL A   1      42.964  31.477  29.418  1.00  0.00     0.029 A 
ATOM     58  C   UNL A   1      43.960  30.629  28.962  1.00  0.00     0.049 A 
ATOM     59  H   UNL A   1      43.824  28.602  28.388  1.00  0.00     0.167 HD
ATOM     60  C   UNL A   1      46.280  30.007  28.362  1.00  0.00     0.074 A 
ATOM     61  C   UNL A   1      47.680  30.310  28.155  1.00  0.00     0.031 C 
ATOM     62  C   UNL A   1      45.355  30.917  28.753  1.00  0.00     0.037 A 
BRANCH  49  63
ATOM     63  C   UNL A   1      39.610  28.716  29.039  1.00  0.00     0.057 A 
ATOM     64  C   UNL A   1      39.010  28.526  30.289  1.00  0.00     0.134 A 
ATOM     65  C   UNL A   1      38.836  29.305  28.031  1.00  0.00     0.134 A 
ATOM     66  F   UNL A   1      39.695  27.962  31.295  1.00  0.00    -0.206 F 
ATOM     67  C   UNL A   1      37.688  28.907  30.528  1.00  0.00     0.040 A 
ATOM     68  C   UNL A   1      37.521  29.712  28.264  1.00  0.00     0.040 A 
ATOM     69  F   UNL A   1      39.354  29.522  26.812  1.00  0.00    -0.206 F 
ATOM     70  C   UNL A   1      36.944  29.513  29.517  1.00  0.00     0.006 A 
ENDBRANCH  49  63
BRANCH  50  71
ATOM     71  C   UNL A   1      49.111  26.554  26.905  1.00  0.00     0.057 A 
ATOM     72  C   UNL A   1      49.533  26.691  25.577  1.00  0.00     0.134 A 
ATOM     73  C   UNL A   1      50.053  26.093  27.834  1.00  0.00     0.134 A 
ATOM     74  F   UNL A   1      48.674  27.108  24.636  1.00  0.00    -0.206 F 
ATOM     75  C   UNL A   1      50.827  26.346  25.180  1.00  0.00     0.040 A 
ATOM     76  C   UNL A   1      51.359  25.776  27.457  1.00  0.00     0.040 A 
ATOM     77  F   UNL A   1      49.718  25.945  29.124  1.00  0.00    -0.206 F 
ATOM     78  C   UNL A   1      51.745  25.889  26.124  1.00  0.00     0.006 A 
ENDBRANCH  50  71
BRANCH  62  79
ATOM     79  C   UNL A   1      45.829  32.320  28.996  1.00  0.00     0.057 A 
ATOM     80  C   UNL A   1      46.396  32.705  30.218  1.00  0.00     0.134 A 
ATOM     81  C   UNL A   1      45.759  33.285  27.983  1.00  0.00     0.134 A 
ATOM     82  F   UNL A   1      46.478  31.831  31.234  1.00  0.00    -0.206 F 
ATOM     83  C   UNL A   1      46.856  34.004  30.431  1.00  0.00     0.040 A 
ATOM     84  C   UNL A   1      46.244  34.579  28.174  1.00  0.00     0.040 A 
ATOM     85  F   UNL A   1      45.237  32.980  26.785  1.00  0.00    -0.206 F 
ATOM     86  C   UNL A   1      46.789  34.944  29.403  1.00  0.00     0.006 A 
ENDBRANCH  62  79
ENDBRANCH  36  37
ENDBRANCH  28  31
ENDBRANCH  26  27
ENDBRANCH  25  26
ENDBRANCH  24  25
ENDBRANCH   1  24
TORSDOF 16
ENDMDL
