MODEL 1
REMARK VINA RESULT:     -12.0      0.000      0.000
REMARK SMILES O=C(NCCCCCCNC(=O)c1cc(S(=O)(=O)NCc2ccncc2)c(Cl)cc1Cl)c1ccc(-c2c3nc(c(-c4c(F)cccc4F)c4ccc([nH]4)c(-c4c(F)cccc4F)c4nc(c(-c5c(F)cccc5F)c5ccc2[nH]5)C=C4)C=C3)cc1
REMARK SMILES IDX 7 1 6 2 5 3 4 4 3 5 1 6 2 7 32 9 33 10 85 11 34 12 84 13
REMARK SMILES IDX 35 14 36 15 37 16 78 17 38 18 83 19 77 20 79 21 39 22 82 23
REMARK SMILES IDX 76 24 75 25 40 27 66 28 49 29 65 30 50 31 53 32 64 33 80 34
REMARK SMILES IDX 51 35 52 36 63 38 81 39 54 40 41 41 42 42 47 43 43 44 44 45
REMARK SMILES IDX 46 46 48 47 45 48 67 49 68 50 73 51 69 52 70 53 72 54 74 55
REMARK SMILES IDX 71 56 55 57 56 58 61 59 57 60 58 61 60 62 62 63 59 64 8 65
REMARK SMILES IDX 9 66 10 67 11 68 12 70 13 71 14 72 30 73 15 74 29 75 31 76
REMARK SMILES IDX 27 77 28 78 16 79 17 80 18 81 19 82 20 84 21 85 22 86 26 87
REMARK SMILES IDX 23 88 25 89 24 90
REMARK H PARENT 3 8 79 26 53 37 10 69 19 83
REMARK Flexibility Score: inf
ROOT
ATOM      1  C   UNL A   1      31.847  29.430  26.909  1.00  0.00     0.002 C 
ENDROOT
BRANCH   1   2
ATOM      2  C   UNL A   1      31.379  30.471  25.888  1.00  0.00     0.002 C 
BRANCH   2   3
ATOM      3  C   UNL A   1      31.294  31.911  26.397  1.00  0.00     0.021 C 
BRANCH   3   4
ATOM      4  C   UNL A   1      32.589  32.480  26.969  1.00  0.00     0.116 C 
BRANCH   4   5
ATOM      5  N   UNL A   1      32.425  33.826  27.488  1.00  0.00    -0.352 N 
ATOM      6  O   UNL A   1      32.755  35.563  28.885  1.00  0.00    -0.269 OA
ATOM      7  C   UNL A   1      33.130  34.469  28.474  1.00  0.00     0.251 C 
ATOM      8  H   UNL A   1      31.706  34.354  27.072  1.00  0.00     0.163 HD
BRANCH   7   9
ATOM      9  C   UNL A   1      34.332  33.839  29.060  1.00  0.00     0.039 A 
ATOM     10  C   UNL A   1      35.611  34.352  28.820  1.00  0.00     0.014 A 
ATOM     11  C   UNL A   1      34.167  32.733  29.898  1.00  0.00     0.014 A 
ATOM     12  C   UNL A   1      36.729  33.702  29.335  1.00  0.00     0.010 A 
ATOM     13  C   UNL A   1      35.284  32.114  30.462  1.00  0.00     0.010 A 
ATOM     14  C   UNL A   1      36.574  32.584  30.168  1.00  0.00    -0.014 A 
BRANCH  14  15
ATOM     15  C   UNL A   1      37.760  31.943  30.787  1.00  0.00     0.031 A 
ATOM     16  C   UNL A   1      38.531  30.883  30.057  1.00  0.00     0.074 A 
ATOM     17  C   UNL A   1      38.114  32.299  32.035  1.00  0.00     0.049 A 
ATOM     18  N   UNL A   1      39.542  30.164  30.476  1.00  0.00    -0.248 NA
ATOM     19  C   UNL A   1      38.104  30.581  28.684  1.00  0.00     0.031 C 
ATOM     20  C   UNL A   1      37.428  33.303  32.851  1.00  0.00     0.029 A 
ATOM     21  N   UNL A   1      39.126  31.846  32.843  1.00  0.00    -0.354 N 
ATOM     22  C   UNL A   1      39.858  29.310  29.428  1.00  0.00     0.074 A 
ATOM     23  C   UNL A   1      38.921  29.588  28.360  1.00  0.00     0.031 C 
ATOM     24  C   UNL A   1      38.039  33.392  34.041  1.00  0.00     0.029 A 
ATOM     25  C   UNL A   1      39.127  32.420  34.090  1.00  0.00     0.049 A 
ATOM     26  H   UNL A   1      39.787  31.175  32.557  1.00  0.00     0.167 HD
ATOM     27  C   UNL A   1      40.845  28.384  29.363  1.00  0.00     0.037 A 
ATOM     28  C   UNL A   1      39.895  32.171  35.166  1.00  0.00     0.037 A 
ATOM     29  C   UNL A   1      41.786  28.124  30.422  1.00  0.00     0.049 A 
ATOM     30  C   UNL A   1      40.971  31.131  35.077  1.00  0.00     0.074 A 
ATOM     31  C   UNL A   1      42.860  27.251  30.427  1.00  0.00     0.029 A 
ATOM     32  N   UNL A   1      41.760  28.733  31.668  1.00  0.00    -0.354 N 
ATOM     33  N   UNL A   1      41.292  30.365  34.063  1.00  0.00    -0.248 NA
ATOM     34  C   UNL A   1      41.790  30.918  36.278  1.00  0.00     0.031 C 
ATOM     35  C   UNL A   1      43.458  27.301  31.692  1.00  0.00     0.029 A 
ATOM     36  C   UNL A   1      42.781  28.234  32.460  1.00  0.00     0.049 A 
ATOM     37  H   UNL A   1      41.111  29.418  31.949  1.00  0.00     0.167 HD
ATOM     38  C   UNL A   1      42.356  29.588  34.496  1.00  0.00     0.074 A 
ATOM     39  C   UNL A   1      42.634  29.983  35.863  1.00  0.00     0.031 C 
ATOM     40  C   UNL A   1      43.042  28.634  33.820  1.00  0.00     0.037 A 
BRANCH  27  41
ATOM     41  C   UNL A   1      40.940  27.564  28.110  1.00  0.00     0.057 A 
ATOM     42  C   UNL A   1      41.713  27.971  27.016  1.00  0.00     0.134 A 
ATOM     43  C   UNL A   1      40.271  26.338  28.010  1.00  0.00     0.134 A 
ATOM     44  F   UNL A   1      42.372  29.139  27.045  1.00  0.00    -0.206 F 
ATOM     45  C   UNL A   1      41.796  27.200  25.855  1.00  0.00     0.040 A 
ATOM     46  C   UNL A   1      40.363  25.548  26.862  1.00  0.00     0.040 A 
ATOM     47  F   UNL A   1      39.519  25.887  29.025  1.00  0.00    -0.206 F 
ATOM     48  C   UNL A   1      41.123  25.982  25.777  1.00  0.00     0.006 A 
ENDBRANCH  27  41
BRANCH  28  49
ATOM     49  C   UNL A   1      39.648  32.925  36.417  1.00  0.00     0.057 A 
ATOM     50  C   UNL A   1      40.342  34.104  36.701  1.00  0.00     0.134 A 
ATOM     51  C   UNL A   1      38.666  32.513  37.327  1.00  0.00     0.134 A 
ATOM     52  F   UNL A   1      41.301  34.540  35.872  1.00  0.00    -0.206 F 
ATOM     53  C   UNL A   1      40.067  34.851  37.847  1.00  0.00     0.040 A 
ATOM     54  C   UNL A   1      38.368  33.260  38.466  1.00  0.00     0.040 A 
ATOM     55  F   UNL A   1      37.962  31.394  37.102  1.00  0.00    -0.206 F 
ATOM     56  C   UNL A   1      39.071  34.434  38.729  1.00  0.00     0.006 A 
ENDBRANCH  28  49
BRANCH  40  57
ATOM     57  C   UNL A   1      44.171  27.963  34.539  1.00  0.00     0.057 A 
ATOM     58  C   UNL A   1      43.990  26.756  35.223  1.00  0.00     0.134 A 
ATOM     59  C   UNL A   1      45.462  28.502  34.501  1.00  0.00     0.134 A 
ATOM     60  F   UNL A   1      42.773  26.198  35.308  1.00  0.00    -0.206 F 
ATOM     61  C   UNL A   1      45.055  26.110  35.854  1.00  0.00     0.040 A 
ATOM     62  C   UNL A   1      46.539  27.856  35.111  1.00  0.00     0.040 A 
ATOM     63  F   UNL A   1      45.701  29.654  33.857  1.00  0.00    -0.206 F 
ATOM     64  C   UNL A   1      46.335  26.657  35.791  1.00  0.00     0.006 A 
ENDBRANCH  40  57
ENDBRANCH  14  15
ENDBRANCH   7   9
ENDBRANCH   4   5
ENDBRANCH   3   4
ENDBRANCH   2   3
ENDBRANCH   1   2
BRANCH   1  65
ATOM     65  C   UNL A   1      31.606  27.964  26.532  1.00  0.00     0.021 C 
BRANCH  65  66
ATOM     66  C   UNL A   1      31.985  27.580  25.105  1.00  0.00     0.116 C 
BRANCH  66  67
ATOM     67  N   UNL A   1      30.981  26.739  24.481  1.00  0.00    -0.352 N 
ATOM     68  C   UNL A   1      31.068  25.459  24.005  1.00  0.00     0.252 C 
ATOM     69  H   UNL A   1      30.095  27.157  24.382  1.00  0.00     0.163 HD
ATOM     70  O   UNL A   1      30.097  24.943  23.460  1.00  0.00    -0.269 OA
BRANCH  68  71
ATOM     71  C   UNL A   1      32.297  24.661  24.203  1.00  0.00     0.059 A 
ATOM     72  C   UNL A   1      32.361  23.775  25.287  1.00  0.00     0.038 A 
ATOM     73  C   UNL A   1      33.337  24.679  23.273  1.00  0.00     0.055 A 
ATOM     74  C   UNL A   1      33.458  22.909  25.450  1.00  0.00     0.101 A 
ATOM     75  C   UNL A   1      34.400  23.776  23.405  1.00  0.00     0.043 A 
ATOM     76  Cl  UNL A   1      33.405  25.801  21.963  1.00  0.00    -0.083 Cl
ATOM     77  C   UNL A   1      34.449  22.866  24.473  1.00  0.00     0.062 A 
ATOM     78  Cl  UNL A   1      35.729  21.710  24.432  1.00  0.00    -0.083 Cl
BRANCH  74  79
ATOM     79  S   UNL A   1      33.453  21.936  26.930  1.00  0.00     0.242 S 
ATOM     80  O   UNL A   1      34.817  21.929  27.411  1.00  0.00    -0.207 OA
ATOM     81  O   UNL A   1      32.374  22.445  27.746  1.00  0.00    -0.207 OA
BRANCH  79  82
ATOM     82  N   UNL A   1      33.057  20.367  26.550  1.00  0.00    -0.207 NA
ATOM     83  H   UNL A   1      32.280  20.121  27.163  1.00  0.00     0.141 HD
BRANCH  82  84
ATOM     84  C   UNL A   1      32.665  19.926  25.220  1.00  0.00     0.134 C 
BRANCH  84  85
ATOM     85  C   UNL A   1      32.926  18.486  24.882  1.00  0.00    -0.030 A 
ATOM     86  C   UNL A   1      33.472  18.100  23.655  1.00  0.00     0.025 A 
ATOM     87  C   UNL A   1      32.701  17.496  25.847  1.00  0.00     0.025 A 
ATOM     88  C   UNL A   1      33.735  16.756  23.439  1.00  0.00     0.111 A 
ATOM     89  C   UNL A   1      33.003  16.180  25.538  1.00  0.00     0.111 A 
ATOM     90  N   UNL A   1      33.513  15.788  24.354  1.00  0.00    -0.265 NA
ENDBRANCH  84  85
ENDBRANCH  82  84
ENDBRANCH  79  82
ENDBRANCH  74  79
ENDBRANCH  68  71
ENDBRANCH  66  67
ENDBRANCH  65  66
ENDBRANCH   1  65
TORSDOF 17
ENDMDL
MODEL 2
REMARK VINA RESULT:     -12.0      4.500      9.894
REMARK SMILES O=C(NCCCCCCNC(=O)c1cc(S(=O)(=O)NCc2ccncc2)c(Cl)cc1Cl)c1ccc(-c2c3nc(c(-c4c(F)cccc4F)c4ccc([nH]4)c(-c4c(F)cccc4F)c4nc(c(-c5c(F)cccc5F)c5ccc2[nH]5)C=C4)C=C3)cc1
REMARK SMILES IDX 7 1 6 2 5 3 4 4 3 5 1 6 2 7 32 9 33 10 85 11 34 12 84 13
REMARK SMILES IDX 35 14 36 15 37 16 78 17 38 18 83 19 77 20 79 21 39 22 82 23
REMARK SMILES IDX 76 24 75 25 40 27 66 28 49 29 65 30 50 31 53 32 64 33 80 34
REMARK SMILES IDX 51 35 52 36 63 38 81 39 54 40 41 41 42 42 47 43 43 44 44 45
REMARK SMILES IDX 46 46 48 47 45 48 67 49 68 50 73 51 69 52 70 53 72 54 74 55
REMARK SMILES IDX 71 56 55 57 56 58 61 59 57 60 58 61 60 62 62 63 59 64 8 65
REMARK SMILES IDX 9 66 10 67 11 68 12 70 13 71 14 72 30 73 15 74 29 75 31 76
REMARK SMILES IDX 27 77 28 78 16 79 17 80 18 81 19 82 20 84 21 85 22 86 26 87
REMARK SMILES IDX 23 88 25 89 24 90
REMARK H PARENT 3 8 79 26 53 37 10 69 19 83
REMARK Flexibility Score: inf
ROOT
ATOM      1  C   UNL A   1      35.964  21.668  25.391  1.00  0.00     0.002 C 
ENDROOT
BRANCH   1   2
ATOM      2  C   UNL A   1      36.118  20.211  24.947  1.00  0.00     0.002 C 
BRANCH   2   3
ATOM      3  C   UNL A   1      37.546  19.756  24.640  1.00  0.00     0.021 C 
BRANCH   3   4
ATOM      4  C   UNL A   1      38.598  20.167  25.665  1.00  0.00     0.116 C 
BRANCH   4   5
ATOM      5  N   UNL A   1      39.729  19.258  25.700  1.00  0.00    -0.352 N 
ATOM      6  O   UNL A   1      41.891  18.644  25.871  1.00  0.00    -0.269 OA
ATOM      7  C   UNL A   1      41.035  19.507  26.042  1.00  0.00     0.251 C 
ATOM      8  H   UNL A   1      39.532  18.329  25.441  1.00  0.00     0.163 HD
BRANCH   7   9
ATOM      9  C   UNL A   1      41.419  20.821  26.598  1.00  0.00     0.039 A 
ATOM     10  C   UNL A   1      41.332  21.082  27.969  1.00  0.00     0.014 A 
ATOM     11  C   UNL A   1      41.912  21.798  25.728  1.00  0.00     0.014 A 
ATOM     12  C   UNL A   1      41.643  22.349  28.457  1.00  0.00     0.010 A 
ATOM     13  C   UNL A   1      42.279  23.050  26.225  1.00  0.00     0.010 A 
ATOM     14  C   UNL A   1      42.128  23.340  27.591  1.00  0.00    -0.014 A 
BRANCH  14  15
ATOM     15  C   UNL A   1      42.541  24.661  28.123  1.00  0.00     0.031 A 
ATOM     16  C   UNL A   1      41.530  25.741  28.371  1.00  0.00     0.074 A 
ATOM     17  C   UNL A   1      43.847  24.894  28.345  1.00  0.00     0.049 A 
ATOM     18  N   UNL A   1      41.723  26.977  28.759  1.00  0.00    -0.248 NA
ATOM     19  C   UNL A   1      40.120  25.394  28.142  1.00  0.00     0.031 C 
ATOM     20  C   UNL A   1      44.924  23.926  28.122  1.00  0.00     0.029 A 
ATOM     21  N   UNL A   1      44.495  26.018  28.789  1.00  0.00    -0.354 N 
ATOM     22  C   UNL A   1      40.464  27.562  28.799  1.00  0.00     0.074 A 
ATOM     23  C   UNL A   1      39.516  26.550  28.379  1.00  0.00     0.031 C 
ATOM     24  C   UNL A   1      46.097  24.497  28.432  1.00  0.00     0.029 A 
ATOM     25  C   UNL A   1      45.860  25.881  28.829  1.00  0.00     0.049 A 
ATOM     26  H   UNL A   1      44.026  26.842  29.055  1.00  0.00     0.167 HD
ATOM     27  C   UNL A   1      40.132  28.825  29.158  1.00  0.00     0.037 A 
ATOM     28  C   UNL A   1      46.819  26.778  29.121  1.00  0.00     0.037 A 
ATOM     29  C   UNL A   1      41.077  29.821  29.592  1.00  0.00     0.049 A 
ATOM     30  C   UNL A   1      46.431  28.175  29.502  1.00  0.00     0.074 A 
ATOM     31  C   UNL A   1      40.831  31.108  30.038  1.00  0.00     0.029 A 
ATOM     32  N   UNL A   1      42.452  29.642  29.627  1.00  0.00    -0.354 N 
ATOM     33  N   UNL A   1      45.232  28.700  29.584  1.00  0.00    -0.248 NA
ATOM     34  C   UNL A   1      47.521  29.103  29.829  1.00  0.00     0.031 C 
ATOM     35  C   UNL A   1      42.061  31.721  30.303  1.00  0.00     0.029 A 
ATOM     36  C   UNL A   1      43.070  30.804  30.059  1.00  0.00     0.049 A 
ATOM     37  H   UNL A   1      42.920  28.812  29.380  1.00  0.00     0.167 HD
ATOM     38  C   UNL A   1      45.421  30.016  29.984  1.00  0.00     0.074 A 
ATOM     39  C   UNL A   1      46.851  30.205  30.137  1.00  0.00     0.031 C 
ATOM     40  C   UNL A   1      44.493  30.978  30.204  1.00  0.00     0.037 A 
BRANCH  27  41
ATOM     41  C   UNL A   1      38.684  29.208  29.074  1.00  0.00     0.057 A 
ATOM     42  C   UNL A   1      38.102  29.648  27.879  1.00  0.00     0.134 A 
ATOM     43  C   UNL A   1      37.855  29.108  30.199  1.00  0.00     0.134 A 
ATOM     44  F   UNL A   1      38.843  29.774  26.767  1.00  0.00    -0.206 F 
ATOM     45  C   UNL A   1      36.752  30.001  27.811  1.00  0.00     0.040 A 
ATOM     46  C   UNL A   1      36.500  29.438  30.139  1.00  0.00     0.040 A 
ATOM     47  F   UNL A   1      38.348  28.686  31.373  1.00  0.00    -0.206 F 
ATOM     48  C   UNL A   1      35.946  29.892  28.943  1.00  0.00     0.006 A 
ENDBRANCH  27  41
BRANCH  28  49
ATOM     49  C   UNL A   1      48.240  26.364  29.046  1.00  0.00     0.057 A 
ATOM     50  C   UNL A   1      49.000  26.589  27.895  1.00  0.00     0.134 A 
ATOM     51  C   UNL A   1      48.885  25.790  30.149  1.00  0.00     0.134 A 
ATOM     52  F   UNL A   1      48.432  27.123  26.804  1.00  0.00    -0.206 F 
ATOM     53  C   UNL A   1      50.355  26.258  27.842  1.00  0.00     0.040 A 
ATOM     54  C   UNL A   1      50.243  25.475  30.117  1.00  0.00     0.040 A 
ATOM     55  F   UNL A   1      48.208  25.561  31.284  1.00  0.00    -0.206 F 
ATOM     56  C   UNL A   1      50.982  25.708  28.959  1.00  0.00     0.006 A 
ENDBRANCH  28  49
BRANCH  40  57
ATOM     57  C   UNL A   1      44.989  32.318  30.653  1.00  0.00     0.057 A 
ATOM     58  C   UNL A   1      45.213  32.601  32.006  1.00  0.00     0.134 A 
ATOM     59  C   UNL A   1      45.299  33.314  29.720  1.00  0.00     0.134 A 
ATOM     60  F   UNL A   1      44.923  31.692  32.948  1.00  0.00    -0.206 F 
ATOM     61  C   UNL A   1      45.720  33.835  32.416  1.00  0.00     0.040 A 
ATOM     62  C   UNL A   1      45.823  34.545  30.116  1.00  0.00     0.040 A 
ATOM     63  F   UNL A   1      45.111  33.101  28.409  1.00  0.00    -0.206 F 
ATOM     64  C   UNL A   1      46.034  34.808  31.468  1.00  0.00     0.006 A 
ENDBRANCH  40  57
ENDBRANCH  14  15
ENDBRANCH   7   9
ENDBRANCH   4   5
ENDBRANCH   3   4
ENDBRANCH   2   3
ENDBRANCH   1   2
BRANCH   1  65
ATOM     65  C   UNL A   1      34.985  21.917  26.544  1.00  0.00     0.021 C 
BRANCH  65  66
ATOM     66  C   UNL A   1      34.390  23.321  26.612  1.00  0.00     0.116 C 
BRANCH  66  67
ATOM     67  N   UNL A   1      33.031  23.315  27.119  1.00  0.00    -0.352 N 
ATOM     68  C   UNL A   1      31.867  23.747  26.542  1.00  0.00     0.252 C 
ATOM     69  H   UNL A   1      32.929  22.941  28.024  1.00  0.00     0.163 HD
ATOM     70  O   UNL A   1      30.817  23.695  27.174  1.00  0.00    -0.269 OA
BRANCH  68  71
ATOM     71  C   UNL A   1      31.847  24.211  25.138  1.00  0.00     0.059 A 
ATOM     72  C   UNL A   1      31.754  25.585  24.881  1.00  0.00     0.038 A 
ATOM     73  C   UNL A   1      32.041  23.327  24.075  1.00  0.00     0.055 A 
ATOM     74  C   UNL A   1      31.851  26.083  23.568  1.00  0.00     0.101 A 
ATOM     75  C   UNL A   1      32.195  23.831  22.777  1.00  0.00     0.043 A 
ATOM     76  Cl  UNL A   1      32.066  21.613  24.272  1.00  0.00    -0.083 Cl
ATOM     77  C   UNL A   1      32.134  25.209  22.521  1.00  0.00     0.062 A 
ATOM     78  Cl  UNL A   1      32.491  25.704  20.908  1.00  0.00    -0.083 Cl
BRANCH  74  79
ATOM     79  S   UNL A   1      31.594  27.827  23.389  1.00  0.00     0.242 S 
ATOM     80  O   UNL A   1      31.244  28.318  24.703  1.00  0.00    -0.207 OA
ATOM     81  O   UNL A   1      32.747  28.336  22.682  1.00  0.00    -0.207 OA
BRANCH  79  82
ATOM     82  N   UNL A   1      30.282  28.086  22.402  1.00  0.00    -0.207 NA
ATOM     83  H   UNL A   1      30.066  27.181  21.984  1.00  0.00     0.141 HD
BRANCH  82  84
ATOM     84  C   UNL A   1      29.010  28.621  22.863  1.00  0.00     0.134 C 
BRANCH  84  85
ATOM     85  C   UNL A   1      28.705  30.046  22.498  1.00  0.00    -0.030 A 
ATOM     86  C   UNL A   1      28.349  30.418  21.199  1.00  0.00     0.025 A 
ATOM     87  C   UNL A   1      28.688  31.028  23.496  1.00  0.00     0.025 A 
ATOM     88  C   UNL A   1      28.028  31.744  20.953  1.00  0.00     0.111 A 
ATOM     89  C   UNL A   1      28.348  32.326  23.151  1.00  0.00     0.111 A 
ATOM     90  N   UNL A   1      28.019  32.706  21.901  1.00  0.00    -0.265 NA
ENDBRANCH  84  85
ENDBRANCH  82  84
ENDBRANCH  79  82
ENDBRANCH  74  79
ENDBRANCH  68  71
ENDBRANCH  66  67
ENDBRANCH  65  66
ENDBRANCH   1  65
TORSDOF 17
ENDMDL
MODEL 3
REMARK VINA RESULT:     -11.9      1.453      2.126
REMARK SMILES O=C(NCCCCCCNC(=O)c1cc(S(=O)(=O)NCc2ccncc2)c(Cl)cc1Cl)c1ccc(-c2c3nc(c(-c4c(F)cccc4F)c4ccc([nH]4)c(-c4c(F)cccc4F)c4nc(c(-c5c(F)cccc5F)c5ccc2[nH]5)C=C4)C=C3)cc1
REMARK SMILES IDX 7 1 6 2 5 3 4 4 3 5 1 6 2 7 32 9 33 10 85 11 34 12 84 13
REMARK SMILES IDX 35 14 36 15 37 16 78 17 38 18 83 19 77 20 79 21 39 22 82 23
REMARK SMILES IDX 76 24 75 25 40 27 66 28 49 29 65 30 50 31 53 32 64 33 80 34
REMARK SMILES IDX 51 35 52 36 63 38 81 39 54 40 41 41 42 42 47 43 43 44 44 45
REMARK SMILES IDX 46 46 48 47 45 48 67 49 68 50 73 51 69 52 70 53 72 54 74 55
REMARK SMILES IDX 71 56 55 57 56 58 61 59 57 60 58 61 60 62 62 63 59 64 8 65
REMARK SMILES IDX 9 66 10 67 11 68 12 70 13 71 14 72 30 73 15 74 29 75 31 76
REMARK SMILES IDX 27 77 28 78 16 79 17 80 18 81 19 82 20 84 21 85 22 86 26 87
REMARK SMILES IDX 23 88 25 89 24 90
REMARK H PARENT 3 8 79 26 53 37 10 69 19 83
REMARK Flexibility Score: inf
ROOT
ATOM      1  C   UNL A   1      31.775  29.524  26.673  1.00  0.00     0.002 C 
ENDROOT
BRANCH   1   2
ATOM      2  C   UNL A   1      31.474  30.802  25.885  1.00  0.00     0.002 C 
BRANCH   2   3
ATOM      3  C   UNL A   1      31.298  32.072  26.720  1.00  0.00     0.021 C 
BRANCH   3   4
ATOM      4  C   UNL A   1      32.581  32.841  27.019  1.00  0.00     0.116 C 
BRANCH   4   5
ATOM      5  N   UNL A   1      32.328  34.138  27.621  1.00  0.00    -0.352 N 
ATOM      6  O   UNL A   1      32.531  35.797  29.132  1.00  0.00    -0.269 OA
ATOM      7  C   UNL A   1      32.979  34.757  28.657  1.00  0.00     0.251 C 
ATOM      8  H   UNL A   1      31.581  34.646  27.229  1.00  0.00     0.163 HD
BRANCH   7   9
ATOM      9  C   UNL A   1      34.211  34.166  29.220  1.00  0.00     0.039 A 
ATOM     10  C   UNL A   1      35.473  34.505  28.721  1.00  0.00     0.014 A 
ATOM     11  C   UNL A   1      34.098  33.280  30.296  1.00  0.00     0.014 A 
ATOM     12  C   UNL A   1      36.611  33.886  29.230  1.00  0.00     0.010 A 
ATOM     13  C   UNL A   1      35.244  32.703  30.845  1.00  0.00     0.010 A 
ATOM     14  C   UNL A   1      36.507  32.987  30.302  1.00  0.00    -0.014 A 
BRANCH  14  15
ATOM     15  C   UNL A   1      37.727  32.394  30.901  1.00  0.00     0.031 A 
ATOM     16  C   UNL A   1      38.383  31.195  30.283  1.00  0.00     0.074 A 
ATOM     17  C   UNL A   1      38.219  32.924  32.035  1.00  0.00     0.049 A 
ATOM     18  N   UNL A   1      39.406  30.501  30.714  1.00  0.00    -0.248 NA
ATOM     19  C   UNL A   1      37.808  30.701  29.023  1.00  0.00     0.031 C 
ATOM     20  C   UNL A   1      37.655  34.078  32.739  1.00  0.00     0.029 A 
ATOM     21  N   UNL A   1      39.292  32.555  32.806  1.00  0.00    -0.354 N 
ATOM     22  C   UNL A   1      39.585  29.477  29.794  1.00  0.00     0.074 A 
ATOM     23  C   UNL A   1      38.553  29.630  28.789  1.00  0.00     0.031 C 
ATOM     24  C   UNL A   1      38.387  34.324  33.835  1.00  0.00     0.029 A 
ATOM     25  C   UNL A   1      39.440  33.318  33.937  1.00  0.00     0.049 A 
ATOM     26  H   UNL A   1      39.896  31.814  32.571  1.00  0.00     0.167 HD
ATOM     27  C   UNL A   1      40.527  28.504  29.787  1.00  0.00     0.037 A 
ATOM     28  C   UNL A   1      40.304  33.204  34.961  1.00  0.00     0.037 A 
ATOM     29  C   UNL A   1      41.562  28.368  30.779  1.00  0.00     0.049 A 
ATOM     30  C   UNL A   1      41.330  32.110  34.941  1.00  0.00     0.074 A 
ATOM     31  C   UNL A   1      42.600  27.454  30.824  1.00  0.00     0.029 A 
ATOM     32  N   UNL A   1      41.684  29.167  31.907  1.00  0.00    -0.354 N 
ATOM     33  N   UNL A   1      41.519  31.178  34.038  1.00  0.00    -0.248 NA
ATOM     34  C   UNL A   1      42.259  32.048  36.076  1.00  0.00     0.031 C 
ATOM     35  C   UNL A   1      43.325  27.673  32.000  1.00  0.00     0.029 A 
ATOM     36  C   UNL A   1      42.762  28.748  32.668  1.00  0.00     0.049 A 
ATOM     37  H   UNL A   1      41.090  29.919  32.133  1.00  0.00     0.167 HD
ATOM     38  C   UNL A   1      42.595  30.427  34.488  1.00  0.00     0.074 A 
ATOM     39  C   UNL A   1      43.024  31.018  35.741  1.00  0.00     0.031 C 
ATOM     40  C   UNL A   1      43.175  29.345  33.913  1.00  0.00     0.037 A 
BRANCH  27  41
ATOM     41  C   UNL A   1      40.466  27.492  28.680  1.00  0.00     0.057 A 
ATOM     42  C   UNL A   1      39.645  26.360  28.755  1.00  0.00     0.134 A 
ATOM     43  C   UNL A   1      41.219  27.669  27.513  1.00  0.00     0.134 A 
ATOM     44  F   UNL A   1      38.905  26.128  29.850  1.00  0.00    -0.206 F 
ATOM     45  C   UNL A   1      39.595  25.426  27.718  1.00  0.00     0.040 A 
ATOM     46  C   UNL A   1      41.161  26.753  26.461  1.00  0.00     0.040 A 
ATOM     47  F   UNL A   1      42.021  28.736  27.375  1.00  0.00    -0.206 F 
ATOM     48  C   UNL A   1      40.352  25.623  26.565  1.00  0.00     0.006 A 
ENDBRANCH  27  41
BRANCH  28  49
ATOM     49  C   UNL A   1      40.213  34.157  36.091  1.00  0.00     0.057 A 
ATOM     50  C   UNL A   1      40.859  35.396  36.049  1.00  0.00     0.134 A 
ATOM     51  C   UNL A   1      39.424  33.874  37.213  1.00  0.00     0.134 A 
ATOM     52  F   UNL A   1      41.638  35.715  35.005  1.00  0.00    -0.206 F 
ATOM     53  C   UNL A   1      40.724  36.323  37.083  1.00  0.00     0.040 A 
ATOM     54  C   UNL A   1      39.263  34.800  38.244  1.00  0.00     0.040 A 
ATOM     55  F   UNL A   1      38.772  32.706  37.304  1.00  0.00    -0.206 F 
ATOM     56  C   UNL A   1      39.916  36.029  38.180  1.00  0.00     0.006 A 
ENDBRANCH  28  49
BRANCH  40  57
ATOM     57  C   UNL A   1      44.348  28.741  34.622  1.00  0.00     0.057 A 
ATOM     58  C   UNL A   1      45.653  29.191  34.393  1.00  0.00     0.134 A 
ATOM     59  C   UNL A   1      44.164  27.738  35.580  1.00  0.00     0.134 A 
ATOM     60  F   UNL A   1      45.896  30.140  33.476  1.00  0.00    -0.206 F 
ATOM     61  C   UNL A   1      46.739  28.656  35.089  1.00  0.00     0.040 A 
ATOM     62  C   UNL A   1      45.239  27.209  36.296  1.00  0.00     0.040 A 
ATOM     63  F   UNL A   1      42.936  27.268  35.848  1.00  0.00    -0.206 F 
ATOM     64  C   UNL A   1      46.531  27.668  36.050  1.00  0.00     0.006 A 
ENDBRANCH  40  57
ENDBRANCH  14  15
ENDBRANCH   7   9
ENDBRANCH   4   5
ENDBRANCH   3   4
ENDBRANCH   2   3
ENDBRANCH   1   2
BRANCH   1  65
ATOM     65  C   UNL A   1      33.232  29.330  27.107  1.00  0.00     0.021 C 
BRANCH  65  66
ATOM     66  C   UNL A   1      33.880  28.018  26.676  1.00  0.00     0.116 C 
BRANCH  66  67
ATOM     67  N   UNL A   1      33.931  27.881  25.233  1.00  0.00    -0.352 N 
ATOM     68  C   UNL A   1      33.406  26.919  24.414  1.00  0.00     0.252 C 
ATOM     69  H   UNL A   1      34.425  28.595  24.768  1.00  0.00     0.163 HD
ATOM     70  O   UNL A   1      33.611  26.967  23.205  1.00  0.00    -0.269 OA
BRANCH  68  71
ATOM     71  C   UNL A   1      32.531  25.859  24.959  1.00  0.00     0.059 A 
ATOM     72  C   UNL A   1      33.120  24.735  25.554  1.00  0.00     0.038 A 
ATOM     73  C   UNL A   1      31.144  26.008  25.004  1.00  0.00     0.055 A 
ATOM     74  C   UNL A   1      32.333  23.758  26.192  1.00  0.00     0.101 A 
ATOM     75  C   UNL A   1      30.368  25.064  25.690  1.00  0.00     0.043 A 
ATOM     76  Cl  UNL A   1      30.314  27.299  24.215  1.00  0.00    -0.083 Cl
ATOM     77  C   UNL A   1      30.960  23.955  26.314  1.00  0.00     0.062 A 
ATOM     78  Cl  UNL A   1      29.911  22.957  27.251  1.00  0.00    -0.083 Cl
BRANCH  74  79
ATOM     79  S   UNL A   1      33.209  22.339  26.790  1.00  0.00     0.242 S 
ATOM     80  O   UNL A   1      34.580  22.503  26.362  1.00  0.00    -0.207 OA
ATOM     81  O   UNL A   1      32.871  22.214  28.190  1.00  0.00    -0.207 OA
BRANCH  79  82
ATOM     82  N   UNL A   1      32.619  20.978  26.040  1.00  0.00    -0.207 NA
ATOM     83  H   UNL A   1      32.482  21.238  25.063  1.00  0.00     0.141 HD
BRANCH  82  84
ATOM     84  C   UNL A   1      33.311  19.699  26.014  1.00  0.00     0.134 C 
BRANCH  84  85
ATOM     85  C   UNL A   1      33.219  18.907  24.740  1.00  0.00    -0.030 A 
ATOM     86  C   UNL A   1      33.812  17.650  24.604  1.00  0.00     0.025 A 
ATOM     87  C   UNL A   1      32.448  19.393  23.677  1.00  0.00     0.025 A 
ATOM     88  C   UNL A   1      33.636  16.957  23.417  1.00  0.00     0.111 A 
ATOM     89  C   UNL A   1      32.327  18.623  22.532  1.00  0.00     0.111 A 
ATOM     90  N   UNL A   1      32.906  17.416  22.377  1.00  0.00    -0.265 NA
ENDBRANCH  84  85
ENDBRANCH  82  84
ENDBRANCH  79  82
ENDBRANCH  74  79
ENDBRANCH  68  71
ENDBRANCH  66  67
ENDBRANCH  65  66
ENDBRANCH   1  65
TORSDOF 17
ENDMDL
