MODEL 1
REMARK VINA RESULT:     -12.9      0.000      0.000
REMARK SMILES CC(C)c1cccc2c1N[C@H](c1ccc(C(=O)NCCCCCCNC(=O)c3ccc(-c4c5nc(c(-c6c(F)cccc6F)c6ccc([nH]6)c(-c6c(F)cccc6F)c6nc(c(-c7c(F)cccc7F)c7ccc4[nH]7)C=C6)C=C5)cc3)cc1)[C@H]1CC=C[C@H]21
REMARK SMILES IDX 21 1 20 2 19 3 18 4 16 5 17 6 15 8 12 9 13 10 83 11 14 12
REMARK SMILES IDX 82 13 11 14 4 15 5 16 9 17 6 18 8 19 10 20 7 21 88 22 84 24
REMARK SMILES IDX 87 25 85 26 86 27 2 28 1 29 3 30 22 31 23 32 24 33 25 34
REMARK SMILES IDX 26 35 27 37 28 38 29 39 81 40 30 41 80 42 31 43 32 44 33 45
REMARK SMILES IDX 74 46 34 47 79 48 73 49 75 50 35 51 78 52 72 53 71 54 36 56
REMARK SMILES IDX 62 57 45 58 61 59 46 60 49 61 60 62 76 63 47 64 48 65 59 67
REMARK SMILES IDX 77 68 50 69 37 70 38 71 43 72 39 73 40 74 42 75 44 76 41 77
REMARK SMILES IDX 63 78 64 79 69 80 65 81 66 82 68 83 70 84 67 85 51 86 52 87
REMARK SMILES IDX 57 88 53 89 54 90 56 91 58 92 55 93
REMARK H PARENT 18 7 10 23 25 36 75 55 49 66
REMARK Flexibility Score: inf
ROOT
ATOM      1  C   UNL A   1      31.853  29.516  26.863  1.00  0.00     0.002 C 
ENDROOT
BRANCH   1   2
ATOM      2  C   UNL A   1      31.792  28.164  26.153  1.00  0.00     0.021 C 
BRANCH   2   3
ATOM      3  C   UNL A   1      31.591  28.198  24.643  1.00  0.00     0.116 C 
BRANCH   3   4
ATOM      4  N   UNL A   1      30.238  27.908  24.189  1.00  0.00    -0.352 N 
ATOM      5  C   UNL A   1      29.614  26.679  24.063  1.00  0.00     0.251 C 
ATOM      6  O   UNL A   1      28.471  26.607  23.622  1.00  0.00    -0.269 OA
ATOM      7  H   UNL A   1      29.694  28.690  23.940  1.00  0.00     0.163 HD
BRANCH   5   8
ATOM      8  C   UNL A   1      30.358  25.437  24.398  1.00  0.00     0.039 A 
ATOM      9  C   UNL A   1      32.242  23.494  25.229  1.00  0.00    -0.025 A 
ATOM     10  C   UNL A   1      32.116  23.858  23.872  1.00  0.00     0.006 A 
ATOM     11  C   UNL A   1      31.236  23.961  26.083  1.00  0.00     0.006 A 
ATOM     12  C   UNL A   1      31.205  24.847  23.462  1.00  0.00     0.014 A 
ATOM     13  C   UNL A   1      30.282  24.888  25.669  1.00  0.00     0.014 A 
BRANCH   9  14
ATOM     14  C   UNL A   1      33.409  22.614  25.726  1.00  0.00     0.114 C 
ATOM     15  C   UNL A   1      33.993  18.962  24.650  1.00  0.00    -0.022 A 
ATOM     16  C   UNL A   1      35.088  18.099  24.401  1.00  0.00     0.006 A 
ATOM     17  C   UNL A   1      34.252  20.307  25.010  1.00  0.00     0.042 A 
ATOM     18  C   UNL A   1      36.403  18.515  24.562  1.00  0.00     0.001 A 
ATOM     19  C   UNL A   1      35.597  20.693  25.232  1.00  0.00    -0.017 A 
ATOM     20  N   UNL A   1      33.225  21.232  25.206  1.00  0.00    -0.377 N 
ATOM     21  C   UNL A   1      36.656  19.802  25.004  1.00  0.00     0.006 A 
ATOM     22  C   UNL A   1      35.838  22.038  25.844  1.00  0.00     0.049 C 
ATOM     23  H   UNL A   1      32.309  20.948  24.982  1.00  0.00     0.161 HD
ATOM     24  C   UNL A   1      34.828  23.069  25.315  1.00  0.00     0.031 C 
ATOM     25  C   UNL A   1      37.129  22.769  25.617  1.00  0.00    -0.023 C 
ATOM     26  C   UNL A   1      35.450  24.379  25.827  1.00  0.00     0.034 C 
ATOM     27  C   UNL A   1      36.912  24.089  25.667  1.00  0.00    -0.030 C 
BRANCH  15  28
ATOM     28  C   UNL A   1      32.619  18.311  24.500  1.00  0.00     0.015 C 
ATOM     29  C   UNL A   1      32.130  18.055  23.072  1.00  0.00     0.012 C 
ATOM     30  C   UNL A   1      32.515  17.053  25.361  1.00  0.00     0.012 C 
ENDBRANCH  15  28
ENDBRANCH   9  14
ENDBRANCH   5   8
ENDBRANCH   3   4
ENDBRANCH   2   3
ENDBRANCH   1   2
BRANCH   1  31
ATOM     31  C   UNL A   1      31.649  30.761  25.996  1.00  0.00     0.002 C 
BRANCH  31  32
ATOM     32  C   UNL A   1      31.371  32.075  26.728  1.00  0.00     0.021 C 
BRANCH  32  33
ATOM     33  C   UNL A   1      32.589  32.824  27.259  1.00  0.00     0.116 C 
BRANCH  33  34
ATOM     34  N   UNL A   1      32.300  34.185  27.676  1.00  0.00    -0.352 N 
ATOM     35  C   UNL A   1      32.958  34.995  28.577  1.00  0.00     0.251 C 
ATOM     36  H   UNL A   1      31.513  34.593  27.250  1.00  0.00     0.163 HD
ATOM     37  O   UNL A   1      32.500  36.091  28.865  1.00  0.00    -0.269 OA
BRANCH  35  38
ATOM     38  C   UNL A   1      34.202  34.522  29.232  1.00  0.00     0.039 A 
ATOM     39  C   UNL A   1      35.445  34.663  28.615  1.00  0.00     0.014 A 
ATOM     40  C   UNL A   1      34.113  33.917  30.491  1.00  0.00     0.014 A 
ATOM     41  C   UNL A   1      36.563  34.042  29.165  1.00  0.00     0.010 A 
ATOM     42  C   UNL A   1      35.256  33.370  31.085  1.00  0.00     0.010 A 
ATOM     43  C   UNL A   1      36.481  33.378  30.401  1.00  0.00    -0.014 A 
BRANCH  43  44
ATOM     44  C   UNL A   1      37.685  32.695  30.945  1.00  0.00     0.031 A 
ATOM     45  C   UNL A   1      38.316  33.149  32.236  1.00  0.00     0.074 A 
ATOM     46  C   UNL A   1      38.181  31.619  30.301  1.00  0.00     0.049 A 
ATOM     47  N   UNL A   1      39.341  32.645  32.877  1.00  0.00    -0.248 NA
ATOM     48  C   UNL A   1      37.722  34.324  32.892  1.00  0.00     0.031 C 
ATOM     49  C   UNL A   1      37.664  31.079  29.043  1.00  0.00     0.029 A 
ATOM     50  N   UNL A   1      39.212  30.777  30.627  1.00  0.00    -0.354 N 
ATOM     51  C   UNL A   1      39.524  33.446  33.998  1.00  0.00     0.074 A 
ATOM     52  C   UNL A   1      38.525  34.492  33.932  1.00  0.00     0.031 C 
ATOM     53  C   UNL A   1      38.347  29.967  28.730  1.00  0.00     0.029 A 
ATOM     54  C   UNL A   1      39.385  29.750  29.731  1.00  0.00     0.049 A 
ATOM     55  H   UNL A   1      39.774  30.894  31.426  1.00  0.00     0.167 HD
ATOM     56  C   UNL A   1      40.431  33.317  34.999  1.00  0.00     0.037 A 
ATOM     57  C   UNL A   1      40.287  28.752  29.708  1.00  0.00     0.037 A 
ATOM     58  C   UNL A   1      41.418  32.271  35.073  1.00  0.00     0.049 A 
ATOM     59  C   UNL A   1      41.308  28.660  30.805  1.00  0.00     0.074 A 
ATOM     60  C   UNL A   1      42.361  32.040  36.060  1.00  0.00     0.029 A 
ATOM     61  N   UNL A   1      41.595  31.283  34.116  1.00  0.00    -0.354 N 
ATOM     62  N   UNL A   1      41.447  29.408  31.872  1.00  0.00    -0.248 NA
ATOM     63  C   UNL A   1      42.303  27.585  30.689  1.00  0.00     0.031 C 
ATOM     64  C   UNL A   1      43.136  30.939  35.680  1.00  0.00     0.029 A 
ATOM     65  C   UNL A   1      42.648  30.455  34.478  1.00  0.00     0.049 A 
ATOM     66  H   UNL A   1      41.055  31.183  33.299  1.00  0.00     0.167 HD
ATOM     67  C   UNL A   1      42.536  28.890  32.559  1.00  0.00     0.074 A 
ATOM     68  C   UNL A   1      43.000  27.744  31.805  1.00  0.00     0.031 C 
ATOM     69  C   UNL A   1      43.105  29.325  33.710  1.00  0.00     0.037 A 
BRANCH  56  70
ATOM     70  C   UNL A   1      40.406  34.349  36.091  1.00  0.00     0.057 A 
ATOM     71  C   UNL A   1      39.688  34.121  37.272  1.00  0.00     0.134 A 
ATOM     72  C   UNL A   1      41.067  35.578  35.965  1.00  0.00     0.134 A 
ATOM     73  F   UNL A   1      39.027  32.969  37.456  1.00  0.00    -0.206 F 
ATOM     74  C   UNL A   1      39.629  35.077  38.288  1.00  0.00     0.040 A 
ATOM     75  C   UNL A   1      41.036  36.532  36.984  1.00  0.00     0.040 A 
ATOM     76  F   UNL A   1      41.781  35.856  34.864  1.00  0.00    -0.206 F 
ATOM     77  C   UNL A   1      40.311  36.285  38.148  1.00  0.00     0.006 A 
ENDBRANCH  56  70
BRANCH  57  78
ATOM     78  C   UNL A   1      40.277  27.764  28.600  1.00  0.00     0.057 A 
ATOM     79  C   UNL A   1      40.972  28.001  27.408  1.00  0.00     0.134 A 
ATOM     80  C   UNL A   1      39.592  26.550  28.718  1.00  0.00     0.134 A 
ATOM     81  F   UNL A   1      41.644  29.147  27.233  1.00  0.00    -0.206 F 
ATOM     82  C   UNL A   1      40.979  27.069  26.369  1.00  0.00     0.040 A 
ATOM     83  C   UNL A   1      39.614  25.597  27.699  1.00  0.00     0.040 A 
ATOM     84  F   UNL A   1      38.926  26.256  29.846  1.00  0.00    -0.206 F 
ATOM     85  C   UNL A   1      40.306  25.858  26.518  1.00  0.00     0.006 A 
ENDBRANCH  57  78
BRANCH  69  86
ATOM     86  C   UNL A   1      44.281  28.543  34.219  1.00  0.00     0.057 A 
ATOM     87  C   UNL A   1      45.587  28.902  33.867  1.00  0.00     0.134 A 
ATOM     88  C   UNL A   1      44.119  27.438  35.066  1.00  0.00     0.134 A 
ATOM     89  F   UNL A   1      45.811  29.946  33.054  1.00  0.00    -0.206 F 
ATOM     90  C   UNL A   1      46.692  28.195  34.343  1.00  0.00     0.040 A 
ATOM     91  C   UNL A   1      45.217  26.740  35.571  1.00  0.00     0.040 A 
ATOM     92  F   UNL A   1      42.894  27.052  35.455  1.00  0.00    -0.206 F 
ATOM     93  C   UNL A   1      46.508  27.117  35.207  1.00  0.00     0.006 A 
ENDBRANCH  69  86
ENDBRANCH  43  44
ENDBRANCH  35  38
ENDBRANCH  33  34
ENDBRANCH  32  33
ENDBRANCH  31  32
ENDBRANCH   1  31
TORSDOF 15
ENDMDL
MODEL 2
REMARK VINA RESULT:     -12.8      3.029      4.323
REMARK SMILES CC(C)c1cccc2c1N[C@H](c1ccc(C(=O)NCCCCCCNC(=O)c3ccc(-c4c5nc(c(-c6c(F)cccc6F)c6ccc([nH]6)c(-c6c(F)cccc6F)c6nc(c(-c7c(F)cccc7F)c7ccc4[nH]7)C=C6)C=C5)cc3)cc1)[C@H]1CC=C[C@H]21
REMARK SMILES IDX 21 1 20 2 19 3 18 4 16 5 17 6 15 8 12 9 13 10 83 11 14 12
REMARK SMILES IDX 82 13 11 14 4 15 5 16 9 17 6 18 8 19 10 20 7 21 88 22 84 24
REMARK SMILES IDX 87 25 85 26 86 27 2 28 1 29 3 30 22 31 23 32 24 33 25 34
REMARK SMILES IDX 26 35 27 37 28 38 29 39 81 40 30 41 80 42 31 43 32 44 33 45
REMARK SMILES IDX 74 46 34 47 79 48 73 49 75 50 35 51 78 52 72 53 71 54 36 56
REMARK SMILES IDX 62 57 45 58 61 59 46 60 49 61 60 62 76 63 47 64 48 65 59 67
REMARK SMILES IDX 77 68 50 69 37 70 38 71 43 72 39 73 40 74 42 75 44 76 41 77
REMARK SMILES IDX 63 78 64 79 69 80 65 81 66 82 68 83 70 84 67 85 51 86 52 87
REMARK SMILES IDX 57 88 53 89 54 90 56 91 58 92 55 93
REMARK H PARENT 18 7 10 23 25 36 75 55 49 66
REMARK Flexibility Score: inf
ROOT
ATOM      1  C   UNL A   1      33.128  28.962  23.916  1.00  0.00     0.002 C 
ENDROOT
BRANCH   1   2
ATOM      2  C   UNL A   1      32.445  28.669  22.581  1.00  0.00     0.021 C 
BRANCH   2   3
ATOM      3  C   UNL A   1      31.705  27.341  22.472  1.00  0.00     0.116 C 
BRANCH   3   4
ATOM      4  N   UNL A   1      30.297  27.382  22.837  1.00  0.00    -0.352 N 
ATOM      5  C   UNL A   1      29.596  26.529  23.672  1.00  0.00     0.251 C 
ATOM      6  O   UNL A   1      28.390  26.682  23.843  1.00  0.00    -0.269 OA
ATOM      7  H   UNL A   1      29.773  28.113  22.437  1.00  0.00     0.163 HD
BRANCH   5   8
ATOM      8  C   UNL A   1      30.295  25.384  24.310  1.00  0.00     0.039 A 
ATOM      9  C   UNL A   1      32.168  23.528  25.341  1.00  0.00    -0.025 A 
ATOM     10  C   UNL A   1      31.556  23.329  24.086  1.00  0.00     0.006 A 
ATOM     11  C   UNL A   1      31.622  24.545  26.133  1.00  0.00     0.006 A 
ATOM     12  C   UNL A   1      30.652  24.266  23.557  1.00  0.00     0.014 A 
ATOM     13  C   UNL A   1      30.671  25.438  25.643  1.00  0.00     0.014 A 
BRANCH   9  14
ATOM     14  C   UNL A   1      33.351  22.654  25.812  1.00  0.00     0.114 C 
ATOM     15  C   UNL A   1      33.969  19.028  24.669  1.00  0.00    -0.022 A 
ATOM     16  C   UNL A   1      35.073  18.183  24.396  1.00  0.00     0.006 A 
ATOM     17  C   UNL A   1      34.215  20.370  25.050  1.00  0.00     0.042 A 
ATOM     18  C   UNL A   1      36.383  18.612  24.551  1.00  0.00     0.001 A 
ATOM     19  C   UNL A   1      35.557  20.769  25.265  1.00  0.00    -0.017 A 
ATOM     20  N   UNL A   1      33.179  21.279  25.271  1.00  0.00    -0.377 N 
ATOM     21  C   UNL A   1      36.625  19.895  25.012  1.00  0.00     0.006 A 
ATOM     22  C   UNL A   1      35.787  22.106  25.897  1.00  0.00     0.049 C 
ATOM     23  H   UNL A   1      32.265  20.987  25.051  1.00  0.00     0.161 HD
ATOM     24  C   UNL A   1      34.760  23.134  25.395  1.00  0.00     0.031 C 
ATOM     25  C   UNL A   1      37.067  22.857  25.670  1.00  0.00    -0.023 C 
ATOM     26  C   UNL A   1      35.370  24.443  25.923  1.00  0.00     0.034 C 
ATOM     27  C   UNL A   1      36.835  24.173  25.744  1.00  0.00    -0.030 C 
BRANCH  15  28
ATOM     28  C   UNL A   1      32.602  18.362  24.522  1.00  0.00     0.015 C 
ATOM     29  C   UNL A   1      32.128  18.072  23.096  1.00  0.00     0.012 C 
ATOM     30  C   UNL A   1      32.501  17.122  25.409  1.00  0.00     0.012 C 
ENDBRANCH  15  28
ENDBRANCH   9  14
ENDBRANCH   5   8
ENDBRANCH   3   4
ENDBRANCH   2   3
ENDBRANCH   1   2
BRANCH   1  31
ATOM     31  C   UNL A   1      33.407  27.762  24.826  1.00  0.00     0.002 C 
BRANCH  31  32
ATOM     32  C   UNL A   1      34.217  28.031  26.095  1.00  0.00     0.021 C 
BRANCH  32  33
ATOM     33  C   UNL A   1      33.419  28.398  27.342  1.00  0.00     0.116 C 
BRANCH  33  34
ATOM     34  N   UNL A   1      33.433  29.818  27.647  1.00  0.00    -0.352 N 
ATOM     35  C   UNL A   1      34.460  30.618  28.099  1.00  0.00     0.251 C 
ATOM     36  H   UNL A   1      32.576  30.282  27.509  1.00  0.00     0.163 HD
ATOM     37  O   UNL A   1      34.246  31.786  28.389  1.00  0.00    -0.269 OA
BRANCH  35  38
ATOM     38  C   UNL A   1      35.819  30.053  28.278  1.00  0.00     0.039 A 
ATOM     39  C   UNL A   1      36.199  29.443  29.474  1.00  0.00     0.014 A 
ATOM     40  C   UNL A   1      36.734  30.149  27.223  1.00  0.00     0.014 A 
ATOM     41  C   UNL A   1      37.532  29.097  29.679  1.00  0.00     0.010 A 
ATOM     42  C   UNL A   1      38.053  29.718  27.402  1.00  0.00     0.010 A 
ATOM     43  C   UNL A   1      38.478  29.240  28.650  1.00  0.00    -0.014 A 
BRANCH  43  44
ATOM     44  C   UNL A   1      39.901  28.893  28.913  1.00  0.00     0.031 A 
ATOM     45  C   UNL A   1      40.793  29.824  29.693  1.00  0.00     0.074 A 
ATOM     46  C   UNL A   1      40.378  27.704  28.495  1.00  0.00     0.049 A 
ATOM     47  N   UNL A   1      42.043  29.664  30.050  1.00  0.00    -0.248 NA
ATOM     48  C   UNL A   1      40.208  31.102  30.126  1.00  0.00     0.031 C 
ATOM     49  C   UNL A   1      39.620  26.713  27.730  1.00  0.00     0.029 A 
ATOM     50  N   UNL A   1      41.605  27.118  28.675  1.00  0.00    -0.354 N 
ATOM     51  C   UNL A   1      42.398  30.822  30.733  1.00  0.00     0.074 A 
ATOM     52  C   UNL A   1      41.241  31.692  30.711  1.00  0.00     0.031 C 
ATOM     53  C   UNL A   1      40.379  25.622  27.550  1.00  0.00     0.029 A 
ATOM     54  C   UNL A   1      41.694  25.858  28.134  1.00  0.00     0.049 A 
ATOM     55  H   UNL A   1      42.349  27.556  29.147  1.00  0.00     0.167 HD
ATOM     56  C   UNL A   1      43.573  31.129  31.336  1.00  0.00     0.037 A 
ATOM     57  C   UNL A   1      42.725  24.994  28.098  1.00  0.00     0.037 A 
ATOM     58  C   UNL A   1      44.722  30.261  31.370  1.00  0.00     0.049 A 
ATOM     59  C   UNL A   1      44.029  25.379  28.734  1.00  0.00     0.074 A 
ATOM     60  C   UNL A   1      45.947  30.471  31.980  1.00  0.00     0.029 A 
ATOM     61  N   UNL A   1      44.790  29.017  30.762  1.00  0.00    -0.354 N 
ATOM     62  N   UNL A   1      44.337  26.465  29.401  1.00  0.00    -0.248 NA
ATOM     63  C   UNL A   1      45.132  24.417  28.606  1.00  0.00     0.031 C 
ATOM     64  C   UNL A   1      46.770  29.374  31.704  1.00  0.00     0.029 A 
ATOM     65  C   UNL A   1      46.044  28.458  30.961  1.00  0.00     0.049 A 
ATOM     66  H   UNL A   1      44.057  28.591  30.262  1.00  0.00     0.167 HD
ATOM     67  C   UNL A   1      45.663  26.313  29.781  1.00  0.00     0.074 A 
ATOM     68  C   UNL A   1      46.091  25.017  29.297  1.00  0.00     0.031 C 
ATOM     69  C   UNL A   1      46.459  27.172  30.464  1.00  0.00     0.037 A 
BRANCH  56  70
ATOM     70  C   UNL A   1      43.680  32.475  31.997  1.00  0.00     0.057 A 
ATOM     71  C   UNL A   1      43.277  32.651  33.327  1.00  0.00     0.134 A 
ATOM     72  C   UNL A   1      44.153  33.602  31.312  1.00  0.00     0.134 A 
ATOM     73  F   UNL A   1      42.807  31.616  34.039  1.00  0.00    -0.206 F 
ATOM     74  C   UNL A   1      43.342  33.898  33.952  1.00  0.00     0.040 A 
ATOM     75  C   UNL A   1      44.246  34.848  31.933  1.00  0.00     0.040 A 
ATOM     76  F   UNL A   1      44.566  33.500  30.040  1.00  0.00    -0.206 F 
ATOM     77  C   UNL A   1      43.835  35.001  33.256  1.00  0.00     0.006 A 
ENDBRANCH  56  70
BRANCH  57  78
ATOM     78  C   UNL A   1      42.573  23.680  27.422  1.00  0.00     0.057 A 
ATOM     79  C   UNL A   1      42.833  23.531  26.054  1.00  0.00     0.134 A 
ATOM     80  C   UNL A   1      42.186  22.540  28.134  1.00  0.00     0.134 A 
ATOM     81  F   UNL A   1      43.204  24.588  25.317  1.00  0.00    -0.206 F 
ATOM     82  C   UNL A   1      42.707  22.297  25.417  1.00  0.00     0.040 A 
ATOM     83  C   UNL A   1      42.083  21.293  27.515  1.00  0.00     0.040 A 
ATOM     84  F   UNL A   1      41.944  22.616  29.452  1.00  0.00    -0.206 F 
ATOM     85  C   UNL A   1      42.340  21.171  26.151  1.00  0.00     0.006 A 
ENDBRANCH  57  78
BRANCH  69  86
ATOM     86  C   UNL A   1      47.864  26.718  30.736  1.00  0.00     0.057 A 
ATOM     87  C   UNL A   1      48.899  27.024  29.846  1.00  0.00     0.134 A 
ATOM     88  C   UNL A   1      48.192  25.987  31.885  1.00  0.00     0.134 A 
ATOM     89  F   UNL A   1      48.652  27.716  28.723  1.00  0.00    -0.206 F 
ATOM     90  C   UNL A   1      50.214  26.623  30.091  1.00  0.00     0.040 A 
ATOM     91  C   UNL A   1      49.507  25.604  32.155  1.00  0.00     0.040 A 
ATOM     92  F   UNL A   1      47.248  25.676  32.788  1.00  0.00    -0.206 F 
ATOM     93  C   UNL A   1      50.522  25.921  31.254  1.00  0.00     0.006 A 
ENDBRANCH  69  86
ENDBRANCH  43  44
ENDBRANCH  35  38
ENDBRANCH  33  34
ENDBRANCH  32  33
ENDBRANCH  31  32
ENDBRANCH   1  31
TORSDOF 15
ENDMDL
MODEL 3
REMARK VINA RESULT:     -12.4      1.062      6.053
REMARK SMILES CC(C)c1cccc2c1N[C@H](c1ccc(C(=O)NCCCCCCNC(=O)c3ccc(-c4c5nc(c(-c6c(F)cccc6F)c6ccc([nH]6)c(-c6c(F)cccc6F)c6nc(c(-c7c(F)cccc7F)c7ccc4[nH]7)C=C6)C=C5)cc3)cc1)[C@H]1CC=C[C@H]21
REMARK SMILES IDX 21 1 20 2 19 3 18 4 16 5 17 6 15 8 12 9 13 10 83 11 14 12
REMARK SMILES IDX 82 13 11 14 4 15 5 16 9 17 6 18 8 19 10 20 7 21 88 22 84 24
REMARK SMILES IDX 87 25 85 26 86 27 2 28 1 29 3 30 22 31 23 32 24 33 25 34
REMARK SMILES IDX 26 35 27 37 28 38 29 39 81 40 30 41 80 42 31 43 32 44 33 45
REMARK SMILES IDX 74 46 34 47 79 48 73 49 75 50 35 51 78 52 72 53 71 54 36 56
REMARK SMILES IDX 62 57 45 58 61 59 46 60 49 61 60 62 76 63 47 64 48 65 59 67
REMARK SMILES IDX 77 68 50 69 37 70 38 71 43 72 39 73 40 74 42 75 44 76 41 77
REMARK SMILES IDX 63 78 64 79 69 80 65 81 66 82 68 83 70 84 67 85 51 86 52 87
REMARK SMILES IDX 57 88 53 89 54 90 56 91 58 92 55 93
REMARK H PARENT 18 7 10 23 25 36 75 55 49 66
REMARK Flexibility Score: inf
ROOT
ATOM      1  C   UNL A   1      31.362  29.576  24.961  1.00  0.00     0.002 C 
ENDROOT
BRANCH   1   2
ATOM      2  C   UNL A   1      32.108  29.032  23.744  1.00  0.00     0.021 C 
BRANCH   2   3
ATOM      3  C   UNL A   1      31.572  27.741  23.138  1.00  0.00     0.116 C 
BRANCH   3   4
ATOM      4  N   UNL A   1      30.127  27.573  23.211  1.00  0.00    -0.352 N 
ATOM      5  C   UNL A   1      29.406  26.521  23.750  1.00  0.00     0.251 C 
ATOM      6  O   UNL A   1      28.180  26.518  23.693  1.00  0.00    -0.269 OA
ATOM      7  H   UNL A   1      29.592  28.304  22.827  1.00  0.00     0.163 HD
BRANCH   5   8
ATOM      8  C   UNL A   1      30.124  25.362  24.339  1.00  0.00     0.039 A 
ATOM      9  C   UNL A   1      32.025  23.512  25.329  1.00  0.00    -0.025 A 
ATOM     10  C   UNL A   1      31.483  23.381  24.034  1.00  0.00     0.006 A 
ATOM     11  C   UNL A   1      31.398  24.446  26.163  1.00  0.00     0.006 A 
ATOM     12  C   UNL A   1      30.564  24.318  23.527  1.00  0.00     0.014 A 
ATOM     13  C   UNL A   1      30.433  25.333  25.690  1.00  0.00     0.014 A 
BRANCH   9  14
ATOM     14  C   UNL A   1      33.221  22.655  25.796  1.00  0.00     0.114 C 
ATOM     15  C   UNL A   1      33.866  19.026  24.678  1.00  0.00    -0.022 A 
ATOM     16  C   UNL A   1      34.976  18.190  24.402  1.00  0.00     0.006 A 
ATOM     17  C   UNL A   1      34.101  20.374  25.045  1.00  0.00     0.042 A 
ATOM     18  C   UNL A   1      36.283  18.634  24.541  1.00  0.00     0.001 A 
ATOM     19  C   UNL A   1      35.441  20.788  25.244  1.00  0.00    -0.017 A 
ATOM     20  N   UNL A   1      33.058  21.274  25.268  1.00  0.00    -0.377 N 
ATOM     21  C   UNL A   1      36.516  19.923  24.988  1.00  0.00     0.006 A 
ATOM     22  C   UNL A   1      35.663  22.133  25.863  1.00  0.00     0.049 C 
ATOM     23  H   UNL A   1      32.145  20.971  25.060  1.00  0.00     0.161 HD
ATOM     24  C   UNL A   1      34.621  23.145  25.362  1.00  0.00     0.031 C 
ATOM     25  C   UNL A   1      36.933  22.895  25.617  1.00  0.00    -0.023 C 
ATOM     26  C   UNL A   1      35.222  24.465  25.874  1.00  0.00     0.034 C 
ATOM     27  C   UNL A   1      36.688  24.209  25.682  1.00  0.00    -0.030 C 
BRANCH  15  28
ATOM     28  C   UNL A   1      32.505  18.345  24.549  1.00  0.00     0.015 C 
ATOM     29  C   UNL A   1      32.010  18.058  23.129  1.00  0.00     0.012 C 
ATOM     30  C   UNL A   1      32.433  17.098  25.429  1.00  0.00     0.012 C 
ENDBRANCH  15  28
ENDBRANCH   9  14
ENDBRANCH   5   8
ENDBRANCH   3   4
ENDBRANCH   2   3
ENDBRANCH   1   2
BRANCH   1  31
ATOM     31  C   UNL A   1      32.188  29.813  26.228  1.00  0.00     0.002 C 
BRANCH  31  32
ATOM     32  C   UNL A   1      31.911  31.102  27.003  1.00  0.00     0.021 C 
BRANCH  32  33
ATOM     33  C   UNL A   1      33.005  32.164  26.964  1.00  0.00     0.116 C 
BRANCH  33  34
ATOM     34  N   UNL A   1      32.587  33.451  27.492  1.00  0.00    -0.352 N 
ATOM     35  C   UNL A   1      33.162  34.239  28.466  1.00  0.00     0.251 C 
ATOM     36  H   UNL A   1      31.767  33.819  27.093  1.00  0.00     0.163 HD
ATOM     37  O   UNL A   1      32.602  35.258  28.841  1.00  0.00    -0.269 OA
BRANCH  35  38
ATOM     38  C   UNL A   1      34.442  33.830  29.095  1.00  0.00     0.039 A 
ATOM     39  C   UNL A   1      35.669  34.222  28.560  1.00  0.00     0.014 A 
ATOM     40  C   UNL A   1      34.405  33.027  30.240  1.00  0.00     0.014 A 
ATOM     41  C   UNL A   1      36.847  33.668  29.056  1.00  0.00     0.010 A 
ATOM     42  C   UNL A   1      35.597  32.543  30.792  1.00  0.00     0.010 A 
ATOM     43  C   UNL A   1      36.825  32.814  30.171  1.00  0.00    -0.014 A 
BRANCH  43  44
ATOM     44  C   UNL A   1      38.096  32.211  30.655  1.00  0.00     0.031 A 
ATOM     45  C   UNL A   1      38.640  30.950  30.035  1.00  0.00     0.074 A 
ATOM     46  C   UNL A   1      38.797  32.837  31.621  1.00  0.00     0.049 A 
ATOM     47  N   UNL A   1      39.752  30.311  30.302  1.00  0.00    -0.248 NA
ATOM     48  C   UNL A   1      37.831  30.322  28.980  1.00  0.00     0.031 C 
ATOM     49  C   UNL A   1      38.381  34.063  32.304  1.00  0.00     0.029 A 
ATOM     50  N   UNL A   1      40.014  32.542  32.179  1.00  0.00    -0.354 N 
ATOM     51  C   UNL A   1      39.768  29.202  29.464  1.00  0.00     0.074 A 
ATOM     52  C   UNL A   1      38.537  29.236  28.702  1.00  0.00     0.031 C 
ATOM     53  C   UNL A   1      39.349  34.443  33.152  1.00  0.00     0.029 A 
ATOM     54  C   UNL A   1      40.424  33.459  33.116  1.00  0.00     0.049 A 
ATOM     55  H   UNL A   1      40.544  31.750  31.932  1.00  0.00     0.167 HD
ATOM     56  C   UNL A   1      40.724  28.249  29.329  1.00  0.00     0.037 A 
ATOM     57  C   UNL A   1      41.536  33.498  33.873  1.00  0.00     0.037 A 
ATOM     58  C   UNL A   1      41.954  28.219  30.078  1.00  0.00     0.049 A 
ATOM     59  C   UNL A   1      42.557  32.405  33.735  1.00  0.00     0.074 A 
ATOM     60  C   UNL A   1      42.997  27.312  29.992  1.00  0.00     0.029 A 
ATOM     61  N   UNL A   1      42.306  29.137  31.057  1.00  0.00    -0.354 N 
ATOM     62  N   UNL A   1      42.569  31.382  32.917  1.00  0.00    -0.248 NA
ATOM     63  C   UNL A   1      43.717  32.473  34.634  1.00  0.00     0.031 C 
ATOM     64  C   UNL A   1      43.959  27.655  30.948  1.00  0.00     0.029 A 
ATOM     65  C   UNL A   1      43.538  28.803  31.599  1.00  0.00     0.049 A 
ATOM     66  H   UNL A   1      41.762  29.911  31.328  1.00  0.00     0.167 HD
ATOM     67  C   UNL A   1      43.740  30.689  33.194  1.00  0.00     0.074 A 
ATOM     68  C   UNL A   1      44.427  31.428  34.234  1.00  0.00     0.031 C 
ATOM     69  C   UNL A   1      44.204  29.541  32.642  1.00  0.00     0.037 A 
BRANCH  56  70
ATOM     70  C   UNL A   1      40.466  27.146  28.342  1.00  0.00     0.057 A 
ATOM     71  C   UNL A   1      39.611  26.085  28.665  1.00  0.00     0.134 A 
ATOM     72  C   UNL A   1      41.084  27.116  27.085  1.00  0.00     0.134 A 
ATOM     73  F   UNL A   1      38.991  26.046  29.854  1.00  0.00    -0.206 F 
ATOM     74  C   UNL A   1      39.378  25.036  27.774  1.00  0.00     0.040 A 
ATOM     75  C   UNL A   1      40.841  26.086  26.176  1.00  0.00     0.040 A 
ATOM     76  F   UNL A   1      41.906  28.107  26.708  1.00  0.00    -0.206 F 
ATOM     77  C   UNL A   1      39.989  25.038  26.521  1.00  0.00     0.006 A 
ENDBRANCH  56  70
BRANCH  57  78
ATOM     78  C   UNL A   1      41.739  34.604  34.843  1.00  0.00     0.057 A 
ATOM     79  C   UNL A   1      41.286  34.505  36.164  1.00  0.00     0.134 A 
ATOM     80  C   UNL A   1      42.411  35.774  34.476  1.00  0.00     0.134 A 
ATOM     81  F   UNL A   1      40.631  33.410  36.575  1.00  0.00    -0.206 F 
ATOM     82  C   UNL A   1      41.487  35.535  37.084  1.00  0.00     0.040 A 
ATOM     83  C   UNL A   1      42.645  36.801  35.393  1.00  0.00     0.040 A 
ATOM     84  F   UNL A   1      42.888  35.918  33.230  1.00  0.00    -0.206 F 
ATOM     85  C   UNL A   1      42.178  36.683  36.701  1.00  0.00     0.006 A 
ENDBRANCH  57  78
BRANCH  69  86
ATOM     86  C   UNL A   1      45.523  29.034  33.147  1.00  0.00     0.057 A 
ATOM     87  C   UNL A   1      45.580  28.132  34.216  1.00  0.00     0.134 A 
ATOM     88  C   UNL A   1      46.736  29.433  32.571  1.00  0.00     0.134 A 
ATOM     89  F   UNL A   1      44.456  27.715  34.818  1.00  0.00    -0.206 F 
ATOM     90  C   UNL A   1      46.797  27.639  34.690  1.00  0.00     0.040 A 
ATOM     91  C   UNL A   1      47.957  28.926  33.017  1.00  0.00     0.040 A 
ATOM     92  F   UNL A   1      46.748  30.283  31.531  1.00  0.00    -0.206 F 
ATOM     93  C   UNL A   1      47.990  28.028  34.082  1.00  0.00     0.006 A 
ENDBRANCH  69  86
ENDBRANCH  43  44
ENDBRANCH  35  38
ENDBRANCH  33  34
ENDBRANCH  32  33
ENDBRANCH  31  32
ENDBRANCH   1  31
TORSDOF 15
ENDMDL
