MODEL 1
REMARK VINA RESULT:     -11.9      0.000      0.000
REMARK SMILES Cc1ccc(NC(=O)NC2(C(=O)NCCCCCCNC(=O)c3ccc(-c4c5nc(c(-c6c(F)cccc6F)c6ccc([nH]6)c(-c6c(F)cccc6F)c6nc(c(-c7c(F)cccc7F)c7ccc4[nH]7)C=C6)C=C5)cc3)CC2)c(C)n1
REMARK SMILES IDX 16 1 15 2 14 3 13 4 11 5 12 6 10 8 77 9 78 10 9 11 6 12 7 13
REMARK SMILES IDX 8 15 5 17 1 18 2 19 3 20 81 21 4 22 79 23 80 24 17 25 18 26
REMARK SMILES IDX 19 27 20 28 21 29 22 31 23 32 24 33 76 34 25 35 75 36 26 37
REMARK SMILES IDX 27 38 28 39 69 40 29 41 74 42 68 43 70 44 30 45 73 46 67 47
REMARK SMILES IDX 66 48 31 50 57 51 40 52 56 53 41 54 44 55 55 56 71 57 42 58
REMARK SMILES IDX 43 59 54 61 72 62 45 63 32 64 33 65 38 66 34 67 35 68 37 69
REMARK SMILES IDX 39 70 36 71 58 72 59 73 64 74 60 75 61 76 63 77 65 78 62 79
REMARK SMILES IDX 46 80 47 81 52 82 48 83 49 84 51 85 53 86 50 87
REMARK H PARENT 13 7 6 14 9 16 20 30 70 49 44 60
REMARK Flexibility Score: inf
ROOT
ATOM      1  C   UNL A   1      31.696  29.164  27.073  1.00  0.00     0.002 C 
ENDROOT
BRANCH   1   2
ATOM      2  C   UNL A   1      33.018  28.400  27.244  1.00  0.00     0.021 C 
BRANCH   2   3
ATOM      3  C   UNL A   1      33.372  27.372  26.139  1.00  0.00     0.116 C 
BRANCH   3   4
ATOM      4  N   UNL A   1      32.387  26.283  26.040  1.00  0.00    -0.354 N 
ATOM      5  C   UNL A   1      32.489  25.219  25.152  1.00  0.00     0.245 C 
ATOM      6  O   UNL A   1      33.573  24.846  24.690  1.00  0.00    -0.272 OA
ATOM      7  H   UNL A   1      31.608  26.310  26.641  1.00  0.00     0.163 HD
BRANCH   5   8
ATOM      8  C   UNL A   1      31.167  24.519  24.703  1.00  0.00     0.120 C 
ATOM      9  C   UNL A   1      31.352  23.680  23.425  1.00  0.00     0.041 C 
ATOM     10  C   UNL A   1      30.257  24.653  23.447  1.00  0.00     0.041 C 
BRANCH   8  11
ATOM     11  N   UNL A   1      30.320  24.213  25.781  1.00  0.00    -0.323 N 
ATOM     12  N   UNL A   1      31.450  22.252  26.552  1.00  0.00    -0.306 N 
ATOM     13  C   UNL A   1      30.490  23.190  26.613  1.00  0.00     0.320 C 
ATOM     14  H   UNL A   1      31.219  21.629  27.280  1.00  0.00     0.171 HD
ATOM     15  O   UNL A   1      29.668  23.065  27.531  1.00  0.00    -0.248 OA
ATOM     16  H   UNL A   1      29.544  24.800  25.932  1.00  0.00     0.166 HD
BRANCH  12  17
ATOM     17  C   UNL A   1      32.643  21.683  25.975  1.00  0.00     0.064 A 
ATOM     18  C   UNL A   1      36.704  20.524  25.075  1.00  0.00     0.067 C 
ATOM     19  C   UNL A   1      35.351  21.002  25.458  1.00  0.00     0.038 A 
ATOM     20  C   UNL A   1      35.080  21.799  26.529  1.00  0.00     0.025 A 
ATOM     21  N   UNL A   1      34.366  20.551  24.688  1.00  0.00    -0.256 NA
ATOM     22  C   UNL A   1      33.747  22.135  26.762  1.00  0.00     0.030 A 
ATOM     23  C   UNL A   1      33.040  20.821  24.919  1.00  0.00     0.061 A 
ATOM     24  C   UNL A   1      32.408  19.973  23.868  1.00  0.00     0.069 C 
ENDBRANCH  12  17
ENDBRANCH   8  11
ENDBRANCH   5   8
ENDBRANCH   3   4
ENDBRANCH   2   3
ENDBRANCH   1   2
BRANCH   1  25
ATOM     25  C   UNL A   1      31.671  30.295  26.041  1.00  0.00     0.002 C 
BRANCH  25  26
ATOM     26  C   UNL A   1      31.501  31.725  26.572  1.00  0.00     0.021 C 
BRANCH  26  27
ATOM     27  C   UNL A   1      32.769  32.463  27.018  1.00  0.00     0.116 C 
BRANCH  27  28
ATOM     28  N   UNL A   1      32.515  33.810  27.515  1.00  0.00    -0.352 N 
ATOM     29  C   UNL A   1      33.109  34.531  28.523  1.00  0.00     0.251 C 
ATOM     30  H   UNL A   1      31.793  34.286  27.047  1.00  0.00     0.163 HD
ATOM     31  O   UNL A   1      32.622  35.608  28.866  1.00  0.00    -0.269 OA
BRANCH  29  32
ATOM     32  C   UNL A   1      34.316  34.033  29.221  1.00  0.00     0.039 A 
ATOM     33  C   UNL A   1      34.154  33.231  30.358  1.00  0.00     0.014 A 
ATOM     34  C   UNL A   1      35.600  34.384  28.799  1.00  0.00     0.014 A 
ATOM     35  C   UNL A   1      35.275  32.712  31.014  1.00  0.00     0.010 A 
ATOM     36  C   UNL A   1      36.716  33.818  29.418  1.00  0.00     0.010 A 
ATOM     37  C   UNL A   1      36.565  32.961  30.520  1.00  0.00    -0.014 A 
BRANCH  37  38
ATOM     38  C   UNL A   1      37.757  32.289  31.103  1.00  0.00     0.031 A 
ATOM     39  C   UNL A   1      38.460  31.185  30.361  1.00  0.00     0.074 A 
ATOM     40  C   UNL A   1      38.158  32.623  32.346  1.00  0.00     0.049 A 
ATOM     41  N   UNL A   1      39.456  30.431  30.753  1.00  0.00    -0.248 NA
ATOM     42  C   UNL A   1      37.966  30.877  29.011  1.00  0.00     0.031 C 
ATOM     43  C   UNL A   1      37.537  33.649  33.186  1.00  0.00     0.029 A 
ATOM     44  N   UNL A   1      39.172  32.126  33.127  1.00  0.00    -0.354 N 
ATOM     45  C   UNL A   1      39.704  29.554  29.704  1.00  0.00     0.074 A 
ATOM     46  C   UNL A   1      38.722  29.839  28.679  1.00  0.00     0.031 C 
ATOM     47  C   UNL A   1      38.191  33.717  34.355  1.00  0.00     0.029 A 
ATOM     48  C   UNL A   1      39.247  32.709  34.370  1.00  0.00     0.049 A 
ATOM     49  H   UNL A   1      39.788  31.420  32.827  1.00  0.00     0.167 HD
ATOM     50  C   UNL A   1      40.672  28.611  29.599  1.00  0.00     0.037 A 
ATOM     51  C   UNL A   1      40.058  32.451  35.413  1.00  0.00     0.037 A 
ATOM     52  C   UNL A   1      41.652  28.337  30.619  1.00  0.00     0.049 A 
ATOM     53  C   UNL A   1      41.095  31.369  35.286  1.00  0.00     0.074 A 
ATOM     54  C   UNL A   1      42.709  27.444  30.580  1.00  0.00     0.029 A 
ATOM     55  N   UNL A   1      41.689  28.945  31.865  1.00  0.00    -0.354 N 
ATOM     56  N   UNL A   1      41.364  30.598  34.260  1.00  0.00    -0.248 NA
ATOM     57  C   UNL A   1      41.938  31.117  36.464  1.00  0.00     0.031 C 
ATOM     58  C   UNL A   1      43.349  27.468  31.823  1.00  0.00     0.029 A 
ATOM     59  C   UNL A   1      42.727  28.417  32.618  1.00  0.00     0.049 A 
ATOM     60  H   UNL A   1      41.070  29.647  32.170  1.00  0.00     0.167 HD
ATOM     61  C   UNL A   1      42.418  29.787  34.660  1.00  0.00     0.074 A 
ATOM     62  C   UNL A   1      42.753  30.174  36.015  1.00  0.00     0.031 C 
ATOM     63  C   UNL A   1      43.048  28.808  33.968  1.00  0.00     0.037 A 
BRANCH  50  64
ATOM     64  C   UNL A   1      40.717  27.798  28.336  1.00  0.00     0.057 A 
ATOM     65  C   UNL A   1      41.458  28.208  27.218  1.00  0.00     0.134 A 
ATOM     66  C   UNL A   1      40.054  26.567  28.252  1.00  0.00     0.134 A 
ATOM     67  F   UNL A   1      42.112  29.380  27.229  1.00  0.00    -0.206 F 
ATOM     68  C   UNL A   1      41.514  27.438  26.056  1.00  0.00     0.040 A 
ATOM     69  C   UNL A   1      40.126  25.775  27.105  1.00  0.00     0.040 A 
ATOM     70  F   UNL A   1      39.336  26.108  29.287  1.00  0.00    -0.206 F 
ATOM     71  C   UNL A   1      40.852  26.213  26.000  1.00  0.00     0.006 A 
ENDBRANCH  50  64
BRANCH  51  72
ATOM     72  C   UNL A   1      39.926  33.230  36.671  1.00  0.00     0.057 A 
ATOM     73  C   UNL A   1      39.026  32.840  37.670  1.00  0.00     0.134 A 
ATOM     74  C   UNL A   1      40.686  34.382  36.903  1.00  0.00     0.134 A 
ATOM     75  F   UNL A   1      38.256  31.756  37.499  1.00  0.00    -0.206 F 
ATOM     76  C   UNL A   1      38.873  33.577  38.846  1.00  0.00     0.040 A 
ATOM     77  C   UNL A   1      40.564  35.114  38.087  1.00  0.00     0.040 A 
ATOM     78  F   UNL A   1      41.570  34.808  35.989  1.00  0.00    -0.206 F 
ATOM     79  C   UNL A   1      39.649  34.715  39.059  1.00  0.00     0.006 A 
ENDBRANCH  51  72
BRANCH  63  80
ATOM     80  C   UNL A   1      44.176  28.094  34.655  1.00  0.00     0.057 A 
ATOM     81  C   UNL A   1      45.488  28.582  34.621  1.00  0.00     0.134 A 
ATOM     82  C   UNL A   1      43.939  26.930  35.397  1.00  0.00     0.134 A 
ATOM     83  F   UNL A   1      45.785  29.685  33.915  1.00  0.00    -0.206 F 
ATOM     84  C   UNL A   1      46.527  27.930  35.287  1.00  0.00     0.040 A 
ATOM     85  C   UNL A   1      44.964  26.284  36.091  1.00  0.00     0.040 A 
ATOM     86  F   UNL A   1      42.704  26.412  35.478  1.00  0.00    -0.206 F 
ATOM     87  C   UNL A   1      46.265  26.782  36.031  1.00  0.00     0.006 A 
ENDBRANCH  63  80
ENDBRANCH  37  38
ENDBRANCH  29  32
ENDBRANCH  27  28
ENDBRANCH  26  27
ENDBRANCH  25  26
ENDBRANCH   1  25
TORSDOF 15
ENDMDL
MODEL 2
REMARK VINA RESULT:     -11.9      4.838     10.073
REMARK SMILES Cc1ccc(NC(=O)NC2(C(=O)NCCCCCCNC(=O)c3ccc(-c4c5nc(c(-c6c(F)cccc6F)c6ccc([nH]6)c(-c6c(F)cccc6F)c6nc(c(-c7c(F)cccc7F)c7ccc4[nH]7)C=C6)C=C5)cc3)CC2)c(C)n1
REMARK SMILES IDX 16 1 15 2 14 3 13 4 11 5 12 6 10 8 77 9 78 10 9 11 6 12 7 13
REMARK SMILES IDX 8 15 5 17 1 18 2 19 3 20 81 21 4 22 79 23 80 24 17 25 18 26
REMARK SMILES IDX 19 27 20 28 21 29 22 31 23 32 24 33 76 34 25 35 75 36 26 37
REMARK SMILES IDX 27 38 28 39 69 40 29 41 74 42 68 43 70 44 30 45 73 46 67 47
REMARK SMILES IDX 66 48 31 50 57 51 40 52 56 53 41 54 44 55 55 56 71 57 42 58
REMARK SMILES IDX 43 59 54 61 72 62 45 63 32 64 33 65 38 66 34 67 35 68 37 69
REMARK SMILES IDX 39 70 36 71 58 72 59 73 64 74 60 75 61 76 63 77 65 78 62 79
REMARK SMILES IDX 46 80 47 81 52 82 48 83 49 84 51 85 53 86 50 87
REMARK H PARENT 13 7 6 14 9 16 20 30 70 49 44 60
REMARK Flexibility Score: inf
ROOT
ATOM      1  C   UNL A   1      36.738  22.023  24.039  1.00  0.00     0.002 C 
ENDROOT
BRANCH   1   2
ATOM      2  C   UNL A   1      36.811  23.380  24.756  1.00  0.00     0.021 C 
BRANCH   2   3
ATOM      3  C   UNL A   1      35.468  23.977  25.247  1.00  0.00     0.116 C 
BRANCH   3   4
ATOM      4  N   UNL A   1      34.504  24.183  24.154  1.00  0.00    -0.354 N 
ATOM      5  C   UNL A   1      33.237  24.727  24.324  1.00  0.00     0.245 C 
ATOM      6  O   UNL A   1      32.960  25.472  25.271  1.00  0.00    -0.272 OA
ATOM      7  H   UNL A   1      34.774  23.918  23.245  1.00  0.00     0.163 HD
BRANCH   5   8
ATOM      8  C   UNL A   1      32.131  24.330  23.295  1.00  0.00     0.120 C 
ATOM      9  C   UNL A   1      30.712  24.621  23.817  1.00  0.00     0.041 C 
ATOM     10  C   UNL A   1      30.987  23.275  23.307  1.00  0.00     0.041 C 
BRANCH   8  11
ATOM     11  N   UNL A   1      32.564  24.438  21.963  1.00  0.00    -0.323 N 
ATOM     12  N   UNL A   1      32.389  26.813  21.742  1.00  0.00    -0.306 N 
ATOM     13  C   UNL A   1      32.690  25.581  21.296  1.00  0.00     0.320 C 
ATOM     14  H   UNL A   1      32.545  27.392  20.961  1.00  0.00     0.171 HD
ATOM     15  O   UNL A   1      33.105  25.514  20.132  1.00  0.00    -0.248 OA
ATOM     16  H   UNL A   1      32.791  23.606  21.489  1.00  0.00     0.166 HD
BRANCH  12  17
ATOM     17  C   UNL A   1      31.956  27.727  22.771  1.00  0.00     0.064 A 
ATOM     18  C   UNL A   1      31.749  30.596  25.991  1.00  0.00     0.067 C 
ATOM     19  C   UNL A   1      31.934  29.597  24.907  1.00  0.00     0.038 A 
ATOM     20  C   UNL A   1      33.139  29.191  24.418  1.00  0.00     0.025 A 
ATOM     21  N   UNL A   1      30.804  29.133  24.383  1.00  0.00    -0.256 NA
ATOM     22  C   UNL A   1      33.134  28.262  23.379  1.00  0.00     0.030 A 
ATOM     23  C   UNL A   1      30.763  28.258  23.327  1.00  0.00     0.061 A 
ATOM     24  C   UNL A   1      29.292  28.201  23.084  1.00  0.00     0.069 C 
ENDBRANCH  12  17
ENDBRANCH   8  11
ENDBRANCH   5   8
ENDBRANCH   3   4
ENDBRANCH   2   3
ENDBRANCH   1   2
BRANCH   1  25
ATOM     25  C   UNL A   1      36.556  20.780  24.914  1.00  0.00     0.002 C 
BRANCH  25  26
ATOM     26  C   UNL A   1      37.732  19.794  24.985  1.00  0.00     0.021 C 
BRANCH  26  27
ATOM     27  C   UNL A   1      38.973  20.240  25.767  1.00  0.00     0.116 C 
BRANCH  27  28
ATOM     28  N   UNL A   1      40.034  19.240  25.795  1.00  0.00    -0.352 N 
ATOM     29  C   UNL A   1      41.381  19.355  26.045  1.00  0.00     0.251 C 
ATOM     30  H   UNL A   1      39.734  18.324  25.600  1.00  0.00     0.163 HD
ATOM     31  O   UNL A   1      42.115  18.384  25.863  1.00  0.00    -0.269 OA
BRANCH  29  32
ATOM     32  C   UNL A   1      41.974  20.627  26.513  1.00  0.00     0.039 A 
ATOM     33  C   UNL A   1      42.624  21.450  25.584  1.00  0.00     0.014 A 
ATOM     34  C   UNL A   1      41.941  20.996  27.859  1.00  0.00     0.014 A 
ATOM     35  C   UNL A   1      43.157  22.677  25.988  1.00  0.00     0.010 A 
ATOM     36  C   UNL A   1      42.421  22.247  28.251  1.00  0.00     0.010 A 
ATOM     37  C   UNL A   1      43.017  23.109  27.317  1.00  0.00    -0.014 A 
BRANCH  37  38
ATOM     38  C   UNL A   1      43.432  24.476  27.731  1.00  0.00     0.031 A 
ATOM     39  C   UNL A   1      42.408  25.522  28.074  1.00  0.00     0.074 A 
ATOM     40  C   UNL A   1      44.741  24.799  27.719  1.00  0.00     0.049 A 
ATOM     41  N   UNL A   1      42.584  26.786  28.369  1.00  0.00    -0.248 NA
ATOM     42  C   UNL A   1      41.000  25.097  28.066  1.00  0.00     0.031 C 
ATOM     43  C   UNL A   1      45.832  23.886  27.366  1.00  0.00     0.029 A 
ATOM     44  N   UNL A   1      45.378  25.984  27.994  1.00  0.00    -0.354 N 
ATOM     45  C   UNL A   1      41.313  27.310  28.574  1.00  0.00     0.074 A 
ATOM     46  C   UNL A   1      40.373  26.238  28.321  1.00  0.00     0.031 C 
ATOM     47  C   UNL A   1      47.000  24.538  27.463  1.00  0.00     0.029 A 
ATOM     48  C   UNL A   1      46.742  25.926  27.836  1.00  0.00     0.049 A 
ATOM     49  H   UNL A   1      44.904  26.798  28.278  1.00  0.00     0.167 HD
ATOM     50  C   UNL A   1      40.964  28.563  28.954  1.00  0.00     0.037 A 
ATOM     51  C   UNL A   1      47.681  26.883  27.958  1.00  0.00     0.037 A 
ATOM     52  C   UNL A   1      41.904  29.623  29.211  1.00  0.00     0.049 A 
ATOM     53  C   UNL A   1      47.262  28.277  28.336  1.00  0.00     0.074 A 
ATOM     54  C   UNL A   1      41.651  30.909  29.659  1.00  0.00     0.029 A 
ATOM     55  N   UNL A   1      43.276  29.527  29.033  1.00  0.00    -0.354 N 
ATOM     56  N   UNL A   1      46.063  28.738  28.598  1.00  0.00    -0.248 NA
ATOM     57  C   UNL A   1      48.328  29.286  28.434  1.00  0.00     0.031 C 
ATOM     58  C   UNL A   1      42.862  31.607  29.695  1.00  0.00     0.029 A 
ATOM     59  C   UNL A   1      43.879  30.741  29.324  1.00  0.00     0.049 A 
ATOM     60  H   UNL A   1      43.753  28.715  28.742  1.00  0.00     0.167 HD
ATOM     61  C   UNL A   1      46.231  30.081  28.910  1.00  0.00     0.074 A 
ATOM     62  C   UNL A   1      47.651  30.356  28.826  1.00  0.00     0.031 C 
ATOM     63  C   UNL A   1      45.293  31.003  29.233  1.00  0.00     0.037 A 
BRANCH  50  64
ATOM     64  C   UNL A   1      39.500  28.860  29.109  1.00  0.00     0.057 A 
ATOM     65  C   UNL A   1      38.843  28.718  30.340  1.00  0.00     0.134 A 
ATOM     66  C   UNL A   1      38.747  29.343  28.030  1.00  0.00     0.134 A 
ATOM     67  F   UNL A   1      39.502  28.255  31.413  1.00  0.00    -0.206 F 
ATOM     68  C   UNL A   1      37.487  29.017  30.483  1.00  0.00     0.040 A 
ATOM     69  C   UNL A   1      37.398  29.672  28.169  1.00  0.00     0.040 A 
ATOM     70  F   UNL A   1      39.315  29.514  26.827  1.00  0.00    -0.206 F 
ATOM     71  C   UNL A   1      36.762  29.503  29.397  1.00  0.00     0.006 A 
ENDBRANCH  50  64
BRANCH  51  72
ATOM     72  C   UNL A   1      49.111  26.561  27.718  1.00  0.00     0.057 A 
ATOM     73  C   UNL A   1      49.675  26.683  26.443  1.00  0.00     0.134 A 
ATOM     74  C   UNL A   1      49.945  26.117  28.751  1.00  0.00     0.134 A 
ATOM     75  F   UNL A   1      48.923  27.084  25.408  1.00  0.00    -0.206 F 
ATOM     76  C   UNL A   1      51.011  26.358  26.199  1.00  0.00     0.040 A 
ATOM     77  C   UNL A   1      51.290  25.815  28.528  1.00  0.00     0.040 A 
ATOM     78  F   UNL A   1      49.469  25.983  29.998  1.00  0.00    -0.206 F 
ATOM     79  C   UNL A   1      51.824  25.928  27.246  1.00  0.00     0.006 A 
ENDBRANCH  51  72
BRANCH  63  80
ATOM     80  C   UNL A   1      45.769  32.394  29.536  1.00  0.00     0.057 A 
ATOM     81  C   UNL A   1      46.162  32.775  30.825  1.00  0.00     0.134 A 
ATOM     82  C   UNL A   1      45.880  33.351  28.518  1.00  0.00     0.134 A 
ATOM     83  F   UNL A   1      46.067  31.911  31.848  1.00  0.00    -0.206 F 
ATOM     84  C   UNL A   1      46.632  34.062  31.095  1.00  0.00     0.040 A 
ATOM     85  C   UNL A   1      46.375  34.631  28.770  1.00  0.00     0.040 A 
ATOM     86  F   UNL A   1      45.527  33.050  27.259  1.00  0.00    -0.206 F 
ATOM     87  C   UNL A   1      46.747  34.991  30.063  1.00  0.00     0.006 A 
ENDBRANCH  63  80
ENDBRANCH  37  38
ENDBRANCH  29  32
ENDBRANCH  27  28
ENDBRANCH  26  27
ENDBRANCH  25  26
ENDBRANCH   1  25
TORSDOF 15
ENDMDL
MODEL 3
REMARK VINA RESULT:     -11.7      4.012      7.919
REMARK SMILES Cc1ccc(NC(=O)NC2(C(=O)NCCCCCCNC(=O)c3ccc(-c4c5nc(c(-c6c(F)cccc6F)c6ccc([nH]6)c(-c6c(F)cccc6F)c6nc(c(-c7c(F)cccc7F)c7ccc4[nH]7)C=C6)C=C5)cc3)CC2)c(C)n1
REMARK SMILES IDX 16 1 15 2 14 3 13 4 11 5 12 6 10 8 77 9 78 10 9 11 6 12 7 13
REMARK SMILES IDX 8 15 5 17 1 18 2 19 3 20 81 21 4 22 79 23 80 24 17 25 18 26
REMARK SMILES IDX 19 27 20 28 21 29 22 31 23 32 24 33 76 34 25 35 75 36 26 37
REMARK SMILES IDX 27 38 28 39 69 40 29 41 74 42 68 43 70 44 30 45 73 46 67 47
REMARK SMILES IDX 66 48 31 50 57 51 40 52 56 53 41 54 44 55 55 56 71 57 42 58
REMARK SMILES IDX 43 59 54 61 72 62 45 63 32 64 33 65 38 66 34 67 35 68 37 69
REMARK SMILES IDX 39 70 36 71 58 72 59 73 64 74 60 75 61 76 63 77 65 78 62 79
REMARK SMILES IDX 46 80 47 81 52 82 48 83 49 84 51 85 53 86 50 87
REMARK H PARENT 13 7 6 14 9 16 20 30 70 49 44 60
REMARK Flexibility Score: inf
ROOT
ATOM      1  C   UNL A   1      33.145  25.956  25.031  1.00  0.00     0.002 C 
ENDROOT
BRANCH   1   2
ATOM      2  C   UNL A   1      32.834  25.217  23.719  1.00  0.00     0.021 C 
BRANCH   2   3
ATOM      3  C   UNL A   1      33.979  24.365  23.116  1.00  0.00     0.116 C 
BRANCH   3   4
ATOM      4  N   UNL A   1      35.151  24.279  24.002  1.00  0.00    -0.354 N 
ATOM      5  C   UNL A   1      36.211  23.402  23.809  1.00  0.00     0.245 C 
ATOM      6  O   UNL A   1      36.494  22.943  22.696  1.00  0.00    -0.272 OA
ATOM      7  H   UNL A   1      35.185  24.880  24.781  1.00  0.00     0.163 HD
BRANCH   5   8
ATOM      8  C   UNL A   1      37.028  22.962  25.065  1.00  0.00     0.120 C 
ATOM      9  C   UNL A   1      36.559  23.671  26.348  1.00  0.00     0.041 C 
ATOM     10  C   UNL A   1      37.990  23.710  26.033  1.00  0.00     0.041 C 
BRANCH   8  11
ATOM     11  N   UNL A   1      37.500  21.642  24.972  1.00  0.00    -0.323 N 
ATOM     12  N   UNL A   1      35.403  20.516  25.205  1.00  0.00    -0.306 N 
ATOM     13  C   UNL A   1      36.733  20.556  25.017  1.00  0.00     0.320 C 
ATOM     14  H   UNL A   1      35.199  19.553  25.248  1.00  0.00     0.171 HD
ATOM     15  O   UNL A   1      37.297  19.460  24.899  1.00  0.00    -0.248 OA
ATOM     16  H   UNL A   1      38.470  21.511  24.864  1.00  0.00     0.166 HD
BRANCH  12  17
ATOM     17  C   UNL A   1      34.119  21.150  25.377  1.00  0.00     0.064 A 
ATOM     18  C   UNL A   1      30.700  23.323  26.872  1.00  0.00     0.067 C 
ATOM     19  C   UNL A   1      31.920  22.578  26.466  1.00  0.00     0.038 A 
ATOM     20  C   UNL A   1      33.049  22.462  27.219  1.00  0.00     0.025 A 
ATOM     21  N   UNL A   1      31.862  22.043  25.251  1.00  0.00    -0.256 NA
ATOM     22  C   UNL A   1      34.115  21.747  26.676  1.00  0.00     0.030 A 
ATOM     23  C   UNL A   1      32.911  21.377  24.667  1.00  0.00     0.061 A 
ATOM     24  C   UNL A   1      32.348  21.133  23.307  1.00  0.00     0.069 C 
ENDBRANCH  12  17
ENDBRANCH   8  11
ENDBRANCH   5   8
ENDBRANCH   3   4
ENDBRANCH   2   3
ENDBRANCH   1   2
BRANCH   1  25
ATOM     25  C   UNL A   1      33.671  27.389  24.917  1.00  0.00     0.002 C 
BRANCH  25  26
ATOM     26  C   UNL A   1      33.053  28.439  25.851  1.00  0.00     0.021 C 
BRANCH  26  27
ATOM     27  C   UNL A   1      33.664  28.578  27.250  1.00  0.00     0.116 C 
BRANCH  27  28
ATOM     28  N   UNL A   1      33.724  29.955  27.726  1.00  0.00    -0.352 N 
ATOM     29  C   UNL A   1      34.730  30.657  28.346  1.00  0.00     0.251 C 
ATOM     30  H   UNL A   1      32.900  30.472  27.578  1.00  0.00     0.163 HD
ATOM     31  O   UNL A   1      34.497  31.778  28.796  1.00  0.00    -0.269 OA
BRANCH  29  32
ATOM     32  C   UNL A   1      36.087  30.087  28.501  1.00  0.00     0.039 A 
ATOM     33  C   UNL A   1      36.966  30.138  27.411  1.00  0.00     0.014 A 
ATOM     34  C   UNL A   1      36.488  29.465  29.684  1.00  0.00     0.014 A 
ATOM     35  C   UNL A   1      38.269  29.646  27.539  1.00  0.00     0.010 A 
ATOM     36  C   UNL A   1      37.806  29.028  29.831  1.00  0.00     0.010 A 
ATOM     37  C   UNL A   1      38.716  29.131  28.767  1.00  0.00    -0.014 A 
BRANCH  37  38
ATOM     38  C   UNL A   1      40.140  28.753  28.972  1.00  0.00     0.031 A 
ATOM     39  C   UNL A   1      41.131  29.747  29.513  1.00  0.00     0.074 A 
ATOM     40  C   UNL A   1      40.558  27.529  28.592  1.00  0.00     0.049 A 
ATOM     41  N   UNL A   1      42.424  29.620  29.673  1.00  0.00    -0.248 NA
ATOM     42  C   UNL A   1      40.602  31.061  29.906  1.00  0.00     0.031 C 
ATOM     43  C   UNL A   1      39.703  26.487  28.018  1.00  0.00     0.029 A 
ATOM     44  N   UNL A   1      41.805  26.957  28.616  1.00  0.00    -0.354 N 
ATOM     45  C   UNL A   1      42.866  30.837  30.178  1.00  0.00     0.074 A 
ATOM     46  C   UNL A   1      41.709  31.705  30.251  1.00  0.00     0.031 C 
ATOM     47  C   UNL A   1      40.447  25.400  27.760  1.00  0.00     0.029 A 
ATOM     48  C   UNL A   1      41.837  25.682  28.104  1.00  0.00     0.049 A 
ATOM     49  H   UNL A   1      42.602  27.416  28.967  1.00  0.00     0.167 HD
ATOM     50  C   UNL A   1      44.117  31.191  30.561  1.00  0.00     0.037 A 
ATOM     51  C   UNL A   1      42.869  24.839  27.913  1.00  0.00     0.037 A 
ATOM     52  C   UNL A   1      45.263  30.322  30.494  1.00  0.00     0.049 A 
ATOM     53  C   UNL A   1      44.255  25.274  28.305  1.00  0.00     0.074 A 
ATOM     54  C   UNL A   1      46.558  30.570  30.915  1.00  0.00     0.029 A 
ATOM     55  N   UNL A   1      45.255  29.040  29.963  1.00  0.00    -0.354 N 
ATOM     56  N   UNL A   1      44.644  26.401  28.848  1.00  0.00    -0.248 NA
ATOM     57  C   UNL A   1      45.345  24.320  28.053  1.00  0.00     0.031 C 
ATOM     58  C   UNL A   1      47.346  29.462  30.585  1.00  0.00     0.029 A 
ATOM     59  C   UNL A   1      46.531  28.500  30.009  1.00  0.00     0.049 A 
ATOM     60  H   UNL A   1      44.460  28.582  29.605  1.00  0.00     0.167 HD
ATOM     61  C   UNL A   1      46.017  26.286  29.023  1.00  0.00     0.074 A 
ATOM     62  C   UNL A   1      46.390  24.969  28.547  1.00  0.00     0.031 C 
ATOM     63  C   UNL A   1      46.890  27.190  29.529  1.00  0.00     0.037 A 
BRANCH  50  64
ATOM     64  C   UNL A   1      44.315  32.586  31.083  1.00  0.00     0.057 A 
ATOM     65  C   UNL A   1      44.209  32.887  32.449  1.00  0.00     0.134 A 
ATOM     66  C   UNL A   1      44.666  33.633  30.220  1.00  0.00     0.134 A 
ATOM     67  F   UNL A   1      43.871  31.934  33.330  1.00  0.00    -0.206 F 
ATOM     68  C   UNL A   1      44.417  34.180  32.930  1.00  0.00     0.040 A 
ATOM     69  C   UNL A   1      44.904  34.923  30.694  1.00  0.00     0.040 A 
ATOM     70  F   UNL A   1      44.796  33.414  28.903  1.00  0.00    -0.206 F 
ATOM     71  C   UNL A   1      44.772  35.202  32.053  1.00  0.00     0.006 A 
ENDBRANCH  50  64
BRANCH  51  72
ATOM     72  C   UNL A   1      42.636  23.497  27.321  1.00  0.00     0.057 A 
ATOM     73  C   UNL A   1      42.340  22.392  28.128  1.00  0.00     0.134 A 
ATOM     74  C   UNL A   1      42.709  23.283  25.939  1.00  0.00     0.134 A 
ATOM     75  F   UNL A   1      42.276  22.528  29.460  1.00  0.00    -0.206 F 
ATOM     76  C   UNL A   1      42.144  21.121  27.586  1.00  0.00     0.040 A 
ATOM     77  C   UNL A   1      42.488  22.022  25.380  1.00  0.00     0.040 A 
ATOM     78  F   UNL A   1      42.983  24.300  25.109  1.00  0.00    -0.206 F 
ATOM     79  C   UNL A   1      42.212  20.935  26.206  1.00  0.00     0.006 A 
ENDBRANCH  51  72
BRANCH  63  80
ATOM     80  C   UNL A   1      48.333  26.785  29.609  1.00  0.00     0.057 A 
ATOM     81  C   UNL A   1      49.267  27.186  28.645  1.00  0.00     0.134 A 
ATOM     82  C   UNL A   1      48.804  26.023  30.686  1.00  0.00     0.134 A 
ATOM     83  F   UNL A   1      48.878  27.904  27.580  1.00  0.00    -0.206 F 
ATOM     84  C   UNL A   1      50.614  26.831  28.741  1.00  0.00     0.040 A 
ATOM     85  C   UNL A   1      50.153  25.686  30.808  1.00  0.00     0.040 A 
ATOM     86  F   UNL A   1      47.965  25.611  31.648  1.00  0.00    -0.206 F 
ATOM     87  C   UNL A   1      51.061  26.086  29.830  1.00  0.00     0.006 A 
ENDBRANCH  63  80
ENDBRANCH  37  38
ENDBRANCH  29  32
ENDBRANCH  27  28
ENDBRANCH  26  27
ENDBRANCH  25  26
ENDBRANCH   1  25
TORSDOF 15
ENDMDL
