MODEL 1
REMARK VINA RESULT:     -10.9      0.000      0.000
REMARK SMILES C[C@]12CC[C@H]3[C@@H](CCC4=CC(=O)C=C[C@@]43C)[C@@H]1CC[C@H]2O[C@@H]1O[C@H](C(=O)NCCCCCCNC(=O)c2ccc(-c3c4nc(c(-c5c(F)cccc5F)c5ccc([nH]5)c(-c5c(F)cccc5F)c5nc(c(-c6c(F)cccc6F)c6ccc3[nH]6)C=C5)C=C4)cc2)[C@@H](O)[C@H](O)[C@H]1O
REMARK SMILES IDX 30 1 29 2 28 3 27 4 25 5 26 6 24 8 22 9 23 10 95 11 93 12
REMARK SMILES IDX 91 13 21 14 20 15 1 16 2 17 3 18 17 19 4 20 6 21 18 22 19 23
REMARK SMILES IDX 5 24 7 25 15 26 8 27 9 28 14 29 16 30 10 31 13 32 11 33
REMARK SMILES IDX 12 34 96 35 94 37 92 39 31 41 32 42 33 43 34 44 35 45 36 47
REMARK SMILES IDX 37 48 38 49 90 50 39 51 89 52 40 53 41 54 42 55 83 56 43 57
REMARK SMILES IDX 88 58 82 59 84 60 44 61 87 62 81 63 80 64 45 66 71 67 54 68
REMARK SMILES IDX 70 69 55 70 58 71 69 72 85 73 56 74 57 75 68 77 86 78 59 79
REMARK SMILES IDX 46 80 47 81 52 82 48 83 49 84 51 85 53 86 50 87 72 88 73 89
REMARK SMILES IDX 78 90 74 91 75 92 77 93 79 94 76 95 60 96 61 97 66 98 62 99
REMARK SMILES IDX 63 100 65 101 67 102 64 103
REMARK H PARENT 27 7 96 36 94 38 92 40 34 46 84 65 58 76
REMARK Flexibility Score: inf
ROOT
ATOM      1  C   UNL A   1      45.098  24.299  32.551  1.00  0.00     0.002 C 
ENDROOT
BRANCH   1   2
ATOM      2  C   UNL A   1      44.226  24.098  31.147  1.00  0.00     0.021 C 
BRANCH   2   3
ATOM      3  C   UNL A   1      43.892  22.899  29.444  1.00  0.00     0.116 C 
BRANCH   3   4
ATOM      4  N   UNL A   1      42.772  22.049  28.852  1.00  0.00    -0.354 N 
ATOM      5  C   UNL A   1      42.418  21.673  27.576  1.00  0.00     0.252 C 
ATOM      6  O   UNL A   1      41.429  20.932  27.488  1.00  0.00    -0.272 OA
ATOM      7  H   UNL A   1      42.166  21.688  29.539  1.00  0.00     0.163 HD
BRANCH   5   8
ATOM      8  C   UNL A   1      43.159  22.101  26.273  1.00  0.00     0.241 C 
ATOM      9  C   UNL A   1      44.368  23.854  25.093  1.00  0.00     0.282 C 
ATOM     10  O   UNL A   1      43.705  23.417  26.289  1.00  0.00    -0.334 OA
ATOM     11  C   UNL A   1      45.326  22.805  24.460  1.00  0.00     0.202 C 
ATOM     12  C   UNL A   1      44.740  21.393  24.484  1.00  0.00     0.180 C 
ATOM     13  C   UNL A   1      44.191  21.046  25.868  1.00  0.00     0.184 C 
BRANCH   9  14
ATOM     14  O   UNL A   1      44.951  25.170  25.232  1.00  0.00    -0.346 OA
BRANCH  14  15
ATOM     15  C   UNL A   1      46.350  25.511  25.270  1.00  0.00     0.127 C 
ATOM     16  C   UNL A   1      48.175  27.301  25.348  1.00  0.00     0.014 C 
ATOM     17  C   UNL A   1      46.726  26.920  25.805  1.00  0.00    -0.003 C 
ATOM     18  C   UNL A   1      45.828  28.096  25.323  1.00  0.00     0.010 C 
ATOM     19  C   UNL A   1      46.700  26.561  27.310  1.00  0.00     0.001 C 
ATOM     20  C   UNL A   1      45.959  29.421  26.132  1.00  0.00     0.006 C 
ATOM     21  C   UNL A   1      46.893  27.755  28.190  1.00  0.00    -0.003 C 
ATOM     22  C   UNL A   1      47.567  25.314  27.431  1.00  0.00     0.007 C 
ATOM     23  C   UNL A   1      47.260  24.565  26.106  1.00  0.00     0.033 C 
ATOM     24  C   UNL A   1      45.603  29.112  27.583  1.00  0.00     0.006 C 
ATOM     25  C   UNL A   1      47.045  27.410  30.106  1.00  0.00     0.009 C 
ATOM     26  C   UNL A   1      45.090  30.567  28.786  1.00  0.00     0.010 C 
ATOM     27  C   UNL A   1      46.468  28.841  31.316  1.00  0.00     0.032 C 
ATOM     28  C   UNL A   1      45.382  30.289  30.661  1.00  0.00    -0.056 C 
ATOM     29  C   UNL A   1      43.619  31.035  28.668  1.00  0.00    -0.012 C 
ATOM     30  C   UNL A   1      45.650  31.952  28.250  1.00  0.00     0.021 C 
ATOM     31  C   UNL A   1      44.553  30.900  31.525  1.00  0.00     0.052 C 
ATOM     32  C   UNL A   1      42.931  31.612  29.670  1.00  0.00     0.048 C 
ATOM     33  C   UNL A   1      43.417  31.743  31.072  1.00  0.00     0.178 C 
ATOM     34  O   UNL A   1      42.813  32.446  31.876  1.00  0.00    -0.290 OA
ENDBRANCH  14  15
ENDBRANCH   9  14
BRANCH  11  35
ATOM     35  O   UNL A   1      45.713  23.158  23.124  1.00  0.00    -0.385 OA
ATOM     36  H   UNL A   1      44.920  23.343  22.596  1.00  0.00     0.211 HD
ENDBRANCH  11  35
BRANCH  12  37
ATOM     37  O   UNL A   1      45.725  20.395  24.148  1.00  0.00    -0.387 OA
ATOM     38  H   UNL A   1      45.890  20.414  23.192  1.00  0.00     0.211 HD
ENDBRANCH  12  37
BRANCH  13  39
ATOM     39  O   UNL A   1      43.616  19.738  25.824  1.00  0.00    -0.387 OA
ATOM     40  H   UNL A   1      42.702  19.774  26.146  1.00  0.00     0.211 HD
ENDBRANCH  13  39
ENDBRANCH   5   8
ENDBRANCH   3   4
ENDBRANCH   2   3
ENDBRANCH   1   2
BRANCH   1  41
ATOM     41  C   UNL A   1      46.414  25.047  32.733  1.00  0.00     0.002 C 
BRANCH  41  42
ATOM     42  C   UNL A   1      47.211  24.608  33.960  1.00  0.00     0.021 C 
BRANCH  42  43
ATOM     43  C   UNL A   1      48.114  25.696  34.554  1.00  0.00     0.116 C 
BRANCH  43  44
ATOM     44  N   UNL A   1      47.869  25.918  35.979  1.00  0.00    -0.352 N 
ATOM     45  C   UNL A   1      46.866  26.658  36.543  1.00  0.00     0.251 C 
ATOM     46  H   UNL A   1      48.498  25.486  36.603  1.00  0.00     0.163 HD
ATOM     47  O   UNL A   1      46.829  26.933  37.736  1.00  0.00    -0.269 OA
BRANCH  45  48
ATOM     48  C   UNL A   1      45.799  27.071  35.634  1.00  0.00     0.039 A 
ATOM     49  C   UNL A   1      44.601  26.362  35.602  1.00  0.00     0.014 A 
ATOM     50  C   UNL A   1      45.953  28.307  34.999  1.00  0.00     0.014 A 
ATOM     51  C   UNL A   1      43.520  26.918  34.928  1.00  0.00     0.010 A 
ATOM     52  C   UNL A   1      44.853  28.891  34.401  1.00  0.00     0.010 A 
ATOM     53  C   UNL A   1      43.637  28.191  34.342  1.00  0.00    -0.014 A 
BRANCH  53  54
ATOM     54  C   UNL A   1      42.516  28.785  33.588  1.00  0.00     0.031 A 
ATOM     55  C   UNL A   1      41.616  29.760  34.289  1.00  0.00     0.074 A 
ATOM     56  C   UNL A   1      42.288  28.408  32.316  1.00  0.00     0.049 A 
ATOM     57  N   UNL A   1      40.551  30.370  33.840  1.00  0.00    -0.248 NA
ATOM     58  C   UNL A   1      41.931  30.059  35.697  1.00  0.00     0.031 C 
ATOM     59  C   UNL A   1      43.070  27.419  31.570  1.00  0.00     0.029 A 
ATOM     60  N   UNL A   1      41.330  28.814  31.427  1.00  0.00    -0.354 N 
ATOM     61  C   UNL A   1      40.068  31.107  34.913  1.00  0.00     0.074 A 
ATOM     62  C   UNL A   1      40.903  30.808  36.053  1.00  0.00     0.031 C 
ATOM     63  C   UNL A   1      42.579  27.322  30.323  1.00  0.00     0.029 A 
ATOM     64  C   UNL A   1      41.435  28.220  30.194  1.00  0.00     0.049 A 
ATOM     65  H   UNL A   1      40.631  29.471  31.651  1.00  0.00     0.167 HD
ATOM     66  C   UNL A   1      39.044  31.988  34.934  1.00  0.00     0.037 A 
ATOM     67  C   UNL A   1      40.690  28.395  29.086  1.00  0.00     0.037 A 
ATOM     68  C   UNL A   1      38.250  32.304  33.779  1.00  0.00     0.049 A 
ATOM     69  C   UNL A   1      39.565  29.393  29.128  1.00  0.00     0.074 A 
ATOM     70  C   UNL A   1      37.228  33.226  33.659  1.00  0.00     0.029 A 
ATOM     71  N   UNL A   1      38.400  31.701  32.538  1.00  0.00    -0.354 N 
ATOM     72  N   UNL A   1      39.164  30.145  30.126  1.00  0.00    -0.248 NA
ATOM     73  C   UNL A   1      38.794  29.572  27.892  1.00  0.00     0.031 C 
ATOM     74  C   UNL A   1      36.731  33.151  32.354  1.00  0.00     0.029 A 
ATOM     75  C   UNL A   1      37.475  32.216  31.649  1.00  0.00     0.049 A 
ATOM     76  H   UNL A   1      39.066  31.009  32.323  1.00  0.00     0.167 HD
ATOM     77  C   UNL A   1      38.113  30.906  29.633  1.00  0.00     0.074 A 
ATOM     78  C   UNL A   1      37.951  30.534  28.240  1.00  0.00     0.031 C 
ATOM     79  C   UNL A   1      37.347  31.826  30.268  1.00  0.00     0.037 A 
BRANCH  66  80
ATOM     80  C   UNL A   1      38.745  32.669  36.237  1.00  0.00     0.057 A 
ATOM     81  C   UNL A   1      39.191  33.970  36.511  1.00  0.00     0.134 A 
ATOM     82  C   UNL A   1      38.006  32.018  37.231  1.00  0.00     0.134 A 
ATOM     83  F   UNL A   1      39.923  34.642  35.609  1.00  0.00    -0.206 F 
ATOM     84  C   UNL A   1      38.940  34.587  37.738  1.00  0.00     0.040 A 
ATOM     85  C   UNL A   1      37.721  32.635  38.451  1.00  0.00     0.040 A 
ATOM     86  F   UNL A   1      37.551  30.771  37.037  1.00  0.00    -0.206 F 
ATOM     87  C   UNL A   1      38.196  33.920  38.710  1.00  0.00     0.006 A 
ENDBRANCH  66  80
BRANCH  67  88
ATOM     88  C   UNL A   1      41.008  27.646  27.844  1.00  0.00     0.057 A 
ATOM     89  C   UNL A   1      41.767  28.229  26.822  1.00  0.00     0.134 A 
ATOM     90  C   UNL A   1      40.561  26.335  27.643  1.00  0.00     0.134 A 
ATOM     91  F   UNL A   1      42.215  29.487  26.950  1.00  0.00    -0.206 F 
ATOM     92  C   UNL A   1      42.050  27.546  25.638  1.00  0.00     0.040 A 
ATOM     93  C   UNL A   1      40.857  25.630  26.474  1.00  0.00     0.040 A 
ATOM     94  F   UNL A   1      39.839  25.712  28.588  1.00  0.00    -0.206 F 
ATOM     95  C   UNL A   1      41.597  26.241  25.464  1.00  0.00     0.006 A 
ENDBRANCH  67  88
BRANCH  79  96
ATOM     96  C   UNL A   1      36.286  32.507  29.457  1.00  0.00     0.057 A 
ATOM     97  C   UNL A   1      35.090  31.863  29.119  1.00  0.00     0.134 A 
ATOM     98  C   UNL A   1      36.442  33.841  29.057  1.00  0.00     0.134 A 
ATOM     99  F   UNL A   1      34.887  30.582  29.464  1.00  0.00    -0.206 F 
ATOM    100  C   UNL A   1      34.094  32.515  28.393  1.00  0.00     0.040 A 
ATOM    101  C   UNL A   1      35.442  34.512  28.357  1.00  0.00     0.040 A 
ATOM    102  F   UNL A   1      37.561  34.517  29.361  1.00  0.00    -0.206 F 
ATOM    103  C   UNL A   1      34.265  33.846  28.017  1.00  0.00     0.006 A 
ENDBRANCH  79  96
ENDBRANCH  53  54
ENDBRANCH  45  48
ENDBRANCH  43  44
ENDBRANCH  42  43
ENDBRANCH  41  42
ENDBRANCH   1  41
TORSDOF 18
ENDMDL
MODEL 2
REMARK VINA RESULT:     -10.7      3.597     10.866
REMARK SMILES C[C@]12CC[C@H]3[C@@H](CCC4=CC(=O)C=C[C@@]43C)[C@@H]1CC[C@H]2O[C@@H]1O[C@H](C(=O)NCCCCCCNC(=O)c2ccc(-c3c4nc(c(-c5c(F)cccc5F)c5ccc([nH]5)c(-c5c(F)cccc5F)c5nc(c(-c6c(F)cccc6F)c6ccc3[nH]6)C=C5)C=C4)cc2)[C@@H](O)[C@H](O)[C@H]1O
REMARK SMILES IDX 30 1 29 2 28 3 27 4 25 5 26 6 24 8 22 9 23 10 95 11 93 12
REMARK SMILES IDX 91 13 21 14 20 15 1 16 2 17 3 18 17 19 4 20 6 21 18 22 19 23
REMARK SMILES IDX 5 24 7 25 15 26 8 27 9 28 14 29 16 30 10 31 13 32 11 33
REMARK SMILES IDX 12 34 96 35 94 37 92 39 31 41 32 42 33 43 34 44 35 45 36 47
REMARK SMILES IDX 37 48 38 49 90 50 39 51 89 52 40 53 41 54 42 55 83 56 43 57
REMARK SMILES IDX 88 58 82 59 84 60 44 61 87 62 81 63 80 64 45 66 71 67 54 68
REMARK SMILES IDX 70 69 55 70 58 71 69 72 85 73 56 74 57 75 68 77 86 78 59 79
REMARK SMILES IDX 46 80 47 81 52 82 48 83 49 84 51 85 53 86 50 87 72 88 73 89
REMARK SMILES IDX 78 90 74 91 75 92 77 93 79 94 76 95 60 96 61 97 66 98 62 99
REMARK SMILES IDX 63 100 65 101 67 102 64 103
REMARK H PARENT 27 7 96 36 94 38 92 40 34 46 84 65 58 76
REMARK Flexibility Score: inf
ROOT
ATOM      1  C   UNL A   1      42.122  35.069  29.897  1.00  0.00     0.002 C 
ENDROOT
BRANCH   1   2
ATOM      2  C   UNL A   1      40.688  34.244  29.712  1.00  0.00     0.021 C 
BRANCH   2   3
ATOM      3  C   UNL A   1      38.598  34.388  29.459  1.00  0.00     0.116 C 
BRANCH   3   4
ATOM      4  N   UNL A   1      37.536  33.913  28.472  1.00  0.00    -0.354 N 
ATOM      5  C   UNL A   1      36.247  33.446  28.594  1.00  0.00     0.252 C 
ATOM      6  O   UNL A   1      35.670  33.174  27.531  1.00  0.00    -0.272 OA
ATOM      7  H   UNL A   1      37.842  33.949  27.537  1.00  0.00     0.163 HD
BRANCH   5   8
ATOM      8  C   UNL A   1      35.484  33.247  29.939  1.00  0.00     0.241 C 
ATOM      9  C   UNL A   1      35.622  32.654  32.295  1.00  0.00     0.282 C 
ATOM     10  O   UNL A   1      36.297  32.875  31.049  1.00  0.00    -0.334 OA
ATOM     11  C   UNL A   1      34.554  33.725  32.657  1.00  0.00     0.202 C 
ATOM     12  C   UNL A   1      33.715  34.141  31.447  1.00  0.00     0.180 C 
ATOM     13  C   UNL A   1      34.602  34.460  30.243  1.00  0.00     0.184 C 
BRANCH   9  14
ATOM     14  O   UNL A   1      36.536  32.353  33.375  1.00  0.00    -0.346 OA
BRANCH  14  15
ATOM     15  C   UNL A   1      37.300  33.285  34.164  1.00  0.00     0.127 C 
ATOM     16  C   UNL A   1      38.960  33.714  36.062  1.00  0.00     0.014 C 
ATOM     17  C   UNL A   1      38.541  32.731  34.917  1.00  0.00    -0.003 C 
ATOM     18  C   UNL A   1      38.358  31.352  35.615  1.00  0.00     0.010 C 
ATOM     19  C   UNL A   1      39.531  32.814  33.730  1.00  0.00     0.001 C 
ATOM     20  C   UNL A   1      39.672  30.630  36.039  1.00  0.00     0.006 C 
ATOM     21  C   UNL A   1      40.864  32.213  34.049  1.00  0.00    -0.003 C 
ATOM     22  C   UNL A   1      39.386  34.234  33.197  1.00  0.00     0.007 C 
ATOM     23  C   UNL A   1      37.873  34.514  33.402  1.00  0.00     0.033 C 
ATOM     24  C   UNL A   1      40.509  30.421  34.780  1.00  0.00     0.006 C 
ATOM     25  C   UNL A   1      42.254  32.404  32.691  1.00  0.00     0.009 C 
ATOM     26  C   UNL A   1      41.928  29.074  34.773  1.00  0.00     0.010 C 
ATOM     27  C   UNL A   1      43.640  31.019  32.636  1.00  0.00     0.032 C 
ATOM     28  C   UNL A   1      43.375  29.342  33.542  1.00  0.00    -0.056 C 
ATOM     29  C   UNL A   1      41.457  27.618  34.536  1.00  0.00    -0.012 C 
ATOM     30  C   UNL A   1      42.399  28.759  36.255  1.00  0.00     0.021 C 
ATOM     31  C   UNL A   1      43.999  28.255  33.058  1.00  0.00     0.052 C 
ATOM     32  C   UNL A   1      42.230  26.655  34.002  1.00  0.00     0.048 C 
ATOM     33  C   UNL A   1      43.582  26.875  33.418  1.00  0.00     0.178 C 
ATOM     34  O   UNL A   1      44.295  25.920  33.126  1.00  0.00    -0.290 OA
ENDBRANCH  14  15
ENDBRANCH   9  14
BRANCH  11  35
ATOM     35  O   UNL A   1      33.701  33.303  33.730  1.00  0.00    -0.385 OA
ATOM     36  H   UNL A   1      34.217  33.242  34.548  1.00  0.00     0.211 HD
ENDBRANCH  11  35
BRANCH  12  37
ATOM     37  O   UNL A   1      32.920  35.312  31.720  1.00  0.00    -0.387 OA
ATOM     38  H   UNL A   1      33.215  36.042  31.154  1.00  0.00     0.211 HD
ENDBRANCH  12  37
BRANCH  13  39
ATOM     39  O   UNL A   1      33.770  34.798  29.131  1.00  0.00    -0.387 OA
ATOM     40  H   UNL A   1      33.899  35.731  28.901  1.00  0.00     0.211 HD
ENDBRANCH  13  39
ENDBRANCH   5   8
ENDBRANCH   3   4
ENDBRANCH   2   3
ENDBRANCH   1   2
BRANCH   1  41
ATOM     41  C   UNL A   1      42.845  35.403  31.197  1.00  0.00     0.002 C 
BRANCH  41  42
ATOM     42  C   UNL A   1      43.730  36.645  31.112  1.00  0.00     0.021 C 
BRANCH  42  43
ATOM     43  C   UNL A   1      44.172  37.015  29.691  1.00  0.00     0.116 C 
BRANCH  43  44
ATOM     44  N   UNL A   1      45.625  37.118  29.558  1.00  0.00    -0.352 N 
ATOM     45  C   UNL A   1      46.524  36.090  29.467  1.00  0.00     0.251 C 
ATOM     46  H   UNL A   1      45.997  38.029  29.531  1.00  0.00     0.163 HD
ATOM     47  O   UNL A   1      47.736  36.257  29.527  1.00  0.00    -0.269 OA
BRANCH  45  48
ATOM     48  C   UNL A   1      45.948  34.765  29.244  1.00  0.00     0.039 A 
ATOM     49  C   UNL A   1      45.550  34.389  27.964  1.00  0.00     0.014 A 
ATOM     50  C   UNL A   1      46.038  33.852  30.298  1.00  0.00     0.014 A 
ATOM     51  C   UNL A   1      45.249  33.051  27.731  1.00  0.00     0.010 A 
ATOM     52  C   UNL A   1      45.817  32.513  30.041  1.00  0.00     0.010 A 
ATOM     53  C   UNL A   1      45.399  32.108  28.763  1.00  0.00    -0.014 A 
BRANCH  53  54
ATOM     54  C   UNL A   1      45.049  30.690  28.551  1.00  0.00     0.031 A 
ATOM     55  C   UNL A   1      43.629  30.259  28.778  1.00  0.00     0.074 A 
ATOM     56  C   UNL A   1      46.006  29.806  28.212  1.00  0.00     0.049 A 
ATOM     57  N   UNL A   1      43.106  29.064  28.695  1.00  0.00    -0.248 NA
ATOM     58  C   UNL A   1      42.679  31.303  29.197  1.00  0.00     0.031 C 
ATOM     59  C   UNL A   1      47.425  30.119  28.031  1.00  0.00     0.029 A 
ATOM     60  N   UNL A   1      45.926  28.463  27.961  1.00  0.00    -0.354 N 
ATOM     61  C   UNL A   1      41.776  29.217  29.063  1.00  0.00     0.074 A 
ATOM     62  C   UNL A   1      41.591  30.596  29.449  1.00  0.00     0.031 C 
ATOM     63  C   UNL A   1      48.076  29.003  27.663  1.00  0.00     0.029 A 
ATOM     64  C   UNL A   1      47.126  27.896  27.610  1.00  0.00     0.049 A 
ATOM     65  H   UNL A   1      45.087  27.951  28.027  1.00  0.00     0.167 HD
ATOM     66  C   UNL A   1      40.788  28.296  29.042  1.00  0.00     0.037 A 
ATOM     67  C   UNL A   1      47.414  26.624  27.277  1.00  0.00     0.037 A 
ATOM     68  C   UNL A   1      40.983  26.937  28.616  1.00  0.00     0.049 A 
ATOM     69  C   UNL A   1      46.294  25.620  27.244  1.00  0.00     0.074 A 
ATOM     70  C   UNL A   1      40.046  25.929  28.489  1.00  0.00     0.029 A 
ATOM     71  N   UNL A   1      42.208  26.403  28.243  1.00  0.00    -0.354 N 
ATOM     72  N   UNL A   1      45.022  25.791  27.518  1.00  0.00    -0.248 NA
ATOM     73  C   UNL A   1      46.646  24.250  26.851  1.00  0.00     0.031 C 
ATOM     74  C   UNL A   1      40.713  24.771  28.078  1.00  0.00     0.029 A 
ATOM     75  C   UNL A   1      42.056  25.071  27.905  1.00  0.00     0.049 A 
ATOM     76  H   UNL A   1      43.058  26.898  28.223  1.00  0.00     0.167 HD
ATOM     77  C   UNL A   1      44.416  24.560  27.305  1.00  0.00     0.074 A 
ATOM     78  C   UNL A   1      45.460  23.657  26.861  1.00  0.00     0.031 C 
ATOM     79  C   UNL A   1      43.119  24.203  27.462  1.00  0.00     0.037 A 
BRANCH  66  80
ATOM     80  C   UNL A   1      39.422  28.738  29.477  1.00  0.00     0.057 A 
ATOM     81  C   UNL A   1      38.514  29.322  28.582  1.00  0.00     0.134 A 
ATOM     82  C   UNL A   1      39.010  28.584  30.806  1.00  0.00     0.134 A 
ATOM     83  F   UNL A   1      38.854  29.519  27.300  1.00  0.00    -0.206 F 
ATOM     84  C   UNL A   1      37.257  29.763  28.999  1.00  0.00     0.040 A 
ATOM     85  C   UNL A   1      37.744  28.993  31.229  1.00  0.00     0.040 A 
ATOM     86  F   UNL A   1      39.829  28.036  31.715  1.00  0.00    -0.206 F 
ATOM     87  C   UNL A   1      36.867  29.593  30.326  1.00  0.00     0.006 A 
ENDBRANCH  66  80
BRANCH  67  88
ATOM     88  C   UNL A   1      48.801  26.242  26.909  1.00  0.00     0.057 A 
ATOM     89  C   UNL A   1      49.267  26.386  25.597  1.00  0.00     0.134 A 
ATOM     90  C   UNL A   1      49.693  25.721  27.853  1.00  0.00     0.134 A 
ATOM     91  F   UNL A   1      48.456  26.869  24.643  1.00  0.00    -0.206 F 
ATOM     92  C   UNL A   1      50.559  26.006  25.231  1.00  0.00     0.040 A 
ATOM     93  C   UNL A   1      50.997  25.358  27.508  1.00  0.00     0.040 A 
ATOM     94  F   UNL A   1      49.315  25.568  29.132  1.00  0.00    -0.206 F 
ATOM     95  C   UNL A   1      51.430  25.493  26.191  1.00  0.00     0.006 A 
ENDBRANCH  67  88
BRANCH  79  96
ATOM     96  C   UNL A   1      42.756  22.787  27.130  1.00  0.00     0.057 A 
ATOM     97  C   UNL A   1      42.510  21.837  28.128  1.00  0.00     0.134 A 
ATOM     98  C   UNL A   1      42.597  22.387  25.796  1.00  0.00     0.134 A 
ATOM     99  F   UNL A   1      42.656  22.157  29.422  1.00  0.00    -0.206 F 
ATOM    100  C   UNL A   1      42.140  20.530  27.810  1.00  0.00     0.040 A 
ATOM    101  C   UNL A   1      42.199  21.092  25.468  1.00  0.00     0.040 A 
ATOM    102  F   UNL A   1      42.806  23.255  24.795  1.00  0.00    -0.206 F 
ATOM    103  C   UNL A   1      41.976  20.157  26.478  1.00  0.00     0.006 A 
ENDBRANCH  79  96
ENDBRANCH  53  54
ENDBRANCH  45  48
ENDBRANCH  43  44
ENDBRANCH  42  43
ENDBRANCH  41  42
ENDBRANCH   1  41
TORSDOF 18
ENDMDL
MODEL 3
REMARK VINA RESULT:     -10.6      0.761      5.758
REMARK SMILES C[C@]12CC[C@H]3[C@@H](CCC4=CC(=O)C=C[C@@]43C)[C@@H]1CC[C@H]2O[C@@H]1O[C@H](C(=O)NCCCCCCNC(=O)c2ccc(-c3c4nc(c(-c5c(F)cccc5F)c5ccc([nH]5)c(-c5c(F)cccc5F)c5nc(c(-c6c(F)cccc6F)c6ccc3[nH]6)C=C5)C=C4)cc2)[C@@H](O)[C@H](O)[C@H]1O
REMARK SMILES IDX 30 1 29 2 28 3 27 4 25 5 26 6 24 8 22 9 23 10 95 11 93 12
REMARK SMILES IDX 91 13 21 14 20 15 1 16 2 17 3 18 17 19 4 20 6 21 18 22 19 23
REMARK SMILES IDX 5 24 7 25 15 26 8 27 9 28 14 29 16 30 10 31 13 32 11 33
REMARK SMILES IDX 12 34 96 35 94 37 92 39 31 41 32 42 33 43 34 44 35 45 36 47
REMARK SMILES IDX 37 48 38 49 90 50 39 51 89 52 40 53 41 54 42 55 83 56 43 57
REMARK SMILES IDX 88 58 82 59 84 60 44 61 87 62 81 63 80 64 45 66 71 67 54 68
REMARK SMILES IDX 70 69 55 70 58 71 69 72 85 73 56 74 57 75 68 77 86 78 59 79
REMARK SMILES IDX 46 80 47 81 52 82 48 83 49 84 51 85 53 86 50 87 72 88 73 89
REMARK SMILES IDX 78 90 74 91 75 92 77 93 79 94 76 95 60 96 61 97 66 98 62 99
REMARK SMILES IDX 63 100 65 101 67 102 64 103
REMARK H PARENT 27 7 96 36 94 38 92 40 34 46 84 65 58 76
REMARK Flexibility Score: inf
ROOT
ATOM      1  C   UNL A   1      44.601  23.943  32.531  1.00  0.00     0.002 C 
ENDROOT
BRANCH   1   2
ATOM      2  C   UNL A   1      43.783  23.842  31.084  1.00  0.00     0.021 C 
BRANCH   2   3
ATOM      3  C   UNL A   1      43.471  22.731  29.317  1.00  0.00     0.116 C 
BRANCH   3   4
ATOM      4  N   UNL A   1      42.339  21.967  28.638  1.00  0.00    -0.354 N 
ATOM      5  C   UNL A   1      42.032  21.658  27.333  1.00  0.00     0.252 C 
ATOM      6  O   UNL A   1      41.010  20.976  27.166  1.00  0.00    -0.272 OA
ATOM      7  H   UNL A   1      41.679  21.616  29.279  1.00  0.00     0.163 HD
BRANCH   5   8
ATOM      8  C   UNL A   1      42.861  22.090  26.085  1.00  0.00     0.241 C 
ATOM      9  C   UNL A   1      44.218  23.816  25.034  1.00  0.00     0.282 C 
ATOM     10  O   UNL A   1      43.472  23.374  26.177  1.00  0.00    -0.334 OA
ATOM     11  C   UNL A   1      45.154  22.741  24.411  1.00  0.00     0.202 C 
ATOM     12  C   UNL A   1      44.496  21.361  24.354  1.00  0.00     0.180 C 
ATOM     13  C   UNL A   1      43.857  20.996  25.695  1.00  0.00     0.184 C 
BRANCH   9  14
ATOM     14  O   UNL A   1      44.860  25.093  25.250  1.00  0.00    -0.346 OA
BRANCH  14  15
ATOM     15  C   UNL A   1      46.272  25.364  25.337  1.00  0.00     0.127 C 
ATOM     16  C   UNL A   1      48.180  27.059  25.493  1.00  0.00     0.014 C 
ATOM     17  C   UNL A   1      46.700  26.748  25.898  1.00  0.00    -0.003 C 
ATOM     18  C   UNL A   1      45.878  27.972  25.398  1.00  0.00     0.010 C 
ATOM     19  C   UNL A   1      46.606  26.379  27.398  1.00  0.00     0.001 C 
ATOM     20  C   UNL A   1      46.048  29.282  26.224  1.00  0.00     0.006 C 
ATOM     21  C   UNL A   1      46.829  27.555  28.296  1.00  0.00    -0.003 C 
ATOM     22  C   UNL A   1      47.405  25.089  27.536  1.00  0.00     0.007 C 
ATOM     23  C   UNL A   1      47.105  24.367  26.194  1.00  0.00     0.033 C 
ATOM     24  C   UNL A   1      45.629  28.979  27.659  1.00  0.00     0.006 C 
ATOM     25  C   UNL A   1      46.900  27.188  30.212  1.00  0.00     0.009 C 
ATOM     26  C   UNL A   1      45.150  30.449  28.858  1.00  0.00     0.010 C 
ATOM     27  C   UNL A   1      46.354  28.636  31.416  1.00  0.00     0.032 C 
ATOM     28  C   UNL A   1      45.365  30.141  30.739  1.00  0.00    -0.056 C 
ATOM     29  C   UNL A   1      43.709  30.991  28.697  1.00  0.00    -0.012 C 
ATOM     30  C   UNL A   1      45.796  31.808  28.355  1.00  0.00     0.021 C 
ATOM     31  C   UNL A   1      44.539  30.787  31.582  1.00  0.00     0.052 C 
ATOM     32  C   UNL A   1      43.017  31.594  29.681  1.00  0.00     0.048 C 
ATOM     33  C   UNL A   1      43.462  31.689  31.099  1.00  0.00     0.178 C 
ATOM     34  O   UNL A   1      42.867  32.415  31.890  1.00  0.00    -0.290 OA
ENDBRANCH  14  15
ENDBRANCH   9  14
BRANCH  11  35
ATOM     35  O   UNL A   1      45.628  23.118  23.111  1.00  0.00    -0.385 OA
ATOM     36  H   UNL A   1      45.679  24.085  23.054  1.00  0.00     0.211 HD
ENDBRANCH  11  35
BRANCH  12  37
ATOM     37  O   UNL A   1      45.445  20.325  24.031  1.00  0.00    -0.387 OA
ATOM     38  H   UNL A   1      45.135  19.480  24.393  1.00  0.00     0.211 HD
ENDBRANCH  12  37
BRANCH  13  39
ATOM     39  O   UNL A   1      43.220  19.723  25.573  1.00  0.00    -0.387 OA
ATOM     40  H   UNL A   1      43.687  19.073  26.121  1.00  0.00     0.211 HD
ENDBRANCH  13  39
ENDBRANCH   5   8
ENDBRANCH   3   4
ENDBRANCH   2   3
ENDBRANCH   1   2
BRANCH   1  41
ATOM     41  C   UNL A   1      45.767  24.861  32.880  1.00  0.00     0.002 C 
BRANCH  41  42
ATOM     42  C   UNL A   1      46.730  24.275  33.912  1.00  0.00     0.021 C 
BRANCH  42  43
ATOM     43  C   UNL A   1      47.711  25.287  34.513  1.00  0.00     0.116 C 
BRANCH  43  44
ATOM     44  N   UNL A   1      47.552  25.441  35.959  1.00  0.00    -0.352 N 
ATOM     45  C   UNL A   1      46.657  26.243  36.615  1.00  0.00     0.251 C 
ATOM     46  H   UNL A   1      48.157  24.907  36.524  1.00  0.00     0.163 HD
ATOM     47  O   UNL A   1      46.700  26.441  37.822  1.00  0.00    -0.269 OA
BRANCH  45  48
ATOM     48  C   UNL A   1      45.603  26.822  35.784  1.00  0.00     0.039 A 
ATOM     49  C   UNL A   1      44.302  26.333  35.874  1.00  0.00     0.014 A 
ATOM     50  C   UNL A   1      45.913  28.002  35.101  1.00  0.00     0.014 A 
ATOM     51  C   UNL A   1      43.279  27.060  35.275  1.00  0.00     0.010 A 
ATOM     52  C   UNL A   1      44.883  28.760  34.580  1.00  0.00     0.010 A 
ATOM     53  C   UNL A   1      43.564  28.283  34.642  1.00  0.00    -0.014 A 
BRANCH  53  54
ATOM     54  C   UNL A   1      42.501  29.053  33.966  1.00  0.00     0.031 A 
ATOM     55  C   UNL A   1      42.073  28.630  32.591  1.00  0.00     0.074 A 
ATOM     56  C   UNL A   1      41.977  30.139  34.563  1.00  0.00     0.049 A 
ATOM     57  N   UNL A   1      41.195  29.180  31.796  1.00  0.00    -0.248 NA
ATOM     58  C   UNL A   1      42.753  27.457  32.016  1.00  0.00     0.031 C 
ATOM     59  C   UNL A   1      42.373  30.664  35.871  1.00  0.00     0.029 A 
ATOM     60  N   UNL A   1      40.995  30.995  34.144  1.00  0.00    -0.354 N 
ATOM     61  C   UNL A   1      41.231  28.428  30.629  1.00  0.00     0.074 A 
ATOM     62  C   UNL A   1      42.271  27.438  30.786  1.00  0.00     0.031 C 
ATOM     63  C   UNL A   1      41.616  31.735  36.162  1.00  0.00     0.029 A 
ATOM     64  C   UNL A   1      40.703  31.984  35.051  1.00  0.00     0.049 A 
ATOM     65  H   UNL A   1      40.542  30.911  33.274  1.00  0.00     0.167 HD
ATOM     66  C   UNL A   1      40.439  28.529  29.539  1.00  0.00     0.037 A 
ATOM     67  C   UNL A   1      39.791  32.972  34.985  1.00  0.00     0.037 A 
ATOM     68  C   UNL A   1      39.382  29.495  29.417  1.00  0.00     0.049 A 
ATOM     69  C   UNL A   1      38.909  33.055  33.768  1.00  0.00     0.074 A 
ATOM     70  C   UNL A   1      38.470  29.653  28.391  1.00  0.00     0.029 A 
ATOM     71  N   UNL A   1      39.097  30.466  30.367  1.00  0.00    -0.354 N 
ATOM     72  N   UNL A   1      38.897  32.289  32.702  1.00  0.00    -0.248 NA
ATOM     73  C   UNL A   1      37.910  34.131  33.748  1.00  0.00     0.031 C 
ATOM     74  C   UNL A   1      37.659  30.749  28.701  1.00  0.00     0.029 A 
ATOM     75  C   UNL A   1      38.036  31.243  29.941  1.00  0.00     0.049 A 
ATOM     76  H   UNL A   1      39.579  30.585  31.216  1.00  0.00     0.167 HD
ATOM     77  C   UNL A   1      37.875  32.773  31.896  1.00  0.00     0.074 A 
ATOM     78  C   UNL A   1      37.279  33.887  32.608  1.00  0.00     0.031 C 
ATOM     79  C   UNL A   1      37.465  32.342  30.679  1.00  0.00     0.037 A 
BRANCH  66  80
ATOM     80  C   UNL A   1      40.684  27.566  28.415  1.00  0.00     0.057 A 
ATOM     81  C   UNL A   1      40.083  26.299  28.383  1.00  0.00     0.134 A 
ATOM     82  C   UNL A   1      41.533  27.904  27.355  1.00  0.00     0.134 A 
ATOM     83  F   UNL A   1      39.276  25.904  29.378  1.00  0.00    -0.206 F 
ATOM     84  C   UNL A   1      40.341  25.393  27.352  1.00  0.00     0.040 A 
ATOM     85  C   UNL A   1      41.775  27.019  26.303  1.00  0.00     0.040 A 
ATOM     86  F   UNL A   1      42.143  29.098  27.325  1.00  0.00    -0.206 F 
ATOM     87  C   UNL A   1      41.185  25.756  26.304  1.00  0.00     0.006 A 
ENDBRANCH  66  80
BRANCH  67  88
ATOM     88  C   UNL A   1      39.638  33.927  36.112  1.00  0.00     0.057 A 
ATOM     89  C   UNL A   1      38.871  33.600  37.237  1.00  0.00     0.134 A 
ATOM     90  C   UNL A   1      40.248  35.186  36.094  1.00  0.00     0.134 A 
ATOM     91  F   UNL A   1      38.251  32.413  37.309  1.00  0.00    -0.206 F 
ATOM     92  C   UNL A   1      38.697  34.498  38.291  1.00  0.00     0.040 A 
ATOM     93  C   UNL A   1      40.103  36.086  37.153  1.00  0.00     0.040 A 
ATOM     94  F   UNL A   1      41.008  35.557  35.052  1.00  0.00    -0.206 F 
ATOM     95  C   UNL A   1      39.318  35.745  38.251  1.00  0.00     0.006 A 
ENDBRANCH  67  88
BRANCH  79  96
ATOM     96  C   UNL A   1      36.307  33.060  30.055  1.00  0.00     0.057 A 
ATOM     97  C   UNL A   1      34.994  32.869  30.502  1.00  0.00     0.134 A 
ATOM     98  C   UNL A   1      36.516  33.995  29.033  1.00  0.00     0.134 A 
ATOM     99  F   UNL A   1      34.729  31.979  31.471  1.00  0.00    -0.206 F 
ATOM    100  C   UNL A   1      33.926  33.566  29.939  1.00  0.00     0.040 A 
ATOM    101  C   UNL A   1      35.460  34.720  28.483  1.00  0.00     0.040 A 
ATOM    102  F   UNL A   1      37.753  34.233  28.570  1.00  0.00    -0.206 F 
ATOM    103  C   UNL A   1      34.159  34.501  28.932  1.00  0.00     0.006 A 
ENDBRANCH  79  96
ENDBRANCH  53  54
ENDBRANCH  45  48
ENDBRANCH  43  44
ENDBRANCH  42  43
ENDBRANCH  41  42
ENDBRANCH   1  41
TORSDOF 18
ENDMDL
