MODEL 1
REMARK VINA RESULT:     -10.9      0.000      0.000
REMARK SMILES CCOc1oc(C[C@H]2CCCCO2)nc1C(=O)NCCCCCCNC(=O)c1ccc(-c2c3nc(c(-c4c(F)cccc4F)c4ccc([nH]4)c(-c4c(F)cccc4F)c4nc(c(-c5c(F)cccc5F)c5ccc2[nH]5)C=C4)C=C3)cc1
REMARK SMILES IDX 21 1 20 2 19 3 18 4 16 5 17 6 15 8 4 9 5 10 6 11 14 12 3 13
REMARK SMILES IDX 2 14 1 15 7 16 8 17 9 18 13 19 10 20 12 21 11 22 22 23 23 24
REMARK SMILES IDX 24 25 25 26 26 27 27 29 28 30 29 31 81 32 30 33 80 34 31 35
REMARK SMILES IDX 32 36 33 37 74 38 34 39 79 40 73 41 75 42 35 43 78 44 72 45
REMARK SMILES IDX 71 46 36 48 62 49 45 50 61 51 46 52 49 53 60 54 76 55 47 56
REMARK SMILES IDX 48 57 59 59 77 60 50 61 37 62 38 63 43 64 39 65 40 66 42 67
REMARK SMILES IDX 44 68 41 69 63 70 64 71 69 72 65 73 66 74 68 75 70 76 67 77
REMARK SMILES IDX 51 78 52 79 57 80 53 81 54 82 56 83 58 84 55 85
REMARK H PARENT 18 7 25 28 75 47 49 58
REMARK Flexibility Score: inf
ROOT
ATOM      1  C   UNL A   1      31.925  29.269  26.816  1.00  0.00     0.002 C 
ENDROOT
BRANCH   1   2
ATOM      2  C   UNL A   1      33.281  28.588  26.625  1.00  0.00     0.021 C 
BRANCH   2   3
ATOM      3  C   UNL A   1      33.381  27.631  25.440  1.00  0.00     0.116 C 
BRANCH   3   4
ATOM      4  N   UNL A   1      33.895  28.268  24.242  1.00  0.00    -0.350 N 
ATOM      5  C   UNL A   1      33.826  27.883  22.925  1.00  0.00     0.277 C 
ATOM      6  O   UNL A   1      34.337  28.628  22.090  1.00  0.00    -0.267 OA
ATOM      7  H   UNL A   1      34.372  29.115  24.400  1.00  0.00     0.163 HD
BRANCH   5   8
ATOM      8  C   UNL A   1      33.198  26.620  22.570  1.00  0.00     0.212 A 
ATOM      9  C   UNL A   1      31.895  26.442  22.153  1.00  0.00     0.318 A 
ATOM     10  O   UNL A   1      31.698  25.113  21.899  1.00  0.00    -0.409 OA
ATOM     11  C   UNL A   1      32.897  24.536  22.211  1.00  0.00     0.202 A 
ATOM     12  N   UNL A   1      33.814  25.381  22.624  1.00  0.00    -0.204 NA
BRANCH   9  13
ATOM     13  O   UNL A   1      30.823  27.208  21.990  1.00  0.00    -0.464 OA
BRANCH  13  14
ATOM     14  C   UNL A   1      30.185  27.612  23.201  1.00  0.00     0.230 C 
ATOM     15  C   UNL A   1      29.470  28.943  23.042  1.00  0.00     0.049 C 
ENDBRANCH  13  14
ENDBRANCH   9  13
BRANCH  11  16
ATOM     16  C   UNL A   1      33.048  23.074  22.013  1.00  0.00     0.129 C 
BRANCH  16  17
ATOM     17  C   UNL A   1      32.979  22.277  23.319  1.00  0.00     0.127 C 
ATOM     18  C   UNL A   1      32.353  20.893  23.109  1.00  0.00     0.033 C 
ATOM     19  O   UNL A   1      34.330  22.129  23.794  1.00  0.00    -0.378 OA
ATOM     20  C   UNL A   1      32.444  20.047  24.375  1.00  0.00     0.005 C 
ATOM     21  C   UNL A   1      34.398  21.451  25.048  1.00  0.00     0.160 C 
ATOM     22  C   UNL A   1      33.869  20.032  24.909  1.00  0.00     0.029 C 
ENDBRANCH  16  17
ENDBRANCH  11  16
ENDBRANCH   5   8
ENDBRANCH   3   4
ENDBRANCH   2   3
ENDBRANCH   1   2
BRANCH   1  23
ATOM     23  C   UNL A   1      31.623  30.439  25.876  1.00  0.00     0.002 C 
BRANCH  23  24
ATOM     24  C   UNL A   1      31.424  31.799  26.546  1.00  0.00     0.021 C 
BRANCH  24  25
ATOM     25  C   UNL A   1      32.672  32.402  27.174  1.00  0.00     0.116 C 
BRANCH  25  26
ATOM     26  N   UNL A   1      32.492  33.797  27.537  1.00  0.00    -0.352 N 
ATOM     27  C   UNL A   1      33.144  34.536  28.491  1.00  0.00     0.251 C 
ATOM     28  H   UNL A   1      31.803  34.280  27.026  1.00  0.00     0.163 HD
ATOM     29  O   UNL A   1      32.747  35.660  28.783  1.00  0.00    -0.269 OA
BRANCH  27  30
ATOM     30  C   UNL A   1      34.318  33.966  29.190  1.00  0.00     0.039 A 
ATOM     31  C   UNL A   1      34.111  32.997  30.174  1.00  0.00     0.014 A 
ATOM     32  C   UNL A   1      35.614  34.390  28.881  1.00  0.00     0.014 A 
ATOM     33  C   UNL A   1      35.208  32.410  30.809  1.00  0.00     0.010 A 
ATOM     34  C   UNL A   1      36.708  33.753  29.461  1.00  0.00     0.010 A 
ATOM     35  C   UNL A   1      36.516  32.762  30.437  1.00  0.00    -0.014 A 
BRANCH  35  36
ATOM     36  C   UNL A   1      37.696  32.114  31.062  1.00  0.00     0.031 A 
ATOM     37  C   UNL A   1      38.433  31.026  30.331  1.00  0.00     0.074 A 
ATOM     38  C   UNL A   1      38.066  32.458  32.311  1.00  0.00     0.049 A 
ATOM     39  N   UNL A   1      39.434  30.287  30.738  1.00  0.00    -0.248 NA
ATOM     40  C   UNL A   1      37.964  30.706  28.974  1.00  0.00     0.031 C 
ATOM     41  C   UNL A   1      37.407  33.468  33.141  1.00  0.00     0.029 A 
ATOM     42  N   UNL A   1      39.081  31.987  33.104  1.00  0.00    -0.354 N 
ATOM     43  C   UNL A   1      39.703  29.409  29.697  1.00  0.00     0.074 A 
ATOM     44  C   UNL A   1      38.728  29.671  28.660  1.00  0.00     0.031 C 
ATOM     45  C   UNL A   1      38.046  33.553  34.319  1.00  0.00     0.029 A 
ATOM     46  C   UNL A   1      39.134  32.581  34.342  1.00  0.00     0.049 A 
ATOM     47  H   UNL A   1      39.711  31.288  32.815  1.00  0.00     0.167 HD
ATOM     48  C   UNL A   1      40.686  28.483  29.602  1.00  0.00     0.037 A 
ATOM     49  C   UNL A   1      39.962  32.360  35.381  1.00  0.00     0.037 A 
ATOM     50  C   UNL A   1      41.672  28.242  30.623  1.00  0.00     0.049 A 
ATOM     51  C   UNL A   1      41.044  31.324  35.252  1.00  0.00     0.074 A 
ATOM     52  C   UNL A   1      42.744  27.367  30.597  1.00  0.00     0.029 A 
ATOM     53  N   UNL A   1      41.704  28.880  31.854  1.00  0.00    -0.354 N 
ATOM     54  N   UNL A   1      41.325  30.544  34.237  1.00  0.00    -0.248 NA
ATOM     55  C   UNL A   1      41.926  31.141  36.413  1.00  0.00     0.031 C 
ATOM     56  C   UNL A   1      43.402  27.445  31.829  1.00  0.00     0.029 A 
ATOM     57  C   UNL A   1      42.766  28.403  32.604  1.00  0.00     0.049 A 
ATOM     58  H   UNL A   1      41.067  29.568  32.151  1.00  0.00     0.167 HD
ATOM     59  C   UNL A   1      42.432  29.801  34.624  1.00  0.00     0.074 A 
ATOM     60  C   UNL A   1      42.779  30.232  35.963  1.00  0.00     0.031 C 
ATOM     61  C   UNL A   1      43.103  28.849  33.932  1.00  0.00     0.037 A 
BRANCH  48  62
ATOM     62  C   UNL A   1      40.745  27.662  28.347  1.00  0.00     0.057 A 
ATOM     63  C   UNL A   1      40.053  26.449  28.224  1.00  0.00     0.134 A 
ATOM     64  C   UNL A   1      41.477  28.102  27.237  1.00  0.00     0.134 A 
ATOM     65  F   UNL A   1      39.344  25.964  29.255  1.00  0.00    -0.206 F 
ATOM     66  C   UNL A   1      40.111  25.690  27.054  1.00  0.00     0.040 A 
ATOM     67  C   UNL A   1      41.518  27.366  26.051  1.00  0.00     0.040 A 
ATOM     68  F   UNL A   1      42.157  29.257  27.283  1.00  0.00    -0.206 F 
ATOM     69  C   UNL A   1      40.839  26.152  25.960  1.00  0.00     0.006 A 
ENDBRANCH  48  62
BRANCH  49  70
ATOM     70  C   UNL A   1      39.816  33.153  36.627  1.00  0.00     0.057 A 
ATOM     71  C   UNL A   1      38.920  32.764  37.629  1.00  0.00     0.134 A 
ATOM     72  C   UNL A   1      40.561  34.318  36.845  1.00  0.00     0.134 A 
ATOM     73  F   UNL A   1      38.165  31.667  37.469  1.00  0.00    -0.206 F 
ATOM     74  C   UNL A   1      38.755  33.514  38.794  1.00  0.00     0.040 A 
ATOM     75  C   UNL A   1      40.423  35.065  38.017  1.00  0.00     0.040 A 
ATOM     76  F   UNL A   1      41.443  34.741  35.927  1.00  0.00    -0.206 F 
ATOM     77  C   UNL A   1      39.512  34.666  38.992  1.00  0.00     0.006 A 
ENDBRANCH  49  70
BRANCH  61  78
ATOM     78  C   UNL A   1      44.301  28.234  34.594  1.00  0.00     0.057 A 
ATOM     79  C   UNL A   1      45.578  28.798  34.485  1.00  0.00     0.134 A 
ATOM     80  C   UNL A   1      44.166  27.085  35.384  1.00  0.00     0.134 A 
ATOM     81  F   UNL A   1      45.777  29.891  33.734  1.00  0.00    -0.206 F 
ATOM     82  C   UNL A   1      46.682  28.230  35.123  1.00  0.00     0.040 A 
ATOM     83  C   UNL A   1      45.257  26.522  36.047  1.00  0.00     0.040 A 
ATOM     84  F   UNL A   1      42.968  26.500  35.535  1.00  0.00    -0.206 F 
ATOM     85  C   UNL A   1      46.521  27.092  35.913  1.00  0.00     0.006 A 
ENDBRANCH  61  78
ENDBRANCH  35  36
ENDBRANCH  27  30
ENDBRANCH  25  26
ENDBRANCH  24  25
ENDBRANCH  23  24
ENDBRANCH   1  23
TORSDOF 17
ENDMDL
MODEL 2
REMARK VINA RESULT:     -10.8      4.230      9.091
REMARK SMILES CCOc1oc(C[C@H]2CCCCO2)nc1C(=O)NCCCCCCNC(=O)c1ccc(-c2c3nc(c(-c4c(F)cccc4F)c4ccc([nH]4)c(-c4c(F)cccc4F)c4nc(c(-c5c(F)cccc5F)c5ccc2[nH]5)C=C4)C=C3)cc1
REMARK SMILES IDX 21 1 20 2 19 3 18 4 16 5 17 6 15 8 4 9 5 10 6 11 14 12 3 13
REMARK SMILES IDX 2 14 1 15 7 16 8 17 9 18 13 19 10 20 12 21 11 22 22 23 23 24
REMARK SMILES IDX 24 25 25 26 26 27 27 29 28 30 29 31 81 32 30 33 80 34 31 35
REMARK SMILES IDX 32 36 33 37 74 38 34 39 79 40 73 41 75 42 35 43 78 44 72 45
REMARK SMILES IDX 71 46 36 48 62 49 45 50 61 51 46 52 49 53 60 54 76 55 47 56
REMARK SMILES IDX 48 57 59 59 77 60 50 61 37 62 38 63 43 64 39 65 40 66 42 67
REMARK SMILES IDX 44 68 41 69 63 70 64 71 69 72 65 73 66 74 68 75 70 76 67 77
REMARK SMILES IDX 51 78 52 79 57 80 53 81 54 82 56 83 58 84 55 85
REMARK H PARENT 18 7 25 28 75 47 49 58
REMARK Flexibility Score: inf
ROOT
ATOM      1  C   UNL A   1      37.821  22.525  25.620  1.00  0.00     0.002 C 
ENDROOT
BRANCH   1   2
ATOM      2  C   UNL A   1      36.665  23.429  26.048  1.00  0.00     0.021 C 
BRANCH   2   3
ATOM      3  C   UNL A   1      35.265  22.850  25.859  1.00  0.00     0.116 C 
BRANCH   3   4
ATOM      4  N   UNL A   1      34.583  22.601  27.114  1.00  0.00    -0.350 N 
ATOM      5  C   UNL A   1      33.245  22.637  27.427  1.00  0.00     0.277 C 
ATOM      6  O   UNL A   1      32.928  22.360  28.584  1.00  0.00    -0.267 OA
ATOM      7  H   UNL A   1      35.176  22.367  27.864  1.00  0.00     0.163 HD
BRANCH   5   8
ATOM      8  C   UNL A   1      32.274  23.026  26.418  1.00  0.00     0.212 A 
ATOM      9  C   UNL A   1      31.677  22.196  25.493  1.00  0.00     0.318 A 
ATOM     10  O   UNL A   1      30.811  22.938  24.738  1.00  0.00    -0.409 OA
ATOM     11  C   UNL A   1      30.953  24.207  25.225  1.00  0.00     0.202 A 
ATOM     12  N   UNL A   1      31.814  24.316  26.211  1.00  0.00    -0.204 NA
BRANCH   9  13
ATOM     13  O   UNL A   1      31.768  20.917  25.145  1.00  0.00    -0.464 OA
BRANCH  13  14
ATOM     14  C   UNL A   1      32.571  20.667  23.992  1.00  0.00     0.230 C 
ATOM     15  C   UNL A   1      32.334  19.273  23.435  1.00  0.00     0.049 C 
ENDBRANCH  13  14
ENDBRANCH   9  13
BRANCH  11  16
ATOM     16  C   UNL A   1      30.115  25.283  24.642  1.00  0.00     0.129 C 
BRANCH  16  17
ATOM     17  C   UNL A   1      30.901  26.560  24.332  1.00  0.00     0.127 C 
ATOM     18  C   UNL A   1      30.260  27.360  23.192  1.00  0.00     0.033 C 
ATOM     19  O   UNL A   1      30.908  27.353  25.534  1.00  0.00    -0.378 OA
ATOM     20  C   UNL A   1      30.949  28.708  23.006  1.00  0.00     0.005 C 
ATOM     21  C   UNL A   1      31.668  28.553  25.394  1.00  0.00     0.160 C 
ATOM     22  C   UNL A   1      31.048  29.448  24.333  1.00  0.00     0.029 C 
ENDBRANCH  16  17
ENDBRANCH  11  16
ENDBRANCH   5   8
ENDBRANCH   3   4
ENDBRANCH   2   3
ENDBRANCH   1   2
BRANCH   1  23
ATOM     23  C   UNL A   1      37.473  21.419  24.621  1.00  0.00     0.002 C 
BRANCH  23  24
ATOM     24  C   UNL A   1      38.170  20.075  24.843  1.00  0.00     0.021 C 
BRANCH  24  25
ATOM     25  C   UNL A   1      39.053  19.999  26.079  1.00  0.00     0.116 C 
BRANCH  25  26
ATOM     26  N   UNL A   1      40.237  19.186  25.865  1.00  0.00    -0.352 N 
ATOM     27  C   UNL A   1      41.560  19.540  25.953  1.00  0.00     0.251 C 
ATOM     28  H   UNL A   1      40.066  18.247  25.621  1.00  0.00     0.163 HD
ATOM     29  O   UNL A   1      42.435  18.768  25.573  1.00  0.00    -0.269 OA
BRANCH  27  30
ATOM     30  C   UNL A   1      41.933  20.868  26.489  1.00  0.00     0.039 A 
ATOM     31  C   UNL A   1      42.272  21.885  25.592  1.00  0.00     0.014 A 
ATOM     32  C   UNL A   1      41.955  21.108  27.865  1.00  0.00     0.014 A 
ATOM     33  C   UNL A   1      42.577  23.159  26.075  1.00  0.00     0.010 A 
ATOM     34  C   UNL A   1      42.189  22.396  28.341  1.00  0.00     0.010 A 
ATOM     35  C   UNL A   1      42.510  23.433  27.450  1.00  0.00    -0.014 A 
BRANCH  35  36
ATOM     36  C   UNL A   1      42.780  24.793  27.980  1.00  0.00     0.031 A 
ATOM     37  C   UNL A   1      44.172  25.175  28.402  1.00  0.00     0.074 A 
ATOM     38  C   UNL A   1      41.763  25.663  28.142  1.00  0.00     0.049 A 
ATOM     39  N   UNL A   1      44.593  26.282  28.959  1.00  0.00    -0.248 NA
ATOM     40  C   UNL A   1      45.224  24.168  28.196  1.00  0.00     0.031 C 
ATOM     41  C   UNL A   1      40.362  25.398  27.811  1.00  0.00     0.029 A 
ATOM     42  N   UNL A   1      41.752  26.942  28.637  1.00  0.00    -0.354 N 
ATOM     43  C   UNL A   1      45.951  26.098  29.183  1.00  0.00     0.074 A 
ATOM     44  C   UNL A   1      46.273  24.755  28.750  1.00  0.00     0.031 C 
ATOM     45  C   UNL A   1      39.630  26.488  28.096  1.00  0.00     0.029 A 
ATOM     46  C   UNL A   1      40.502  27.513  28.661  1.00  0.00     0.049 A 
ATOM     47  H   UNL A   1      42.562  27.407  28.947  1.00  0.00     0.167 HD
ATOM     48  C   UNL A   1      46.853  26.975  29.684  1.00  0.00     0.037 A 
ATOM     49  C   UNL A   1      40.104  28.723  29.098  1.00  0.00     0.037 A 
ATOM     50  C   UNL A   1      46.536  28.319  30.089  1.00  0.00     0.049 A 
ATOM     51  C   UNL A   1      41.124  29.677  29.652  1.00  0.00     0.074 A 
ATOM     52  C   UNL A   1      47.390  29.304  30.554  1.00  0.00     0.029 A 
ATOM     53  N   UNL A   1      45.262  28.866  30.078  1.00  0.00    -0.354 N 
ATOM     54  N   UNL A   1      42.416  29.512  29.801  1.00  0.00    -0.248 NA
ATOM     55  C   UNL A   1      40.631  30.988  30.096  1.00  0.00     0.031 C 
ATOM     56  C   UNL A   1      46.627  30.435  30.863  1.00  0.00     0.029 A 
ATOM     57  C   UNL A   1      45.304  30.169  30.547  1.00  0.00     0.049 A 
ATOM     58  H   UNL A   1      44.448  28.398  29.782  1.00  0.00     0.167 HD
ATOM     59  C   UNL A   1      42.894  30.706  30.326  1.00  0.00     0.074 A 
ATOM     60  C   UNL A   1      41.755  31.590  30.459  1.00  0.00     0.031 C 
ATOM     61  C   UNL A   1      44.163  31.040  30.665  1.00  0.00     0.037 A 
BRANCH  48  62
ATOM     62  C   UNL A   1      48.273  26.506  29.819  1.00  0.00     0.057 A 
ATOM     63  C   UNL A   1      48.721  25.826  30.959  1.00  0.00     0.134 A 
ATOM     64  C   UNL A   1      49.195  26.710  28.785  1.00  0.00     0.134 A 
ATOM     65  F   UNL A   1      47.892  25.610  31.991  1.00  0.00    -0.206 F 
ATOM     66  C   UNL A   1      50.042  25.391  31.078  1.00  0.00     0.040 A 
ATOM     67  C   UNL A   1      50.512  26.255  28.881  1.00  0.00     0.040 A 
ATOM     68  F   UNL A   1      48.832  27.348  27.663  1.00  0.00    -0.206 F 
ATOM     69  C   UNL A   1      50.940  25.599  30.034  1.00  0.00     0.006 A 
ENDBRANCH  48  62
BRANCH  49  70
ATOM     70  C   UNL A   1      38.674  29.111  29.006  1.00  0.00     0.057 A 
ATOM     71  C   UNL A   1      38.125  29.560  27.799  1.00  0.00     0.134 A 
ATOM     72  C   UNL A   1      37.825  29.049  30.117  1.00  0.00     0.134 A 
ATOM     73  F   UNL A   1      38.893  29.659  26.704  1.00  0.00    -0.206 F 
ATOM     74  C   UNL A   1      36.789  29.952  27.705  1.00  0.00     0.040 A 
ATOM     75  C   UNL A   1      36.481  29.414  30.031  1.00  0.00     0.040 A 
ATOM     76  F   UNL A   1      38.289  28.620  31.301  1.00  0.00    -0.206 F 
ATOM     77  C   UNL A   1      35.961  29.875  28.823  1.00  0.00     0.006 A 
ENDBRANCH  49  70
BRANCH  61  78
ATOM     78  C   UNL A   1      44.393  32.431  31.178  1.00  0.00     0.057 A 
ATOM     79  C   UNL A   1      44.357  32.731  32.545  1.00  0.00     0.134 A 
ATOM     80  C   UNL A   1      44.697  33.474  30.293  1.00  0.00     0.134 A 
ATOM     81  F   UNL A   1      44.060  31.780  33.442  1.00  0.00    -0.206 F 
ATOM     82  C   UNL A   1      44.595  34.025  33.012  1.00  0.00     0.040 A 
ATOM     83  C   UNL A   1      44.961  34.765  30.751  1.00  0.00     0.040 A 
ATOM     84  F   UNL A   1      44.755  33.251  28.971  1.00  0.00    -0.206 F 
ATOM     85  C   UNL A   1      44.905  35.045  32.114  1.00  0.00     0.006 A 
ENDBRANCH  61  78
ENDBRANCH  35  36
ENDBRANCH  27  30
ENDBRANCH  25  26
ENDBRANCH  24  25
ENDBRANCH  23  24
ENDBRANCH   1  23
TORSDOF 17
ENDMDL
MODEL 3
REMARK VINA RESULT:     -10.7      4.891     10.107
REMARK SMILES CCOc1oc(C[C@H]2CCCCO2)nc1C(=O)NCCCCCCNC(=O)c1ccc(-c2c3nc(c(-c4c(F)cccc4F)c4ccc([nH]4)c(-c4c(F)cccc4F)c4nc(c(-c5c(F)cccc5F)c5ccc2[nH]5)C=C4)C=C3)cc1
REMARK SMILES IDX 21 1 20 2 19 3 18 4 16 5 17 6 15 8 4 9 5 10 6 11 14 12 3 13
REMARK SMILES IDX 2 14 1 15 7 16 8 17 9 18 13 19 10 20 12 21 11 22 22 23 23 24
REMARK SMILES IDX 24 25 25 26 26 27 27 29 28 30 29 31 81 32 30 33 80 34 31 35
REMARK SMILES IDX 32 36 33 37 74 38 34 39 79 40 73 41 75 42 35 43 78 44 72 45
REMARK SMILES IDX 71 46 36 48 62 49 45 50 61 51 46 52 49 53 60 54 76 55 47 56
REMARK SMILES IDX 48 57 59 59 77 60 50 61 37 62 38 63 43 64 39 65 40 66 42 67
REMARK SMILES IDX 44 68 41 69 63 70 64 71 69 72 65 73 66 74 68 75 70 76 67 77
REMARK SMILES IDX 51 78 52 79 57 80 53 81 54 82 56 83 58 84 55 85
REMARK H PARENT 18 7 25 28 75 47 49 58
REMARK Flexibility Score: inf
ROOT
ATOM      1  C   UNL A   1      37.307  22.199  24.878  1.00  0.00     0.002 C 
ENDROOT
BRANCH   1   2
ATOM      2  C   UNL A   1      36.262  23.280  24.600  1.00  0.00     0.021 C 
BRANCH   2   3
ATOM      3  C   UNL A   1      35.551  23.846  25.827  1.00  0.00     0.116 C 
BRANCH   3   4
ATOM      4  N   UNL A   1      35.120  22.817  26.753  1.00  0.00    -0.350 N 
ATOM      5  C   UNL A   1      33.860  22.371  27.073  1.00  0.00     0.277 C 
ATOM      6  O   UNL A   1      33.774  21.456  27.892  1.00  0.00    -0.267 OA
ATOM      7  H   UNL A   1      35.852  22.363  27.233  1.00  0.00     0.163 HD
BRANCH   5   8
ATOM      8  C   UNL A   1      32.695  23.002  26.475  1.00  0.00     0.212 A 
ATOM      9  C   UNL A   1      31.828  22.429  25.568  1.00  0.00     0.318 A 
ATOM     10  O   UNL A   1      30.853  23.338  25.264  1.00  0.00    -0.409 OA
ATOM     11  C   UNL A   1      31.199  24.447  25.985  1.00  0.00     0.202 A 
ATOM     12  N   UNL A   1      32.286  24.305  26.708  1.00  0.00    -0.204 NA
BRANCH   9  13
ATOM     13  O   UNL A   1      31.741  21.276  24.914  1.00  0.00    -0.464 OA
BRANCH  13  14
ATOM     14  C   UNL A   1      32.880  20.951  24.119  1.00  0.00     0.230 C 
ATOM     15  C   UNL A   1      33.429  19.576  24.460  1.00  0.00     0.049 C 
ENDBRANCH  13  14
ENDBRANCH   9  13
BRANCH  11  16
ATOM     16  C   UNL A   1      30.317  25.637  25.915  1.00  0.00     0.129 C 
BRANCH  16  17
ATOM     17  C   UNL A   1      30.713  26.618  24.809  1.00  0.00     0.127 C 
ATOM     18  C   UNL A   1      29.594  26.792  23.775  1.00  0.00     0.033 C 
ATOM     19  O   UNL A   1      30.984  27.882  25.443  1.00  0.00    -0.378 OA
ATOM     20  C   UNL A   1      29.930  27.894  22.776  1.00  0.00     0.005 C 
ATOM     21  C   UNL A   1      31.427  28.875  24.519  1.00  0.00     0.160 C 
ATOM     22  C   UNL A   1      30.337  29.169  23.500  1.00  0.00     0.029 C 
ENDBRANCH  16  17
ENDBRANCH  11  16
ENDBRANCH   5   8
ENDBRANCH   3   4
ENDBRANCH   2   3
ENDBRANCH   1   2
BRANCH   1  23
ATOM     23  C   UNL A   1      36.871  20.758  24.601  1.00  0.00     0.002 C 
BRANCH  23  24
ATOM     24  C   UNL A   1      37.904  19.675  24.917  1.00  0.00     0.021 C 
BRANCH  24  25
ATOM     25  C   UNL A   1      39.116  20.146  25.709  1.00  0.00     0.116 C 
BRANCH  25  26
ATOM     26  N   UNL A   1      40.138  19.120  25.819  1.00  0.00    -0.352 N 
ATOM     27  C   UNL A   1      41.478  19.256  26.082  1.00  0.00     0.251 C 
ATOM     28  H   UNL A   1      39.825  18.196  25.686  1.00  0.00     0.163 HD
ATOM     29  O   UNL A   1      42.231  18.293  25.973  1.00  0.00    -0.269 OA
BRANCH  27  30
ATOM     30  C   UNL A   1      42.021  20.574  26.478  1.00  0.00     0.039 A 
ATOM     31  C   UNL A   1      42.498  21.432  25.484  1.00  0.00     0.014 A 
ATOM     32  C   UNL A   1      42.067  20.959  27.821  1.00  0.00     0.014 A 
ATOM     33  C   UNL A   1      42.967  22.701  25.832  1.00  0.00     0.010 A 
ATOM     34  C   UNL A   1      42.467  22.250  28.158  1.00  0.00     0.010 A 
ATOM     35  C   UNL A   1      42.929  23.131  27.168  1.00  0.00    -0.014 A 
BRANCH  35  36
ATOM     36  C   UNL A   1      43.374  24.493  27.552  1.00  0.00     0.031 A 
ATOM     37  C   UNL A   1      42.364  25.531  27.956  1.00  0.00     0.074 A 
ATOM     38  C   UNL A   1      44.680  24.817  27.476  1.00  0.00     0.049 A 
ATOM     39  N   UNL A   1      42.547  26.794  28.250  1.00  0.00    -0.248 NA
ATOM     40  C   UNL A   1      40.959  25.099  28.010  1.00  0.00     0.031 C 
ATOM     41  C   UNL A   1      45.753  23.913  27.057  1.00  0.00     0.029 A 
ATOM     42  N   UNL A   1      45.325  25.999  27.738  1.00  0.00    -0.354 N 
ATOM     43  C   UNL A   1      41.283  27.307  28.508  1.00  0.00     0.074 A 
ATOM     44  C   UNL A   1      40.337  26.235  28.286  1.00  0.00     0.031 C 
ATOM     45  C   UNL A   1      46.924  24.569  27.109  1.00  0.00     0.029 A 
ATOM     46  C   UNL A   1      46.682  25.946  27.528  1.00  0.00     0.049 A 
ATOM     47  H   UNL A   1      44.859  26.810  28.047  1.00  0.00     0.167 HD
ATOM     48  C   UNL A   1      40.941  28.553  28.913  1.00  0.00     0.037 A 
ATOM     49  C   UNL A   1      47.622  26.902  27.651  1.00  0.00     0.037 A 
ATOM     50  C   UNL A   1      41.886  29.611  29.160  1.00  0.00     0.049 A 
ATOM     51  C   UNL A   1      47.217  28.278  28.099  1.00  0.00     0.074 A 
ATOM     52  C   UNL A   1      41.645  30.891  29.629  1.00  0.00     0.029 A 
ATOM     53  N   UNL A   1      43.254  29.511  28.954  1.00  0.00    -0.354 N 
ATOM     54  N   UNL A   1      46.025  28.733  28.399  1.00  0.00    -0.248 NA
ATOM     55  C   UNL A   1      48.291  29.273  28.232  1.00  0.00     0.031 C 
ATOM     56  C   UNL A   1      42.862  31.578  29.670  1.00  0.00     0.029 A 
ATOM     57  C   UNL A   1      43.867  30.712  29.270  1.00  0.00     0.049 A 
ATOM     58  H   UNL A   1      43.719  28.706  28.632  1.00  0.00     0.167 HD
ATOM     59  C   UNL A   1      46.208  30.055  28.783  1.00  0.00     0.074 A 
ATOM     60  C   UNL A   1      47.628  30.326  28.690  1.00  0.00     0.031 C 
ATOM     61  C   UNL A   1      45.283  30.963  29.180  1.00  0.00     0.037 A 
BRANCH  48  62
ATOM     62  C   UNL A   1      39.482  28.839  29.119  1.00  0.00     0.057 A 
ATOM     63  C   UNL A   1      38.870  28.691  30.371  1.00  0.00     0.134 A 
ATOM     64  C   UNL A   1      38.685  29.295  28.061  1.00  0.00     0.134 A 
ATOM     65  F   UNL A   1      39.574  28.246  31.423  1.00  0.00    -0.206 F 
ATOM     66  C   UNL A   1      37.513  28.960  30.557  1.00  0.00     0.040 A 
ATOM     67  C   UNL A   1      37.333  29.594  28.242  1.00  0.00     0.040 A 
ATOM     68  F   UNL A   1      39.208  29.465  26.838  1.00  0.00    -0.206 F 
ATOM     69  C   UNL A   1      36.742  29.420  29.492  1.00  0.00     0.006 A 
ENDBRANCH  48  62
BRANCH  49  70
ATOM     70  C   UNL A   1      49.044  26.584  27.367  1.00  0.00     0.057 A 
ATOM     71  C   UNL A   1      49.608  26.855  26.115  1.00  0.00     0.134 A 
ATOM     72  C   UNL A   1      49.870  25.999  28.334  1.00  0.00     0.134 A 
ATOM     73  F   UNL A   1      48.860  27.397  25.142  1.00  0.00    -0.206 F 
ATOM     74  C   UNL A   1      50.936  26.538  25.828  1.00  0.00     0.040 A 
ATOM     75  C   UNL A   1      51.207  25.700  28.068  1.00  0.00     0.040 A 
ATOM     76  F   UNL A   1      49.392  25.722  29.557  1.00  0.00    -0.206 F 
ATOM     77  C   UNL A   1      51.742  25.963  26.808  1.00  0.00     0.006 A 
ENDBRANCH  49  70
BRANCH  61  78
ATOM     78  C   UNL A   1      45.780  32.321  29.578  1.00  0.00     0.057 A 
ATOM     79  C   UNL A   1      46.198  32.603  30.884  1.00  0.00     0.134 A 
ATOM     80  C   UNL A   1      45.879  33.348  28.630  1.00  0.00     0.134 A 
ATOM     81  F   UNL A   1      46.117  31.667  31.841  1.00  0.00    -0.206 F 
ATOM     82  C   UNL A   1      46.679  33.865  31.238  1.00  0.00     0.040 A 
ATOM     83  C   UNL A   1      46.382  34.605  28.966  1.00  0.00     0.040 A 
ATOM     84  F   UNL A   1      45.502  33.140  27.359  1.00  0.00    -0.206 F 
ATOM     85  C   UNL A   1      46.779  34.868  30.275  1.00  0.00     0.006 A 
ENDBRANCH  61  78
ENDBRANCH  35  36
ENDBRANCH  27  30
ENDBRANCH  25  26
ENDBRANCH  24  25
ENDBRANCH  23  24
ENDBRANCH   1  23
TORSDOF 17
ENDMDL
