MODEL 1
REMARK VINA RESULT:     -11.2      0.000      0.000
REMARK SMILES Nc1c(CC(=O)NCCCCCCNC(=O)c2ccc(-c3c4nc(c(-c5c(F)cccc5F)c5ccc([nH]5)c(-c5c(F)cccc5F)c5nc(c(-c6c(F)cccc6F)c6ccc3[nH]6)C=C5)C=C4)cc2)cccc1C(=O)c1ccc(Br)cc1
REMARK SMILES IDX 10 1 9 2 8 3 7 4 5 5 6 6 4 8 3 9 2 10 74 11 71 12 73 13
REMARK SMILES IDX 72 14 1 15 75 18 76 19 77 20 78 21 83 22 79 23 82 24 80 25
REMARK SMILES IDX 81 26 11 27 12 28 13 29 14 30 15 31 16 33 17 34 18 35 70 36
REMARK SMILES IDX 19 37 69 38 20 39 21 40 22 41 63 42 23 43 68 44 62 45 64 46
REMARK SMILES IDX 24 47 67 48 61 49 60 50 25 52 51 53 34 54 50 55 35 56 38 57
REMARK SMILES IDX 49 58 65 59 36 60 37 61 48 63 66 64 39 65 26 66 27 67 32 68
REMARK SMILES IDX 28 69 29 70 31 71 33 72 30 73 52 74 53 75 58 76 54 77 55 78
REMARK SMILES IDX 57 79 59 80 56 81 40 82 41 83 46 84 42 85 43 86 45 87 47 88
REMARK SMILES IDX 44 89
REMARK H PARENT 7 7 1 16 1 17 14 32 64 51 38 62
REMARK Flexibility Score: inf
ROOT
ATOM      1  C   UNL A   1      31.456  28.820  24.833  1.00  0.00     0.002 C 
ENDROOT
BRANCH   1   2
ATOM      2  C   UNL A   1      30.750  29.258  23.544  1.00  0.00     0.021 C 
BRANCH   2   3
ATOM      3  C   UNL A   1      30.582  28.121  22.535  1.00  0.00     0.116 C 
BRANCH   3   4
ATOM      4  N   UNL A   1      31.855  27.742  21.958  1.00  0.00    -0.356 N 
ATOM      5  C   UNL A   1      32.506  26.545  22.023  1.00  0.00     0.224 C 
ATOM      6  O   UNL A   1      33.648  26.479  21.562  1.00  0.00    -0.275 OA
ATOM      7  H   UNL A   1      32.313  28.447  21.446  1.00  0.00     0.163 HD
BRANCH   5   8
ATOM      8  C   UNL A   1      31.808  25.310  22.570  1.00  0.00     0.137 C 
BRANCH   8   9
ATOM      9  C   UNL A   1      32.344  24.798  23.897  1.00  0.00    -0.015 A 
ATOM     10  C   UNL A   1      33.413  23.862  23.987  1.00  0.00     0.046 A 
ATOM     11  C   UNL A   1      33.794  23.379  25.267  1.00  0.00     0.046 A 
ATOM     12  C   UNL A   1      31.709  25.256  25.066  1.00  0.00     0.006 A 
ATOM     13  C   UNL A   1      33.121  23.854  26.411  1.00  0.00     0.014 A 
ATOM     14  C   UNL A   1      32.094  24.787  26.314  1.00  0.00     0.001 A 
BRANCH  10  15
ATOM     15  N   UNL A   1      34.009  23.426  22.809  1.00  0.00    -0.398 N 
ATOM     16  H   UNL A   1      33.532  22.796  22.221  1.00  0.00     0.156 HD
ATOM     17  H   UNL A   1      34.906  23.747  22.562  1.00  0.00     0.156 HD
ENDBRANCH  10  15
BRANCH  11  18
ATOM     18  C   UNL A   1      34.842  22.338  25.548  1.00  0.00     0.195 C 
ATOM     19  O   UNL A   1      35.881  22.648  26.133  1.00  0.00    -0.289 OA
BRANCH  18  20
ATOM     20  C   UNL A   1      34.677  20.907  25.235  1.00  0.00     0.023 A 
ATOM     21  C   UNL A   1      33.372  20.405  25.148  1.00  0.00     0.013 A 
ATOM     22  C   UNL A   1      35.774  20.075  24.989  1.00  0.00     0.013 A 
ATOM     23  C   UNL A   1      33.160  19.089  24.736  1.00  0.00     0.016 A 
ATOM     24  C   UNL A   1      35.558  18.761  24.564  1.00  0.00     0.016 A 
ATOM     25  C   UNL A   1      34.254  18.280  24.426  1.00  0.00     0.018 A 
ATOM     26  Br  UNL A   1      33.965  16.523  23.793  1.00  0.00    -0.051 Br
ENDBRANCH  18  20
ENDBRANCH  11  18
ENDBRANCH   8   9
ENDBRANCH   5   8
ENDBRANCH   3   4
ENDBRANCH   2   3
ENDBRANCH   1   2
BRANCH   1  27
ATOM     27  C   UNL A   1      32.907  29.297  24.965  1.00  0.00     0.002 C 
BRANCH  27  28
ATOM     28  C   UNL A   1      33.838  28.332  25.704  1.00  0.00     0.021 C 
BRANCH  28  29
ATOM     29  C   UNL A   1      33.808  28.468  27.222  1.00  0.00     0.116 C 
BRANCH  29  30
ATOM     30  N   UNL A   1      33.743  29.862  27.639  1.00  0.00    -0.352 N 
ATOM     31  C   UNL A   1      34.670  30.613  28.310  1.00  0.00     0.251 C 
ATOM     32  H   UNL A   1      32.912  30.332  27.402  1.00  0.00     0.163 HD
ATOM     33  O   UNL A   1      34.359  31.713  28.769  1.00  0.00    -0.269 OA
BRANCH  31  34
ATOM     34  C   UNL A   1      36.042  30.100  28.499  1.00  0.00     0.039 A 
ATOM     35  C   UNL A   1      36.944  30.165  27.435  1.00  0.00     0.014 A 
ATOM     36  C   UNL A   1      36.432  29.541  29.720  1.00  0.00     0.014 A 
ATOM     37  C   UNL A   1      38.255  29.720  27.611  1.00  0.00     0.010 A 
ATOM     38  C   UNL A   1      37.758  29.165  29.916  1.00  0.00     0.010 A 
ATOM     39  C   UNL A   1      38.680  29.245  28.863  1.00  0.00    -0.014 A 
BRANCH  39  40
ATOM     40  C   UNL A   1      40.084  28.821  29.087  1.00  0.00     0.031 A 
ATOM     41  C   UNL A   1      41.070  29.770  29.709  1.00  0.00     0.074 A 
ATOM     42  C   UNL A   1      40.485  27.603  28.675  1.00  0.00     0.049 A 
ATOM     43  N   UNL A   1      42.352  29.609  29.921  1.00  0.00    -0.248 NA
ATOM     44  C   UNL A   1      40.553  31.085  30.122  1.00  0.00     0.031 C 
ATOM     45  C   UNL A   1      39.634  26.608  28.021  1.00  0.00     0.029 A 
ATOM     46  N   UNL A   1      41.717  27.000  28.734  1.00  0.00    -0.354 N 
ATOM     47  C   UNL A   1      42.794  30.803  30.479  1.00  0.00     0.074 A 
ATOM     48  C   UNL A   1      41.659  31.697  30.521  1.00  0.00     0.031 C 
ATOM     49  C   UNL A   1      40.363  25.510  27.761  1.00  0.00     0.029 A 
ATOM     50  C   UNL A   1      41.738  25.738  28.192  1.00  0.00     0.049 A 
ATOM     51  H   UNL A   1      42.509  27.430  29.129  1.00  0.00     0.167 HD
ATOM     52  C   UNL A   1      44.031  31.117  30.935  1.00  0.00     0.037 A 
ATOM     53  C   UNL A   1      42.754  24.867  28.051  1.00  0.00     0.037 A 
ATOM     54  C   UNL A   1      45.155  30.218  30.909  1.00  0.00     0.049 A 
ATOM     55  C   UNL A   1      44.121  25.245  28.552  1.00  0.00     0.074 A 
ATOM     56  C   UNL A   1      46.433  30.422  31.398  1.00  0.00     0.029 A 
ATOM     57  N   UNL A   1      45.134  28.944  30.361  1.00  0.00    -0.354 N 
ATOM     58  N   UNL A   1      44.510  26.352  29.137  1.00  0.00    -0.248 NA
ATOM     59  C   UNL A   1      45.188  24.250  28.378  1.00  0.00     0.031 C 
ATOM     60  C   UNL A   1      47.199  29.289  31.104  1.00  0.00     0.029 A 
ATOM     61  C   UNL A   1      46.383  28.358  30.480  1.00  0.00     0.049 A 
ATOM     62  H   UNL A   1      44.347  28.518  29.950  1.00  0.00     0.167 HD
ATOM     63  C   UNL A   1      45.857  26.176  29.426  1.00  0.00     0.074 A 
ATOM     64  C   UNL A   1      46.214  24.850  28.965  1.00  0.00     0.031 C 
ATOM     65  C   UNL A   1      46.721  27.035  30.021  1.00  0.00     0.037 A 
BRANCH  52  66
ATOM     66  C   UNL A   1      44.229  32.492  31.503  1.00  0.00     0.057 A 
ATOM     67  C   UNL A   1      44.613  33.576  30.702  1.00  0.00     0.134 A 
ATOM     68  C   UNL A   1      44.005  32.744  32.863  1.00  0.00     0.134 A 
ATOM     69  F   UNL A   1      44.855  33.402  29.394  1.00  0.00    -0.206 F 
ATOM     70  C   UNL A   1      44.793  34.853  31.235  1.00  0.00     0.040 A 
ATOM     71  C   UNL A   1      44.154  34.023  33.404  1.00  0.00     0.040 A 
ATOM     72  F   UNL A   1      43.629  31.755  33.687  1.00  0.00    -0.206 F 
ATOM     73  C   UNL A   1      44.558  35.080  32.589  1.00  0.00     0.006 A 
ENDBRANCH  52  66
BRANCH  53  74
ATOM     74  C   UNL A   1      42.517  23.541  27.426  1.00  0.00     0.057 A 
ATOM     75  C   UNL A   1      42.611  23.370  26.041  1.00  0.00     0.134 A 
ATOM     76  C   UNL A   1      42.183  22.419  28.193  1.00  0.00     0.134 A 
ATOM     77  F   UNL A   1      42.910  24.412  25.251  1.00  0.00    -0.206 F 
ATOM     78  C   UNL A   1      42.361  22.136  25.437  1.00  0.00     0.040 A 
ATOM     79  C   UNL A   1      41.955  21.173  27.606  1.00  0.00     0.040 A 
ATOM     80  F   UNL A   1      42.087  22.514  29.528  1.00  0.00    -0.206 F 
ATOM     81  C   UNL A   1      42.036  21.032  26.221  1.00  0.00     0.006 A 
ENDBRANCH  53  74
BRANCH  65  82
ATOM     82  C   UNL A   1      48.126  26.555  30.240  1.00  0.00     0.057 A 
ATOM     83  C   UNL A   1      49.145  26.797  29.310  1.00  0.00     0.134 A 
ATOM     84  C   UNL A   1      48.471  25.873  31.415  1.00  0.00     0.134 A 
ATOM     85  F   UNL A   1      48.879  27.432  28.159  1.00  0.00    -0.206 F 
ATOM     86  C   UNL A   1      50.452  26.359  29.531  1.00  0.00     0.040 A 
ATOM     87  C   UNL A   1      49.779  25.454  31.659  1.00  0.00     0.040 A 
ATOM     88  F   UNL A   1      47.543  25.615  32.350  1.00  0.00    -0.206 F 
ATOM     89  C   UNL A   1      50.773  25.691  30.713  1.00  0.00     0.006 A 
ENDBRANCH  65  82
ENDBRANCH  39  40
ENDBRANCH  31  34
ENDBRANCH  29  30
ENDBRANCH  28  29
ENDBRANCH  27  28
ENDBRANCH   1  27
TORSDOF 17
ENDMDL
MODEL 2
REMARK VINA RESULT:     -11.0      4.334      7.716
REMARK SMILES Nc1c(CC(=O)NCCCCCCNC(=O)c2ccc(-c3c4nc(c(-c5c(F)cccc5F)c5ccc([nH]5)c(-c5c(F)cccc5F)c5nc(c(-c6c(F)cccc6F)c6ccc3[nH]6)C=C5)C=C4)cc2)cccc1C(=O)c1ccc(Br)cc1
REMARK SMILES IDX 10 1 9 2 8 3 7 4 5 5 6 6 4 8 3 9 2 10 74 11 71 12 73 13
REMARK SMILES IDX 72 14 1 15 75 18 76 19 77 20 78 21 83 22 79 23 82 24 80 25
REMARK SMILES IDX 81 26 11 27 12 28 13 29 14 30 15 31 16 33 17 34 18 35 70 36
REMARK SMILES IDX 19 37 69 38 20 39 21 40 22 41 63 42 23 43 68 44 62 45 64 46
REMARK SMILES IDX 24 47 67 48 61 49 60 50 25 52 51 53 34 54 50 55 35 56 38 57
REMARK SMILES IDX 49 58 65 59 36 60 37 61 48 63 66 64 39 65 26 66 27 67 32 68
REMARK SMILES IDX 28 69 29 70 31 71 33 72 30 73 52 74 53 75 58 76 54 77 55 78
REMARK SMILES IDX 57 79 59 80 56 81 40 82 41 83 46 84 42 85 43 86 45 87 47 88
REMARK SMILES IDX 44 89
REMARK H PARENT 7 7 1 16 1 17 14 32 64 51 38 62
REMARK Flexibility Score: inf
ROOT
ATOM      1  C   UNL A   1      37.324  32.858  30.695  1.00  0.00     0.002 C 
ENDROOT
BRANCH   1   2
ATOM      2  C   UNL A   1      38.030  34.047  31.359  1.00  0.00     0.021 C 
BRANCH   2   3
ATOM      3  C   UNL A   1      37.432  34.417  32.718  1.00  0.00     0.116 C 
BRANCH   3   4
ATOM      4  N   UNL A   1      38.470  34.616  33.708  1.00  0.00    -0.356 N 
ATOM      5  C   UNL A   1      38.727  33.899  34.839  1.00  0.00     0.224 C 
ATOM      6  O   UNL A   1      39.589  34.323  35.613  1.00  0.00    -0.275 OA
ATOM      7  H   UNL A   1      39.074  35.375  33.541  1.00  0.00     0.163 HD
BRANCH   5   8
ATOM      8  C   UNL A   1      38.031  32.571  35.093  1.00  0.00     0.137 C 
BRANCH   8   9
ATOM      9  C   UNL A   1      38.823  31.338  34.691  1.00  0.00    -0.015 A 
ATOM     10  C   UNL A   1      39.891  30.819  35.477  1.00  0.00     0.046 A 
ATOM     11  C   UNL A   1      40.628  29.711  34.982  1.00  0.00     0.046 A 
ATOM     12  C   UNL A   1      38.492  30.731  33.466  1.00  0.00     0.006 A 
ATOM     13  C   UNL A   1      40.270  29.141  33.743  1.00  0.00     0.014 A 
ATOM     14  C   UNL A   1      39.210  29.641  32.995  1.00  0.00     0.001 A 
BRANCH  10  15
ATOM     15  N   UNL A   1      40.196  31.452  36.677  1.00  0.00    -0.398 N 
ATOM     16  H   UNL A   1      41.097  31.822  36.822  1.00  0.00     0.156 HD
ATOM     17  H   UNL A   1      39.512  31.531  37.380  1.00  0.00     0.156 HD
ENDBRANCH  10  15
BRANCH  11  18
ATOM     18  C   UNL A   1      41.828  29.080  35.633  1.00  0.00     0.195 C 
ATOM     19  O   UNL A   1      42.195  29.452  36.748  1.00  0.00    -0.289 OA
BRANCH  18  20
ATOM     20  C   UNL A   1      42.577  27.951  35.048  1.00  0.00     0.023 A 
ATOM     21  C   UNL A   1      42.244  26.659  35.473  1.00  0.00     0.013 A 
ATOM     22  C   UNL A   1      43.557  28.146  34.071  1.00  0.00     0.013 A 
ATOM     23  C   UNL A   1      42.837  25.553  34.863  1.00  0.00     0.016 A 
ATOM     24  C   UNL A   1      44.139  27.035  33.452  1.00  0.00     0.016 A 
ATOM     25  C   UNL A   1      43.766  25.747  33.841  1.00  0.00     0.018 A 
ATOM     26  Br  UNL A   1      44.511  24.249  32.959  1.00  0.00    -0.051 Br
ENDBRANCH  18  20
ENDBRANCH  11  18
ENDBRANCH   8   9
ENDBRANCH   5   8
ENDBRANCH   3   4
ENDBRANCH   2   3
ENDBRANCH   1   2
BRANCH   1  27
ATOM     27  C   UNL A   1      35.993  32.458  31.342  1.00  0.00     0.002 C 
BRANCH  27  28
ATOM     28  C   UNL A   1      34.746  32.855  30.547  1.00  0.00     0.021 C 
BRANCH  28  29
ATOM     29  C   UNL A   1      34.912  32.767  29.033  1.00  0.00     0.116 C 
BRANCH  29  30
ATOM     30  N   UNL A   1      34.129  31.680  28.465  1.00  0.00    -0.352 N 
ATOM     31  C   UNL A   1      34.542  30.458  28.008  1.00  0.00     0.251 C 
ATOM     32  H   UNL A   1      33.161  31.849  28.401  1.00  0.00     0.163 HD
ATOM     33  O   UNL A   1      33.771  29.748  27.360  1.00  0.00    -0.269 OA
BRANCH  31  34
ATOM     34  C   UNL A   1      35.917  29.992  28.276  1.00  0.00     0.039 A 
ATOM     35  C   UNL A   1      36.887  30.132  27.280  1.00  0.00     0.014 A 
ATOM     36  C   UNL A   1      36.245  29.404  29.500  1.00  0.00     0.014 A 
ATOM     37  C   UNL A   1      38.200  29.732  27.533  1.00  0.00     0.010 A 
ATOM     38  C   UNL A   1      37.568  29.072  29.777  1.00  0.00     0.010 A 
ATOM     39  C   UNL A   1      38.557  29.228  28.794  1.00  0.00    -0.014 A 
BRANCH  39  40
ATOM     40  C   UNL A   1      39.959  28.851  29.103  1.00  0.00     0.031 A 
ATOM     41  C   UNL A   1      40.866  29.823  29.804  1.00  0.00     0.074 A 
ATOM     42  C   UNL A   1      40.432  27.657  28.695  1.00  0.00     0.049 A 
ATOM     43  N   UNL A   1      42.136  29.705  30.097  1.00  0.00    -0.248 NA
ATOM     44  C   UNL A   1      40.274  31.110  30.206  1.00  0.00     0.031 C 
ATOM     45  C   UNL A   1      39.662  26.645  27.970  1.00  0.00     0.029 A 
ATOM     46  N   UNL A   1      41.679  27.099  28.824  1.00  0.00    -0.354 N 
ATOM     47  C   UNL A   1      42.497  30.902  30.704  1.00  0.00     0.074 A 
ATOM     48  C   UNL A   1      41.327  31.753  30.688  1.00  0.00     0.031 C 
ATOM     49  C   UNL A   1      40.448  25.581  27.738  1.00  0.00     0.029 A 
ATOM     50  C   UNL A   1      41.783  25.850  28.262  1.00  0.00     0.049 A 
ATOM     51  H   UNL A   1      42.427  27.550  29.277  1.00  0.00     0.167 HD
ATOM     52  C   UNL A   1      43.688  31.252  31.245  1.00  0.00     0.037 A 
ATOM     53  C   UNL A   1      42.838  25.019  28.171  1.00  0.00     0.037 A 
ATOM     54  C   UNL A   1      44.844  30.395  31.277  1.00  0.00     0.049 A 
ATOM     55  C   UNL A   1      44.154  25.437  28.767  1.00  0.00     0.074 A 
ATOM     56  C   UNL A   1      46.080  30.636  31.852  1.00  0.00     0.029 A 
ATOM     57  N   UNL A   1      44.908  29.133  30.706  1.00  0.00    -0.354 N 
ATOM     58  N   UNL A   1      44.462  26.545  29.396  1.00  0.00    -0.248 NA
ATOM     59  C   UNL A   1      45.268  24.486  28.645  1.00  0.00     0.031 C 
ATOM     60  C   UNL A   1      46.906  29.537  31.588  1.00  0.00     0.029 A 
ATOM     61  C   UNL A   1      46.168  28.591  30.895  1.00  0.00     0.049 A 
ATOM     62  H   UNL A   1      44.165  28.687  30.236  1.00  0.00     0.167 HD
ATOM     63  C   UNL A   1      45.794  26.413  29.770  1.00  0.00     0.074 A 
ATOM     64  C   UNL A   1      46.230  25.111  29.310  1.00  0.00     0.031 C 
ATOM     65  C   UNL A   1      46.584  27.290  30.435  1.00  0.00     0.037 A 
BRANCH  52  66
ATOM     66  C   UNL A   1      43.797  32.622  31.850  1.00  0.00     0.057 A 
ATOM     67  C   UNL A   1      43.447  32.872  33.183  1.00  0.00     0.134 A 
ATOM     68  C   UNL A   1      44.285  33.699  31.099  1.00  0.00     0.134 A 
ATOM     69  F   UNL A   1      42.962  31.887  33.955  1.00  0.00    -0.206 F 
ATOM     70  C   UNL A   1      43.552  34.146  33.741  1.00  0.00     0.040 A 
ATOM     71  C   UNL A   1      44.422  34.973  31.653  1.00  0.00     0.040 A 
ATOM     72  F   UNL A   1      44.645  33.530  29.818  1.00  0.00    -0.206 F 
ATOM     73  C   UNL A   1      44.047  35.201  32.976  1.00  0.00     0.006 A 
ENDBRANCH  52  66
BRANCH  53  74
ATOM     74  C   UNL A   1      42.692  23.699  27.509  1.00  0.00     0.057 A 
ATOM     75  C   UNL A   1      42.855  23.565  26.126  1.00  0.00     0.134 A 
ATOM     76  C   UNL A   1      42.379  22.545  28.236  1.00  0.00     0.134 A 
ATOM     77  F   UNL A   1      43.139  24.638  25.372  1.00  0.00    -0.206 F 
ATOM     78  C   UNL A   1      42.691  22.335  25.485  1.00  0.00     0.040 A 
ATOM     79  C   UNL A   1      42.236  21.304  27.612  1.00  0.00     0.040 A 
ATOM     80  F   UNL A   1      42.218  22.604  29.567  1.00  0.00    -0.206 F 
ATOM     81  C   UNL A   1      42.385  21.199  26.230  1.00  0.00     0.006 A 
ENDBRANCH  53  74
BRANCH  65  82
ATOM     82  C   UNL A   1      47.990  26.857  30.737  1.00  0.00     0.057 A 
ATOM     83  C   UNL A   1      49.042  27.081  29.841  1.00  0.00     0.134 A 
ATOM     84  C   UNL A   1      48.298  26.242  31.957  1.00  0.00     0.134 A 
ATOM     85  F   UNL A   1      48.811  27.654  28.650  1.00  0.00    -0.206 F 
ATOM     86  C   UNL A   1      50.348  26.688  30.138  1.00  0.00     0.040 A 
ATOM     87  C   UNL A   1      49.604  25.869  32.277  1.00  0.00     0.040 A 
ATOM     88  F   UNL A   1      47.338  26.005  32.864  1.00  0.00    -0.206 F 
ATOM     89  C   UNL A   1      50.633  26.085  31.363  1.00  0.00     0.006 A 
ENDBRANCH  65  82
ENDBRANCH  39  40
ENDBRANCH  31  34
ENDBRANCH  29  30
ENDBRANCH  28  29
ENDBRANCH  27  28
ENDBRANCH   1  27
TORSDOF 17
ENDMDL
MODEL 3
REMARK VINA RESULT:     -10.9      2.926      8.131
REMARK SMILES Nc1c(CC(=O)NCCCCCCNC(=O)c2ccc(-c3c4nc(c(-c5c(F)cccc5F)c5ccc([nH]5)c(-c5c(F)cccc5F)c5nc(c(-c6c(F)cccc6F)c6ccc3[nH]6)C=C5)C=C4)cc2)cccc1C(=O)c1ccc(Br)cc1
REMARK SMILES IDX 10 1 9 2 8 3 7 4 5 5 6 6 4 8 3 9 2 10 74 11 71 12 73 13
REMARK SMILES IDX 72 14 1 15 75 18 76 19 77 20 78 21 83 22 79 23 82 24 80 25
REMARK SMILES IDX 81 26 11 27 12 28 13 29 14 30 15 31 16 33 17 34 18 35 70 36
REMARK SMILES IDX 19 37 69 38 20 39 21 40 22 41 63 42 23 43 68 44 62 45 64 46
REMARK SMILES IDX 24 47 67 48 61 49 60 50 25 52 51 53 34 54 50 55 35 56 38 57
REMARK SMILES IDX 49 58 65 59 36 60 37 61 48 63 66 64 39 65 26 66 27 67 32 68
REMARK SMILES IDX 28 69 29 70 31 71 33 72 30 73 52 74 53 75 58 76 54 77 55 78
REMARK SMILES IDX 57 79 59 80 56 81 40 82 41 83 46 84 42 85 43 86 45 87 47 88
REMARK SMILES IDX 44 89
REMARK H PARENT 7 7 1 16 1 17 14 32 64 51 38 62
REMARK Flexibility Score: inf
ROOT
ATOM      1  C   UNL A   1      37.932  23.272  25.741  1.00  0.00     0.002 C 
ENDROOT
BRANCH   1   2
ATOM      2  C   UNL A   1      36.948  22.620  24.762  1.00  0.00     0.021 C 
BRANCH   2   3
ATOM      3  C   UNL A   1      35.504  22.630  25.268  1.00  0.00     0.116 C 
BRANCH   3   4
ATOM      4  N   UNL A   1      34.585  22.208  24.231  1.00  0.00    -0.356 N 
ATOM      5  C   UNL A   1      33.839  22.971  23.382  1.00  0.00     0.224 C 
ATOM      6  O   UNL A   1      33.021  22.402  22.655  1.00  0.00    -0.275 OA
ATOM      7  H   UNL A   1      34.485  21.235  24.125  1.00  0.00     0.163 HD
BRANCH   5   8
ATOM      8  C   UNL A   1      34.074  24.470  23.274  1.00  0.00     0.137 C 
BRANCH   8   9
ATOM      9  C   UNL A   1      33.065  25.338  24.007  1.00  0.00    -0.015 A 
ATOM     10  C   UNL A   1      31.747  25.565  23.519  1.00  0.00     0.046 A 
ATOM     11  C   UNL A   1      30.899  26.456  24.230  1.00  0.00     0.046 A 
ATOM     12  C   UNL A   1      33.494  25.962  25.192  1.00  0.00     0.006 A 
ATOM     13  C   UNL A   1      31.375  27.071  25.406  1.00  0.00     0.014 A 
ATOM     14  C   UNL A   1      32.656  26.823  25.886  1.00  0.00     0.001 A 
BRANCH  10  15
ATOM     15  N   UNL A   1      31.362  24.939  22.340  1.00  0.00    -0.398 N 
ATOM     16  H   UNL A   1      32.040  24.516  21.764  1.00  0.00     0.156 HD
ATOM     17  H   UNL A   1      30.412  24.917  22.080  1.00  0.00     0.156 HD
ENDBRANCH  10  15
BRANCH  11  18
ATOM     18  C   UNL A   1      29.512  26.874  23.827  1.00  0.00     0.195 C 
ATOM     19  O   UNL A   1      28.539  26.200  24.167  1.00  0.00    -0.289 OA
BRANCH  18  20
ATOM     20  C   UNL A   1      29.214  28.119  23.095  1.00  0.00     0.023 A 
ATOM     21  C   UNL A   1      27.898  28.599  23.134  1.00  0.00     0.013 A 
ATOM     22  C   UNL A   1      30.208  28.832  22.418  1.00  0.00     0.013 A 
ATOM     23  C   UNL A   1      27.591  29.834  22.561  1.00  0.00     0.016 A 
ATOM     24  C   UNL A   1      29.901  30.075  21.856  1.00  0.00     0.016 A 
ATOM     25  C   UNL A   1      28.599  30.575  21.943  1.00  0.00     0.018 A 
ATOM     26  Br  UNL A   1      28.202  32.283  21.237  1.00  0.00    -0.051 Br
ENDBRANCH  18  20
ENDBRANCH  11  18
ENDBRANCH   8   9
ENDBRANCH   5   8
ENDBRANCH   3   4
ENDBRANCH   2   3
ENDBRANCH   1   2
BRANCH   1  27
ATOM     27  C   UNL A   1      39.056  22.350  26.231  1.00  0.00     0.002 C 
BRANCH  27  28
ATOM     28  C   UNL A   1      39.170  21.020  25.482  1.00  0.00     0.021 C 
BRANCH  28  29
ATOM     29  C   UNL A   1      39.574  19.839  26.359  1.00  0.00     0.116 C 
BRANCH  29  30
ATOM     30  N   UNL A   1      40.797  19.208  25.886  1.00  0.00    -0.352 N 
ATOM     31  C   UNL A   1      42.053  19.735  25.755  1.00  0.00     0.251 C 
ATOM     32  H   UNL A   1      40.707  18.263  25.623  1.00  0.00     0.163 HD
ATOM     33  O   UNL A   1      42.921  19.119  25.135  1.00  0.00    -0.269 OA
BRANCH  31  34
ATOM     34  C   UNL A   1      42.369  21.052  26.344  1.00  0.00     0.039 A 
ATOM     35  C   UNL A   1      42.751  22.098  25.502  1.00  0.00     0.014 A 
ATOM     36  C   UNL A   1      42.303  21.249  27.727  1.00  0.00     0.014 A 
ATOM     37  C   UNL A   1      43.015  23.359  26.041  1.00  0.00     0.010 A 
ATOM     38  C   UNL A   1      42.496  22.522  28.255  1.00  0.00     0.010 A 
ATOM     39  C   UNL A   1      42.859  23.588  27.418  1.00  0.00    -0.014 A 
BRANCH  39  40
ATOM     40  C   UNL A   1      43.078  24.934  28.003  1.00  0.00     0.031 A 
ATOM     41  C   UNL A   1      44.448  25.342  28.467  1.00  0.00     0.074 A 
ATOM     42  C   UNL A   1      42.031  25.765  28.171  1.00  0.00     0.049 A 
ATOM     43  N   UNL A   1      44.824  26.444  29.065  1.00  0.00    -0.248 NA
ATOM     44  C   UNL A   1      45.535  24.372  28.255  1.00  0.00     0.031 C 
ATOM     45  C   UNL A   1      40.647  25.468  27.800  1.00  0.00     0.029 A 
ATOM     46  N   UNL A   1      41.968  27.025  28.712  1.00  0.00    -0.354 N 
ATOM     47  C   UNL A   1      46.184  26.294  29.312  1.00  0.00     0.074 A 
ATOM     48  C   UNL A   1      46.555  24.975  28.849  1.00  0.00     0.031 C 
ATOM     49  C   UNL A   1      39.876  26.525  28.102  1.00  0.00     0.029 A 
ATOM     50  C   UNL A   1      40.701  27.556  28.723  1.00  0.00     0.049 A 
ATOM     51  H   UNL A   1      42.756  27.503  29.057  1.00  0.00     0.167 HD
ATOM     52  C   UNL A   1      47.049  27.184  29.855  1.00  0.00     0.037 A 
ATOM     53  C   UNL A   1      40.254  28.737  29.189  1.00  0.00     0.037 A 
ATOM     54  C   UNL A   1      46.680  28.503  30.297  1.00  0.00     0.049 A 
ATOM     55  C   UNL A   1      41.233  29.702  29.801  1.00  0.00     0.074 A 
ATOM     56  C   UNL A   1      47.493  29.500  30.808  1.00  0.00     0.029 A 
ATOM     57  N   UNL A   1      45.389  29.009  30.282  1.00  0.00    -0.354 N 
ATOM     58  N   UNL A   1      42.526  29.573  29.967  1.00  0.00    -0.248 NA
ATOM     59  C   UNL A   1      40.689  30.978  30.284  1.00  0.00     0.031 C 
ATOM     60  C   UNL A   1      46.686  30.591  31.146  1.00  0.00     0.029 A 
ATOM     61  C   UNL A   1      45.378  30.294  30.796  1.00  0.00     0.049 A 
ATOM     62  H   UNL A   1      44.596  28.525  29.954  1.00  0.00     0.167 HD
ATOM     63  C   UNL A   1      42.956  30.760  30.547  1.00  0.00     0.074 A 
ATOM     64  C   UNL A   1      41.786  31.602  30.690  1.00  0.00     0.031 C 
ATOM     65  C   UNL A   1      44.206  31.122  30.926  1.00  0.00     0.037 A 
BRANCH  52  66
ATOM     66  C   UNL A   1      48.481  26.757  29.997  1.00  0.00     0.057 A 
ATOM     67  C   UNL A   1      48.943  26.083  31.135  1.00  0.00     0.134 A 
ATOM     68  C   UNL A   1      49.405  26.996  28.971  1.00  0.00     0.134 A 
ATOM     69  F   UNL A   1      48.113  25.833  32.160  1.00  0.00    -0.206 F 
ATOM     70  C   UNL A   1      50.275  25.687  31.262  1.00  0.00     0.040 A 
ATOM     71  C   UNL A   1      50.734  26.579  29.073  1.00  0.00     0.040 A 
ATOM     72  F   UNL A   1      49.030  27.631  27.850  1.00  0.00    -0.206 F 
ATOM     73  C   UNL A   1      51.173  25.929  30.225  1.00  0.00     0.006 A 
ENDBRANCH  52  66
BRANCH  53  74
ATOM     74  C   UNL A   1      38.816  29.085  29.078  1.00  0.00     0.057 A 
ATOM     75  C   UNL A   1      38.278  29.552  27.874  1.00  0.00     0.134 A 
ATOM     76  C   UNL A   1      37.948  28.969  30.169  1.00  0.00     0.134 A 
ATOM     77  F   UNL A   1      39.064  29.702  26.797  1.00  0.00    -0.206 F 
ATOM     78  C   UNL A   1      36.934  29.912  27.763  1.00  0.00     0.040 A 
ATOM     79  C   UNL A   1      36.596  29.301  30.067  1.00  0.00     0.040 A 
ATOM     80  F   UNL A   1      38.398  28.518  31.350  1.00  0.00    -0.206 F 
ATOM     81  C   UNL A   1      36.088  29.783  28.861  1.00  0.00     0.006 A 
ENDBRANCH  53  74
BRANCH  65  82
ATOM     82  C   UNL A   1      44.380  32.499  31.498  1.00  0.00     0.057 A 
ATOM     83  C   UNL A   1      44.625  33.613  30.686  1.00  0.00     0.134 A 
ATOM     84  C   UNL A   1      44.264  32.716  32.877  1.00  0.00     0.134 A 
ATOM     85  F   UNL A   1      44.760  33.470  29.359  1.00  0.00    -0.206 F 
ATOM     86  C   UNL A   1      44.770  34.891  31.228  1.00  0.00     0.040 A 
ATOM     87  C   UNL A   1      44.380  33.993  33.428  1.00  0.00     0.040 A 
ATOM     88  F   UNL A   1      44.022  31.693  33.711  1.00  0.00    -0.206 F 
ATOM     89  C   UNL A   1      44.641  35.084  32.603  1.00  0.00     0.006 A 
ENDBRANCH  65  82
ENDBRANCH  39  40
ENDBRANCH  31  34
ENDBRANCH  29  30
ENDBRANCH  28  29
ENDBRANCH  27  28
ENDBRANCH   1  27
TORSDOF 17
ENDMDL
