MODEL 1
REMARK VINA RESULT:     -10.2      0.000      0.000
REMARK SMILES CC(=O)N[C@@H](C(=O)N(CC(=O)NCCCCCCNC(=O)c1ccc(-c2c3nc(c(-c4c(F)cccc4F)c4ccc([nH]4)c(-c4c(F)cccc4F)c4nc(c(-c5c(F)cccc5F)c5ccc2[nH]5)C=C4)C=C3)cc1)C(C)(C)C)C(C)C
REMARK SMILES IDX 14 1 13 2 12 3 10 4 11 5 9 7 8 8 6 9 7 10 5 11 4 12 1 13
REMARK SMILES IDX 2 14 3 15 80 17 81 18 82 19 76 20 77 21 78 22 79 23 15 24
REMARK SMILES IDX 16 25 17 26 18 27 19 28 20 29 21 31 22 32 23 33 75 34 24 35
REMARK SMILES IDX 74 36 25 37 26 38 27 39 68 40 28 41 73 42 67 43 69 44 29 45
REMARK SMILES IDX 72 46 66 47 65 48 30 50 56 51 39 52 55 53 40 54 43 55 54 56
REMARK SMILES IDX 70 57 41 58 42 59 53 61 71 62 44 63 31 64 32 65 37 66 33 67
REMARK SMILES IDX 34 68 36 69 38 70 35 71 57 72 58 73 63 74 59 75 60 76 62 77
REMARK SMILES IDX 64 78 61 79 45 80 46 81 51 82 47 83 48 84 50 85 52 86 49 87
REMARK H PARENT 12 6 4 16 19 30 69 49 43 60
REMARK Flexibility Score: inf
ROOT
ATOM      1  C   UNL A   1      31.474  28.151  27.377  1.00  0.00     0.021 C 
ENDROOT
BRANCH   1   2
ATOM      2  C   UNL A   1      31.051  27.157  26.306  1.00  0.00     0.116 C 
BRANCH   2   3
ATOM      3  N   UNL A   1      30.541  25.910  26.820  1.00  0.00    -0.355 N 
ATOM      4  C   UNL A   1      30.800  24.636  26.407  1.00  0.00     0.239 C 
ATOM      5  O   UNL A   1      30.503  23.721  27.183  1.00  0.00    -0.273 OA
ATOM      6  H   UNL A   1      29.916  25.989  27.578  1.00  0.00     0.163 HD
BRANCH   4   7
ATOM      7  C   UNL A   1      31.563  24.315  25.102  1.00  0.00     0.220 C 
BRANCH   7   8
ATOM      8  N   UNL A   1      32.675  23.350  25.147  1.00  0.00    -0.327 N 
BRANCH   8   9
ATOM      9  C   UNL A   1      33.917  23.645  25.748  1.00  0.00     0.246 C 
ATOM     10  O   UNL A   1      34.104  23.393  26.943  1.00  0.00    -0.272 OA
BRANCH   9  11
ATOM     11  C   UNL A   1      35.085  24.336  24.928  1.00  0.00     0.174 C 
BRANCH  11  12
ATOM     12  N   UNL A   1      34.656  24.674  23.564  1.00  0.00    -0.344 N 
ATOM     13  C   UNL A   1      33.833  26.963  24.021  1.00  0.00     0.114 C 
ATOM     14  C   UNL A   1      34.117  25.826  23.077  1.00  0.00     0.217 C 
ATOM     15  O   UNL A   1      33.881  25.903  21.872  1.00  0.00    -0.275 OA
ATOM     16  H   UNL A   1      34.778  23.957  22.900  1.00  0.00     0.164 HD
ENDBRANCH  11  12
BRANCH  11  17
ATOM     17  C   UNL A   1      36.317  23.375  24.826  1.00  0.00     0.015 C 
ATOM     18  C   UNL A   1      36.650  22.949  23.388  1.00  0.00     0.010 C 
ATOM     19  C   UNL A   1      37.576  23.986  25.450  1.00  0.00     0.010 C 
ENDBRANCH  11  17
ENDBRANCH   9  11
ENDBRANCH   8   9
BRANCH   8  20
ATOM     20  C   UNL A   1      32.480  22.007  24.463  1.00  0.00     0.035 C 
ATOM     21  C   UNL A   1      33.690  21.073  24.665  1.00  0.00     0.034 C 
ATOM     22  C   UNL A   1      31.200  21.325  25.002  1.00  0.00     0.034 C 
ATOM     23  C   UNL A   1      32.275  22.100  22.925  1.00  0.00     0.034 C 
ENDBRANCH   8  20
ENDBRANCH   7   8
ENDBRANCH   4   7
ENDBRANCH   2   3
ENDBRANCH   1   2
BRANCH   1  24
ATOM     24  C   UNL A   1      32.209  29.386  26.866  1.00  0.00     0.002 C 
BRANCH  24  25
ATOM     25  C   UNL A   1      31.389  30.318  25.971  1.00  0.00     0.002 C 
BRANCH  25  26
ATOM     26  C   UNL A   1      31.303  31.781  26.418  1.00  0.00     0.021 C 
BRANCH  26  27
ATOM     27  C   UNL A   1      32.616  32.427  26.856  1.00  0.00     0.116 C 
BRANCH  27  28
ATOM     28  N   UNL A   1      32.433  33.747  27.428  1.00  0.00    -0.352 N 
ATOM     29  C   UNL A   1      33.130  34.382  28.421  1.00  0.00     0.251 C 
ATOM     30  H   UNL A   1      31.691  34.269  27.044  1.00  0.00     0.163 HD
ATOM     31  O   UNL A   1      32.735  35.467  28.845  1.00  0.00    -0.269 OA
BRANCH  29  32
ATOM     32  C   UNL A   1      34.338  33.767  29.012  1.00  0.00     0.039 A 
ATOM     33  C   UNL A   1      34.167  32.725  29.927  1.00  0.00     0.014 A 
ATOM     34  C   UNL A   1      35.624  34.226  28.707  1.00  0.00     0.014 A 
ATOM     35  C   UNL A   1      35.283  32.112  30.501  1.00  0.00     0.010 A 
ATOM     36  C   UNL A   1      36.740  33.575  29.235  1.00  0.00     0.010 A 
ATOM     37  C   UNL A   1      36.579  32.516  30.141  1.00  0.00    -0.014 A 
BRANCH  37  38
ATOM     38  C   UNL A   1      37.762  31.822  30.707  1.00  0.00     0.031 A 
ATOM     39  C   UNL A   1      38.229  32.115  32.105  1.00  0.00     0.074 A 
ATOM     40  C   UNL A   1      38.430  30.933  29.948  1.00  0.00     0.049 A 
ATOM     41  N   UNL A   1      39.219  31.579  32.774  1.00  0.00    -0.248 NA
ATOM     42  C   UNL A   1      37.506  33.164  32.841  1.00  0.00     0.031 C 
ATOM     43  C   UNL A   1      38.110  30.602  28.558  1.00  0.00     0.029 A 
ATOM     44  N   UNL A   1      39.512  30.141  30.238  1.00  0.00    -0.354 N 
ATOM     45  C   UNL A   1      39.240  32.226  34.003  1.00  0.00     0.074 A 
ATOM     46  C   UNL A   1      38.197  33.229  33.969  1.00  0.00     0.031 C 
ATOM     47  C   UNL A   1      38.956  29.652  28.127  1.00  0.00     0.029 A 
ATOM     48  C   UNL A   1      39.889  29.324  29.201  1.00  0.00     0.049 A 
ATOM     49  H   UNL A   1      39.974  30.158  31.107  1.00  0.00     0.167 HD
ATOM     50  C   UNL A   1      40.039  31.989  35.071  1.00  0.00     0.037 A 
ATOM     51  C   UNL A   1      40.868  28.404  29.128  1.00  0.00     0.037 A 
ATOM     52  C   UNL A   1      41.062  30.977  35.112  1.00  0.00     0.049 A 
ATOM     53  C   UNL A   1      41.727  28.145  30.333  1.00  0.00     0.074 A 
ATOM     54  C   UNL A   1      41.882  30.619  36.168  1.00  0.00     0.029 A 
ATOM     55  N   UNL A   1      41.407  30.160  34.045  1.00  0.00    -0.354 N 
ATOM     56  N   UNL A   1      41.684  28.710  31.515  1.00  0.00    -0.248 NA
ATOM     57  C   UNL A   1      42.761  27.110  30.197  1.00  0.00     0.031 C 
ATOM     58  C   UNL A   1      42.747  29.610  35.730  1.00  0.00     0.029 A 
ATOM     59  C   UNL A   1      42.440  29.312  34.412  1.00  0.00     0.049 A 
ATOM     60  H   UNL A   1      40.980  30.180  33.158  1.00  0.00     0.167 HD
ATOM     61  C   UNL A   1      42.670  28.089  32.269  1.00  0.00     0.074 A 
ATOM     62  C   UNL A   1      43.280  27.089  31.416  1.00  0.00     0.031 C 
ATOM     63  C   UNL A   1      43.040  28.327  33.550  1.00  0.00     0.037 A 
BRANCH  50  64
ATOM     64  C   UNL A   1      39.830  32.838  36.290  1.00  0.00     0.057 A 
ATOM     65  C   UNL A   1      40.543  34.026  36.490  1.00  0.00     0.134 A 
ATOM     66  C   UNL A   1      38.882  32.482  37.258  1.00  0.00     0.134 A 
ATOM     67  F   UNL A   1      41.474  34.417  35.606  1.00  0.00    -0.206 F 
ATOM     68  C   UNL A   1      40.341  34.818  37.622  1.00  0.00     0.040 A 
ATOM     69  C   UNL A   1      38.653  33.279  38.382  1.00  0.00     0.040 A 
ATOM     70  F   UNL A   1      38.159  31.361  37.126  1.00  0.00    -0.206 F 
ATOM     71  C   UNL A   1      39.389  34.448  38.569  1.00  0.00     0.006 A 
ENDBRANCH  50  64
BRANCH  51  72
ATOM     72  C   UNL A   1      41.063  27.627  27.878  1.00  0.00     0.057 A 
ATOM     73  C   UNL A   1      41.828  28.139  26.825  1.00  0.00     0.134 A 
ATOM     74  C   UNL A   1      40.492  26.361  27.708  1.00  0.00     0.134 A 
ATOM     75  F   UNL A   1      42.386  29.356  26.924  1.00  0.00    -0.206 F 
ATOM     76  C   UNL A   1      42.006  27.428  25.638  1.00  0.00     0.040 A 
ATOM     77  C   UNL A   1      40.679  25.628  26.536  1.00  0.00     0.040 A 
ATOM     78  F   UNL A   1      39.754  25.814  28.685  1.00  0.00    -0.206 F 
ATOM     79  C   UNL A   1      41.433  26.165  25.493  1.00  0.00     0.006 A 
ENDBRANCH  51  72
BRANCH  63  80
ATOM     80  C   UNL A   1      44.144  27.478  34.107  1.00  0.00     0.057 A 
ATOM     81  C   UNL A   1      45.486  27.871  34.025  1.00  0.00     0.134 A 
ATOM     82  C   UNL A   1      43.863  26.263  34.743  1.00  0.00     0.134 A 
ATOM     83  F   UNL A   1      45.824  29.018  33.416  1.00  0.00    -0.206 F 
ATOM     84  C   UNL A   1      46.512  27.071  34.531  1.00  0.00     0.040 A 
ATOM     85  C   UNL A   1      44.877  25.467  35.274  1.00  0.00     0.040 A 
ATOM     86  F   UNL A   1      42.597  25.832  34.861  1.00  0.00    -0.206 F 
ATOM     87  C   UNL A   1      46.207  25.867  35.163  1.00  0.00     0.006 A 
ENDBRANCH  63  80
ENDBRANCH  37  38
ENDBRANCH  29  32
ENDBRANCH  27  28
ENDBRANCH  26  27
ENDBRANCH  25  26
ENDBRANCH  24  25
ENDBRANCH   1  24
TORSDOF 19
ENDMDL
MODEL 2
REMARK VINA RESULT:     -10.1      2.013      3.638
REMARK SMILES CC(=O)N[C@@H](C(=O)N(CC(=O)NCCCCCCNC(=O)c1ccc(-c2c3nc(c(-c4c(F)cccc4F)c4ccc([nH]4)c(-c4c(F)cccc4F)c4nc(c(-c5c(F)cccc5F)c5ccc2[nH]5)C=C4)C=C3)cc1)C(C)(C)C)C(C)C
REMARK SMILES IDX 14 1 13 2 12 3 10 4 11 5 9 7 8 8 6 9 7 10 5 11 4 12 1 13
REMARK SMILES IDX 2 14 3 15 80 17 81 18 82 19 76 20 77 21 78 22 79 23 15 24
REMARK SMILES IDX 16 25 17 26 18 27 19 28 20 29 21 31 22 32 23 33 75 34 24 35
REMARK SMILES IDX 74 36 25 37 26 38 27 39 68 40 28 41 73 42 67 43 69 44 29 45
REMARK SMILES IDX 72 46 66 47 65 48 30 50 56 51 39 52 55 53 40 54 43 55 54 56
REMARK SMILES IDX 70 57 41 58 42 59 53 61 71 62 44 63 31 64 32 65 37 66 33 67
REMARK SMILES IDX 34 68 36 69 38 70 35 71 57 72 58 73 63 74 59 75 60 76 62 77
REMARK SMILES IDX 64 78 61 79 45 80 46 81 51 82 47 83 48 84 50 85 52 86 49 87
REMARK H PARENT 12 6 4 16 19 30 69 49 43 60
REMARK Flexibility Score: inf
ROOT
ATOM      1  C   UNL A   1      34.378  31.912  28.694  1.00  0.00     0.021 C 
ENDROOT
BRANCH   1   2
ATOM      2  C   UNL A   1      33.646  31.491  27.428  1.00  0.00     0.116 C 
BRANCH   2   3
ATOM      3  N   UNL A   1      34.186  30.314  26.793  1.00  0.00    -0.355 N 
ATOM      4  C   UNL A   1      33.536  29.324  26.115  1.00  0.00     0.239 C 
ATOM      5  O   UNL A   1      34.223  28.589  25.397  1.00  0.00    -0.273 OA
ATOM      6  H   UNL A   1      35.163  30.208  26.859  1.00  0.00     0.163 HD
BRANCH   4   7
ATOM      7  C   UNL A   1      31.997  29.188  26.102  1.00  0.00     0.220 C 
BRANCH   7   8
ATOM      8  N   UNL A   1      31.385  28.117  25.296  1.00  0.00    -0.327 N 
BRANCH   8   9
ATOM      9  C   UNL A   1      31.377  26.766  25.703  1.00  0.00     0.246 C 
ATOM     10  O   UNL A   1      30.655  26.403  26.637  1.00  0.00    -0.272 OA
BRANCH   9  11
ATOM     11  C   UNL A   1      32.313  25.692  25.008  1.00  0.00     0.174 C 
BRANCH  11  12
ATOM     12  N   UNL A   1      31.533  24.580  24.449  1.00  0.00    -0.344 N 
ATOM     13  C   UNL A   1      32.670  24.430  22.257  1.00  0.00     0.114 C 
ATOM     14  C   UNL A   1      31.647  23.948  23.249  1.00  0.00     0.217 C 
ATOM     15  O   UNL A   1      30.908  22.993  23.013  1.00  0.00    -0.275 OA
ATOM     16  H   UNL A   1      30.817  24.240  25.034  1.00  0.00     0.164 HD
ENDBRANCH  11  12
BRANCH  11  17
ATOM     17  C   UNL A   1      33.325  25.101  26.047  1.00  0.00     0.015 C 
ATOM     18  C   UNL A   1      32.885  23.755  26.640  1.00  0.00     0.010 C 
ATOM     19  C   UNL A   1      34.727  24.930  25.452  1.00  0.00     0.010 C 
ENDBRANCH  11  17
ENDBRANCH   9  11
ENDBRANCH   8   9
BRANCH   8  20
ATOM     20  C   UNL A   1      30.793  28.491  23.947  1.00  0.00     0.035 C 
ATOM     21  C   UNL A   1      31.847  28.457  22.823  1.00  0.00     0.034 C 
ATOM     22  C   UNL A   1      29.630  27.530  23.600  1.00  0.00     0.034 C 
ATOM     23  C   UNL A   1      30.173  29.915  23.897  1.00  0.00     0.034 C 
ENDBRANCH   8  20
ENDBRANCH   7   8
ENDBRANCH   4   7
ENDBRANCH   2   3
ENDBRANCH   1   2
BRANCH   1  24
ATOM     24  C   UNL A   1      35.265  33.144  28.554  1.00  0.00     0.002 C 
BRANCH  24  25
ATOM     25  C   UNL A   1      34.551  34.425  28.118  1.00  0.00     0.002 C 
BRANCH  25  26
ATOM     26  C   UNL A   1      33.281  34.788  28.894  1.00  0.00     0.021 C 
BRANCH  26  27
ATOM     27  C   UNL A   1      33.255  36.178  29.527  1.00  0.00     0.116 C 
BRANCH  27  28
ATOM     28  N   UNL A   1      32.454  36.235  30.735  1.00  0.00    -0.352 N 
ATOM     29  C   UNL A   1      32.652  35.641  31.953  1.00  0.00     0.251 C 
ATOM     30  H   UNL A   1      31.640  36.786  30.670  1.00  0.00     0.163 HD
ATOM     31  O   UNL A   1      31.781  35.722  32.819  1.00  0.00    -0.269 OA
BRANCH  29  32
ATOM     32  C   UNL A   1      33.887  34.879  32.233  1.00  0.00     0.039 A 
ATOM     33  C   UNL A   1      35.108  35.556  32.173  1.00  0.00     0.014 A 
ATOM     34  C   UNL A   1      33.861  33.508  32.513  1.00  0.00     0.014 A 
ATOM     35  C   UNL A   1      36.296  34.873  32.439  1.00  0.00     0.010 A 
ATOM     36  C   UNL A   1      35.043  32.840  32.837  1.00  0.00     0.010 A 
ATOM     37  C   UNL A   1      36.271  33.516  32.797  1.00  0.00    -0.014 A 
BRANCH  37  38
ATOM     38  C   UNL A   1      37.532  32.810  33.138  1.00  0.00     0.031 A 
ATOM     39  C   UNL A   1      38.260  33.111  34.417  1.00  0.00     0.074 A 
ATOM     40  C   UNL A   1      38.032  31.903  32.276  1.00  0.00     0.049 A 
ATOM     41  N   UNL A   1      39.353  32.567  34.893  1.00  0.00    -0.248 NA
ATOM     42  C   UNL A   1      37.704  34.178  35.263  1.00  0.00     0.031 C 
ATOM     43  C   UNL A   1      37.449  31.563  30.977  1.00  0.00     0.029 A 
ATOM     44  N   UNL A   1      39.139  31.098  32.366  1.00  0.00    -0.354 N 
ATOM     45  C   UNL A   1      39.615  33.226  36.086  1.00  0.00     0.074 A 
ATOM     46  C   UNL A   1      38.598  34.245  36.238  1.00  0.00     0.031 C 
ATOM     47  C   UNL A   1      38.185  30.595  30.406  1.00  0.00     0.029 A 
ATOM     48  C   UNL A   1      39.301  30.264  31.288  1.00  0.00     0.049 A 
ATOM     49  H   UNL A   1      39.758  31.117  33.132  1.00  0.00     0.167 HD
ATOM     50  C   UNL A   1      40.599  32.988  36.987  1.00  0.00     0.037 A 
ATOM     51  C   UNL A   1      40.236  29.329  31.041  1.00  0.00     0.037 A 
ATOM     52  C   UNL A   1      41.599  31.961  36.845  1.00  0.00     0.049 A 
ATOM     53  C   UNL A   1      41.305  29.070  32.064  1.00  0.00     0.074 A 
ATOM     54  C   UNL A   1      42.600  31.603  37.731  1.00  0.00     0.029 A 
ATOM     55  N   UNL A   1      41.724  31.128  35.743  1.00  0.00    -0.354 N 
ATOM     56  N   UNL A   1      41.495  29.648  33.225  1.00  0.00    -0.248 NA
ATOM     57  C   UNL A   1      42.282  28.018  31.748  1.00  0.00     0.031 C 
ATOM     58  C   UNL A   1      43.353  30.576  37.150  1.00  0.00     0.029 A 
ATOM     59  C   UNL A   1      42.796  30.269  35.918  1.00  0.00     0.049 A 
ATOM     60  H   UNL A   1      41.136  31.145  34.953  1.00  0.00     0.167 HD
ATOM     61  C   UNL A   1      42.599  29.020  33.786  1.00  0.00     0.074 A 
ATOM     62  C   UNL A   1      43.023  28.002  32.846  1.00  0.00     0.031 C 
ATOM     63  C   UNL A   1      43.208  29.265  34.971  1.00  0.00     0.037 A 
BRANCH  50  64
ATOM     64  C   UNL A   1      40.637  33.853  38.212  1.00  0.00     0.057 A 
ATOM     65  C   UNL A   1      41.446  34.994  38.282  1.00  0.00     0.134 A 
ATOM     66  C   UNL A   1      39.832  33.562  39.320  1.00  0.00     0.134 A 
ATOM     67  F   UNL A   1      42.250  35.322  37.258  1.00  0.00    -0.206 F 
ATOM     68  C   UNL A   1      41.474  35.801  39.421  1.00  0.00     0.040 A 
ATOM     69  C   UNL A   1      39.832  34.376  40.455  1.00  0.00     0.040 A 
ATOM     70  F   UNL A   1      39.029  32.489  39.317  1.00  0.00    -0.206 F 
ATOM     71  C   UNL A   1      40.660  35.496  40.510  1.00  0.00     0.006 A 
ENDBRANCH  50  64
BRANCH  51  72
ATOM     72  C   UNL A   1      40.180  28.537  29.788  1.00  0.00     0.057 A 
ATOM     73  C   UNL A   1      40.887  28.938  28.650  1.00  0.00     0.134 A 
ATOM     74  C   UNL A   1      39.421  27.364  29.699  1.00  0.00     0.134 A 
ATOM     75  F   UNL A   1      41.618  30.064  28.671  1.00  0.00    -0.206 F 
ATOM     76  C   UNL A   1      40.830  28.213  27.460  1.00  0.00     0.040 A 
ATOM     77  C   UNL A   1      39.372  26.616  28.522  1.00  0.00     0.040 A 
ATOM     78  F   UNL A   1      38.728  26.923  30.758  1.00  0.00    -0.206 F 
ATOM     79  C   UNL A   1      40.073  27.044  27.395  1.00  0.00     0.006 A 
ENDBRANCH  51  72
BRANCH  63  80
ATOM     80  C   UNL A   1      44.388  28.406  35.319  1.00  0.00     0.057 A 
ATOM     81  C   UNL A   1      44.238  27.198  36.012  1.00  0.00     0.134 A 
ATOM     82  C   UNL A   1      45.684  28.785  34.948  1.00  0.00     0.134 A 
ATOM     83  F   UNL A   1      43.025  26.786  36.409  1.00  0.00    -0.206 F 
ATOM     84  C   UNL A   1      45.341  26.409  36.347  1.00  0.00     0.040 A 
ATOM     85  C   UNL A   1      46.790  27.993  35.255  1.00  0.00     0.040 A 
ATOM     86  F   UNL A   1      45.894  29.928  34.276  1.00  0.00    -0.206 F 
ATOM     87  C   UNL A   1      46.621  26.805  35.964  1.00  0.00     0.006 A 
ENDBRANCH  63  80
ENDBRANCH  37  38
ENDBRANCH  29  32
ENDBRANCH  27  28
ENDBRANCH  26  27
ENDBRANCH  25  26
ENDBRANCH  24  25
ENDBRANCH   1  24
TORSDOF 19
ENDMDL
MODEL 3
REMARK VINA RESULT:     -10.0      2.375      3.949
REMARK SMILES CC(=O)N[C@@H](C(=O)N(CC(=O)NCCCCCCNC(=O)c1ccc(-c2c3nc(c(-c4c(F)cccc4F)c4ccc([nH]4)c(-c4c(F)cccc4F)c4nc(c(-c5c(F)cccc5F)c5ccc2[nH]5)C=C4)C=C3)cc1)C(C)(C)C)C(C)C
REMARK SMILES IDX 14 1 13 2 12 3 10 4 11 5 9 7 8 8 6 9 7 10 5 11 4 12 1 13
REMARK SMILES IDX 2 14 3 15 80 17 81 18 82 19 76 20 77 21 78 22 79 23 15 24
REMARK SMILES IDX 16 25 17 26 18 27 19 28 20 29 21 31 22 32 23 33 75 34 24 35
REMARK SMILES IDX 74 36 25 37 26 38 27 39 68 40 28 41 73 42 67 43 69 44 29 45
REMARK SMILES IDX 72 46 66 47 65 48 30 50 56 51 39 52 55 53 40 54 43 55 54 56
REMARK SMILES IDX 70 57 41 58 42 59 53 61 71 62 44 63 31 64 32 65 37 66 33 67
REMARK SMILES IDX 34 68 36 69 38 70 35 71 57 72 58 73 63 74 59 75 60 76 62 77
REMARK SMILES IDX 64 78 61 79 45 80 46 81 51 82 47 83 48 84 50 85 52 86 49 87
REMARK H PARENT 12 6 4 16 19 30 69 49 43 60
REMARK Flexibility Score: inf
ROOT
ATOM      1  C   UNL A   1      31.725  27.387  24.508  1.00  0.00     0.021 C 
ENDROOT
BRANCH   1   2
ATOM      2  C   UNL A   1      33.168  27.395  24.024  1.00  0.00     0.116 C 
BRANCH   2   3
ATOM      3  N   UNL A   1      33.448  26.444  22.976  1.00  0.00    -0.355 N 
ATOM      4  C   UNL A   1      33.760  25.119  23.074  1.00  0.00     0.239 C 
ATOM      5  O   UNL A   1      33.651  24.438  22.048  1.00  0.00    -0.273 OA
ATOM      6  H   UNL A   1      33.409  26.801  22.059  1.00  0.00     0.163 HD
BRANCH   4   7
ATOM      7  C   UNL A   1      34.093  24.432  24.418  1.00  0.00     0.220 C 
BRANCH   7   8
ATOM      8  N   UNL A   1      34.535  23.027  24.408  1.00  0.00    -0.327 N 
BRANCH   8   9
ATOM      9  C   UNL A   1      33.633  21.944  24.478  1.00  0.00     0.246 C 
ATOM     10  O   UNL A   1      32.862  21.717  23.539  1.00  0.00    -0.272 OA
BRANCH   9  11
ATOM     11  C   UNL A   1      33.556  21.019  25.763  1.00  0.00     0.174 C 
BRANCH  11  12
ATOM     12  N   UNL A   1      32.629  19.898  25.563  1.00  0.00    -0.344 N 
ATOM     13  C   UNL A   1      34.225  18.311  24.534  1.00  0.00     0.114 C 
ATOM     14  C   UNL A   1      32.854  18.657  25.049  1.00  0.00     0.217 C 
ATOM     15  O   UNL A   1      31.925  17.851  25.026  1.00  0.00    -0.275 OA
ATOM     16  H   UNL A   1      31.701  20.070  25.844  1.00  0.00     0.164 HD
ENDBRANCH  11  12
BRANCH  11  17
ATOM     17  C   UNL A   1      33.060  21.846  26.997  1.00  0.00     0.015 C 
ATOM     18  C   UNL A   1      34.176  22.631  27.702  1.00  0.00     0.010 C 
ATOM     19  C   UNL A   1      31.945  22.827  26.621  1.00  0.00     0.010 C 
ENDBRANCH  11  17
ENDBRANCH   9  11
ENDBRANCH   8   9
BRANCH   8  20
ATOM     20  C   UNL A   1      36.029  22.751  24.380  1.00  0.00     0.035 C 
ATOM     21  C   UNL A   1      36.621  22.914  22.966  1.00  0.00     0.034 C 
ATOM     22  C   UNL A   1      36.756  23.700  25.362  1.00  0.00     0.034 C 
ATOM     23  C   UNL A   1      36.419  21.317  24.836  1.00  0.00     0.034 C 
ENDBRANCH   8  20
ENDBRANCH   7   8
ENDBRANCH   4   7
ENDBRANCH   2   3
ENDBRANCH   1   2
BRANCH   1  24
ATOM     24  C   UNL A   1      31.542  27.140  26.002  1.00  0.00     0.002 C 
BRANCH  24  25
ATOM     25  C   UNL A   1      31.767  28.355  26.904  1.00  0.00     0.002 C 
BRANCH  25  26
ATOM     26  C   UNL A   1      33.188  28.541  27.446  1.00  0.00     0.021 C 
BRANCH  26  27
ATOM     27  C   UNL A   1      34.010  29.658  26.806  1.00  0.00     0.116 C 
BRANCH  27  28
ATOM     28  N   UNL A   1      33.871  30.927  27.493  1.00  0.00    -0.352 N 
ATOM     29  C   UNL A   1      34.655  31.497  28.460  1.00  0.00     0.251 C 
ATOM     30  H   UNL A   1      33.090  31.464  27.224  1.00  0.00     0.163 HD
ATOM     31  O   UNL A   1      34.293  32.540  29.003  1.00  0.00    -0.269 OA
BRANCH  29  32
ATOM     32  C   UNL A   1      35.921  30.859  28.882  1.00  0.00     0.039 A 
ATOM     33  C   UNL A   1      37.118  31.369  28.373  1.00  0.00     0.014 A 
ATOM     34  C   UNL A   1      35.940  29.750  29.735  1.00  0.00     0.014 A 
ATOM     35  C   UNL A   1      38.335  30.801  28.753  1.00  0.00     0.010 A 
ATOM     36  C   UNL A   1      37.159  29.220  30.161  1.00  0.00     0.010 A 
ATOM     37  C   UNL A   1      38.367  29.737  29.670  1.00  0.00    -0.014 A 
BRANCH  37  38
ATOM     38  C   UNL A   1      39.666  29.176  30.117  1.00  0.00     0.031 A 
ATOM     39  C   UNL A   1      40.359  29.718  31.335  1.00  0.00     0.074 A 
ATOM     40  C   UNL A   1      40.232  28.180  29.408  1.00  0.00     0.049 A 
ATOM     41  N   UNL A   1      41.479  29.326  31.890  1.00  0.00    -0.248 NA
ATOM     42  C   UNL A   1      39.727  30.866  32.004  1.00  0.00     0.031 C 
ATOM     43  C   UNL A   1      39.686  27.605  28.178  1.00  0.00     0.029 A 
ATOM     44  N   UNL A   1      41.387  27.472  29.624  1.00  0.00    -0.354 N 
ATOM     45  C   UNL A   1      41.686  30.179  32.967  1.00  0.00     0.074 A 
ATOM     46  C   UNL A   1      40.604  31.141  32.957  1.00  0.00     0.031 C 
ATOM     47  C   UNL A   1      40.489  26.610  27.765  1.00  0.00     0.029 A 
ATOM     48  C   UNL A   1      41.613  26.493  28.688  1.00  0.00     0.049 A 
ATOM     49  H   UNL A   1      41.995  27.649  30.377  1.00  0.00     0.167 HD
ATOM     50  C   UNL A   1      42.673  30.148  33.894  1.00  0.00     0.037 A 
ATOM     51  C   UNL A   1      42.609  25.593  28.592  1.00  0.00     0.037 A 
ATOM     52  C   UNL A   1      43.738  29.178  33.916  1.00  0.00     0.049 A 
ATOM     53  C   UNL A   1      43.681  25.565  29.644  1.00  0.00     0.074 A 
ATOM     54  C   UNL A   1      44.750  29.027  34.847  1.00  0.00     0.029 A 
ATOM     55  N   UNL A   1      43.927  28.193  32.957  1.00  0.00    -0.354 N 
ATOM     56  N   UNL A   1      43.821  26.327  30.701  1.00  0.00    -0.248 NA
ATOM     57  C   UNL A   1      44.725  24.542  29.496  1.00  0.00     0.031 C 
ATOM     58  C   UNL A   1      45.573  27.973  34.434  1.00  0.00     0.029 A 
ATOM     59  C   UNL A   1      45.050  27.443  33.265  1.00  0.00     0.049 A 
ATOM     60  H   UNL A   1      43.349  28.049  32.174  1.00  0.00     0.167 HD
ATOM     61  C   UNL A   1      44.956  25.867  31.354  1.00  0.00     0.074 A 
ATOM     62  C   UNL A   1      45.454  24.745  30.584  1.00  0.00     0.031 C 
ATOM     63  C   UNL A   1      45.536  26.333  32.486  1.00  0.00     0.037 A 
BRANCH  50  64
ATOM     64  C   UNL A   1      42.642  31.193  34.969  1.00  0.00     0.057 A 
ATOM     65  C   UNL A   1      43.299  32.422  34.821  1.00  0.00     0.134 A 
ATOM     66  C   UNL A   1      41.922  30.985  36.152  1.00  0.00     0.134 A 
ATOM     67  F   UNL A   1      44.017  32.679  33.716  1.00  0.00    -0.206 F 
ATOM     68  C   UNL A   1      43.263  33.395  35.820  1.00  0.00     0.040 A 
ATOM     69  C   UNL A   1      41.857  31.961  37.148  1.00  0.00     0.040 A 
ATOM     70  F   UNL A   1      41.264  29.835  36.357  1.00  0.00    -0.206 F 
ATOM     71  C   UNL A   1      42.534  33.169  36.986  1.00  0.00     0.006 A 
ENDBRANCH  50  64
BRANCH  51  72
ATOM     72  C   UNL A   1      42.617  24.613  27.477  1.00  0.00     0.057 A 
ATOM     73  C   UNL A   1      43.169  24.941  26.235  1.00  0.00     0.134 A 
ATOM     74  C   UNL A   1      42.075  23.331  27.627  1.00  0.00     0.134 A 
ATOM     75  F   UNL A   1      43.688  26.161  26.027  1.00  0.00    -0.206 F 
ATOM     76  C   UNL A   1      43.168  24.036  25.173  1.00  0.00     0.040 A 
ATOM     77  C   UNL A   1      42.086  22.408  26.581  1.00  0.00     0.040 A 
ATOM     78  F   UNL A   1      41.537  22.956  28.797  1.00  0.00    -0.206 F 
ATOM     79  C   UNL A   1      42.629  22.763  25.347  1.00  0.00     0.006 A 
ENDBRANCH  51  72
BRANCH  63  80
ATOM     80  C   UNL A   1      46.763  25.616  32.965  1.00  0.00     0.057 A 
ATOM     81  C   UNL A   1      48.042  25.963  32.509  1.00  0.00     0.134 A 
ATOM     82  C   UNL A   1      46.668  24.578  33.900  1.00  0.00     0.134 A 
ATOM     83  F   UNL A   1      48.200  26.938  31.603  1.00  0.00    -0.206 F 
ATOM     84  C   UNL A   1      49.180  25.282  32.947  1.00  0.00     0.040 A 
ATOM     85  C   UNL A   1      47.800  23.907  34.363  1.00  0.00     0.040 A 
ATOM     86  F   UNL A   1      45.472  24.202  34.381  1.00  0.00    -0.206 F 
ATOM     87  C   UNL A   1      49.060  24.254  33.880  1.00  0.00     0.006 A 
ENDBRANCH  63  80
ENDBRANCH  37  38
ENDBRANCH  29  32
ENDBRANCH  27  28
ENDBRANCH  26  27
ENDBRANCH  25  26
ENDBRANCH  24  25
ENDBRANCH   1  24
TORSDOF 19
ENDMDL
