MODEL 1
REMARK VINA RESULT:     -11.5      0.000      0.000
REMARK SMILES O=C(COc1ccc(/C=C2\C(=O)N(c3ccc(Cl)cc3Cl)C(=O)N=C2O)cc1Cl)NCCCCCCNC(=O)c1ccc(-c2c3nc(c(-c4c(F)cccc4F)c4ccc([nH]4)c(-c4c(F)cccc4F)c4nc(c(-c5c(F)cccc5F)c5ccc2[nH]5)C=C4)C=C3)cc1
REMARK SMILES IDX 32 1 31 2 30 3 1 4 2 5 3 7 4 8 5 9 6 10 28 11 7 12 27 13
REMARK SMILES IDX 29 14 8 15 9 16 10 17 11 18 25 19 12 20 13 21 24 22 22 23
REMARK SMILES IDX 23 24 26 25 14 27 15 28 20 29 16 30 19 31 21 32 17 33 18 34
REMARK SMILES IDX 33 35 34 36 35 37 36 38 37 39 38 40 39 42 40 43 41 44 93 45
REMARK SMILES IDX 42 46 92 47 43 48 44 49 45 50 86 51 46 52 91 53 85 54 87 55
REMARK SMILES IDX 47 56 90 57 84 58 83 59 48 61 74 62 57 63 73 64 58 65 61 66
REMARK SMILES IDX 72 67 88 68 59 69 60 70 71 72 89 73 62 74 49 75 50 76 55 77
REMARK SMILES IDX 51 78 52 79 54 80 56 81 53 82 75 83 76 84 81 85 77 86 78 87
REMARK SMILES IDX 80 88 82 89 79 90 63 91 64 92 69 93 65 94 66 95 68 96 70 97
REMARK SMILES IDX 67 98
REMARK H PARENT 30 6 26 26 37 41 87 60 61 71
REMARK Flexibility Score: inf
ROOT
ATOM      1  C   UNL A   1      40.535  29.096  27.546  1.00  0.00     0.021 C 
ENDROOT
BRANCH   1   2
ATOM      2  C   UNL A   1      40.117  29.486  28.956  1.00  0.00     0.116 C 
BRANCH   2   3
ATOM      3  N   UNL A   1      38.778  30.018  29.032  1.00  0.00    -0.353 N 
ATOM      4  O   UNL A   1      39.318  32.136  29.760  1.00  0.00    -0.271 OA
ATOM      5  C   UNL A   1      38.509  31.348  29.282  1.00  0.00     0.257 C 
ATOM      6  H   UNL A   1      38.021  29.402  28.897  1.00  0.00     0.163 HD
BRANCH   5   7
ATOM      7  C   UNL A   1      37.091  31.762  28.881  1.00  0.00     0.329 C 
BRANCH   7   8
ATOM      8  O   UNL A   1      36.125  30.809  29.342  1.00  0.00    -0.482 OA
BRANCH   8   9
ATOM      9  C   UNL A   1      35.080  30.598  28.483  1.00  0.00     0.138 A 
ATOM     10  C   UNL A   1      35.150  29.411  27.754  1.00  0.00     0.048 A 
ATOM     11  C   UNL A   1      34.072  31.522  28.185  1.00  0.00     0.083 A 
ATOM     12  C   UNL A   1      34.214  29.142  26.750  1.00  0.00     0.012 A 
ATOM     13  C   UNL A   1      33.123  31.235  27.197  1.00  0.00     0.032 A 
ATOM     14  Cl  UNL A   1      33.957  33.081  28.910  1.00  0.00    -0.080 Cl
ATOM     15  C   UNL A   1      33.174  30.039  26.476  1.00  0.00    -0.023 A 
BRANCH  15  16
ATOM     16  C   UNL A   1      32.208  29.853  25.378  1.00  0.00     0.027 C 
ATOM     17  C   UNL A   1      31.423  28.791  25.126  1.00  0.00     0.103 C 
ATOM     18  C   UNL A   1      31.359  27.580  25.967  1.00  0.00     0.272 C 
ATOM     19  C   UNL A   1      30.670  28.675  23.886  1.00  0.00     0.228 C 
ATOM     20  O   UNL A   1      31.394  27.646  27.191  1.00  0.00    -0.268 OA
ATOM     21  N   UNL A   1      31.295  26.428  25.198  1.00  0.00    -0.224 N 
ATOM     22  N   UNL A   1      30.256  27.586  23.362  1.00  0.00    -0.156 NA
ATOM     23  C   UNL A   1      30.605  26.399  23.972  1.00  0.00     0.358 C 
ATOM     24  O   UNL A   1      30.249  25.336  23.462  1.00  0.00    -0.245 OA
BRANCH  19  25
ATOM     25  O   UNL A   1      30.383  29.826  23.268  1.00  0.00    -0.493 OA
ATOM     26  H   UNL A   1      29.829  30.457  23.686  1.00  0.00     0.295 HD
ENDBRANCH  19  25
BRANCH  21  27
ATOM     27  C   UNL A   1      31.850  25.214  25.720  1.00  0.00     0.073 A 
ATOM     28  C   UNL A   1      31.064  24.344  26.494  1.00  0.00     0.030 A 
ATOM     29  C   UNL A   1      33.223  24.917  25.571  1.00  0.00     0.066 A 
ATOM     30  C   UNL A   1      31.622  23.204  27.083  1.00  0.00     0.023 A 
ATOM     31  C   UNL A   1      33.776  23.772  26.153  1.00  0.00     0.043 A 
ATOM     32  Cl  UNL A   1      34.340  26.030  24.849  1.00  0.00    -0.082 Cl
ATOM     33  C   UNL A   1      32.972  22.922  26.906  1.00  0.00     0.042 A 
ATOM     34  Cl  UNL A   1      33.661  21.539  27.659  1.00  0.00    -0.084 Cl
ENDBRANCH  21  27
ENDBRANCH  15  16
ENDBRANCH   8   9
ENDBRANCH   7   8
ENDBRANCH   5   7
ENDBRANCH   2   3
ENDBRANCH   1   2
BRANCH   1  35
ATOM     35  C   UNL A   1      40.664  27.592  27.284  1.00  0.00     0.002 C 
BRANCH  35  36
ATOM     36  C   UNL A   1      40.062  26.655  28.337  1.00  0.00     0.002 C 
BRANCH  36  37
ATOM     37  C   UNL A   1      39.412  25.373  27.816  1.00  0.00     0.021 C 
BRANCH  37  38
ATOM     38  C   UNL A   1      39.808  24.946  26.407  1.00  0.00     0.116 C 
BRANCH  38  39
ATOM     39  N   UNL A   1      40.529  23.686  26.366  1.00  0.00    -0.352 N 
ATOM     40  C   UNL A   1      41.884  23.461  26.305  1.00  0.00     0.251 C 
ATOM     41  H   UNL A   1      39.968  22.877  26.385  1.00  0.00     0.163 HD
ATOM     42  O   UNL A   1      42.312  22.317  26.191  1.00  0.00    -0.269 OA
BRANCH  40  43
ATOM     43  C   UNL A   1      42.833  24.598  26.337  1.00  0.00     0.039 A 
ATOM     44  C   UNL A   1      43.369  24.985  27.570  1.00  0.00     0.014 A 
ATOM     45  C   UNL A   1      43.193  25.283  25.173  1.00  0.00     0.014 A 
ATOM     46  C   UNL A   1      44.313  26.013  27.626  1.00  0.00     0.010 A 
ATOM     47  C   UNL A   1      44.178  26.267  25.223  1.00  0.00     0.010 A 
ATOM     48  C   UNL A   1      44.750  26.640  26.449  1.00  0.00    -0.014 A 
BRANCH  48  49
ATOM     49  C   UNL A   1      45.807  27.681  26.481  1.00  0.00     0.031 A 
ATOM     50  C   UNL A   1      45.440  29.130  26.639  1.00  0.00     0.074 A 
ATOM     51  C   UNL A   1      47.094  27.330  26.303  1.00  0.00     0.049 A 
ATOM     52  N   UNL A   1      46.213  30.186  26.624  1.00  0.00    -0.248 NA
ATOM     53  C   UNL A   1      44.010  29.433  26.812  1.00  0.00     0.031 C 
ATOM     54  C   UNL A   1      47.580  25.965  26.099  1.00  0.00     0.029 A 
ATOM     55  N   UNL A   1      48.231  28.098  26.256  1.00  0.00    -0.354 N 
ATOM     56  C   UNL A   1      45.366  31.277  26.765  1.00  0.00     0.074 A 
ATOM     57  C   UNL A   1      44.016  30.758  26.825  1.00  0.00     0.031 C 
ATOM     58  C   UNL A   1      48.917  25.988  25.972  1.00  0.00     0.029 A 
ATOM     59  C   UNL A   1      49.379  27.370  26.053  1.00  0.00     0.049 A 
ATOM     60  H   UNL A   1      48.225  29.077  26.357  1.00  0.00     0.167 HD
ATOM     61  C   UNL A   1      45.684  32.591  26.854  1.00  0.00     0.037 A 
ATOM     62  C   UNL A   1      50.658  27.772  25.943  1.00  0.00     0.037 A 
ATOM     63  C   UNL A   1      47.027  33.106  26.829  1.00  0.00     0.049 A 
ATOM     64  C   UNL A   1      50.985  29.235  26.047  1.00  0.00     0.074 A 
ATOM     65  C   UNL A   1      47.454  34.413  26.987  1.00  0.00     0.029 A 
ATOM     66  N   UNL A   1      48.163  32.335  26.632  1.00  0.00    -0.354 N 
ATOM     67  N   UNL A   1      50.180  30.250  26.245  1.00  0.00    -0.248 NA
ATOM     68  C   UNL A   1      52.402  29.608  25.913  1.00  0.00     0.031 C 
ATOM     69  C   UNL A   1      48.848  34.438  26.853  1.00  0.00     0.029 A 
ATOM     70  C   UNL A   1      49.290  33.142  26.645  1.00  0.00     0.049 A 
ATOM     71  H   UNL A   1      48.169  31.360  26.502  1.00  0.00     0.167 HD
ATOM     72  C   UNL A   1      50.991  31.376  26.286  1.00  0.00     0.074 A 
ATOM     73  C   UNL A   1      52.353  30.919  26.100  1.00  0.00     0.031 C 
ATOM     74  C   UNL A   1      50.638  32.672  26.465  1.00  0.00     0.037 A 
BRANCH  61  75
ATOM     75  C   UNL A   1      44.551  33.564  26.989  1.00  0.00     0.057 A 
ATOM     76  C   UNL A   1      44.066  33.961  28.241  1.00  0.00     0.134 A 
ATOM     77  C   UNL A   1      43.950  34.123  25.854  1.00  0.00     0.134 A 
ATOM     78  F   UNL A   1      44.590  33.451  29.367  1.00  0.00    -0.206 F 
ATOM     79  C   UNL A   1      43.005  34.860  28.362  1.00  0.00     0.040 A 
ATOM     80  C   UNL A   1      42.904  35.041  25.962  1.00  0.00     0.040 A 
ATOM     81  F   UNL A   1      44.371  33.789  24.626  1.00  0.00    -0.206 F 
ATOM     82  C   UNL A   1      42.424  35.406  27.218  1.00  0.00     0.006 A 
ENDBRANCH  61  75
BRANCH  62  83
ATOM     83  C   UNL A   1      51.736  26.772  25.756  1.00  0.00     0.057 A 
ATOM     84  C   UNL A   1      52.172  26.421  24.473  1.00  0.00     0.134 A 
ATOM     85  C   UNL A   1      52.353  26.143  26.843  1.00  0.00     0.134 A 
ATOM     86  F   UNL A   1      51.604  26.977  23.393  1.00  0.00    -0.206 F 
ATOM     87  C   UNL A   1      53.174  25.471  24.276  1.00  0.00     0.040 A 
ATOM     88  C   UNL A   1      53.369  25.205  26.663  1.00  0.00     0.040 A 
ATOM     89  F   UNL A   1      51.981  26.440  28.098  1.00  0.00    -0.206 F 
ATOM     90  C   UNL A   1      53.779  24.863  25.375  1.00  0.00     0.006 A 
ENDBRANCH  62  83
BRANCH  74  91
ATOM     91  C   UNL A   1      51.746  33.682  26.501  1.00  0.00     0.057 A 
ATOM     92  C   UNL A   1      52.374  34.043  27.700  1.00  0.00     0.134 A 
ATOM     93  C   UNL A   1      52.209  34.274  25.320  1.00  0.00     0.134 A 
ATOM     94  F   UNL A   1      51.964  33.522  28.865  1.00  0.00    -0.206 F 
ATOM     95  C   UNL A   1      53.413  34.973  27.724  1.00  0.00     0.040 A 
ATOM     96  C   UNL A   1      53.262  35.190  25.329  1.00  0.00     0.040 A 
ATOM     97  F   UNL A   1      51.652  33.966  24.139  1.00  0.00    -0.206 F 
ATOM     98  C   UNL A   1      53.864  35.546  26.534  1.00  0.00     0.006 A 
ENDBRANCH  74  91
ENDBRANCH  48  49
ENDBRANCH  40  43
ENDBRANCH  38  39
ENDBRANCH  37  38
ENDBRANCH  36  37
ENDBRANCH  35  36
ENDBRANCH   1  35
TORSDOF 18
ENDMDL
MODEL 2
REMARK VINA RESULT:     -11.4      0.758      5.925
REMARK SMILES O=C(COc1ccc(/C=C2\C(=O)N(c3ccc(Cl)cc3Cl)C(=O)N=C2O)cc1Cl)NCCCCCCNC(=O)c1ccc(-c2c3nc(c(-c4c(F)cccc4F)c4ccc([nH]4)c(-c4c(F)cccc4F)c4nc(c(-c5c(F)cccc5F)c5ccc2[nH]5)C=C4)C=C3)cc1
REMARK SMILES IDX 32 1 31 2 30 3 1 4 2 5 3 7 4 8 5 9 6 10 28 11 7 12 27 13
REMARK SMILES IDX 29 14 8 15 9 16 10 17 11 18 25 19 12 20 13 21 24 22 22 23
REMARK SMILES IDX 23 24 26 25 14 27 15 28 20 29 16 30 19 31 21 32 17 33 18 34
REMARK SMILES IDX 33 35 34 36 35 37 36 38 37 39 38 40 39 42 40 43 41 44 93 45
REMARK SMILES IDX 42 46 92 47 43 48 44 49 45 50 86 51 46 52 91 53 85 54 87 55
REMARK SMILES IDX 47 56 90 57 84 58 83 59 48 61 74 62 57 63 73 64 58 65 61 66
REMARK SMILES IDX 72 67 88 68 59 69 60 70 71 72 89 73 62 74 49 75 50 76 55 77
REMARK SMILES IDX 51 78 52 79 54 80 56 81 53 82 75 83 76 84 81 85 77 86 78 87
REMARK SMILES IDX 80 88 82 89 79 90 63 91 64 92 69 93 65 94 66 95 68 96 70 97
REMARK SMILES IDX 67 98
REMARK H PARENT 30 6 26 26 37 41 87 60 61 71
REMARK Flexibility Score: inf
ROOT
ATOM      1  C   UNL A   1      40.634  28.598  27.086  1.00  0.00     0.021 C 
ENDROOT
BRANCH   1   2
ATOM      2  C   UNL A   1      40.303  29.202  28.443  1.00  0.00     0.116 C 
BRANCH   2   3
ATOM      3  N   UNL A   1      38.892  29.420  28.646  1.00  0.00    -0.353 N 
ATOM      4  O   UNL A   1      38.558  27.835  30.285  1.00  0.00    -0.271 OA
ATOM      5  C   UNL A   1      38.175  28.819  29.660  1.00  0.00     0.257 C 
ATOM      6  H   UNL A   1      38.418  30.027  28.032  1.00  0.00     0.163 HD
BRANCH   5   7
ATOM      7  C   UNL A   1      36.846  29.518  29.957  1.00  0.00     0.329 C 
BRANCH   7   8
ATOM      8  O   UNL A   1      36.591  30.563  29.010  1.00  0.00    -0.482 OA
BRANCH   8   9
ATOM      9  C   UNL A   1      35.456  30.390  28.265  1.00  0.00     0.138 A 
ATOM     10  C   UNL A   1      35.470  29.279  27.421  1.00  0.00     0.048 A 
ATOM     11  C   UNL A   1      34.392  31.296  28.179  1.00  0.00     0.083 A 
ATOM     12  C   UNL A   1      34.427  29.066  26.514  1.00  0.00     0.012 A 
ATOM     13  C   UNL A   1      33.338  31.063  27.287  1.00  0.00     0.032 A 
ATOM     14  Cl  UNL A   1      34.321  32.775  29.059  1.00  0.00    -0.080 Cl
ATOM     15  C   UNL A   1      33.336  29.942  26.453  1.00  0.00    -0.023 A 
BRANCH  15  16
ATOM     16  C   UNL A   1      32.249  29.819  25.464  1.00  0.00     0.027 C 
ATOM     17  C   UNL A   1      31.409  28.787  25.269  1.00  0.00     0.103 C 
ATOM     18  C   UNL A   1      31.402  27.551  26.074  1.00  0.00     0.272 C 
ATOM     19  C   UNL A   1      30.521  28.734  24.118  1.00  0.00     0.228 C 
ATOM     20  O   UNL A   1      31.575  27.574  27.288  1.00  0.00    -0.268 OA
ATOM     21  N   UNL A   1      31.218  26.428  25.282  1.00  0.00    -0.224 N 
ATOM     22  N   UNL A   1      30.018  27.675  23.609  1.00  0.00    -0.156 NA
ATOM     23  C   UNL A   1      30.397  26.459  24.140  1.00  0.00     0.358 C 
ATOM     24  O   UNL A   1      29.954  25.424  23.641  1.00  0.00    -0.245 OA
BRANCH  19  25
ATOM     25  O   UNL A   1      30.202  29.913  23.572  1.00  0.00    -0.493 OA
ATOM     26  H   UNL A   1      29.460  29.980  23.002  1.00  0.00     0.295 HD
ENDBRANCH  19  25
BRANCH  21  27
ATOM     27  C   UNL A   1      31.790  25.182  25.701  1.00  0.00     0.073 A 
ATOM     28  C   UNL A   1      31.075  24.314  26.542  1.00  0.00     0.030 A 
ATOM     29  C   UNL A   1      33.125  24.848  25.379  1.00  0.00     0.066 A 
ATOM     30  C   UNL A   1      31.660  23.141  27.029  1.00  0.00     0.023 A 
ATOM     31  C   UNL A   1      33.704  23.670  25.860  1.00  0.00     0.043 A 
ATOM     32  Cl  UNL A   1      34.184  25.948  24.556  1.00  0.00    -0.082 Cl
ATOM     33  C   UNL A   1      32.969  22.823  26.683  1.00  0.00     0.042 A 
ATOM     34  Cl  UNL A   1      33.696  21.397  27.310  1.00  0.00    -0.084 Cl
ENDBRANCH  21  27
ENDBRANCH  15  16
ENDBRANCH   8   9
ENDBRANCH   7   8
ENDBRANCH   5   7
ENDBRANCH   2   3
ENDBRANCH   1   2
BRANCH   1  35
ATOM     35  C   UNL A   1      41.156  27.158  27.110  1.00  0.00     0.002 C 
BRANCH  35  36
ATOM     36  C   UNL A   1      40.432  26.147  26.215  1.00  0.00     0.002 C 
BRANCH  36  37
ATOM     37  C   UNL A   1      39.831  24.927  26.914  1.00  0.00     0.021 C 
BRANCH  37  38
ATOM     38  C   UNL A   1      40.751  24.184  27.875  1.00  0.00     0.116 C 
BRANCH  38  39
ATOM     39  N   UNL A   1      41.442  23.062  27.264  1.00  0.00    -0.352 N 
ATOM     40  C   UNL A   1      42.665  23.031  26.638  1.00  0.00     0.251 C 
ATOM     41  H   UNL A   1      40.966  22.201  27.303  1.00  0.00     0.163 HD
ATOM     42  O   UNL A   1      43.054  21.999  26.101  1.00  0.00    -0.269 OA
BRANCH  40  43
ATOM     43  C   UNL A   1      43.503  24.251  26.574  1.00  0.00     0.039 A 
ATOM     44  C   UNL A   1      44.069  24.735  27.757  1.00  0.00     0.014 A 
ATOM     45  C   UNL A   1      43.730  24.920  25.368  1.00  0.00     0.014 A 
ATOM     46  C   UNL A   1      44.915  25.847  27.722  1.00  0.00     0.010 A 
ATOM     47  C   UNL A   1      44.620  25.992  25.324  1.00  0.00     0.010 A 
ATOM     48  C   UNL A   1      45.223  26.464  26.500  1.00  0.00    -0.014 A 
BRANCH  48  49
ATOM     49  C   UNL A   1      46.177  27.598  26.432  1.00  0.00     0.031 A 
ATOM     50  C   UNL A   1      47.651  27.342  26.287  1.00  0.00     0.074 A 
ATOM     51  C   UNL A   1      45.725  28.859  26.566  1.00  0.00     0.049 A 
ATOM     52  N   UNL A   1      48.642  28.197  26.275  1.00  0.00    -0.248 NA
ATOM     53  C   UNL A   1      48.067  25.936  26.163  1.00  0.00     0.031 C 
ATOM     54  C   UNL A   1      44.324  29.242  26.753  1.00  0.00     0.029 A 
ATOM     55  N   UNL A   1      46.400  30.055  26.573  1.00  0.00    -0.354 N 
ATOM     56  C   UNL A   1      49.797  27.435  26.163  1.00  0.00     0.074 A 
ATOM     57  C   UNL A   1      49.387  26.047  26.150  1.00  0.00     0.031 C 
ATOM     58  C   UNL A   1      44.241  30.580  26.833  1.00  0.00     0.029 A 
ATOM     59  C   UNL A   1      45.583  31.147  26.736  1.00  0.00     0.049 A 
ATOM     60  H   UNL A   1      47.376  30.122  26.472  1.00  0.00     0.167 HD
ATOM     61  C   UNL A   1      51.082  27.853  26.063  1.00  0.00     0.037 A 
ATOM     62  C   UNL A   1      45.882  32.457  26.802  1.00  0.00     0.037 A 
ATOM     63  C   UNL A   1      51.489  29.232  26.042  1.00  0.00     0.049 A 
ATOM     64  C   UNL A   1      47.315  32.896  26.687  1.00  0.00     0.074 A 
ATOM     65  C   UNL A   1      52.758  29.756  25.868  1.00  0.00     0.029 A 
ATOM     66  N   UNL A   1      50.630  30.310  26.199  1.00  0.00    -0.354 N 
ATOM     67  N   UNL A   1      48.391  32.168  26.516  1.00  0.00    -0.248 NA
ATOM     68  C   UNL A   1      47.573  34.341  26.771  1.00  0.00     0.031 C 
ATOM     69  C   UNL A   1      52.673  31.151  25.954  1.00  0.00     0.029 A 
ATOM     70  C   UNL A   1      51.345  31.495  26.147  1.00  0.00     0.049 A 
ATOM     71  H   UNL A   1      49.657  30.243  26.329  1.00  0.00     0.167 HD
ATOM     72  C   UNL A   1      49.449  33.063  26.447  1.00  0.00     0.074 A 
ATOM     73  C   UNL A   1      48.885  34.390  26.585  1.00  0.00     0.031 C 
ATOM     74  C   UNL A   1      50.769  32.808  26.280  1.00  0.00     0.037 A 
BRANCH  61  75
ATOM     75  C   UNL A   1      52.142  26.796  25.967  1.00  0.00     0.057 A 
ATOM     76  C   UNL A   1      52.463  26.183  24.750  1.00  0.00     0.134 A 
ATOM     77  C   UNL A   1      52.862  26.401  27.101  1.00  0.00     0.134 A 
ATOM     78  F   UNL A   1      51.800  26.507  23.629  1.00  0.00    -0.206 F 
ATOM     79  C   UNL A   1      53.445  25.193  24.667  1.00  0.00     0.040 A 
ATOM     80  C   UNL A   1      53.862  25.430  27.028  1.00  0.00     0.040 A 
ATOM     81  F   UNL A   1      52.607  26.954  28.297  1.00  0.00    -0.206 F 
ATOM     82  C   UNL A   1      54.150  24.818  25.809  1.00  0.00     0.006 A 
ENDBRANCH  61  75
BRANCH  62  83
ATOM     83  C   UNL A   1      44.798  33.458  26.951  1.00  0.00     0.057 A 
ATOM     84  C   UNL A   1      44.396  33.892  28.220  1.00  0.00     0.134 A 
ATOM     85  C   UNL A   1      44.141  34.002  25.842  1.00  0.00     0.134 A 
ATOM     86  F   UNL A   1      44.977  33.391  29.320  1.00  0.00    -0.206 F 
ATOM     87  C   UNL A   1      43.368  34.822  28.381  1.00  0.00     0.040 A 
ATOM     88  C   UNL A   1      43.125  34.946  25.988  1.00  0.00     0.040 A 
ATOM     89  F   UNL A   1      44.485  33.628  24.600  1.00  0.00    -0.206 F 
ATOM     90  C   UNL A   1      42.732  35.355  27.261  1.00  0.00     0.006 A 
ENDBRANCH  62  83
BRANCH  74  91
ATOM     91  C   UNL A   1      51.688  33.990  26.205  1.00  0.00     0.057 A 
ATOM     92  C   UNL A   1      52.061  34.556  24.980  1.00  0.00     0.134 A 
ATOM     93  C   UNL A   1      52.178  34.587  27.374  1.00  0.00     0.134 A 
ATOM     94  F   UNL A   1      51.637  34.020  23.826  1.00  0.00    -0.206 F 
ATOM     95  C   UNL A   1      52.906  35.665  24.919  1.00  0.00     0.040 A 
ATOM     96  C   UNL A   1      53.007  35.709  27.326  1.00  0.00     0.040 A 
ATOM     97  F   UNL A   1      51.854  34.095  28.578  1.00  0.00    -0.206 F 
ATOM     98  C   UNL A   1      53.376  36.248  26.096  1.00  0.00     0.006 A 
ENDBRANCH  74  91
ENDBRANCH  48  49
ENDBRANCH  40  43
ENDBRANCH  38  39
ENDBRANCH  37  38
ENDBRANCH  36  37
ENDBRANCH  35  36
ENDBRANCH   1  35
TORSDOF 18
ENDMDL
MODEL 3
REMARK VINA RESULT:     -11.0      5.801     10.288
REMARK SMILES O=C(COc1ccc(/C=C2\C(=O)N(c3ccc(Cl)cc3Cl)C(=O)N=C2O)cc1Cl)NCCCCCCNC(=O)c1ccc(-c2c3nc(c(-c4c(F)cccc4F)c4ccc([nH]4)c(-c4c(F)cccc4F)c4nc(c(-c5c(F)cccc5F)c5ccc2[nH]5)C=C4)C=C3)cc1
REMARK SMILES IDX 32 1 31 2 30 3 1 4 2 5 3 7 4 8 5 9 6 10 28 11 7 12 27 13
REMARK SMILES IDX 29 14 8 15 9 16 10 17 11 18 25 19 12 20 13 21 24 22 22 23
REMARK SMILES IDX 23 24 26 25 14 27 15 28 20 29 16 30 19 31 21 32 17 33 18 34
REMARK SMILES IDX 33 35 34 36 35 37 36 38 37 39 38 40 39 42 40 43 41 44 93 45
REMARK SMILES IDX 42 46 92 47 43 48 44 49 45 50 86 51 46 52 91 53 85 54 87 55
REMARK SMILES IDX 47 56 90 57 84 58 83 59 48 61 74 62 57 63 73 64 58 65 61 66
REMARK SMILES IDX 72 67 88 68 59 69 60 70 71 72 89 73 62 74 49 75 50 76 55 77
REMARK SMILES IDX 51 78 52 79 54 80 56 81 53 82 75 83 76 84 81 85 77 86 78 87
REMARK SMILES IDX 80 88 82 89 79 90 63 91 64 92 69 93 65 94 66 95 68 96 70 97
REMARK SMILES IDX 67 98
REMARK H PARENT 30 6 26 26 37 41 87 60 61 71
REMARK Flexibility Score: inf
ROOT
ATOM      1  C   UNL A   1      40.977  22.257  26.508  1.00  0.00     0.021 C 
ENDROOT
BRANCH   1   2
ATOM      2  C   UNL A   1      39.925  23.240  27.002  1.00  0.00     0.116 C 
BRANCH   2   3
ATOM      3  N   UNL A   1      40.463  24.284  27.839  1.00  0.00    -0.353 N 
ATOM      4  O   UNL A   1      40.967  25.795  26.173  1.00  0.00    -0.271 OA
ATOM      5  C   UNL A   1      40.798  25.535  27.360  1.00  0.00     0.257 C 
ATOM      6  H   UNL A   1      40.598  24.096  28.796  1.00  0.00     0.163 HD
BRANCH   5   7
ATOM      7  C   UNL A   1      40.916  26.591  28.462  1.00  0.00     0.329 C 
BRANCH   7   8
ATOM      8  O   UNL A   1      39.639  27.167  28.764  1.00  0.00    -0.482 OA
BRANCH   8   9
ATOM      9  C   UNL A   1      39.581  27.825  29.963  1.00  0.00     0.138 A 
ATOM     10  C   UNL A   1      38.829  27.186  30.949  1.00  0.00     0.048 A 
ATOM     11  C   UNL A   1      40.073  29.112  30.209  1.00  0.00     0.083 A 
ATOM     12  C   UNL A   1      38.584  27.817  32.172  1.00  0.00     0.012 A 
ATOM     13  C   UNL A   1      39.846  29.728  31.447  1.00  0.00     0.032 A 
ATOM     14  Cl  UNL A   1      40.893  30.066  29.032  1.00  0.00    -0.080 Cl
ATOM     15  C   UNL A   1      39.111  29.085  32.446  1.00  0.00    -0.023 A 
BRANCH  15  16
ATOM     16  C   UNL A   1      38.821  29.837  33.680  1.00  0.00     0.027 C 
ATOM     17  C   UNL A   1      37.833  30.721  33.907  1.00  0.00     0.103 C 
ATOM     18  C   UNL A   1      36.791  31.083  32.926  1.00  0.00     0.272 C 
ATOM     19  C   UNL A   1      37.799  31.534  35.113  1.00  0.00     0.228 C 
ATOM     20  O   UNL A   1      36.283  30.243  32.191  1.00  0.00    -0.268 OA
ATOM     21  N   UNL A   1      36.527  32.444  32.942  1.00  0.00    -0.224 N 
ATOM     22  N   UNL A   1      37.195  32.653  35.244  1.00  0.00    -0.156 NA
ATOM     23  C   UNL A   1      36.576  33.189  34.134  1.00  0.00     0.358 C 
ATOM     24  O   UNL A   1      36.022  34.284  34.228  1.00  0.00    -0.245 OA
BRANCH  19  25
ATOM     25  O   UNL A   1      38.449  31.037  36.171  1.00  0.00    -0.493 OA
ATOM     26  H   UNL A   1      38.509  31.537  36.962  1.00  0.00     0.295 HD
ENDBRANCH  19  25
BRANCH  21  27
ATOM     27  C   UNL A   1      36.085  33.079  31.735  1.00  0.00     0.073 A 
ATOM     28  C   UNL A   1      34.716  33.187  31.444  1.00  0.00     0.030 A 
ATOM     29  C   UNL A   1      37.011  33.505  30.756  1.00  0.00     0.066 A 
ATOM     30  C   UNL A   1      34.280  33.722  30.228  1.00  0.00     0.023 A 
ATOM     31  C   UNL A   1      36.572  34.048  29.544  1.00  0.00     0.043 A 
ATOM     32  Cl  UNL A   1      38.713  33.202  30.892  1.00  0.00    -0.082 Cl
ATOM     33  C   UNL A   1      35.209  34.154  29.287  1.00  0.00     0.042 A 
ATOM     34  Cl  UNL A   1      34.669  34.780  27.779  1.00  0.00    -0.084 Cl
ENDBRANCH  21  27
ENDBRANCH  15  16
ENDBRANCH   8   9
ENDBRANCH   7   8
ENDBRANCH   5   7
ENDBRANCH   2   3
ENDBRANCH   1   2
BRANCH   1  35
ATOM     35  C   UNL A   1      41.993  21.790  27.556  1.00  0.00     0.002 C 
BRANCH  35  36
ATOM     36  C   UNL A   1      43.244  22.656  27.736  1.00  0.00     0.002 C 
BRANCH  36  37
ATOM     37  C   UNL A   1      44.101  22.883  26.491  1.00  0.00     0.021 C 
BRANCH  37  38
ATOM     38  C   UNL A   1      45.547  23.299  26.739  1.00  0.00     0.116 C 
BRANCH  38  39
ATOM     39  N   UNL A   1      46.176  23.918  25.586  1.00  0.00    -0.352 N 
ATOM     40  C   UNL A   1      46.345  25.252  25.300  1.00  0.00     0.251 C 
ATOM     41  H   UNL A   1      46.533  23.294  24.914  1.00  0.00     0.163 HD
ATOM     42  O   UNL A   1      46.831  25.592  24.226  1.00  0.00    -0.269 OA
BRANCH  40  43
ATOM     43  C   UNL A   1      45.907  26.285  26.266  1.00  0.00     0.039 A 
ATOM     44  C   UNL A   1      44.556  26.645  26.291  1.00  0.00     0.014 A 
ATOM     45  C   UNL A   1      46.809  26.901  27.138  1.00  0.00     0.014 A 
ATOM     46  C   UNL A   1      44.098  27.571  27.232  1.00  0.00     0.010 A 
ATOM     47  C   UNL A   1      46.343  27.779  28.115  1.00  0.00     0.010 A 
ATOM     48  C   UNL A   1      44.983  28.120  28.173  1.00  0.00    -0.014 A 
BRANCH  48  49
ATOM     49  C   UNL A   1      44.503  29.048  29.228  1.00  0.00     0.031 A 
ATOM     50  C   UNL A   1      44.128  28.523  30.586  1.00  0.00     0.074 A 
ATOM     51  C   UNL A   1      44.341  30.354  28.945  1.00  0.00     0.049 A 
ATOM     52  N   UNL A   1      43.630  29.165  31.612  1.00  0.00    -0.248 NA
ATOM     53  C   UNL A   1      44.318  27.081  30.811  1.00  0.00     0.031 C 
ATOM     54  C   UNL A   1      44.629  30.983  27.655  1.00  0.00     0.029 A 
ATOM     55  N   UNL A   1      43.886  31.388  29.725  1.00  0.00    -0.354 N 
ATOM     56  C   UNL A   1      43.427  28.206  32.595  1.00  0.00     0.074 A 
ATOM     57  C   UNL A   1      43.821  26.932  32.030  1.00  0.00     0.031 C 
ATOM     58  C   UNL A   1      44.366  32.298  27.739  1.00  0.00     0.029 A 
ATOM     59  C   UNL A   1      43.862  32.598  29.076  1.00  0.00     0.049 A 
ATOM     60  H   UNL A   1      43.603  31.272  30.660  1.00  0.00     0.167 HD
ATOM     61  C   UNL A   1      42.971  28.371  33.860  1.00  0.00     0.037 A 
ATOM     62  C   UNL A   1      43.474  33.812  29.508  1.00  0.00     0.037 A 
ATOM     63  C   UNL A   1      42.612  29.640  34.434  1.00  0.00     0.049 A 
ATOM     64  C   UNL A   1      42.974  33.970  30.916  1.00  0.00     0.074 A 
ATOM     65  C   UNL A   1      42.211  29.920  35.730  1.00  0.00     0.029 A 
ATOM     66  N   UNL A   1      42.610  30.845  33.747  1.00  0.00    -0.354 N 
ATOM     67  N   UNL A   1      42.848  33.065  31.855  1.00  0.00    -0.248 NA
ATOM     68  C   UNL A   1      42.562  35.322  31.324  1.00  0.00     0.031 C 
ATOM     69  C   UNL A   1      41.935  31.289  35.818  1.00  0.00     0.029 A 
ATOM     70  C   UNL A   1      42.197  31.867  34.586  1.00  0.00     0.049 A 
ATOM     71  H   UNL A   1      42.865  30.957  32.803  1.00  0.00     0.167 HD
ATOM     72  C   UNL A   1      42.370  33.739  32.971  1.00  0.00     0.074 A 
ATOM     73  C   UNL A   1      42.235  35.131  32.594  1.00  0.00     0.031 C 
ATOM     74  C   UNL A   1      42.073  33.248  34.198  1.00  0.00     0.037 A 
BRANCH  61  75
ATOM     75  C   UNL A   1      42.838  27.142  34.708  1.00  0.00     0.057 A 
ATOM     76  C   UNL A   1      41.624  26.454  34.825  1.00  0.00     0.134 A 
ATOM     77  C   UNL A   1      43.942  26.631  35.403  1.00  0.00     0.134 A 
ATOM     78  F   UNL A   1      40.526  26.901  34.195  1.00  0.00    -0.206 F 
ATOM     79  C   UNL A   1      41.504  25.315  35.624  1.00  0.00     0.040 A 
ATOM     80  C   UNL A   1      43.840  25.480  36.186  1.00  0.00     0.040 A 
ATOM     81  F   UNL A   1      45.134  27.240  35.330  1.00  0.00    -0.206 F 
ATOM     82  C   UNL A   1      42.616  24.824  36.304  1.00  0.00     0.006 A 
ENDBRANCH  61  75
BRANCH  62  83
ATOM     83  C   UNL A   1      43.576  34.986  28.609  1.00  0.00     0.057 A 
ATOM     84  C   UNL A   1      42.433  35.536  28.017  1.00  0.00     0.134 A 
ATOM     85  C   UNL A   1      44.807  35.585  28.318  1.00  0.00     0.134 A 
ATOM     86  F   UNL A   1      41.228  34.991  28.245  1.00  0.00    -0.206 F 
ATOM     87  C   UNL A   1      42.510  36.631  27.157  1.00  0.00     0.040 A 
ATOM     88  C   UNL A   1      44.897  36.693  27.475  1.00  0.00     0.040 A 
ATOM     89  F   UNL A   1      45.938  35.106  28.858  1.00  0.00    -0.206 F 
ATOM     90  C   UNL A   1      43.747  37.215  26.887  1.00  0.00     0.006 A 
ENDBRANCH  62  83
BRANCH  74  91
ATOM     91  C   UNL A   1      41.604  34.229  35.231  1.00  0.00     0.057 A 
ATOM     92  C   UNL A   1      40.298  34.732  35.228  1.00  0.00     0.134 A 
ATOM     93  C   UNL A   1      42.461  34.649  36.256  1.00  0.00     0.134 A 
ATOM     94  F   UNL A   1      39.436  34.380  34.263  1.00  0.00    -0.206 F 
ATOM     95  C   UNL A   1      39.865  35.634  36.200  1.00  0.00     0.040 A 
ATOM     96  C   UNL A   1      42.033  35.534  37.246  1.00  0.00     0.040 A 
ATOM     97  F   UNL A   1      43.723  34.199  36.316  1.00  0.00    -0.206 F 
ATOM     98  C   UNL A   1      40.732  36.033  37.217  1.00  0.00     0.006 A 
ENDBRANCH  74  91
ENDBRANCH  48  49
ENDBRANCH  40  43
ENDBRANCH  38  39
ENDBRANCH  37  38
ENDBRANCH  36  37
ENDBRANCH  35  36
ENDBRANCH   1  35
TORSDOF 18
ENDMDL
