MODEL 1
REMARK VINA RESULT:     -12.3      0.000      0.000
REMARK SMILES Cc1ccc(Nc2c(C)cccc2Cl)c(CC(=O)NCCCCCCNC(=O)c2ccc(-c3c4nc(c(-c5c(F)cccc5F)c5ccc([nH]5)c(-c5c(F)cccc5F)c5nc(c(-c6c(F)cccc6F)c6ccc3[nH]6)C=C5)C=C4)cc2)c1
REMARK SMILES IDX 22 1 21 2 20 3 19 4 17 5 18 6 16 8 15 9 1 10 2 11 3 12 83 13
REMARK SMILES IDX 4 14 5 15 6 16 7 18 8 19 13 20 9 21 10 22 12 23 14 24 11 25
REMARK SMILES IDX 23 26 24 27 25 28 26 29 27 30 28 32 29 33 30 34 82 35 31 36
REMARK SMILES IDX 81 37 32 38 33 39 34 40 75 41 35 42 80 43 74 44 76 45 36 46
REMARK SMILES IDX 79 47 73 48 72 49 37 51 63 52 46 53 62 54 47 55 50 56 61 57
REMARK SMILES IDX 77 58 48 59 49 60 60 62 78 63 51 64 38 65 39 66 44 67 40 68
REMARK SMILES IDX 41 69 43 70 45 71 42 72 64 73 65 74 70 75 66 76 67 77 69 78
REMARK SMILES IDX 71 79 68 80 52 81 53 82 58 83 54 84 55 85 57 86 59 87 56 88
REMARK H PARENT 19 7 6 17 26 31 76 50 50 61
REMARK Flexibility Score: inf
ROOT
ATOM      1  C   UNL A   1      32.285  28.559  27.251  1.00  0.00     0.002 C 
ENDROOT
BRANCH   1   2
ATOM      2  C   UNL A   1      31.309  27.492  26.732  1.00  0.00     0.021 C 
BRANCH   2   3
ATOM      3  C   UNL A   1      31.959  26.186  26.266  1.00  0.00     0.116 C 
BRANCH   3   4
ATOM      4  N   UNL A   1      31.448  25.037  26.981  1.00  0.00    -0.356 N 
ATOM      5  C   UNL A   1      30.757  23.966  26.500  1.00  0.00     0.224 C 
ATOM      6  O   UNL A   1      30.301  23.150  27.304  1.00  0.00    -0.275 OA
ATOM      7  H   UNL A   1      31.624  25.028  27.951  1.00  0.00     0.163 HD
BRANCH   5   8
ATOM      8  C   UNL A   1      30.539  23.786  25.008  1.00  0.00     0.137 C 
BRANCH   8   9
ATOM      9  C   UNL A   1      31.807  23.507  24.229  1.00  0.00    -0.015 A 
ATOM     10  C   UNL A   1      34.802  21.157  24.628  1.00  0.00     0.044 C 
ATOM     11  C   UNL A   1      33.886  22.215  24.092  1.00  0.00    -0.051 A 
ATOM     12  C   UNL A   1      34.248  22.953  22.968  1.00  0.00     0.005 A 
ATOM     13  C   UNL A   1      32.657  22.483  24.700  1.00  0.00     0.009 A 
ATOM     14  C   UNL A   1      33.392  23.936  22.464  1.00  0.00     0.026 A 
ATOM     15  C   UNL A   1      32.164  24.236  23.076  1.00  0.00     0.042 A 
BRANCH  15  16
ATOM     16  N   UNL A   1      31.283  25.185  22.511  1.00  0.00    -0.354 N 
ATOM     17  H   UNL A   1      30.699  24.848  21.796  1.00  0.00     0.167 HD
BRANCH  16  18
ATOM     18  C   UNL A   1      31.126  26.555  22.832  1.00  0.00     0.060 A 
ATOM     19  C   UNL A   1      29.921  27.064  23.363  1.00  0.00    -0.026 A 
ATOM     20  C   UNL A   1      32.174  27.460  22.549  1.00  0.00     0.064 A 
ATOM     21  C   UNL A   1      28.768  26.178  23.756  1.00  0.00     0.046 C 
ATOM     22  C   UNL A   1      29.774  28.452  23.542  1.00  0.00     0.005 A 
ATOM     23  C   UNL A   1      32.021  28.832  22.752  1.00  0.00     0.023 A 
ATOM     24  Cl  UNL A   1      33.683  26.901  21.907  1.00  0.00    -0.082 Cl
ATOM     25  C   UNL A   1      30.814  29.329  23.237  1.00  0.00     0.002 A 
ENDBRANCH  16  18
ENDBRANCH  15  16
ENDBRANCH   8   9
ENDBRANCH   5   8
ENDBRANCH   3   4
ENDBRANCH   2   3
ENDBRANCH   1   2
BRANCH   1  26
ATOM     26  C   UNL A   1      32.130  29.971  26.666  1.00  0.00     0.002 C 
BRANCH  26  27
ATOM     27  C   UNL A   1      33.279  30.942  26.946  1.00  0.00     0.021 C 
BRANCH  27  28
ATOM     28  C   UNL A   1      34.224  30.499  28.055  1.00  0.00     0.116 C 
BRANCH  28  29
ATOM     29  N   UNL A   1      35.204  31.508  28.427  1.00  0.00    -0.352 N 
ATOM     30  C   UNL A   1      36.525  31.376  28.821  1.00  0.00     0.251 C 
ATOM     31  H   UNL A   1      34.875  32.436  28.395  1.00  0.00     0.163 HD
ATOM     32  O   UNL A   1      37.153  32.364  29.162  1.00  0.00    -0.269 OA
BRANCH  30  33
ATOM     33  C   UNL A   1      37.225  30.070  28.670  1.00  0.00     0.039 A 
ATOM     34  C   UNL A   1      37.307  29.259  29.811  1.00  0.00     0.014 A 
ATOM     35  C   UNL A   1      37.976  29.754  27.543  1.00  0.00     0.014 A 
ATOM     36  C   UNL A   1      38.345  28.339  29.923  1.00  0.00     0.010 A 
ATOM     37  C   UNL A   1      39.062  28.914  27.685  1.00  0.00     0.010 A 
ATOM     38  C   UNL A   1      39.296  28.286  28.911  1.00  0.00    -0.014 A 
BRANCH  38  39
ATOM     39  C   UNL A   1      40.646  27.775  29.106  1.00  0.00     0.031 A 
ATOM     40  C   UNL A   1      41.025  26.429  28.642  1.00  0.00     0.074 A 
ATOM     41  C   UNL A   1      41.588  28.629  29.573  1.00  0.00     0.049 A 
ATOM     42  N   UNL A   1      42.152  25.868  28.917  1.00  0.00    -0.248 NA
ATOM     43  C   UNL A   1      40.126  25.564  27.881  1.00  0.00     0.031 C 
ATOM     44  C   UNL A   1      43.040  28.489  29.504  1.00  0.00     0.029 A 
ATOM     45  N   UNL A   1      41.388  29.719  30.435  1.00  0.00    -0.354 N 
ATOM     46  C   UNL A   1      42.254  24.739  28.146  1.00  0.00     0.074 A 
ATOM     47  C   UNL A   1      40.925  24.520  27.635  1.00  0.00     0.031 C 
ATOM     48  C   UNL A   1      43.590  29.222  30.485  1.00  0.00     0.029 A 
ATOM     49  C   UNL A   1      42.503  29.718  31.308  1.00  0.00     0.049 A 
ATOM     50  H   UNL A   1      40.632  30.349  30.434  1.00  0.00     0.167 HD
ATOM     51  C   UNL A   1      43.490  24.207  27.937  1.00  0.00     0.037 A 
ATOM     52  C   UNL A   1      42.341  29.442  32.636  1.00  0.00     0.037 A 
ATOM     53  C   UNL A   1      44.451  24.720  28.916  1.00  0.00     0.049 A 
ATOM     54  C   UNL A   1      43.050  28.191  33.118  1.00  0.00     0.074 A 
ATOM     55  C   UNL A   1      45.511  25.607  28.893  1.00  0.00     0.029 A 
ATOM     56  N   UNL A   1      44.201  24.461  30.254  1.00  0.00    -0.354 N 
ATOM     57  N   UNL A   1      43.729  27.382  32.351  1.00  0.00    -0.248 NA
ATOM     58  C   UNL A   1      42.969  27.708  34.499  1.00  0.00     0.031 C 
ATOM     59  C   UNL A   1      45.824  25.950  30.247  1.00  0.00     0.029 A 
ATOM     60  C   UNL A   1      44.978  25.242  31.083  1.00  0.00     0.049 A 
ATOM     61  H   UNL A   1      43.546  23.800  30.575  1.00  0.00     0.167 HD
ATOM     62  C   UNL A   1      44.095  26.278  33.070  1.00  0.00     0.074 A 
ATOM     63  C   UNL A   1      43.612  26.531  34.414  1.00  0.00     0.031 C 
ATOM     64  C   UNL A   1      44.723  25.203  32.514  1.00  0.00     0.037 A 
BRANCH  51  65
ATOM     65  C   UNL A   1      43.870  23.313  26.776  1.00  0.00     0.057 A 
ATOM     66  C   UNL A   1      43.404  21.984  26.727  1.00  0.00     0.134 A 
ATOM     67  C   UNL A   1      44.786  23.640  25.754  1.00  0.00     0.134 A 
ATOM     68  F   UNL A   1      42.545  21.510  27.640  1.00  0.00    -0.206 F 
ATOM     69  C   UNL A   1      43.817  21.065  25.751  1.00  0.00     0.040 A 
ATOM     70  C   UNL A   1      45.166  22.746  24.744  1.00  0.00     0.040 A 
ATOM     71  F   UNL A   1      45.419  24.815  25.700  1.00  0.00    -0.206 F 
ATOM     72  C   UNL A   1      44.694  21.446  24.746  1.00  0.00     0.006 A 
ENDBRANCH  51  65
BRANCH  52  73
ATOM     73  C   UNL A   1      41.052  29.951  33.174  1.00  0.00     0.057 A 
ATOM     74  C   UNL A   1      40.913  31.333  33.400  1.00  0.00     0.134 A 
ATOM     75  C   UNL A   1      39.878  29.195  33.118  1.00  0.00     0.134 A 
ATOM     76  F   UNL A   1      42.002  32.117  33.468  1.00  0.00    -0.206 F 
ATOM     77  C   UNL A   1      39.663  31.952  33.445  1.00  0.00     0.040 A 
ATOM     78  C   UNL A   1      38.619  29.802  33.181  1.00  0.00     0.040 A 
ATOM     79  F   UNL A   1      39.925  27.875  32.882  1.00  0.00    -0.206 F 
ATOM     80  C   UNL A   1      38.510  31.187  33.301  1.00  0.00     0.006 A 
ENDBRANCH  52  73
BRANCH  64  81
ATOM     81  C   UNL A   1      45.120  24.006  33.319  1.00  0.00     0.057 A 
ATOM     82  C   UNL A   1      44.239  22.938  33.539  1.00  0.00     0.134 A 
ATOM     83  C   UNL A   1      46.352  23.943  33.993  1.00  0.00     0.134 A 
ATOM     84  F   UNL A   1      43.029  22.916  32.958  1.00  0.00    -0.206 F 
ATOM     85  C   UNL A   1      44.568  21.865  34.373  1.00  0.00     0.040 A 
ATOM     86  C   UNL A   1      46.675  22.898  34.862  1.00  0.00     0.040 A 
ATOM     87  F   UNL A   1      47.293  24.882  33.816  1.00  0.00    -0.206 F 
ATOM     88  C   UNL A   1      45.783  21.851  35.052  1.00  0.00     0.006 A 
ENDBRANCH  64  81
ENDBRANCH  38  39
ENDBRANCH  30  33
ENDBRANCH  28  29
ENDBRANCH  27  28
ENDBRANCH  26  27
ENDBRANCH   1  26
TORSDOF 16
ENDMDL
MODEL 2
REMARK VINA RESULT:     -12.2      2.475      4.507
REMARK SMILES Cc1ccc(Nc2c(C)cccc2Cl)c(CC(=O)NCCCCCCNC(=O)c2ccc(-c3c4nc(c(-c5c(F)cccc5F)c5ccc([nH]5)c(-c5c(F)cccc5F)c5nc(c(-c6c(F)cccc6F)c6ccc3[nH]6)C=C5)C=C4)cc2)c1
REMARK SMILES IDX 22 1 21 2 20 3 19 4 17 5 18 6 16 8 15 9 1 10 2 11 3 12 83 13
REMARK SMILES IDX 4 14 5 15 6 16 7 18 8 19 13 20 9 21 10 22 12 23 14 24 11 25
REMARK SMILES IDX 23 26 24 27 25 28 26 29 27 30 28 32 29 33 30 34 82 35 31 36
REMARK SMILES IDX 81 37 32 38 33 39 34 40 75 41 35 42 80 43 74 44 76 45 36 46
REMARK SMILES IDX 79 47 73 48 72 49 37 51 63 52 46 53 62 54 47 55 50 56 61 57
REMARK SMILES IDX 77 58 48 59 49 60 60 62 78 63 51 64 38 65 39 66 44 67 40 68
REMARK SMILES IDX 41 69 43 70 45 71 42 72 64 73 65 74 70 75 66 76 67 77 69 78
REMARK SMILES IDX 71 79 68 80 52 81 53 82 58 83 54 84 55 85 57 86 59 87 56 88
REMARK H PARENT 19 7 6 17 26 31 76 50 50 61
REMARK Flexibility Score: inf
ROOT
ATOM      1  C   UNL A   1      33.371  33.125  27.980  1.00  0.00     0.002 C 
ENDROOT
BRANCH   1   2
ATOM      2  C   UNL A   1      34.141  31.796  27.988  1.00  0.00     0.021 C 
BRANCH   2   3
ATOM      3  C   UNL A   1      33.624  30.737  27.010  1.00  0.00     0.116 C 
BRANCH   3   4
ATOM      4  N   UNL A   1      32.867  29.701  27.679  1.00  0.00    -0.356 N 
ATOM      5  C   UNL A   1      32.368  28.541  27.169  1.00  0.00     0.224 C 
ATOM      6  O   UNL A   1      31.640  27.849  27.884  1.00  0.00    -0.275 OA
ATOM      7  H   UNL A   1      32.689  29.856  28.635  1.00  0.00     0.163 HD
BRANCH   5   8
ATOM      8  C   UNL A   1      32.688  28.112  25.748  1.00  0.00     0.137 C 
BRANCH   8   9
ATOM      9  C   UNL A   1      31.480  27.671  24.950  1.00  0.00    -0.015 A 
ATOM     10  C   UNL A   1      28.962  29.379  22.628  1.00  0.00     0.044 C 
ATOM     11  C   UNL A   1      29.665  28.336  23.442  1.00  0.00    -0.051 A 
ATOM     12  C   UNL A   1      29.160  27.040  23.509  1.00  0.00     0.005 A 
ATOM     13  C   UNL A   1      30.834  28.635  24.145  1.00  0.00     0.009 A 
ATOM     14  C   UNL A   1      29.818  26.065  24.263  1.00  0.00     0.026 A 
ATOM     15  C   UNL A   1      30.981  26.352  24.996  1.00  0.00     0.042 A 
BRANCH  15  16
ATOM     16  N   UNL A   1      31.668  25.337  25.697  1.00  0.00    -0.354 N 
ATOM     17  H   UNL A   1      31.950  25.568  26.610  1.00  0.00     0.167 HD
BRANCH  16  18
ATOM     18  C   UNL A   1      32.009  24.032  25.266  1.00  0.00     0.060 A 
ATOM     19  C   UNL A   1      31.364  22.885  25.778  1.00  0.00    -0.026 A 
ATOM     20  C   UNL A   1      33.072  23.857  24.352  1.00  0.00     0.064 A 
ATOM     21  C   UNL A   1      30.182  22.964  26.708  1.00  0.00     0.046 C 
ATOM     22  C   UNL A   1      31.829  21.608  25.412  1.00  0.00     0.005 A 
ATOM     23  C   UNL A   1      33.507  22.584  23.982  1.00  0.00     0.023 A 
ATOM     24  Cl  UNL A   1      33.898  25.222  23.677  1.00  0.00    -0.082 Cl
ATOM     25  C   UNL A   1      32.892  21.458  24.524  1.00  0.00     0.002 A 
ENDBRANCH  16  18
ENDBRANCH  15  16
ENDBRANCH   8   9
ENDBRANCH   5   8
ENDBRANCH   3   4
ENDBRANCH   2   3
ENDBRANCH   1   2
BRANCH   1  26
ATOM     26  C   UNL A   1      34.217  34.408  27.969  1.00  0.00     0.002 C 
BRANCH  26  27
ATOM     27  C   UNL A   1      33.832  35.473  28.998  1.00  0.00     0.021 C 
BRANCH  27  28
ATOM     28  C   UNL A   1      33.394  34.919  30.346  1.00  0.00     0.116 C 
BRANCH  28  29
ATOM     29  N   UNL A   1      34.230  35.351  31.457  1.00  0.00    -0.352 N 
ATOM     30  C   UNL A   1      35.314  34.734  32.059  1.00  0.00     0.251 C 
ATOM     31  H   UNL A   1      33.985  36.222  31.844  1.00  0.00     0.163 HD
ATOM     32  O   UNL A   1      35.831  35.246  33.036  1.00  0.00    -0.269 OA
BRANCH  30  33
ATOM     33  C   UNL A   1      35.948  33.546  31.423  1.00  0.00     0.039 A 
ATOM     34  C   UNL A   1      35.899  32.342  32.138  1.00  0.00     0.014 A 
ATOM     35  C   UNL A   1      36.763  33.650  30.300  1.00  0.00     0.014 A 
ATOM     36  C   UNL A   1      36.873  31.373  31.914  1.00  0.00     0.010 A 
ATOM     37  C   UNL A   1      37.787  32.739  30.138  1.00  0.00     0.010 A 
ATOM     38  C   UNL A   1      37.893  31.654  31.013  1.00  0.00    -0.014 A 
BRANCH  38  39
ATOM     39  C   UNL A   1      39.194  30.999  31.045  1.00  0.00     0.031 A 
ATOM     40  C   UNL A   1      39.425  29.729  30.334  1.00  0.00     0.074 A 
ATOM     41  C   UNL A   1      40.229  31.669  31.604  1.00  0.00     0.049 A 
ATOM     42  N   UNL A   1      40.502  29.032  30.447  1.00  0.00    -0.248 NA
ATOM     43  C   UNL A   1      38.420  29.097  29.482  1.00  0.00     0.031 C 
ATOM     44  C   UNL A   1      41.658  31.417  31.435  1.00  0.00     0.029 A 
ATOM     45  N   UNL A   1      40.166  32.602  32.651  1.00  0.00    -0.354 N 
ATOM     46  C   UNL A   1      40.468  28.054  29.487  1.00  0.00     0.074 A 
ATOM     47  C   UNL A   1      39.107  28.047  29.016  1.00  0.00     0.031 C 
ATOM     48  C   UNL A   1      42.311  31.913  32.499  1.00  0.00     0.029 A 
ATOM     49  C   UNL A   1      41.306  32.347  33.452  1.00  0.00     0.049 A 
ATOM     50  H   UNL A   1      39.474  33.286  32.800  1.00  0.00     0.167 HD
ATOM     51  C   UNL A   1      41.638  27.461  29.125  1.00  0.00     0.037 A 
ATOM     52  C   UNL A   1      41.166  31.854  34.718  1.00  0.00     0.037 A 
ATOM     53  C   UNL A   1      42.679  27.704  30.127  1.00  0.00     0.049 A 
ATOM     54  C   UNL A   1      41.769  30.480  34.937  1.00  0.00     0.074 A 
ATOM     55  C   UNL A   1      43.818  28.485  30.203  1.00  0.00     0.029 A 
ATOM     56  N   UNL A   1      42.453  27.234  31.411  1.00  0.00    -0.354 N 
ATOM     57  N   UNL A   1      42.339  29.764  34.007  1.00  0.00    -0.248 NA
ATOM     58  C   UNL A   1      41.691  29.767  36.215  1.00  0.00     0.031 C 
ATOM     59  C   UNL A   1      44.210  28.551  31.578  1.00  0.00     0.029 A 
ATOM     60  C   UNL A   1      43.331  27.783  32.321  1.00  0.00     0.049 A 
ATOM     61  H   UNL A   1      41.750  26.586  31.645  1.00  0.00     0.167 HD
ATOM     62  C   UNL A   1      42.623  28.521  34.502  1.00  0.00     0.074 A 
ATOM     63  C   UNL A   1      42.215  28.573  35.893  1.00  0.00     0.031 C 
ATOM     64  C   UNL A   1      43.124  27.512  33.735  1.00  0.00     0.037 A 
BRANCH  51  65
ATOM     65  C   UNL A   1      41.890  26.758  27.808  1.00  0.00     0.057 A 
ATOM     66  C   UNL A   1      42.230  25.391  27.792  1.00  0.00     0.134 A 
ATOM     67  C   UNL A   1      41.945  27.380  26.543  1.00  0.00     0.134 A 
ATOM     68  F   UNL A   1      42.247  24.660  28.915  1.00  0.00    -0.206 F 
ATOM     69  C   UNL A   1      42.599  24.709  26.622  1.00  0.00     0.040 A 
ATOM     70  C   UNL A   1      42.261  26.698  25.361  1.00  0.00     0.040 A 
ATOM     71  F   UNL A   1      41.764  28.693  26.375  1.00  0.00    -0.206 F 
ATOM     72  C   UNL A   1      42.606  25.359  25.397  1.00  0.00     0.006 A 
ENDBRANCH  51  65
BRANCH  52  73
ATOM     73  C   UNL A   1      39.951  32.370  35.403  1.00  0.00     0.057 A 
ATOM     74  C   UNL A   1      39.981  33.670  35.940  1.00  0.00     0.134 A 
ATOM     75  C   UNL A   1      38.695  31.787  35.219  1.00  0.00     0.134 A 
ATOM     76  F   UNL A   1      41.156  34.288  36.145  1.00  0.00    -0.206 F 
ATOM     77  C   UNL A   1      38.814  34.401  36.169  1.00  0.00     0.040 A 
ATOM     78  C   UNL A   1      37.518  32.503  35.463  1.00  0.00     0.040 A 
ATOM     79  F   UNL A   1      38.582  30.560  34.689  1.00  0.00    -0.206 F 
ATOM     80  C   UNL A   1      37.577  33.827  35.898  1.00  0.00     0.006 A 
ENDBRANCH  52  73
BRANCH  64  81
ATOM     81  C   UNL A   1      43.433  26.160  34.297  1.00  0.00     0.057 A 
ATOM     82  C   UNL A   1      44.734  25.639  34.297  1.00  0.00     0.134 A 
ATOM     83  C   UNL A   1      42.419  25.296  34.746  1.00  0.00     0.134 A 
ATOM     84  F   UNL A   1      45.769  26.378  33.866  1.00  0.00    -0.206 F 
ATOM     85  C   UNL A   1      45.012  24.338  34.728  1.00  0.00     0.040 A 
ATOM     86  C   UNL A   1      42.677  23.980  35.138  1.00  0.00     0.040 A 
ATOM     87  F   UNL A   1      41.145  25.705  34.840  1.00  0.00    -0.206 F 
ATOM     88  C   UNL A   1      43.980  23.498  35.134  1.00  0.00     0.006 A 
ENDBRANCH  64  81
ENDBRANCH  38  39
ENDBRANCH  30  33
ENDBRANCH  28  29
ENDBRANCH  27  28
ENDBRANCH  26  27
ENDBRANCH   1  26
TORSDOF 16
ENDMDL
MODEL 3
REMARK VINA RESULT:     -12.0      1.484      3.208
REMARK SMILES Cc1ccc(Nc2c(C)cccc2Cl)c(CC(=O)NCCCCCCNC(=O)c2ccc(-c3c4nc(c(-c5c(F)cccc5F)c5ccc([nH]5)c(-c5c(F)cccc5F)c5nc(c(-c6c(F)cccc6F)c6ccc3[nH]6)C=C5)C=C4)cc2)c1
REMARK SMILES IDX 22 1 21 2 20 3 19 4 17 5 18 6 16 8 15 9 1 10 2 11 3 12 83 13
REMARK SMILES IDX 4 14 5 15 6 16 7 18 8 19 13 20 9 21 10 22 12 23 14 24 11 25
REMARK SMILES IDX 23 26 24 27 25 28 26 29 27 30 28 32 29 33 30 34 82 35 31 36
REMARK SMILES IDX 81 37 32 38 33 39 34 40 75 41 35 42 80 43 74 44 76 45 36 46
REMARK SMILES IDX 79 47 73 48 72 49 37 51 63 52 46 53 62 54 47 55 50 56 61 57
REMARK SMILES IDX 77 58 48 59 49 60 60 62 78 63 51 64 38 65 39 66 44 67 40 68
REMARK SMILES IDX 41 69 43 70 45 71 42 72 64 73 65 74 70 75 66 76 67 77 69 78
REMARK SMILES IDX 71 79 68 80 52 81 53 82 58 83 54 84 55 85 57 86 59 87 56 88
REMARK H PARENT 19 7 6 17 26 31 76 50 50 61
REMARK Flexibility Score: inf
ROOT
ATOM      1  C   UNL A   1      31.838  29.752  26.957  1.00  0.00     0.002 C 
ENDROOT
BRANCH   1   2
ATOM      2  C   UNL A   1      31.557  28.459  26.176  1.00  0.00     0.021 C 
BRANCH   2   3
ATOM      3  C   UNL A   1      32.018  27.170  26.862  1.00  0.00     0.116 C 
BRANCH   3   4
ATOM      4  N   UNL A   1      31.022  26.124  26.782  1.00  0.00    -0.356 N 
ATOM      5  C   UNL A   1      31.188  24.805  26.486  1.00  0.00     0.224 C 
ATOM      6  O   UNL A   1      30.184  24.102  26.347  1.00  0.00    -0.275 OA
ATOM      7  H   UNL A   1      30.096  26.405  26.968  1.00  0.00     0.163 HD
BRANCH   5   8
ATOM      8  C   UNL A   1      32.576  24.212  26.316  1.00  0.00     0.137 C 
BRANCH   8   9
ATOM      9  C   UNL A   1      32.990  24.015  24.873  1.00  0.00    -0.015 A 
ATOM     10  C   UNL A   1      32.156  25.691  21.534  1.00  0.00     0.044 C 
ATOM     11  C   UNL A   1      32.741  24.757  22.550  1.00  0.00    -0.051 A 
ATOM     12  C   UNL A   1      33.565  23.710  22.147  1.00  0.00     0.005 A 
ATOM     13  C   UNL A   1      32.479  24.916  23.912  1.00  0.00     0.009 A 
ATOM     14  C   UNL A   1      34.116  22.841  23.093  1.00  0.00     0.026 A 
ATOM     15  C   UNL A   1      33.844  22.969  24.466  1.00  0.00     0.042 A 
BRANCH  15  16
ATOM     16  N   UNL A   1      34.464  22.124  25.412  1.00  0.00    -0.354 N 
ATOM     17  H   UNL A   1      33.944  21.947  26.227  1.00  0.00     0.167 HD
BRANCH  16  18
ATOM     18  C   UNL A   1      35.731  21.496  25.349  1.00  0.00     0.060 A 
ATOM     19  C   UNL A   1      36.930  22.209  25.570  1.00  0.00    -0.026 A 
ATOM     20  C   UNL A   1      35.814  20.133  24.984  1.00  0.00     0.064 A 
ATOM     21  C   UNL A   1      36.949  23.646  26.021  1.00  0.00     0.046 C 
ATOM     22  C   UNL A   1      38.165  21.566  25.368  1.00  0.00     0.005 A 
ATOM     23  C   UNL A   1      37.048  19.504  24.809  1.00  0.00     0.023 A 
ATOM     24  Cl  UNL A   1      34.382  19.197  24.710  1.00  0.00    -0.082 Cl
ATOM     25  C   UNL A   1      38.224  20.226  24.989  1.00  0.00     0.002 A 
ENDBRANCH  16  18
ENDBRANCH  15  16
ENDBRANCH   8   9
ENDBRANCH   5   8
ENDBRANCH   3   4
ENDBRANCH   2   3
ENDBRANCH   1   2
BRANCH   1  26
ATOM     26  C   UNL A   1      33.135  30.498  26.604  1.00  0.00     0.002 C 
BRANCH  26  27
ATOM     27  C   UNL A   1      34.240  30.457  27.662  1.00  0.00     0.021 C 
BRANCH  27  28
ATOM     28  C   UNL A   1      35.154  31.674  27.666  1.00  0.00     0.116 C 
BRANCH  28  29
ATOM     29  N   UNL A   1      35.635  32.040  28.990  1.00  0.00    -0.352 N 
ATOM     30  C   UNL A   1      36.467  31.359  29.864  1.00  0.00     0.251 C 
ATOM     31  H   UNL A   1      35.317  32.911  29.320  1.00  0.00     0.163 HD
ATOM     32  O   UNL A   1      36.687  31.824  30.970  1.00  0.00    -0.269 OA
BRANCH  30  33
ATOM     33  C   UNL A   1      37.220  30.161  29.402  1.00  0.00     0.039 A 
ATOM     34  C   UNL A   1      37.252  29.059  30.267  1.00  0.00     0.014 A 
ATOM     35  C   UNL A   1      38.058  30.191  28.292  1.00  0.00     0.014 A 
ATOM     36  C   UNL A   1      38.311  28.159  30.192  1.00  0.00     0.010 A 
ATOM     37  C   UNL A   1      39.160  29.361  28.271  1.00  0.00     0.010 A 
ATOM     38  C   UNL A   1      39.331  28.411  29.282  1.00  0.00    -0.014 A 
BRANCH  38  39
ATOM     39  C   UNL A   1      40.682  27.884  29.425  1.00  0.00     0.031 A 
ATOM     40  C   UNL A   1      41.035  26.548  28.913  1.00  0.00     0.074 A 
ATOM     41  C   UNL A   1      41.643  28.717  29.890  1.00  0.00     0.049 A 
ATOM     42  N   UNL A   1      42.165  25.971  29.142  1.00  0.00    -0.248 NA
ATOM     43  C   UNL A   1      40.109  25.712  28.154  1.00  0.00     0.031 C 
ATOM     44  C   UNL A   1      43.092  28.567  29.777  1.00  0.00     0.029 A 
ATOM     45  N   UNL A   1      41.476  29.784  30.787  1.00  0.00    -0.354 N 
ATOM     46  C   UNL A   1      42.236  24.863  28.337  1.00  0.00     0.074 A 
ATOM     47  C   UNL A   1      40.892  24.669  27.857  1.00  0.00     0.031 C 
ATOM     48  C   UNL A   1      43.675  29.269  30.762  1.00  0.00     0.029 A 
ATOM     49  C   UNL A   1      42.614  29.750  31.628  1.00  0.00     0.049 A 
ATOM     50  H   UNL A   1      40.726  30.420  30.824  1.00  0.00     0.167 HD
ATOM     51  C   UNL A   1      43.461  24.328  28.080  1.00  0.00     0.037 A 
ATOM     52  C   UNL A   1      42.486  29.438  32.952  1.00  0.00     0.037 A 
ATOM     53  C   UNL A   1      44.453  24.805  29.046  1.00  0.00     0.049 A 
ATOM     54  C   UNL A   1      43.197  28.169  33.380  1.00  0.00     0.074 A 
ATOM     55  C   UNL A   1      45.520  25.684  29.018  1.00  0.00     0.029 A 
ATOM     56  N   UNL A   1      44.237  24.511  30.383  1.00  0.00    -0.354 N 
ATOM     57  N   UNL A   1      43.848  27.376  32.572  1.00  0.00    -0.248 NA
ATOM     58  C   UNL A   1      43.149  27.648  34.748  1.00  0.00     0.031 C 
ATOM     59  C   UNL A   1      45.872  25.986  30.372  1.00  0.00     0.029 A 
ATOM     60  C   UNL A   1      45.043  25.262  31.212  1.00  0.00     0.049 A 
ATOM     61  H   UNL A   1      43.585  23.847  30.703  1.00  0.00     0.167 HD
ATOM     62  C   UNL A   1      44.224  26.249  33.250  1.00  0.00     0.074 A 
ATOM     63  C   UNL A   1      43.780  26.469  34.614  1.00  0.00     0.031 C 
ATOM     64  C   UNL A   1      44.826  25.185  32.647  1.00  0.00     0.037 A 
BRANCH  51  65
ATOM     65  C   UNL A   1      43.802  23.463  26.885  1.00  0.00     0.057 A 
ATOM     66  C   UNL A   1      43.287  22.155  26.790  1.00  0.00     0.134 A 
ATOM     67  C   UNL A   1      44.722  23.794  25.868  1.00  0.00     0.134 A 
ATOM     68  F   UNL A   1      42.416  21.679  27.692  1.00  0.00    -0.206 F 
ATOM     69  C   UNL A   1      43.660  21.257  25.779  1.00  0.00     0.040 A 
ATOM     70  C   UNL A   1      45.064  22.924  24.824  1.00  0.00     0.040 A 
ATOM     71  F   UNL A   1      45.398  24.946  25.853  1.00  0.00    -0.206 F 
ATOM     72  C   UNL A   1      44.545  21.643  24.783  1.00  0.00     0.006 A 
ENDBRANCH  51  65
BRANCH  52  73
ATOM     73  C   UNL A   1      41.217  29.942  33.539  1.00  0.00     0.057 A 
ATOM     74  C   UNL A   1      41.130  31.301  33.895  1.00  0.00     0.134 A 
ATOM     75  C   UNL A   1      40.015  29.240  33.415  1.00  0.00     0.134 A 
ATOM     76  F   UNL A   1      42.248  32.033  34.035  1.00  0.00    -0.206 F 
ATOM     77  C   UNL A   1      39.904  31.959  34.002  1.00  0.00     0.040 A 
ATOM     78  C   UNL A   1      38.780  29.885  33.538  1.00  0.00     0.040 A 
ATOM     79  F   UNL A   1      40.012  27.948  33.055  1.00  0.00    -0.206 F 
ATOM     80  C   UNL A   1      38.723  31.255  33.790  1.00  0.00     0.006 A 
ENDBRANCH  52  73
BRANCH  64  81
ATOM     81  C   UNL A   1      45.235  23.963  33.408  1.00  0.00     0.057 A 
ATOM     82  C   UNL A   1      44.352  22.894  33.618  1.00  0.00     0.134 A 
ATOM     83  C   UNL A   1      46.482  23.873  34.050  1.00  0.00     0.134 A 
ATOM     84  F   UNL A   1      43.129  22.896  33.066  1.00  0.00    -0.206 F 
ATOM     85  C   UNL A   1      44.694  21.796  34.412  1.00  0.00     0.040 A 
ATOM     86  C   UNL A   1      46.820  22.802  34.880  1.00  0.00     0.040 A 
ATOM     87  F   UNL A   1      47.425  24.811  33.878  1.00  0.00    -0.206 F 
ATOM     88  C   UNL A   1      45.925  21.755  35.061  1.00  0.00     0.006 A 
ENDBRANCH  64  81
ENDBRANCH  38  39
ENDBRANCH  30  33
ENDBRANCH  28  29
ENDBRANCH  27  28
ENDBRANCH  26  27
ENDBRANCH   1  26
TORSDOF 16
ENDMDL
