MODEL 1
REMARK VINA RESULT:     -11.2      0.000      0.000
REMARK SMILES Cc1csc([C@H](C)NC(=O)N[C@H]2C=C[C@@H](C(=O)NCCCCCCNC(=O)c3ccc(-c4c5nc(c(-c6c(F)cccc6F)c6ccc([nH]6)c(-c6c(F)cccc6F)c6nc(c(-c7c(F)cccc7F)c7ccc4[nH]7)C=C6)C=C5)cc3)C2)n1
REMARK SMILES IDX 21 1 20 2 19 3 18 4 16 5 17 6 15 8 12 9 13 10 82 11 14 12
REMARK SMILES IDX 11 13 8 14 9 15 10 17 6 19 7 20 5 21 1 22 2 23 3 24 83 25
REMARK SMILES IDX 4 26 22 27 23 28 24 29 25 30 26 31 27 33 28 34 29 35 81 36
REMARK SMILES IDX 30 37 80 38 31 39 32 40 33 41 74 42 34 43 79 44 73 45 75 46
REMARK SMILES IDX 35 47 78 48 72 49 71 50 36 52 62 53 45 54 61 55 46 56 49 57
REMARK SMILES IDX 60 58 76 59 47 60 48 61 59 63 77 64 50 65 37 66 38 67 43 68
REMARK SMILES IDX 39 69 40 70 42 71 44 72 41 73 63 74 64 75 69 76 65 77 66 78
REMARK SMILES IDX 68 79 70 80 67 81 51 82 52 83 57 84 53 85 54 86 56 87 58 88
REMARK SMILES IDX 55 89
REMARK H PARENT 18 7 8 16 11 18 25 32 75 51 49 62
REMARK Flexibility Score: inf
ROOT
ATOM      1  C   UNL A   1      35.334  33.656  29.047  1.00  0.00     0.002 C 
ENDROOT
BRANCH   1   2
ATOM      2  C   UNL A   1      34.535  32.397  29.393  1.00  0.00     0.021 C 
BRANCH   2   3
ATOM      3  C   UNL A   1      34.590  31.303  28.331  1.00  0.00     0.116 C 
BRANCH   3   4
ATOM      4  N   UNL A   1      33.511  31.419  27.373  1.00  0.00    -0.356 N 
ATOM      5  C   UNL A   1      32.660  30.477  26.887  1.00  0.00     0.227 C 
ATOM      6  O   UNL A   1      31.779  30.853  26.109  1.00  0.00    -0.274 OA
ATOM      7  H   UNL A   1      33.371  32.326  27.016  1.00  0.00     0.163 HD
BRANCH   5   8
ATOM      8  C   UNL A   1      32.789  28.996  27.243  1.00  0.00     0.103 C 
ATOM      9  C   UNL A   1      31.688  26.906  26.517  1.00  0.00     0.107 C 
ATOM     10  C   UNL A   1      33.079  27.042  25.978  1.00  0.00    -0.006 C 
ATOM     11  C   UNL A   1      31.454  28.252  27.230  1.00  0.00     0.047 C 
ATOM     12  C   UNL A   1      33.673  28.180  26.355  1.00  0.00    -0.016 C 
BRANCH   9  13
ATOM     13  N   UNL A   1      30.791  26.695  25.399  1.00  0.00    -0.332 N 
ATOM     14  N   UNL A   1      30.399  24.368  25.286  1.00  0.00    -0.329 N 
ATOM     15  C   UNL A   1      30.271  25.609  24.816  1.00  0.00     0.315 C 
ATOM     16  H   UNL A   1      30.031  23.689  24.676  1.00  0.00     0.166 HD
ATOM     17  O   UNL A   1      29.624  25.777  23.781  1.00  0.00    -0.249 OA
ATOM     18  H   UNL A   1      30.500  27.536  24.975  1.00  0.00     0.165 HD
BRANCH  14  19
ATOM     19  C   UNL A   1      30.960  23.790  26.499  1.00  0.00     0.140 C 
ATOM     20  C   UNL A   1      29.938  22.867  27.150  1.00  0.00     0.039 C 
BRANCH  19  21
ATOM     21  C   UNL A   1      32.298  23.151  26.202  1.00  0.00     0.115 A 
ATOM     22  C   UNL A   1      35.036  22.703  23.906  1.00  0.00     0.067 C 
ATOM     23  C   UNL A   1      34.185  22.688  25.121  1.00  0.00     0.049 A 
ATOM     24  C   UNL A   1      34.560  22.296  26.390  1.00  0.00     0.090 A 
ATOM     25  N   UNL A   1      32.881  23.140  25.018  1.00  0.00    -0.244 NA
ATOM     26  S   UNL A   1      33.271  22.536  27.488  1.00  0.00    -0.125 S 
ENDBRANCH  19  21
ENDBRANCH  14  19
ENDBRANCH   9  13
ENDBRANCH   5   8
ENDBRANCH   3   4
ENDBRANCH   2   3
ENDBRANCH   1   2
BRANCH   1  27
ATOM     27  C   UNL A   1      34.559  34.728  28.275  1.00  0.00     0.002 C 
BRANCH  27  28
ATOM     28  C   UNL A   1      33.230  35.155  28.904  1.00  0.00     0.021 C 
BRANCH  28  29
ATOM     29  C   UNL A   1      33.315  36.374  29.816  1.00  0.00     0.116 C 
BRANCH  29  30
ATOM     30  N   UNL A   1      32.393  36.283  30.936  1.00  0.00    -0.352 N 
ATOM     31  C   UNL A   1      32.491  35.549  32.088  1.00  0.00     0.251 C 
ATOM     32  H   UNL A   1      31.578  36.830  30.854  1.00  0.00     0.163 HD
ATOM     33  O   UNL A   1      31.517  35.448  32.835  1.00  0.00    -0.269 OA
BRANCH  31  34
ATOM     34  C   UNL A   1      33.753  34.863  32.432  1.00  0.00     0.039 A 
ATOM     35  C   UNL A   1      33.695  33.549  32.906  1.00  0.00     0.014 A 
ATOM     36  C   UNL A   1      34.984  35.517  32.329  1.00  0.00     0.014 A 
ATOM     37  C   UNL A   1      34.873  32.878  33.235  1.00  0.00     0.010 A 
ATOM     38  C   UNL A   1      36.164  34.823  32.590  1.00  0.00     0.010 A 
ATOM     39  C   UNL A   1      36.119  33.503  33.060  1.00  0.00    -0.014 A 
BRANCH  39  40
ATOM     40  C   UNL A   1      37.379  32.789  33.385  1.00  0.00     0.031 A 
ATOM     41  C   UNL A   1      38.123  33.104  34.654  1.00  0.00     0.074 A 
ATOM     42  C   UNL A   1      37.874  31.884  32.520  1.00  0.00     0.049 A 
ATOM     43  N   UNL A   1      39.245  32.602  35.101  1.00  0.00    -0.248 NA
ATOM     44  C   UNL A   1      37.540  34.139  35.524  1.00  0.00     0.031 C 
ATOM     45  C   UNL A   1      37.274  31.528  31.233  1.00  0.00     0.029 A 
ATOM     46  N   UNL A   1      38.999  31.102  32.592  1.00  0.00    -0.354 N 
ATOM     47  C   UNL A   1      39.508  33.265  36.294  1.00  0.00     0.074 A 
ATOM     48  C   UNL A   1      38.458  34.243  36.474  1.00  0.00     0.031 C 
ATOM     49  C   UNL A   1      38.022  30.577  30.649  1.00  0.00     0.029 A 
ATOM     50  C   UNL A   1      39.168  30.280  31.504  1.00  0.00     0.049 A 
ATOM     51  H   UNL A   1      39.625  31.125  33.351  1.00  0.00     0.167 HD
ATOM     52  C   UNL A   1      40.519  33.061  37.171  1.00  0.00     0.037 A 
ATOM     53  C   UNL A   1      40.137  29.388  31.229  1.00  0.00     0.037 A 
ATOM     54  C   UNL A   1      41.550  32.071  37.003  1.00  0.00     0.049 A 
ATOM     55  C   UNL A   1      41.244  29.175  32.222  1.00  0.00     0.074 A 
ATOM     56  C   UNL A   1      42.583  31.745  37.865  1.00  0.00     0.029 A 
ATOM     57  N   UNL A   1      41.680  31.248  35.895  1.00  0.00    -0.354 N 
ATOM     58  N   UNL A   1      41.439  29.757  33.381  1.00  0.00    -0.248 NA
ATOM     59  C   UNL A   1      42.261  28.172  31.873  1.00  0.00     0.031 C 
ATOM     60  C   UNL A   1      43.360  30.751  37.260  1.00  0.00     0.029 A 
ATOM     61  C   UNL A   1      42.786  30.428  36.041  1.00  0.00     0.049 A 
ATOM     62  H   UNL A   1      41.075  31.247  35.118  1.00  0.00     0.167 HD
ATOM     63  C   UNL A   1      42.585  29.177  33.909  1.00  0.00     0.074 A 
ATOM     64  C   UNL A   1      43.030  28.184  32.954  1.00  0.00     0.031 C 
ATOM     65  C   UNL A   1      43.215  29.444  35.080  1.00  0.00     0.037 A 
BRANCH  52  66
ATOM     66  C   UNL A   1      40.552  33.926  38.399  1.00  0.00     0.057 A 
ATOM     67  C   UNL A   1      41.317  35.099  38.453  1.00  0.00     0.134 A 
ATOM     68  C   UNL A   1      39.790  33.599  39.527  1.00  0.00     0.134 A 
ATOM     69  F   UNL A   1      42.079  35.464  37.411  1.00  0.00    -0.206 F 
ATOM     70  C   UNL A   1      41.346  35.899  39.597  1.00  0.00     0.040 A 
ATOM     71  C   UNL A   1      39.790  34.406  40.666  1.00  0.00     0.040 A 
ATOM     72  F   UNL A   1      39.031  32.493  39.539  1.00  0.00    -0.206 F 
ATOM     73  C   UNL A   1      40.576  35.556  40.706  1.00  0.00     0.006 A 
ENDBRANCH  52  66
BRANCH  53  74
ATOM     74  C   UNL A   1      40.088  28.604  29.970  1.00  0.00     0.057 A 
ATOM     75  C   UNL A   1      40.761  29.040  28.822  1.00  0.00     0.134 A 
ATOM     76  C   UNL A   1      39.364  27.410  29.878  1.00  0.00     0.134 A 
ATOM     77  F   UNL A   1      41.457  30.187  28.843  1.00  0.00    -0.206 F 
ATOM     78  C   UNL A   1      40.699  28.329  27.624  1.00  0.00     0.040 A 
ATOM     79  C   UNL A   1      39.313  26.675  28.692  1.00  0.00     0.040 A 
ATOM     80  F   UNL A   1      38.703  26.935  30.945  1.00  0.00    -0.206 F 
ATOM     81  C   UNL A   1      39.977  27.139  27.558  1.00  0.00     0.006 A 
ENDBRANCH  53  74
BRANCH  65  82
ATOM     82  C   UNL A   1      44.436  28.632  35.397  1.00  0.00     0.057 A 
ATOM     83  C   UNL A   1      45.719  29.053  35.026  1.00  0.00     0.134 A 
ATOM     84  C   UNL A   1      44.327  27.427  36.103  1.00  0.00     0.134 A 
ATOM     85  F   UNL A   1      45.889  30.191  34.337  1.00  0.00    -0.206 F 
ATOM     86  C   UNL A   1      46.850  28.289  35.322  1.00  0.00     0.040 A 
ATOM     87  C   UNL A   1      45.452  26.668  36.427  1.00  0.00     0.040 A 
ATOM     88  F   UNL A   1      43.128  26.972  36.496  1.00  0.00    -0.206 F 
ATOM     89  C   UNL A   1      46.718  27.096  36.030  1.00  0.00     0.006 A 
ENDBRANCH  65  82
ENDBRANCH  39  40
ENDBRANCH  31  34
ENDBRANCH  29  30
ENDBRANCH  28  29
ENDBRANCH  27  28
ENDBRANCH   1  27
TORSDOF 16
ENDMDL
MODEL 2
REMARK VINA RESULT:     -10.8      0.639      6.217
REMARK SMILES Cc1csc([C@H](C)NC(=O)N[C@H]2C=C[C@@H](C(=O)NCCCCCCNC(=O)c3ccc(-c4c5nc(c(-c6c(F)cccc6F)c6ccc([nH]6)c(-c6c(F)cccc6F)c6nc(c(-c7c(F)cccc7F)c7ccc4[nH]7)C=C6)C=C5)cc3)C2)n1
REMARK SMILES IDX 21 1 20 2 19 3 18 4 16 5 17 6 15 8 12 9 13 10 82 11 14 12
REMARK SMILES IDX 11 13 8 14 9 15 10 17 6 19 7 20 5 21 1 22 2 23 3 24 83 25
REMARK SMILES IDX 4 26 22 27 23 28 24 29 25 30 26 31 27 33 28 34 29 35 81 36
REMARK SMILES IDX 30 37 80 38 31 39 32 40 33 41 74 42 34 43 79 44 73 45 75 46
REMARK SMILES IDX 35 47 78 48 72 49 71 50 36 52 62 53 45 54 61 55 46 56 49 57
REMARK SMILES IDX 60 58 76 59 47 60 48 61 59 63 77 64 50 65 37 66 38 67 43 68
REMARK SMILES IDX 39 69 40 70 42 71 44 72 41 73 63 74 64 75 69 76 65 77 66 78
REMARK SMILES IDX 68 79 70 80 67 81 51 82 52 83 57 84 53 85 54 86 56 87 58 88
REMARK SMILES IDX 55 89
REMARK H PARENT 18 7 8 16 11 18 25 32 75 51 49 62
REMARK Flexibility Score: inf
ROOT
ATOM      1  C   UNL A   1      35.417  33.775  28.964  1.00  0.00     0.002 C 
ENDROOT
BRANCH   1   2
ATOM      2  C   UNL A   1      34.591  32.577  29.441  1.00  0.00     0.021 C 
BRANCH   2   3
ATOM      3  C   UNL A   1      34.510  31.429  28.439  1.00  0.00     0.116 C 
BRANCH   3   4
ATOM      4  N   UNL A   1      33.389  31.573  27.535  1.00  0.00    -0.356 N 
ATOM      5  C   UNL A   1      32.611  30.630  26.941  1.00  0.00     0.227 C 
ATOM      6  O   UNL A   1      31.669  31.025  26.247  1.00  0.00    -0.274 OA
ATOM      7  H   UNL A   1      33.151  32.503  27.317  1.00  0.00     0.163 HD
BRANCH   5   8
ATOM      8  C   UNL A   1      32.891  29.133  27.076  1.00  0.00     0.103 C 
ATOM      9  C   UNL A   1      31.785  27.058  26.316  1.00  0.00     0.107 C 
ATOM     10  C   UNL A   1      33.032  27.363  25.542  1.00  0.00    -0.006 C 
ATOM     11  C   UNL A   1      31.623  28.292  27.224  1.00  0.00     0.047 C 
ATOM     12  C   UNL A   1      33.624  28.495  25.940  1.00  0.00    -0.016 C 
BRANCH   9  13
ATOM     13  N   UNL A   1      30.697  26.904  25.372  1.00  0.00    -0.332 N 
ATOM     14  N   UNL A   1      30.333  24.580  25.147  1.00  0.00    -0.329 N 
ATOM     15  C   UNL A   1      30.096  25.849  24.811  1.00  0.00     0.315 C 
ATOM     16  H   UNL A   1      29.868  23.938  24.562  1.00  0.00     0.166 HD
ATOM     17  O   UNL A   1      29.261  26.074  23.933  1.00  0.00    -0.249 OA
ATOM     18  H   UNL A   1      30.316  27.764  25.081  1.00  0.00     0.165 HD
BRANCH  14  19
ATOM     19  C   UNL A   1      31.124  23.930  26.181  1.00  0.00     0.140 C 
ATOM     20  C   UNL A   1      30.262  22.919  26.928  1.00  0.00     0.039 C 
BRANCH  19  21
ATOM     21  C   UNL A   1      32.397  23.369  25.590  1.00  0.00     0.115 A 
ATOM     22  C   UNL A   1      35.412  21.458  26.064  1.00  0.00     0.067 C 
ATOM     23  C   UNL A   1      34.289  22.209  25.453  1.00  0.00     0.049 A 
ATOM     24  C   UNL A   1      34.015  22.337  24.106  1.00  0.00     0.090 A 
ATOM     25  N   UNL A   1      33.379  22.832  26.289  1.00  0.00    -0.244 NA
ATOM     26  S   UNL A   1      32.567  23.218  23.879  1.00  0.00    -0.125 S 
ENDBRANCH  19  21
ENDBRANCH  14  19
ENDBRANCH   9  13
ENDBRANCH   5   8
ENDBRANCH   3   4
ENDBRANCH   2   3
ENDBRANCH   1   2
BRANCH   1  27
ATOM     27  C   UNL A   1      34.624  34.862  28.233  1.00  0.00     0.002 C 
BRANCH  27  28
ATOM     28  C   UNL A   1      33.297  35.257  28.888  1.00  0.00     0.021 C 
BRANCH  28  29
ATOM     29  C   UNL A   1      33.387  36.422  29.867  1.00  0.00     0.116 C 
BRANCH  29  30
ATOM     30  N   UNL A   1      32.418  36.305  30.944  1.00  0.00    -0.352 N 
ATOM     31  C   UNL A   1      32.467  35.545  32.082  1.00  0.00     0.251 C 
ATOM     32  H   UNL A   1      31.608  36.854  30.840  1.00  0.00     0.163 HD
ATOM     33  O   UNL A   1      31.462  35.427  32.784  1.00  0.00    -0.269 OA
BRANCH  31  34
ATOM     34  C   UNL A   1      33.713  34.850  32.464  1.00  0.00     0.039 A 
ATOM     35  C   UNL A   1      34.930  35.516  32.299  1.00  0.00     0.014 A 
ATOM     36  C   UNL A   1      33.692  33.537  32.945  1.00  0.00     0.014 A 
ATOM     37  C   UNL A   1      36.122  34.883  32.656  1.00  0.00     0.010 A 
ATOM     38  C   UNL A   1      34.874  32.933  33.367  1.00  0.00     0.010 A 
ATOM     39  C   UNL A   1      36.101  33.593  33.212  1.00  0.00    -0.014 A 
BRANCH  39  40
ATOM     40  C   UNL A   1      37.361  32.920  33.616  1.00  0.00     0.031 A 
ATOM     41  C   UNL A   1      37.996  31.897  32.715  1.00  0.00     0.074 A 
ATOM     42  C   UNL A   1      37.913  33.203  34.811  1.00  0.00     0.049 A 
ATOM     43  N   UNL A   1      39.082  31.191  32.902  1.00  0.00    -0.248 NA
ATOM     44  C   UNL A   1      37.305  31.610  31.447  1.00  0.00     0.031 C 
ATOM     45  C   UNL A   1      37.367  34.138  35.795  1.00  0.00     0.029 A 
ATOM     46  N   UNL A   1      39.057  32.728  35.401  1.00  0.00    -0.354 N 
ATOM     47  C   UNL A   1      39.198  30.372  31.785  1.00  0.00     0.074 A 
ATOM     48  C   UNL A   1      38.044  30.628  30.952  1.00  0.00     0.031 C 
ATOM     49  C   UNL A   1      38.189  34.189  36.856  1.00  0.00     0.029 A 
ATOM     50  C   UNL A   1      39.302  33.269  36.640  1.00  0.00     0.049 A 
ATOM     51  H   UNL A   1      39.646  32.062  34.978  1.00  0.00     0.167 HD
ATOM     52  C   UNL A   1      40.188  29.503  31.472  1.00  0.00     0.037 A 
ATOM     53  C   UNL A   1      40.312  33.048  37.502  1.00  0.00     0.037 A 
ATOM     54  C   UNL A   1      41.348  29.266  32.290  1.00  0.00     0.049 A 
ATOM     55  C   UNL A   1      41.402  32.084  37.127  1.00  0.00     0.074 A 
ATOM     56  C   UNL A   1      42.437  28.452  32.030  1.00  0.00     0.029 A 
ATOM     57  N   UNL A   1      41.568  29.844  33.531  1.00  0.00    -0.354 N 
ATOM     58  N   UNL A   1      41.537  31.372  36.034  1.00  0.00    -0.248 NA
ATOM     59  C   UNL A   1      42.487  31.902  38.102  1.00  0.00     0.031 C 
ATOM     60  C   UNL A   1      43.297  28.508  33.133  1.00  0.00     0.029 A 
ATOM     61  C   UNL A   1      42.766  29.390  34.059  1.00  0.00     0.049 A 
ATOM     62  H   UNL A   1      40.962  30.483  33.973  1.00  0.00     0.167 HD
ATOM     63  C   UNL A   1      42.729  30.675  36.180  1.00  0.00     0.074 A 
ATOM     64  C   UNL A   1      43.289  31.066  37.457  1.00  0.00     0.031 C 
ATOM     65  C   UNL A   1      43.308  29.789  35.332  1.00  0.00     0.037 A 
BRANCH  52  66
ATOM     66  C   UNL A   1      40.059  28.748  30.180  1.00  0.00     0.057 A 
ATOM     67  C   UNL A   1      39.325  27.558  30.092  1.00  0.00     0.134 A 
ATOM     68  C   UNL A   1      40.651  29.230  29.005  1.00  0.00     0.134 A 
ATOM     69  F   UNL A   1      38.743  27.035  31.182  1.00  0.00    -0.206 F 
ATOM     70  C   UNL A   1      39.208  26.858  28.890  1.00  0.00     0.040 A 
ATOM     71  C   UNL A   1      40.518  28.553  27.792  1.00  0.00     0.040 A 
ATOM     72  F   UNL A   1      41.362  30.367  29.018  1.00  0.00    -0.206 F 
ATOM     73  C   UNL A   1      39.801  27.360  27.733  1.00  0.00     0.006 A 
ENDBRANCH  52  66
BRANCH  53  74
ATOM     74  C   UNL A   1      40.356  33.776  38.794  1.00  0.00     0.057 A 
ATOM     75  C   UNL A   1      39.619  33.333  39.898  1.00  0.00     0.134 A 
ATOM     76  C   UNL A   1      41.125  34.935  38.956  1.00  0.00     0.134 A 
ATOM     77  F   UNL A   1      38.849  32.238  39.799  1.00  0.00    -0.206 F 
ATOM     78  C   UNL A   1      39.629  34.024  41.110  1.00  0.00     0.040 A 
ATOM     79  C   UNL A   1      41.164  35.623  40.169  1.00  0.00     0.040 A 
ATOM     80  F   UNL A   1      41.860  35.407  37.938  1.00  0.00    -0.206 F 
ATOM     81  C   UNL A   1      40.407  35.171  41.249  1.00  0.00     0.006 A 
ENDBRANCH  53  74
BRANCH  65  82
ATOM     82  C   UNL A   1      44.624  29.205  35.753  1.00  0.00     0.057 A 
ATOM     83  C   UNL A   1      45.842  29.808  35.415  1.00  0.00     0.134 A 
ATOM     84  C   UNL A   1      44.672  28.037  36.525  1.00  0.00     0.134 A 
ATOM     85  F   UNL A   1      45.864  30.922  34.666  1.00  0.00    -0.206 F 
ATOM     86  C   UNL A   1      47.063  29.256  35.807  1.00  0.00     0.040 A 
ATOM     87  C   UNL A   1      45.885  27.490  36.945  1.00  0.00     0.040 A 
ATOM     88  F   UNL A   1      43.541  27.414  36.890  1.00  0.00    -0.206 F 
ATOM     89  C   UNL A   1      47.085  28.096  36.580  1.00  0.00     0.006 A 
ENDBRANCH  65  82
ENDBRANCH  39  40
ENDBRANCH  31  34
ENDBRANCH  29  30
ENDBRANCH  28  29
ENDBRANCH  27  28
ENDBRANCH   1  27
TORSDOF 16
ENDMDL
MODEL 3
REMARK VINA RESULT:     -10.8      5.176     10.517
REMARK SMILES Cc1csc([C@H](C)NC(=O)N[C@H]2C=C[C@@H](C(=O)NCCCCCCNC(=O)c3ccc(-c4c5nc(c(-c6c(F)cccc6F)c6ccc([nH]6)c(-c6c(F)cccc6F)c6nc(c(-c7c(F)cccc7F)c7ccc4[nH]7)C=C6)C=C5)cc3)C2)n1
REMARK SMILES IDX 21 1 20 2 19 3 18 4 16 5 17 6 15 8 12 9 13 10 82 11 14 12
REMARK SMILES IDX 11 13 8 14 9 15 10 17 6 19 7 20 5 21 1 22 2 23 3 24 83 25
REMARK SMILES IDX 4 26 22 27 23 28 24 29 25 30 26 31 27 33 28 34 29 35 81 36
REMARK SMILES IDX 30 37 80 38 31 39 32 40 33 41 74 42 34 43 79 44 73 45 75 46
REMARK SMILES IDX 35 47 78 48 72 49 71 50 36 52 62 53 45 54 61 55 46 56 49 57
REMARK SMILES IDX 60 58 76 59 47 60 48 61 59 63 77 64 50 65 37 66 38 67 43 68
REMARK SMILES IDX 39 69 40 70 42 71 44 72 41 73 63 74 64 75 69 76 65 77 66 78
REMARK SMILES IDX 68 79 70 80 67 81 51 82 52 83 57 84 53 85 54 86 56 87 58 88
REMARK SMILES IDX 55 89
REMARK H PARENT 18 7 8 16 11 18 25 32 75 51 49 62
REMARK Flexibility Score: inf
ROOT
ATOM      1  C   UNL A   1      36.129  21.382  25.111  1.00  0.00     0.002 C 
ENDROOT
BRANCH   1   2
ATOM      2  C   UNL A   1      35.143  21.726  26.231  1.00  0.00     0.021 C 
BRANCH   2   3
ATOM      3  C   UNL A   1      33.725  21.211  26.002  1.00  0.00     0.116 C 
BRANCH   3   4
ATOM      4  N   UNL A   1      33.389  21.146  24.595  1.00  0.00    -0.356 N 
ATOM      5  C   UNL A   1      32.718  22.028  23.809  1.00  0.00     0.227 C 
ATOM      6  O   UNL A   1      32.613  21.755  22.609  1.00  0.00    -0.274 OA
ATOM      7  H   UNL A   1      33.699  20.333  24.135  1.00  0.00     0.163 HD
BRANCH   5   8
ATOM      8  C   UNL A   1      32.073  23.297  24.367  1.00  0.00     0.103 C 
ATOM      9  C   UNL A   1      32.426  25.725  24.082  1.00  0.00     0.107 C 
ATOM     10  C   UNL A   1      31.192  25.237  23.386  1.00  0.00    -0.006 C 
ATOM     11  C   UNL A   1      33.072  24.428  24.606  1.00  0.00     0.047 C 
ATOM     12  C   UNL A   1      31.007  23.919  23.524  1.00  0.00    -0.016 C 
BRANCH   9  13
ATOM     13  N   UNL A   1      33.248  26.414  23.108  1.00  0.00    -0.332 N 
ATOM     14  N   UNL A   1      32.551  28.672  23.121  1.00  0.00    -0.329 N 
ATOM     15  C   UNL A   1      33.281  27.665  22.637  1.00  0.00     0.315 C 
ATOM     16  H   UNL A   1      32.637  29.495  22.589  1.00  0.00     0.166 HD
ATOM     17  O   UNL A   1      34.046  27.898  21.699  1.00  0.00    -0.249 OA
ATOM     18  H   UNL A   1      33.935  25.833  22.706  1.00  0.00     0.165 HD
BRANCH  14  19
ATOM     19  C   UNL A   1      31.656  28.827  24.258  1.00  0.00     0.140 C 
ATOM     20  C   UNL A   1      32.319  29.699  25.319  1.00  0.00     0.039 C 
BRANCH  19  21
ATOM     21  C   UNL A   1      30.300  29.307  23.794  1.00  0.00     0.115 A 
ATOM     22  C   UNL A   1      28.089  32.074  23.144  1.00  0.00     0.067 C 
ATOM     23  C   UNL A   1      28.687  30.718  23.202  1.00  0.00     0.049 A 
ATOM     24  C   UNL A   1      28.223  29.581  22.573  1.00  0.00     0.090 A 
ATOM     25  N   UNL A   1      29.853  30.542  23.925  1.00  0.00    -0.244 NA
ATOM     26  S   UNL A   1      29.287  28.273  22.854  1.00  0.00    -0.125 S 
ENDBRANCH  19  21
ENDBRANCH  14  19
ENDBRANCH   9  13
ENDBRANCH   5   8
ENDBRANCH   3   4
ENDBRANCH   2   3
ENDBRANCH   1   2
BRANCH   1  27
ATOM     27  C   UNL A   1      36.447  19.892  24.958  1.00  0.00     0.002 C 
BRANCH  27  28
ATOM     28  C   UNL A   1      37.911  19.563  24.653  1.00  0.00     0.021 C 
BRANCH  28  29
ATOM     29  C   UNL A   1      38.904  20.017  25.717  1.00  0.00     0.116 C 
BRANCH  29  30
ATOM     30  N   UNL A   1      40.090  19.178  25.750  1.00  0.00    -0.352 N 
ATOM     31  C   UNL A   1      41.385  19.510  26.044  1.00  0.00     0.251 C 
ATOM     32  H   UNL A   1      39.939  18.230  25.529  1.00  0.00     0.163 HD
ATOM     33  O   UNL A   1      42.290  18.702  25.830  1.00  0.00    -0.269 OA
BRANCH  31  34
ATOM     34  C   UNL A   1      41.708  20.840  26.602  1.00  0.00     0.039 A 
ATOM     35  C   UNL A   1      42.232  21.815  25.750  1.00  0.00     0.014 A 
ATOM     36  C   UNL A   1      41.534  21.116  27.962  1.00  0.00     0.014 A 
ATOM     37  C   UNL A   1      42.542  23.080  26.252  1.00  0.00     0.010 A 
ATOM     38  C   UNL A   1      41.776  22.399  28.447  1.00  0.00     0.010 A 
ATOM     39  C   UNL A   1      42.297  23.389  27.601  1.00  0.00    -0.014 A 
BRANCH  39  40
ATOM     40  C   UNL A   1      42.601  24.738  28.138  1.00  0.00     0.031 A 
ATOM     41  C   UNL A   1      44.007  25.095  28.537  1.00  0.00     0.074 A 
ATOM     42  C   UNL A   1      41.606  25.629  28.303  1.00  0.00     0.049 A 
ATOM     43  N   UNL A   1      44.465  26.213  29.042  1.00  0.00    -0.248 NA
ATOM     44  C   UNL A   1      45.029  24.050  28.369  1.00  0.00     0.031 C 
ATOM     45  C   UNL A   1      40.194  25.386  28.003  1.00  0.00     0.029 A 
ATOM     46  N   UNL A   1      41.630  26.919  28.769  1.00  0.00    -0.354 N 
ATOM     47  C   UNL A   1      45.820  26.001  29.262  1.00  0.00     0.074 A 
ATOM     48  C   UNL A   1      46.101  24.633  28.887  1.00  0.00     0.031 C 
ATOM     49  C   UNL A   1      39.491  26.499  28.266  1.00  0.00     0.029 A 
ATOM     50  C   UNL A   1      40.396  27.523  28.781  1.00  0.00     0.049 A 
ATOM     51  H   UNL A   1      42.453  27.371  29.066  1.00  0.00     0.167 HD
ATOM     52  C   UNL A   1      46.751  26.875  29.713  1.00  0.00     0.037 A 
ATOM     53  C   UNL A   1      40.036  28.762  29.164  1.00  0.00     0.037 A 
ATOM     54  C   UNL A   1      46.476  28.244  30.063  1.00  0.00     0.049 A 
ATOM     55  C   UNL A   1      41.090  29.715  29.653  1.00  0.00     0.074 A 
ATOM     56  C   UNL A   1      47.362  29.227  30.470  1.00  0.00     0.029 A 
ATOM     57  N   UNL A   1      45.216  28.823  30.048  1.00  0.00    -0.354 N 
ATOM     58  N   UNL A   1      42.381  29.525  29.786  1.00  0.00    -0.248 NA
ATOM     59  C   UNL A   1      40.638  31.060  30.037  1.00  0.00     0.031 C 
ATOM     60  C   UNL A   1      46.631  30.389  30.740  1.00  0.00     0.029 A 
ATOM     61  C   UNL A   1      45.297  30.144  30.458  1.00  0.00     0.049 A 
ATOM     62  H   UNL A   1      44.386  28.363  29.785  1.00  0.00     0.167 HD
ATOM     63  C   UNL A   1      42.897  30.729  30.246  1.00  0.00     0.074 A 
ATOM     64  C   UNL A   1      41.783  31.650  30.349  1.00  0.00     0.031 C 
ATOM     65  C   UNL A   1      44.179  31.046  30.556  1.00  0.00     0.037 A 
BRANCH  52  66
ATOM     66  C   UNL A   1      48.161  26.374  29.845  1.00  0.00     0.057 A 
ATOM     67  C   UNL A   1      48.621  25.770  31.023  1.00  0.00     0.134 A 
ATOM     68  C   UNL A   1      49.060  26.469  28.775  1.00  0.00     0.134 A 
ATOM     69  F   UNL A   1      47.814  25.658  32.090  1.00  0.00    -0.206 F 
ATOM     70  C   UNL A   1      49.932  25.307  31.143  1.00  0.00     0.040 A 
ATOM     71  C   UNL A   1      50.364  25.984  28.874  1.00  0.00     0.040 A 
ATOM     72  F   UNL A   1      48.682  27.030  27.617  1.00  0.00    -0.206 F 
ATOM     73  C   UNL A   1      50.807  25.408  30.063  1.00  0.00     0.006 A 
ENDBRANCH  52  66
BRANCH  53  74
ATOM     74  C   UNL A   1      38.617  29.185  29.070  1.00  0.00     0.057 A 
ATOM     75  C   UNL A   1      37.770  29.120  30.183  1.00  0.00     0.134 A 
ATOM     76  C   UNL A   1      38.070  29.654  27.870  1.00  0.00     0.134 A 
ATOM     77  F   UNL A   1      38.233  28.661  31.356  1.00  0.00    -0.206 F 
ATOM     78  C   UNL A   1      36.427  29.486  30.102  1.00  0.00     0.040 A 
ATOM     79  C   UNL A   1      36.734  30.047  27.780  1.00  0.00     0.040 A 
ATOM     80  F   UNL A   1      38.832  29.747  26.770  1.00  0.00    -0.206 F 
ATOM     81  C   UNL A   1      35.906  29.956  28.898  1.00  0.00     0.006 A 
ENDBRANCH  53  74
BRANCH  65  82
ATOM     82  C   UNL A   1      44.442  32.450  31.013  1.00  0.00     0.057 A 
ATOM     83  C   UNL A   1      44.429  32.800  32.369  1.00  0.00     0.134 A 
ATOM     84  C   UNL A   1      44.735  33.459  30.086  1.00  0.00     0.134 A 
ATOM     85  F   UNL A   1      44.143  31.882  33.305  1.00  0.00    -0.206 F 
ATOM     86  C   UNL A   1      44.672  34.110  32.786  1.00  0.00     0.040 A 
ATOM     87  C   UNL A   1      45.004  34.766  30.492  1.00  0.00     0.040 A 
ATOM     88  F   UNL A   1      44.772  33.188  28.772  1.00  0.00    -0.206 F 
ATOM     89  C   UNL A   1      44.966  35.096  31.846  1.00  0.00     0.006 A 
ENDBRANCH  65  82
ENDBRANCH  39  40
ENDBRANCH  31  34
ENDBRANCH  29  30
ENDBRANCH  28  29
ENDBRANCH  27  28
ENDBRANCH   1  27
TORSDOF 16
ENDMDL
