MODEL 1
REMARK VINA RESULT:     -11.0      0.000      0.000
REMARK SMILES CC1=C(C)C[C@@H](C(=O)N[C@H](C)C(C)(C)C)[C@@H](C(=O)NCCCCCCNC(=O)c2ccc(-c3c4nc(c(-c5c(F)cccc5F)c5ccc([nH]5)c(-c5c(F)cccc5F)c5nc(c(-c6c(F)cccc6F)c6ccc3[nH]6)C=C5)C=C4)cc2)C1
REMARK SMILES IDX 22 1 21 2 20 3 19 4 17 5 18 6 16 8 1 9 2 10 3 11 83 12 4 13
REMARK SMILES IDX 5 14 6 15 7 16 8 17 9 18 10 20 11 21 12 22 13 23 14 24 15 25
REMARK SMILES IDX 23 26 24 27 25 28 26 29 27 30 28 32 29 33 30 34 82 35 31 36
REMARK SMILES IDX 81 37 32 38 33 39 34 40 75 41 35 42 80 43 74 44 76 45 36 46
REMARK SMILES IDX 79 47 73 48 72 49 37 51 63 52 46 53 62 54 47 55 50 56 61 57
REMARK SMILES IDX 77 58 48 59 49 60 60 62 78 63 51 64 38 65 39 66 44 67 40 68
REMARK SMILES IDX 41 69 43 70 45 71 42 72 64 73 65 74 70 75 66 76 67 77 69 78
REMARK SMILES IDX 71 79 68 80 52 81 53 82 58 83 54 84 55 85 57 86 59 87 56 88
REMARK H PARENT 19 7 9 19 26 31 76 50 50 61
REMARK Flexibility Score: inf
ROOT
ATOM      1  C   UNL A   1      38.476  22.361  25.862  1.00  0.00     0.002 C 
ENDROOT
BRANCH   1   2
ATOM      2  C   UNL A   1      37.664  23.640  26.106  1.00  0.00     0.021 C 
BRANCH   2   3
ATOM      3  C   UNL A   1      36.229  23.616  25.591  1.00  0.00     0.116 C 
BRANCH   3   4
ATOM      4  N   UNL A   1      35.333  22.968  26.522  1.00  0.00    -0.356 N 
ATOM      5  C   UNL A   1      34.596  21.842  26.399  1.00  0.00     0.224 C 
ATOM      6  O   UNL A   1      34.065  21.415  27.422  1.00  0.00    -0.275 OA
ATOM      7  H   UNL A   1      35.244  23.423  27.391  1.00  0.00     0.163 HD
BRANCH   5   8
ATOM      8  C   UNL A   1      34.427  21.168  25.049  1.00  0.00     0.095 C 
ATOM      9  C   UNL A   1      33.947  17.289  24.731  1.00  0.00     0.039 C 
ATOM     10  C   UNL A   1      33.753  18.741  24.367  1.00  0.00    -0.074 C 
ATOM     11  C   UNL A   1      32.907  19.208  23.426  1.00  0.00    -0.074 C 
ATOM     12  C   UNL A   1      34.608  19.652  25.215  1.00  0.00     0.045 C 
ATOM     13  C   UNL A   1      32.088  18.344  22.496  1.00  0.00     0.039 C 
ATOM     14  C   UNL A   1      32.689  20.690  23.215  1.00  0.00     0.045 C 
ATOM     15  C   UNL A   1      33.142  21.620  24.346  1.00  0.00     0.095 C 
BRANCH  15  16
ATOM     16  C   UNL A   1      31.997  22.207  25.198  1.00  0.00     0.224 C 
ATOM     17  O   UNL A   1      31.210  21.422  25.747  1.00  0.00    -0.275 OA
ATOM     18  N   UNL A   1      31.775  23.526  25.426  1.00  0.00    -0.353 N 
ATOM     19  H   UNL A   1      30.997  23.708  26.002  1.00  0.00     0.163 HD
BRANCH  18  20
ATOM     20  C   UNL A   1      32.476  24.725  24.976  1.00  0.00     0.084 C 
ATOM     21  C   UNL A   1      32.768  25.632  26.179  1.00  0.00     0.031 C 
BRANCH  20  22
ATOM     22  C   UNL A   1      31.732  25.490  23.817  1.00  0.00    -0.018 C 
ATOM     23  C   UNL A   1      32.094  24.821  22.472  1.00  0.00     0.013 C 
ATOM     24  C   UNL A   1      30.199  25.416  23.966  1.00  0.00     0.013 C 
ATOM     25  C   UNL A   1      32.108  26.985  23.741  1.00  0.00     0.013 C 
ENDBRANCH  20  22
ENDBRANCH  18  20
ENDBRANCH  15  16
ENDBRANCH   5   8
ENDBRANCH   3   4
ENDBRANCH   2   3
ENDBRANCH   1   2
BRANCH   1  26
ATOM     26  C   UNL A   1      37.915  21.397  24.812  1.00  0.00     0.002 C 
BRANCH  26  27
ATOM     27  C   UNL A   1      38.406  19.956  24.915  1.00  0.00     0.021 C 
BRANCH  27  28
ATOM     28  C   UNL A   1      39.238  19.653  26.150  1.00  0.00     0.116 C 
BRANCH  28  29
ATOM     29  N   UNL A   1      40.500  19.013  25.824  1.00  0.00    -0.352 N 
ATOM     30  C   UNL A   1      41.765  19.535  25.858  1.00  0.00     0.251 C 
ATOM     31  H   UNL A   1      40.437  18.073  25.538  1.00  0.00     0.163 HD
ATOM     32  O   UNL A   1      42.707  18.903  25.379  1.00  0.00    -0.269 OA
BRANCH  30  33
ATOM     33  C   UNL A   1      42.002  20.867  26.453  1.00  0.00     0.039 A 
ATOM     34  C   UNL A   1      42.281  21.942  25.607  1.00  0.00     0.014 A 
ATOM     35  C   UNL A   1      41.977  21.055  27.839  1.00  0.00     0.014 A 
ATOM     36  C   UNL A   1      42.507  23.209  26.149  1.00  0.00     0.010 A 
ATOM     37  C   UNL A   1      42.110  22.334  28.371  1.00  0.00     0.010 A 
ATOM     38  C   UNL A   1      42.408  23.418  27.534  1.00  0.00    -0.014 A 
BRANCH  38  39
ATOM     39  C   UNL A   1      42.677  24.754  28.122  1.00  0.00     0.031 A 
ATOM     40  C   UNL A   1      44.079  25.139  28.506  1.00  0.00     0.074 A 
ATOM     41  C   UNL A   1      41.661  25.613  28.325  1.00  0.00     0.049 A 
ATOM     42  N   UNL A   1      44.521  26.261  29.016  1.00  0.00    -0.248 NA
ATOM     43  C   UNL A   1      45.121  24.116  28.319  1.00  0.00     0.031 C 
ATOM     44  C   UNL A   1      40.252  25.344  28.034  1.00  0.00     0.029 A 
ATOM     45  N   UNL A   1      41.660  26.894  28.817  1.00  0.00    -0.354 N 
ATOM     46  C   UNL A   1      45.883  26.075  29.212  1.00  0.00     0.074 A 
ATOM     47  C   UNL A   1      46.182  24.711  28.843  1.00  0.00     0.031 C 
ATOM     48  C   UNL A   1      39.530  26.442  28.308  1.00  0.00     0.029 A 
ATOM     49  C   UNL A   1      40.418  27.479  28.823  1.00  0.00     0.049 A 
ATOM     50  H   UNL A   1      42.473  27.350  29.134  1.00  0.00     0.167 HD
ATOM     51  C   UNL A   1      46.812  26.970  29.629  1.00  0.00     0.037 A 
ATOM     52  C   UNL A   1      40.042  28.718  29.192  1.00  0.00     0.037 A 
ATOM     53  C   UNL A   1      46.514  28.331  29.988  1.00  0.00     0.049 A 
ATOM     54  C   UNL A   1      41.086  29.688  29.672  1.00  0.00     0.074 A 
ATOM     55  C   UNL A   1      47.382  29.329  30.393  1.00  0.00     0.029 A 
ATOM     56  N   UNL A   1      45.242  28.884  29.988  1.00  0.00    -0.354 N 
ATOM     57  N   UNL A   1      42.380  29.522  29.795  1.00  0.00    -0.248 NA
ATOM     58  C   UNL A   1      40.613  31.027  30.051  1.00  0.00     0.031 C 
ATOM     59  C   UNL A   1      46.629  30.473  30.684  1.00  0.00     0.029 A 
ATOM     60  C   UNL A   1      45.299  30.205  30.402  1.00  0.00     0.049 A 
ATOM     61  H   UNL A   1      44.418  28.409  29.732  1.00  0.00     0.167 HD
ATOM     62  C   UNL A   1      42.883  30.743  30.224  1.00  0.00     0.074 A 
ATOM     63  C   UNL A   1      41.753  31.643  30.334  1.00  0.00     0.031 C 
ATOM     64  C   UNL A   1      44.165  31.091  30.497  1.00  0.00     0.037 A 
BRANCH  51  65
ATOM     65  C   UNL A   1      48.233  26.488  29.718  1.00  0.00     0.057 A 
ATOM     66  C   UNL A   1      48.742  25.896  30.883  1.00  0.00     0.134 A 
ATOM     67  C   UNL A   1      49.107  26.624  28.634  1.00  0.00     0.134 A 
ATOM     68  F   UNL A   1      47.964  25.745  31.967  1.00  0.00    -0.206 F 
ATOM     69  C   UNL A   1      50.078  25.501  30.982  1.00  0.00     0.040 A 
ATOM     70  C   UNL A   1      50.437  26.202  28.708  1.00  0.00     0.040 A 
ATOM     71  F   UNL A   1      48.688  27.174  27.484  1.00  0.00    -0.206 F 
ATOM     72  C   UNL A   1      50.928  25.651  29.889  1.00  0.00     0.006 A 
ENDBRANCH  51  65
BRANCH  52  73
ATOM     73  C   UNL A   1      38.622  29.129  29.064  1.00  0.00     0.057 A 
ATOM     74  C   UNL A   1      38.115  29.593  27.845  1.00  0.00     0.134 A 
ATOM     75  C   UNL A   1      37.738  29.069  30.149  1.00  0.00     0.134 A 
ATOM     76  F   UNL A   1      38.916  29.689  26.774  1.00  0.00    -0.206 F 
ATOM     77  C   UNL A   1      36.787  29.998  27.711  1.00  0.00     0.040 A 
ATOM     78  C   UNL A   1      36.400  29.447  30.023  1.00  0.00     0.040 A 
ATOM     79  F   UNL A   1      38.159  28.625  31.342  1.00  0.00    -0.206 F 
ATOM     80  C   UNL A   1      35.923  29.920  28.802  1.00  0.00     0.006 A 
ENDBRANCH  52  73
BRANCH  64  81
ATOM     81  C   UNL A   1      44.420  32.520  30.886  1.00  0.00     0.057 A 
ATOM     82  C   UNL A   1      44.655  33.523  29.937  1.00  0.00     0.134 A 
ATOM     83  C   UNL A   1      44.409  32.898  32.236  1.00  0.00     0.134 A 
ATOM     84  F   UNL A   1      44.689  33.226  28.629  1.00  0.00    -0.206 F 
ATOM     85  C   UNL A   1      44.903  34.843  30.317  1.00  0.00     0.040 A 
ATOM     86  C   UNL A   1      44.625  34.220  32.626  1.00  0.00     0.040 A 
ATOM     87  F   UNL A   1      44.180  31.991  33.197  1.00  0.00    -0.206 F 
ATOM     88  C   UNL A   1      44.883  35.195  31.666  1.00  0.00     0.006 A 
ENDBRANCH  64  81
ENDBRANCH  38  39
ENDBRANCH  30  33
ENDBRANCH  28  29
ENDBRANCH  27  28
ENDBRANCH  26  27
ENDBRANCH   1  26
TORSDOF 16
ENDMDL
MODEL 2
REMARK VINA RESULT:     -10.9      4.564      9.567
REMARK SMILES CC1=C(C)C[C@@H](C(=O)N[C@H](C)C(C)(C)C)[C@@H](C(=O)NCCCCCCNC(=O)c2ccc(-c3c4nc(c(-c5c(F)cccc5F)c5ccc([nH]5)c(-c5c(F)cccc5F)c5nc(c(-c6c(F)cccc6F)c6ccc3[nH]6)C=C5)C=C4)cc2)C1
REMARK SMILES IDX 22 1 21 2 20 3 19 4 17 5 18 6 16 8 1 9 2 10 3 11 83 12 4 13
REMARK SMILES IDX 5 14 6 15 7 16 8 17 9 18 10 20 11 21 12 22 13 23 14 24 15 25
REMARK SMILES IDX 23 26 24 27 25 28 26 29 27 30 28 32 29 33 30 34 82 35 31 36
REMARK SMILES IDX 81 37 32 38 33 39 34 40 75 41 35 42 80 43 74 44 76 45 36 46
REMARK SMILES IDX 79 47 73 48 72 49 37 51 63 52 46 53 62 54 47 55 50 56 61 57
REMARK SMILES IDX 77 58 48 59 49 60 60 62 78 63 51 64 38 65 39 66 44 67 40 68
REMARK SMILES IDX 41 69 43 70 45 71 42 72 64 73 65 74 70 75 66 76 67 77 69 78
REMARK SMILES IDX 71 79 68 80 52 81 53 82 58 83 54 84 55 85 57 86 59 87 56 88
REMARK H PARENT 19 7 9 19 26 31 76 50 50 61
REMARK Flexibility Score: inf
ROOT
ATOM      1  C   UNL A   1      33.834  30.455  27.126  1.00  0.00     0.002 C 
ENDROOT
BRANCH   1   2
ATOM      2  C   UNL A   1      34.413  29.035  27.160  1.00  0.00     0.021 C 
BRANCH   2   3
ATOM      3  C   UNL A   1      33.697  28.011  26.286  1.00  0.00     0.116 C 
BRANCH   3   4
ATOM      4  N   UNL A   1      33.794  28.338  24.882  1.00  0.00    -0.356 N 
ATOM      5  C   UNL A   1      32.851  28.738  24.001  1.00  0.00     0.224 C 
ATOM      6  O   UNL A   1      33.248  29.133  22.907  1.00  0.00    -0.275 OA
ATOM      7  H   UNL A   1      34.699  28.255  24.503  1.00  0.00     0.163 HD
BRANCH   5   8
ATOM      8  C   UNL A   1      31.376  28.674  24.359  1.00  0.00     0.095 C 
ATOM      9  C   UNL A   1      28.796  31.260  22.934  1.00  0.00     0.039 C 
ATOM     10  C   UNL A   1      29.283  29.917  23.421  1.00  0.00    -0.074 C 
ATOM     11  C   UNL A   1      28.579  28.767  23.384  1.00  0.00    -0.074 C 
ATOM     12  C   UNL A   1      30.697  29.987  23.944  1.00  0.00     0.045 C 
ATOM     13  C   UNL A   1      27.138  28.649  22.947  1.00  0.00     0.039 C 
ATOM     14  C   UNL A   1      29.194  27.443  23.782  1.00  0.00     0.045 C 
ATOM     15  C   UNL A   1      30.724  27.385  23.844  1.00  0.00     0.095 C 
BRANCH  15  16
ATOM     16  C   UNL A   1      31.391  26.633  22.673  1.00  0.00     0.224 C 
ATOM     17  O   UNL A   1      31.107  26.976  21.516  1.00  0.00    -0.275 OA
ATOM     18  N   UNL A   1      32.291  25.624  22.790  1.00  0.00    -0.353 N 
ATOM     19  H   UNL A   1      32.611  25.271  21.929  1.00  0.00     0.163 HD
BRANCH  18  20
ATOM     20  C   UNL A   1      32.873  24.967  23.956  1.00  0.00     0.084 C 
ATOM     21  C   UNL A   1      34.296  24.496  23.625  1.00  0.00     0.031 C 
BRANCH  20  22
ATOM     22  C   UNL A   1      31.978  23.806  24.535  1.00  0.00    -0.018 C 
ATOM     23  C   UNL A   1      31.026  23.315  23.422  1.00  0.00     0.013 C 
ATOM     24  C   UNL A   1      32.822  22.594  24.983  1.00  0.00     0.013 C 
ATOM     25  C   UNL A   1      31.133  24.243  25.750  1.00  0.00     0.013 C 
ENDBRANCH  20  22
ENDBRANCH  18  20
ENDBRANCH  15  16
ENDBRANCH   5   8
ENDBRANCH   3   4
ENDBRANCH   2   3
ENDBRANCH   1   2
BRANCH   1  26
ATOM     26  C   UNL A   1      32.310  30.565  27.246  1.00  0.00     0.002 C 
BRANCH  26  27
ATOM     27  C   UNL A   1      31.728  31.950  26.978  1.00  0.00     0.021 C 
BRANCH  27  28
ATOM     28  C   UNL A   1      32.761  33.049  26.787  1.00  0.00     0.116 C 
BRANCH  28  29
ATOM     29  N   UNL A   1      32.477  34.221  27.595  1.00  0.00    -0.352 N 
ATOM     30  C   UNL A   1      33.064  34.624  28.765  1.00  0.00     0.251 C 
ATOM     31  H   UNL A   1      31.763  34.808  27.255  1.00  0.00     0.163 HD
ATOM     32  O   UNL A   1      32.579  35.554  29.410  1.00  0.00    -0.269 OA
BRANCH  30  33
ATOM     33  C   UNL A   1      34.270  33.932  29.266  1.00  0.00     0.039 A 
ATOM     34  C   UNL A   1      34.112  32.814  30.088  1.00  0.00     0.014 A 
ATOM     35  C   UNL A   1      35.552  34.395  28.951  1.00  0.00     0.014 A 
ATOM     36  C   UNL A   1      35.238  32.146  30.572  1.00  0.00     0.010 A 
ATOM     37  C   UNL A   1      36.671  33.673  29.357  1.00  0.00     0.010 A 
ATOM     38  C   UNL A   1      36.526  32.561  30.197  1.00  0.00    -0.014 A 
BRANCH  38  39
ATOM     39  C   UNL A   1      37.730  31.876  30.730  1.00  0.00     0.031 A 
ATOM     40  C   UNL A   1      38.234  32.204  32.110  1.00  0.00     0.074 A 
ATOM     41  C   UNL A   1      38.379  30.973  29.971  1.00  0.00     0.049 A 
ATOM     42  N   UNL A   1      39.255  31.704  32.760  1.00  0.00    -0.248 NA
ATOM     43  C   UNL A   1      37.511  33.254  32.846  1.00  0.00     0.031 C 
ATOM     44  C   UNL A   1      38.016  30.599  28.604  1.00  0.00     0.029 A 
ATOM     45  N   UNL A   1      39.477  30.199  30.248  1.00  0.00    -0.354 N 
ATOM     46  C   UNL A   1      39.296  32.380  33.973  1.00  0.00     0.074 A 
ATOM     47  C   UNL A   1      38.251  33.377  33.937  1.00  0.00     0.031 C 
ATOM     48  C   UNL A   1      38.846  29.634  28.178  1.00  0.00     0.029 A 
ATOM     49  C   UNL A   1      39.817  29.344  29.229  1.00  0.00     0.049 A 
ATOM     50  H   UNL A   1      39.972  30.250  31.098  1.00  0.00     0.167 HD
ATOM     51  C   UNL A   1      40.107  32.168  35.037  1.00  0.00     0.037 A 
ATOM     52  C   UNL A   1      40.796  28.423  29.157  1.00  0.00     0.037 A 
ATOM     53  C   UNL A   1      41.142  31.167  35.074  1.00  0.00     0.049 A 
ATOM     54  C   UNL A   1      41.699  28.218  30.342  1.00  0.00     0.074 A 
ATOM     55  C   UNL A   1      41.999  30.847  36.111  1.00  0.00     0.029 A 
ATOM     56  N   UNL A   1      41.460  30.326  34.018  1.00  0.00    -0.354 N 
ATOM     57  N   UNL A   1      41.690  28.820  31.506  1.00  0.00    -0.248 NA
ATOM     58  C   UNL A   1      42.742  27.192  30.203  1.00  0.00     0.031 C 
ATOM     59  C   UNL A   1      42.868  29.844  35.667  1.00  0.00     0.029 A 
ATOM     60  C   UNL A   1      42.513  29.498  34.373  1.00  0.00     0.049 A 
ATOM     61  H   UNL A   1      41.005  30.317  33.145  1.00  0.00     0.167 HD
ATOM     62  C   UNL A   1      42.694  28.219  32.254  1.00  0.00     0.074 A 
ATOM     63  C   UNL A   1      43.287  27.201  31.412  1.00  0.00     0.031 C 
ATOM     64  C   UNL A   1      43.086  28.481  33.525  1.00  0.00     0.037 A 
BRANCH  51  65
ATOM     65  C   UNL A   1      39.899  33.044  36.241  1.00  0.00     0.057 A 
ATOM     66  C   UNL A   1      38.957  32.730  37.231  1.00  0.00     0.134 A 
ATOM     67  C   UNL A   1      40.638  34.221  36.409  1.00  0.00     0.134 A 
ATOM     68  F   UNL A   1      38.203  31.624  37.127  1.00  0.00    -0.206 F 
ATOM     69  C   UNL A   1      38.725  33.576  38.317  1.00  0.00     0.040 A 
ATOM     70  C   UNL A   1      40.440  35.058  37.510  1.00  0.00     0.040 A 
ATOM     71  F   UNL A   1      41.563  34.581  35.506  1.00  0.00    -0.206 F 
ATOM     72  C   UNL A   1      39.472  34.742  38.461  1.00  0.00     0.006 A 
ENDBRANCH  51  65
BRANCH  52  73
ATOM     73  C   UNL A   1      40.934  27.583  27.940  1.00  0.00     0.057 A 
ATOM     74  C   UNL A   1      40.272  26.354  27.838  1.00  0.00     0.134 A 
ATOM     75  C   UNL A   1      41.723  27.984  26.856  1.00  0.00     0.134 A 
ATOM     76  F   UNL A   1      39.515  25.909  28.850  1.00  0.00    -0.206 F 
ATOM     77  C   UNL A   1      40.403  25.545  26.708  1.00  0.00     0.040 A 
ATOM     78  C   UNL A   1      41.843  27.196  25.709  1.00  0.00     0.040 A 
ATOM     79  F   UNL A   1      42.376  29.155  26.888  1.00  0.00    -0.206 F 
ATOM     80  C   UNL A   1      41.186  25.969  25.637  1.00  0.00     0.006 A 
ENDBRANCH  52  73
BRANCH  64  81
ATOM     81  C   UNL A   1      44.171  27.616  34.101  1.00  0.00     0.057 A 
ATOM     82  C   UNL A   1      43.899  26.392  34.725  1.00  0.00     0.134 A 
ATOM     83  C   UNL A   1      45.513  28.010  34.009  1.00  0.00     0.134 A 
ATOM     84  F   UNL A   1      42.635  25.962  34.857  1.00  0.00    -0.206 F 
ATOM     85  C   UNL A   1      44.919  25.607  35.267  1.00  0.00     0.040 A 
ATOM     86  C   UNL A   1      46.543  27.219  34.518  1.00  0.00     0.040 A 
ATOM     87  F   UNL A   1      45.846  29.165  33.415  1.00  0.00    -0.206 F 
ATOM     88  C   UNL A   1      46.247  26.018  35.159  1.00  0.00     0.006 A 
ENDBRANCH  64  81
ENDBRANCH  38  39
ENDBRANCH  30  33
ENDBRANCH  28  29
ENDBRANCH  27  28
ENDBRANCH  26  27
ENDBRANCH   1  26
TORSDOF 16
ENDMDL
MODEL 3
REMARK VINA RESULT:     -10.8      1.464      3.140
REMARK SMILES CC1=C(C)C[C@@H](C(=O)N[C@H](C)C(C)(C)C)[C@@H](C(=O)NCCCCCCNC(=O)c2ccc(-c3c4nc(c(-c5c(F)cccc5F)c5ccc([nH]5)c(-c5c(F)cccc5F)c5nc(c(-c6c(F)cccc6F)c6ccc3[nH]6)C=C5)C=C4)cc2)C1
REMARK SMILES IDX 22 1 21 2 20 3 19 4 17 5 18 6 16 8 1 9 2 10 3 11 83 12 4 13
REMARK SMILES IDX 5 14 6 15 7 16 8 17 9 18 10 20 11 21 12 22 13 23 14 24 15 25
REMARK SMILES IDX 23 26 24 27 25 28 26 29 27 30 28 32 29 33 30 34 82 35 31 36
REMARK SMILES IDX 81 37 32 38 33 39 34 40 75 41 35 42 80 43 74 44 76 45 36 46
REMARK SMILES IDX 79 47 73 48 72 49 37 51 63 52 46 53 62 54 47 55 50 56 61 57
REMARK SMILES IDX 77 58 48 59 49 60 60 62 78 63 51 64 38 65 39 66 44 67 40 68
REMARK SMILES IDX 41 69 43 70 45 71 42 72 64 73 65 74 70 75 66 76 67 77 69 78
REMARK SMILES IDX 71 79 68 80 52 81 53 82 58 83 54 84 55 85 57 86 59 87 56 88
REMARK H PARENT 19 7 9 19 26 31 76 50 50 61
REMARK Flexibility Score: inf
ROOT
ATOM      1  C   UNL A   1      35.728  20.759  24.916  1.00  0.00     0.002 C 
ENDROOT
BRANCH   1   2
ATOM      2  C   UNL A   1      35.152  21.418  26.176  1.00  0.00     0.021 C 
BRANCH   2   3
ATOM      3  C   UNL A   1      33.640  21.305  26.344  1.00  0.00     0.116 C 
BRANCH   3   4
ATOM      4  N   UNL A   1      33.085  22.453  27.024  1.00  0.00    -0.356 N 
ATOM      5  C   UNL A   1      32.294  23.450  26.570  1.00  0.00     0.224 C 
ATOM      6  O   UNL A   1      31.813  24.201  27.416  1.00  0.00    -0.275 OA
ATOM      7  H   UNL A   1      33.324  22.521  27.977  1.00  0.00     0.163 HD
BRANCH   5   8
ATOM      8  C   UNL A   1      32.045  23.629  25.083  1.00  0.00     0.095 C 
ATOM      9  C   UNL A   1      29.215  25.987  23.738  1.00  0.00     0.039 C 
ATOM     10  C   UNL A   1      30.557  25.297  23.737  1.00  0.00    -0.074 C 
ATOM     11  C   UNL A   1      31.555  25.524  22.858  1.00  0.00    -0.074 C 
ATOM     12  C   UNL A   1      30.688  24.316  24.877  1.00  0.00     0.045 C 
ATOM     13  C   UNL A   1      31.457  26.432  21.655  1.00  0.00     0.039 C 
ATOM     14  C   UNL A   1      32.913  24.874  23.008  1.00  0.00     0.045 C 
ATOM     15  C   UNL A   1      33.243  24.278  24.381  1.00  0.00     0.095 C 
BRANCH  15  16
ATOM     16  C   UNL A   1      34.237  25.105  25.223  1.00  0.00     0.224 C 
ATOM     17  O   UNL A   1      35.201  24.520  25.738  1.00  0.00    -0.275 OA
ATOM     18  N   UNL A   1      34.167  26.443  25.442  1.00  0.00    -0.353 N 
ATOM     19  H   UNL A   1      34.897  26.795  26.002  1.00  0.00     0.163 HD
BRANCH  18  20
ATOM     20  C   UNL A   1      33.212  27.455  25.003  1.00  0.00     0.084 C 
ATOM     21  C   UNL A   1      33.877  28.377  23.973  1.00  0.00     0.031 C 
BRANCH  20  22
ATOM     22  C   UNL A   1      32.557  28.258  26.190  1.00  0.00    -0.018 C 
ATOM     23  C   UNL A   1      33.653  28.589  27.228  1.00  0.00     0.013 C 
ATOM     24  C   UNL A   1      31.955  29.598  25.719  1.00  0.00     0.013 C 
ATOM     25  C   UNL A   1      31.428  27.478  26.897  1.00  0.00     0.013 C 
ENDBRANCH  20  22
ENDBRANCH  18  20
ENDBRANCH  15  16
ENDBRANCH   5   8
ENDBRANCH   3   4
ENDBRANCH   2   3
ENDBRANCH   1   2
BRANCH   1  26
ATOM     26  C   UNL A   1      37.212  21.016  24.639  1.00  0.00     0.002 C 
BRANCH  26  27
ATOM     27  C   UNL A   1      38.139  19.823  24.862  1.00  0.00     0.021 C 
BRANCH  27  28
ATOM     28  C   UNL A   1      39.091  19.969  26.038  1.00  0.00     0.116 C 
BRANCH  28  29
ATOM     29  N   UNL A   1      40.290  19.165  25.881  1.00  0.00    -0.352 N 
ATOM     30  C   UNL A   1      41.602  19.547  25.980  1.00  0.00     0.251 C 
ATOM     31  H   UNL A   1      40.140  18.215  25.674  1.00  0.00     0.163 HD
ATOM     32  O   UNL A   1      42.497  18.771  25.643  1.00  0.00    -0.269 OA
BRANCH  30  33
ATOM     33  C   UNL A   1      41.947  20.896  26.475  1.00  0.00     0.039 A 
ATOM     34  C   UNL A   1      41.990  21.116  27.853  1.00  0.00     0.014 A 
ATOM     35  C   UNL A   1      42.203  21.948  25.589  1.00  0.00     0.014 A 
ATOM     36  C   UNL A   1      42.314  22.383  28.342  1.00  0.00     0.010 A 
ATOM     37  C   UNL A   1      42.617  23.184  26.077  1.00  0.00     0.010 A 
ATOM     38  C   UNL A   1      42.645  23.423  27.458  1.00  0.00    -0.014 A 
BRANCH  38  39
ATOM     39  C   UNL A   1      42.961  24.780  27.967  1.00  0.00     0.031 A 
ATOM     40  C   UNL A   1      44.395  25.207  28.135  1.00  0.00     0.074 A 
ATOM     41  C   UNL A   1      41.963  25.624  28.292  1.00  0.00     0.049 A 
ATOM     42  N   UNL A   1      44.876  26.353  28.548  1.00  0.00    -0.248 NA
ATOM     43  C   UNL A   1      45.425  24.202  27.827  1.00  0.00     0.031 C 
ATOM     44  C   UNL A   1      40.535  25.315  28.214  1.00  0.00     0.029 A 
ATOM     45  N   UNL A   1      42.001  26.917  28.746  1.00  0.00    -0.354 N 
ATOM     46  C   UNL A   1      46.256  26.202  28.550  1.00  0.00     0.074 A 
ATOM     47  C   UNL A   1      46.534  24.834  28.176  1.00  0.00     0.031 C 
ATOM     48  C   UNL A   1      39.832  26.405  28.561  1.00  0.00     0.029 A 
ATOM     49  C   UNL A   1      40.758  27.475  28.916  1.00  0.00     0.049 A 
ATOM     50  H   UNL A   1      42.839  27.400  28.931  1.00  0.00     0.167 HD
ATOM     51  C   UNL A   1      47.212  27.128  28.806  1.00  0.00     0.037 A 
ATOM     52  C   UNL A   1      40.407  28.716  29.303  1.00  0.00     0.037 A 
ATOM     53  C   UNL A   1      46.934  28.492  29.169  1.00  0.00     0.049 A 
ATOM     54  C   UNL A   1      41.484  29.722  29.603  1.00  0.00     0.074 A 
ATOM     55  C   UNL A   1      47.825  29.520  29.419  1.00  0.00     0.029 A 
ATOM     56  N   UNL A   1      45.661  29.017  29.338  1.00  0.00    -0.354 N 
ATOM     57  N   UNL A   1      42.786  29.587  29.542  1.00  0.00    -0.248 NA
ATOM     58  C   UNL A   1      41.036  31.061  30.012  1.00  0.00     0.031 C 
ATOM     59  C   UNL A   1      47.093  30.655  29.786  1.00  0.00     0.029 A 
ATOM     60  C   UNL A   1      45.744  30.351  29.706  1.00  0.00     0.049 A 
ATOM     61  H   UNL A   1      44.822  28.518  29.215  1.00  0.00     0.167 HD
ATOM     62  C   UNL A   1      43.314  30.831  29.863  1.00  0.00     0.074 A 
ATOM     63  C   UNL A   1      42.189  31.709  30.112  1.00  0.00     0.031 C 
ATOM     64  C   UNL A   1      44.613  31.215  29.940  1.00  0.00     0.037 A 
BRANCH  51  65
ATOM     65  C   UNL A   1      48.644  26.679  28.702  1.00  0.00     0.057 A 
ATOM     66  C   UNL A   1      49.358  26.761  27.498  1.00  0.00     0.134 A 
ATOM     67  C   UNL A   1      49.314  26.151  29.811  1.00  0.00     0.134 A 
ATOM     68  F   UNL A   1      48.775  27.245  26.390  1.00  0.00    -0.206 F 
ATOM     69  C   UNL A   1      50.668  26.290  27.390  1.00  0.00     0.040 A 
ATOM     70  C   UNL A   1      50.635  25.708  29.724  1.00  0.00     0.040 A 
ATOM     71  F   UNL A   1      48.695  26.049  30.997  1.00  0.00    -0.206 F 
ATOM     72  C   UNL A   1      51.312  25.766  28.508  1.00  0.00     0.006 A 
ENDBRANCH  51  65
BRANCH  52  73
ATOM     73  C   UNL A   1      38.973  29.093  29.371  1.00  0.00     0.057 A 
ATOM     74  C   UNL A   1      38.261  28.992  30.572  1.00  0.00     0.134 A 
ATOM     75  C   UNL A   1      38.282  29.561  28.248  1.00  0.00     0.134 A 
ATOM     76  F   UNL A   1      38.863  28.534  31.678  1.00  0.00    -0.206 F 
ATOM     77  C   UNL A   1      36.908  29.327  30.650  1.00  0.00     0.040 A 
ATOM     78  C   UNL A   1      36.936  29.924  28.317  1.00  0.00     0.040 A 
ATOM     79  F   UNL A   1      38.910  29.689  27.070  1.00  0.00    -0.206 F 
ATOM     80  C   UNL A   1      36.243  29.801  29.520  1.00  0.00     0.006 A 
ENDBRANCH  52  73
BRANCH  64  81
ATOM     81  C   UNL A   1      44.884  32.659  30.252  1.00  0.00     0.057 A 
ATOM     82  C   UNL A   1      45.099  33.115  31.559  1.00  0.00     0.134 A 
ATOM     83  C   UNL A   1      44.952  33.604  29.219  1.00  0.00     0.134 A 
ATOM     84  F   UNL A   1      45.037  32.264  32.594  1.00  0.00    -0.206 F 
ATOM     85  C   UNL A   1      45.337  34.463  31.831  1.00  0.00     0.040 A 
ATOM     86  C   UNL A   1      45.220  34.949  29.476  1.00  0.00     0.040 A 
ATOM     87  F   UNL A   1      44.766  33.235  27.943  1.00  0.00    -0.206 F 
ATOM     88  C   UNL A   1      45.403  35.384  30.786  1.00  0.00     0.006 A 
ENDBRANCH  64  81
ENDBRANCH  38  39
ENDBRANCH  30  33
ENDBRANCH  28  29
ENDBRANCH  27  28
ENDBRANCH  26  27
ENDBRANCH   1  26
TORSDOF 16
ENDMDL
