MODEL 1
REMARK VINA RESULT:     -12.0      0.000      0.000
REMARK SMILES COc1ccc(C(=O)C2=C(NCCCCCCNC(=O)c3ccc(-c4c5nc(c(-c6c(F)cccc6F)c6ccc([nH]6)c(-c6c(F)cccc6F)c6nc(c(-c7c(F)cccc7F)c7ccc4[nH]7)C=C6)C=C5)cc3)C(=O)N(CC(=O)[O-])[C@H]2c2ccccc2)cc1
REMARK SMILES IDX 14 1 13 2 12 3 11 4 10 6 9 7 82 8 75 9 77 10 76 11 7 12 8 13
REMARK SMILES IDX 6 14 3 15 4 16 90 17 5 18 89 19 2 20 1 21 83 22 84 23 88 24
REMARK SMILES IDX 85 25 87 26 86 27 78 28 79 29 80 30 81 31 15 32 16 33 17 34
REMARK SMILES IDX 18 35 19 36 20 38 21 39 22 40 74 41 23 42 73 43 24 44 25 45
REMARK SMILES IDX 26 46 67 47 27 48 72 49 66 50 68 51 28 52 71 53 65 54 64 55
REMARK SMILES IDX 29 57 55 58 38 59 54 60 39 61 42 62 53 63 69 64 40 65 41 66
REMARK SMILES IDX 52 68 70 69 43 70 30 71 31 72 36 73 32 74 33 75 35 76 37 77
REMARK SMILES IDX 34 78 56 79 57 80 62 81 58 82 59 83 61 84 63 85 60 86 44 87
REMARK SMILES IDX 45 88 50 89 46 90 47 91 49 92 51 93 48 94
REMARK H PARENT 11 5 18 37 68 56 42 67
REMARK Flexibility Score: inf
ROOT
ATOM      1  C   UNL A   1      33.632  23.340  25.888  1.00  0.00     0.002 C 
ENDROOT
BRANCH   1   2
ATOM      2  C   UNL A   1      32.339  22.599  26.251  1.00  0.00     0.021 C 
BRANCH   2   3
ATOM      3  C   UNL A   1      31.248  23.481  26.857  1.00  0.00     0.113 C 
BRANCH   3   4
ATOM      4  N   UNL A   1      30.429  24.032  25.808  1.00  0.00    -0.380 N 
ATOM      5  H   UNL A   1      29.546  23.610  25.704  1.00  0.00     0.160 HD
BRANCH   4   6
ATOM      6  C   UNL A   1      30.691  25.051  24.932  1.00  0.00     0.110 C 
ATOM      7  C   UNL A   1      30.912  26.369  25.011  1.00  0.00     0.056 C 
ATOM      8  C   UNL A   1      31.226  27.025  23.697  1.00  0.00     0.153 C 
ATOM      9  C   UNL A   1      30.842  24.730  23.474  1.00  0.00     0.271 C 
ATOM     10  N   UNL A   1      31.201  25.880  22.819  1.00  0.00    -0.320 N 
ATOM     11  O   UNL A   1      30.674  23.622  22.988  1.00  0.00    -0.267 OA
BRANCH   7  12
ATOM     12  C   UNL A   1      31.073  27.087  26.286  1.00  0.00     0.193 C 
ATOM     13  O   UNL A   1      30.336  26.809  27.229  1.00  0.00    -0.289 OA
BRANCH  12  14
ATOM     14  C   UNL A   1      32.138  28.122  26.445  1.00  0.00     0.023 A 
ATOM     15  C   UNL A   1      34.039  30.121  27.039  1.00  0.00     0.118 A 
ATOM     16  C   UNL A   1      32.702  30.458  26.821  1.00  0.00     0.047 A 
ATOM     17  C   UNL A   1      34.436  28.797  26.877  1.00  0.00     0.047 A 
ATOM     18  C   UNL A   1      31.755  29.467  26.537  1.00  0.00     0.016 A 
ATOM     19  C   UNL A   1      33.496  27.813  26.545  1.00  0.00     0.016 A 
BRANCH  15  20
ATOM     20  O   UNL A   1      34.851  31.162  27.393  1.00  0.00    -0.497 OA
ATOM     21  C   UNL A   1      34.220  32.289  27.994  1.00  0.00     0.278 C 
ENDBRANCH  15  20
ENDBRANCH  12  14
ENDBRANCH   7  12
BRANCH   8  22
ATOM     22  C   UNL A   1      30.201  28.070  23.283  1.00  0.00    -0.021 A 
ATOM     23  C   UNL A   1      30.589  29.288  22.688  1.00  0.00     0.006 A 
ATOM     24  C   UNL A   1      28.831  27.808  23.434  1.00  0.00     0.006 A 
ATOM     25  C   UNL A   1      29.639  30.199  22.227  1.00  0.00     0.000 A 
ATOM     26  C   UNL A   1      27.881  28.729  22.984  1.00  0.00     0.000 A 
ATOM     27  C   UNL A   1      28.285  29.916  22.372  1.00  0.00     0.000 A 
ENDBRANCH   8  22
BRANCH  10  28
ATOM     28  C   UNL A   1      31.438  25.937  21.383  1.00  0.00     0.173 C 
BRANCH  28  29
ATOM     29  C   UNL A   1      32.880  25.692  20.966  1.00  0.00     0.061 C 
ATOM     30  O   UNL A   1      33.818  25.555  21.737  1.00  0.00    -0.548 OA
ATOM     31  O   UNL A   1      33.068  25.526  19.642  1.00  0.00    -0.548 OA
ENDBRANCH  28  29
ENDBRANCH  10  28
ENDBRANCH   4   6
ENDBRANCH   3   4
ENDBRANCH   2   3
ENDBRANCH   1   2
BRANCH   1  32
ATOM     32  C   UNL A   1      34.195  23.029  24.498  1.00  0.00     0.002 C 
BRANCH  32  33
ATOM     33  C   UNL A   1      35.317  21.990  24.466  1.00  0.00     0.021 C 
BRANCH  33  34
ATOM     34  C   UNL A   1      36.319  22.097  25.610  1.00  0.00     0.116 C 
BRANCH  34  35
ATOM     35  N   UNL A   1      37.266  20.994  25.622  1.00  0.00    -0.352 N 
ATOM     36  C   UNL A   1      38.616  21.011  25.864  1.00  0.00     0.251 C 
ATOM     37  H   UNL A   1      36.882  20.107  25.429  1.00  0.00     0.163 HD
ATOM     38  O   UNL A   1      39.295  20.008  25.660  1.00  0.00    -0.269 OA
BRANCH  36  39
ATOM     39  C   UNL A   1      39.261  22.248  26.352  1.00  0.00     0.039 A 
ATOM     40  C   UNL A   1      40.345  22.144  27.226  1.00  0.00     0.014 A 
ATOM     41  C   UNL A   1      38.801  23.506  25.950  1.00  0.00     0.014 A 
ATOM     42  C   UNL A   1      41.004  23.298  27.653  1.00  0.00     0.010 A 
ATOM     43  C   UNL A   1      39.505  24.650  26.315  1.00  0.00     0.010 A 
ATOM     44  C   UNL A   1      40.611  24.558  27.173  1.00  0.00    -0.014 A 
BRANCH  44  45
ATOM     45  C   UNL A   1      41.347  25.789  27.557  1.00  0.00     0.031 A 
ATOM     46  C   UNL A   1      40.667  26.860  28.365  1.00  0.00     0.074 A 
ATOM     47  C   UNL A   1      42.612  25.971  27.127  1.00  0.00     0.049 A 
ATOM     48  N   UNL A   1      41.123  28.027  28.744  1.00  0.00    -0.248 NA
ATOM     49  C   UNL A   1      39.281  26.593  28.783  1.00  0.00     0.031 C 
ATOM     50  C   UNL A   1      43.368  25.030  26.299  1.00  0.00     0.029 A 
ATOM     51  N   UNL A   1      43.480  27.017  27.317  1.00  0.00    -0.354 N 
ATOM     52  C   UNL A   1      40.081  28.636  29.430  1.00  0.00     0.074 A 
ATOM     53  C   UNL A   1      38.952  27.734  29.370  1.00  0.00     0.031 C 
ATOM     54  C   UNL A   1      44.593  25.529  26.074  1.00  0.00     0.029 A 
ATOM     55  C   UNL A   1      44.697  26.840  26.704  1.00  0.00     0.049 A 
ATOM     56  H   UNL A   1      43.254  27.816  27.845  1.00  0.00     0.167 HD
ATOM     57  C   UNL A   1      40.072  29.827  30.074  1.00  0.00     0.037 A 
ATOM     58  C   UNL A   1      45.772  27.649  26.646  1.00  0.00     0.037 A 
ATOM     59  C   UNL A   1      41.204  30.715  30.147  1.00  0.00     0.049 A 
ATOM     60  C   UNL A   1      45.731  28.976  27.354  1.00  0.00     0.074 A 
ATOM     61  C   UNL A   1      41.313  31.919  30.822  1.00  0.00     0.029 A 
ATOM     62  N   UNL A   1      42.421  30.497  29.521  1.00  0.00    -0.354 N 
ATOM     63  N   UNL A   1      44.762  29.509  28.058  1.00  0.00    -0.248 NA
ATOM     64  C   UNL A   1      46.937  29.812  27.265  1.00  0.00     0.031 C 
ATOM     65  C   UNL A   1      42.578  32.453  30.563  1.00  0.00     0.029 A 
ATOM     66  C   UNL A   1      43.279  31.556  29.773  1.00  0.00     0.049 A 
ATOM     67  H   UNL A   1      42.645  29.706  28.979  1.00  0.00     0.167 HD
ATOM     68  C   UNL A   1      45.250  30.724  28.520  1.00  0.00     0.074 A 
ATOM     69  C   UNL A   1      46.607  30.844  28.028  1.00  0.00     0.031 C 
ATOM     70  C   UNL A   1      44.631  31.657  29.284  1.00  0.00     0.037 A 
BRANCH  57  71
ATOM     71  C   UNL A   1      38.797  30.243  30.751  1.00  0.00     0.057 A 
ATOM     72  C   UNL A   1      37.820  30.997  30.088  1.00  0.00     0.134 A 
ATOM     73  C   UNL A   1      38.527  29.853  32.069  1.00  0.00     0.134 A 
ATOM     74  F   UNL A   1      38.020  31.412  28.828  1.00  0.00    -0.206 F 
ATOM     75  C   UNL A   1      36.632  31.371  30.720  1.00  0.00     0.040 A 
ATOM     76  C   UNL A   1      37.331  30.196  32.702  1.00  0.00     0.040 A 
ATOM     77  F   UNL A   1      39.416  29.125  32.761  1.00  0.00    -0.206 F 
ATOM     78  C   UNL A   1      36.381  30.963  32.029  1.00  0.00     0.006 A 
ENDBRANCH  57  71
BRANCH  58  79
ATOM     79  C   UNL A   1      46.987  27.224  25.906  1.00  0.00     0.057 A 
ATOM     80  C   UNL A   1      47.134  27.497  24.541  1.00  0.00     0.134 A 
ATOM     81  C   UNL A   1      48.022  26.524  26.537  1.00  0.00     0.134 A 
ATOM     82  F   UNL A   1      46.168  28.147  23.875  1.00  0.00    -0.206 F 
ATOM     83  C   UNL A   1      48.255  27.071  23.825  1.00  0.00     0.040 A 
ATOM     84  C   UNL A   1      49.161  26.118  25.841  1.00  0.00     0.040 A 
ATOM     85  F   UNL A   1      47.946  26.237  27.847  1.00  0.00    -0.206 F 
ATOM     86  C   UNL A   1      49.275  26.383  24.479  1.00  0.00     0.006 A 
ENDBRANCH  58  79
BRANCH  70  87
ATOM     87  C   UNL A   1      45.427  32.871  29.670  1.00  0.00     0.057 A 
ATOM     88  C   UNL A   1      46.316  32.861  30.752  1.00  0.00     0.134 A 
ATOM     89  C   UNL A   1      45.328  34.053  28.924  1.00  0.00     0.134 A 
ATOM     90  F   UNL A   1      46.448  31.766  31.515  1.00  0.00    -0.206 F 
ATOM     91  C   UNL A   1      47.062  33.991  31.092  1.00  0.00     0.040 A 
ATOM     92  C   UNL A   1      46.091  35.179  29.236  1.00  0.00     0.040 A 
ATOM     93  F   UNL A   1      44.502  34.127  27.870  1.00  0.00    -0.206 F 
ATOM     94  C   UNL A   1      46.955  35.152  30.328  1.00  0.00     0.006 A 
ENDBRANCH  70  87
ENDBRANCH  44  45
ENDBRANCH  36  39
ENDBRANCH  34  35
ENDBRANCH  33  34
ENDBRANCH  32  33
ENDBRANCH   1  32
TORSDOF 19
ENDMDL
MODEL 2
REMARK VINA RESULT:     -11.9      0.597      5.821
REMARK SMILES COc1ccc(C(=O)C2=C(NCCCCCCNC(=O)c3ccc(-c4c5nc(c(-c6c(F)cccc6F)c6ccc([nH]6)c(-c6c(F)cccc6F)c6nc(c(-c7c(F)cccc7F)c7ccc4[nH]7)C=C6)C=C5)cc3)C(=O)N(CC(=O)[O-])[C@H]2c2ccccc2)cc1
REMARK SMILES IDX 14 1 13 2 12 3 11 4 10 6 9 7 82 8 75 9 77 10 76 11 7 12 8 13
REMARK SMILES IDX 6 14 3 15 4 16 90 17 5 18 89 19 2 20 1 21 83 22 84 23 88 24
REMARK SMILES IDX 85 25 87 26 86 27 78 28 79 29 80 30 81 31 15 32 16 33 17 34
REMARK SMILES IDX 18 35 19 36 20 38 21 39 22 40 74 41 23 42 73 43 24 44 25 45
REMARK SMILES IDX 26 46 67 47 27 48 72 49 66 50 68 51 28 52 71 53 65 54 64 55
REMARK SMILES IDX 29 57 55 58 38 59 54 60 39 61 42 62 53 63 69 64 40 65 41 66
REMARK SMILES IDX 52 68 70 69 43 70 30 71 31 72 36 73 32 74 33 75 35 76 37 77
REMARK SMILES IDX 34 78 56 79 57 80 62 81 58 82 59 83 61 84 63 85 60 86 44 87
REMARK SMILES IDX 45 88 50 89 46 90 47 91 49 92 51 93 48 94
REMARK H PARENT 11 5 18 37 68 56 42 67
REMARK Flexibility Score: inf
ROOT
ATOM      1  C   UNL A   1      33.273  21.611  25.050  1.00  0.00     0.002 C 
ENDROOT
BRANCH   1   2
ATOM      2  C   UNL A   1      32.078  22.000  25.929  1.00  0.00     0.021 C 
BRANCH   2   3
ATOM      3  C   UNL A   1      32.168  23.398  26.543  1.00  0.00     0.113 C 
BRANCH   3   4
ATOM      4  N   UNL A   1      31.103  24.222  26.031  1.00  0.00    -0.380 N 
ATOM      5  H   UNL A   1      30.204  23.989  26.356  1.00  0.00     0.160 HD
BRANCH   4   6
ATOM      6  C   UNL A   1      31.149  25.279  25.162  1.00  0.00     0.110 C 
ATOM      7  C   UNL A   1      31.198  26.614  25.256  1.00  0.00     0.056 C 
ATOM      8  C   UNL A   1      31.306  27.324  23.938  1.00  0.00     0.153 C 
ATOM      9  C   UNL A   1      31.216  25.001  23.689  1.00  0.00     0.271 C 
ATOM     10  N   UNL A   1      31.359  26.198  23.036  1.00  0.00    -0.320 N 
ATOM     11  O   UNL A   1      31.157  23.888  23.192  1.00  0.00    -0.267 OA
BRANCH   7  12
ATOM     12  C   UNL A   1      31.369  27.330  26.531  1.00  0.00     0.193 C 
ATOM     13  O   UNL A   1      30.656  27.034  27.487  1.00  0.00    -0.289 OA
BRANCH  12  14
ATOM     14  C   UNL A   1      32.417  28.384  26.674  1.00  0.00     0.023 A 
ATOM     15  C   UNL A   1      34.304  30.403  27.245  1.00  0.00     0.118 A 
ATOM     16  C   UNL A   1      32.949  30.713  27.129  1.00  0.00     0.047 A 
ATOM     17  C   UNL A   1      34.721  29.099  26.993  1.00  0.00     0.047 A 
ATOM     18  C   UNL A   1      32.009  29.712  26.857  1.00  0.00     0.016 A 
ATOM     19  C   UNL A   1      33.786  28.107  26.672  1.00  0.00     0.016 A 
BRANCH  15  20
ATOM     20  O   UNL A   1      35.113  31.447  27.599  1.00  0.00    -0.497 OA
ATOM     21  C   UNL A   1      34.470  32.600  28.132  1.00  0.00     0.278 C 
ENDBRANCH  15  20
ENDBRANCH  12  14
ENDBRANCH   7  12
BRANCH   8  22
ATOM     22  C   UNL A   1      30.118  28.225  23.636  1.00  0.00    -0.021 A 
ATOM     23  C   UNL A   1      30.266  29.622  23.508  1.00  0.00     0.006 A 
ATOM     24  C   UNL A   1      28.850  27.667  23.420  1.00  0.00     0.006 A 
ATOM     25  C   UNL A   1      29.189  30.429  23.140  1.00  0.00     0.000 A 
ATOM     26  C   UNL A   1      27.769  28.479  23.066  1.00  0.00     0.000 A 
ATOM     27  C   UNL A   1      27.942  29.856  22.916  1.00  0.00     0.000 A 
ENDBRANCH   8  22
BRANCH  10  28
ATOM     28  C   UNL A   1      31.462  26.307  21.587  1.00  0.00     0.173 C 
BRANCH  28  29
ATOM     29  C   UNL A   1      32.804  25.884  21.011  1.00  0.00     0.061 C 
ATOM     30  O   UNL A   1      32.953  25.240  19.983  1.00  0.00    -0.548 OA
ATOM     31  O   UNL A   1      33.880  26.362  21.667  1.00  0.00    -0.548 OA
ENDBRANCH  28  29
ENDBRANCH  10  28
ENDBRANCH   4   6
ENDBRANCH   3   4
ENDBRANCH   2   3
ENDBRANCH   1   2
BRANCH   1  32
ATOM     32  C   UNL A   1      34.157  22.777  24.597  1.00  0.00     0.002 C 
BRANCH  32  33
ATOM     33  C   UNL A   1      35.650  22.459  24.488  1.00  0.00     0.021 C 
BRANCH  33  34
ATOM     34  C   UNL A   1      36.386  22.384  25.821  1.00  0.00     0.116 C 
BRANCH  34  35
ATOM     35  N   UNL A   1      37.385  21.328  25.843  1.00  0.00    -0.352 N 
ATOM     36  C   UNL A   1      38.737  21.417  26.058  1.00  0.00     0.251 C 
ATOM     37  H   UNL A   1      37.042  20.419  25.680  1.00  0.00     0.163 HD
ATOM     38  O   UNL A   1      39.460  20.443  25.867  1.00  0.00    -0.269 OA
BRANCH  36  39
ATOM     39  C   UNL A   1      39.330  22.697  26.500  1.00  0.00     0.039 A 
ATOM     40  C   UNL A   1      40.379  22.670  27.423  1.00  0.00     0.014 A 
ATOM     41  C   UNL A   1      38.856  23.917  26.010  1.00  0.00     0.014 A 
ATOM     42  C   UNL A   1      40.990  23.864  27.810  1.00  0.00     0.010 A 
ATOM     43  C   UNL A   1      39.515  25.099  26.338  1.00  0.00     0.010 A 
ATOM     44  C   UNL A   1      40.586  25.085  27.244  1.00  0.00    -0.014 A 
BRANCH  44  45
ATOM     45  C   UNL A   1      41.275  26.355  27.588  1.00  0.00     0.031 A 
ATOM     46  C   UNL A   1      42.704  26.579  27.178  1.00  0.00     0.074 A 
ATOM     47  C   UNL A   1      40.631  27.284  28.321  1.00  0.00     0.049 A 
ATOM     48  N   UNL A   1      43.491  27.592  27.437  1.00  0.00    -0.248 NA
ATOM     49  C   UNL A   1      43.342  25.510  26.392  1.00  0.00     0.031 C 
ATOM     50  C   UNL A   1      39.259  27.168  28.820  1.00  0.00     0.029 A 
ATOM     51  N   UNL A   1      41.050  28.506  28.786  1.00  0.00    -0.354 N 
ATOM     52  C   UNL A   1      44.715  27.278  26.860  1.00  0.00     0.074 A 
ATOM     53  C   UNL A   1      44.584  25.958  26.284  1.00  0.00     0.031 C 
ATOM     54  C   UNL A   1      38.942  28.282  29.498  1.00  0.00     0.029 A 
ATOM     55  C   UNL A   1      40.098  29.172  29.520  1.00  0.00     0.049 A 
ATOM     56  H   UNL A   1      41.947  28.871  28.609  1.00  0.00     0.167 HD
ATOM     57  C   UNL A   1      45.838  28.032  26.795  1.00  0.00     0.037 A 
ATOM     58  C   UNL A   1      40.154  30.361  30.148  1.00  0.00     0.037 A 
ATOM     59  C   UNL A   1      45.960  29.353  27.354  1.00  0.00     0.049 A 
ATOM     60  C   UNL A   1      41.420  31.172  30.076  1.00  0.00     0.074 A 
ATOM     61  C   UNL A   1      47.037  30.220  27.292  1.00  0.00     0.029 A 
ATOM     62  N   UNL A   1      44.970  29.998  28.081  1.00  0.00    -0.354 N 
ATOM     63  N   UNL A   1      42.547  30.893  29.467  1.00  0.00    -0.248 NA
ATOM     64  C   UNL A   1      41.419  32.466  30.773  1.00  0.00     0.031 C 
ATOM     65  C   UNL A   1      46.719  31.368  28.024  1.00  0.00     0.029 A 
ATOM     66  C   UNL A   1      45.422  31.241  28.495  1.00  0.00     0.049 A 
ATOM     67  H   UNL A   1      44.078  29.628  28.274  1.00  0.00     0.167 HD
ATOM     68  C   UNL A   1      43.376  31.987  29.681  1.00  0.00     0.074 A 
ATOM     69  C   UNL A   1      42.617  32.940  30.463  1.00  0.00     0.031 C 
ATOM     70  C   UNL A   1      44.652  32.183  29.266  1.00  0.00     0.037 A 
BRANCH  57  71
ATOM     71  C   UNL A   1      47.029  27.445  26.093  1.00  0.00     0.057 A 
ATOM     72  C   UNL A   1      47.227  27.601  24.714  1.00  0.00     0.134 A 
ATOM     73  C   UNL A   1      48.009  26.746  26.809  1.00  0.00     0.134 A 
ATOM     74  F   UNL A   1      46.321  28.250  23.967  1.00  0.00    -0.206 F 
ATOM     75  C   UNL A   1      48.342  27.061  24.070  1.00  0.00     0.040 A 
ATOM     76  C   UNL A   1      49.143  26.227  26.181  1.00  0.00     0.040 A 
ATOM     77  F   UNL A   1      47.888  26.564  28.133  1.00  0.00    -0.206 F 
ATOM     78  C   UNL A   1      49.308  26.379  24.805  1.00  0.00     0.006 A 
ENDBRANCH  57  71
BRANCH  58  79
ATOM     79  C   UNL A   1      38.971  30.870  30.888  1.00  0.00     0.057 A 
ATOM     80  C   UNL A   1      37.982  31.620  30.241  1.00  0.00     0.134 A 
ATOM     81  C   UNL A   1      38.806  30.632  32.258  1.00  0.00     0.134 A 
ATOM     82  F   UNL A   1      38.093  31.898  28.934  1.00  0.00    -0.206 F 
ATOM     83  C   UNL A   1      36.883  32.134  30.932  1.00  0.00     0.040 A 
ATOM     84  C   UNL A   1      37.698  31.115  32.956  1.00  0.00     0.040 A 
ATOM     85  F   UNL A   1      39.715  29.914  32.936  1.00  0.00    -0.206 F 
ATOM     86  C   UNL A   1      36.738  31.877  32.294  1.00  0.00     0.006 A 
ENDBRANCH  58  79
BRANCH  70  87
ATOM     87  C   UNL A   1      45.294  33.496  29.614  1.00  0.00     0.057 A 
ATOM     88  C   UNL A   1      46.052  33.665  30.780  1.00  0.00     0.134 A 
ATOM     89  C   UNL A   1      45.182  34.593  28.750  1.00  0.00     0.134 A 
ATOM     90  F   UNL A   1      46.188  32.659  31.656  1.00  0.00    -0.206 F 
ATOM     91  C   UNL A   1      46.656  34.886  31.085  1.00  0.00     0.040 A 
ATOM     92  C   UNL A   1      45.807  35.809  29.029  1.00  0.00     0.040 A 
ATOM     93  F   UNL A   1      44.479  34.496  27.612  1.00  0.00    -0.206 F 
ATOM     94  C   UNL A   1      46.540  35.960  30.203  1.00  0.00     0.006 A 
ENDBRANCH  70  87
ENDBRANCH  44  45
ENDBRANCH  36  39
ENDBRANCH  34  35
ENDBRANCH  33  34
ENDBRANCH  32  33
ENDBRANCH   1  32
TORSDOF 19
ENDMDL
MODEL 3
REMARK VINA RESULT:     -11.9      3.352      8.920
REMARK SMILES COc1ccc(C(=O)C2=C(NCCCCCCNC(=O)c3ccc(-c4c5nc(c(-c6c(F)cccc6F)c6ccc([nH]6)c(-c6c(F)cccc6F)c6nc(c(-c7c(F)cccc7F)c7ccc4[nH]7)C=C6)C=C5)cc3)C(=O)N(CC(=O)[O-])[C@H]2c2ccccc2)cc1
REMARK SMILES IDX 14 1 13 2 12 3 11 4 10 6 9 7 82 8 75 9 77 10 76 11 7 12 8 13
REMARK SMILES IDX 6 14 3 15 4 16 90 17 5 18 89 19 2 20 1 21 83 22 84 23 88 24
REMARK SMILES IDX 85 25 87 26 86 27 78 28 79 29 80 30 81 31 15 32 16 33 17 34
REMARK SMILES IDX 18 35 19 36 20 38 21 39 22 40 74 41 23 42 73 43 24 44 25 45
REMARK SMILES IDX 26 46 67 47 27 48 72 49 66 50 68 51 28 52 71 53 65 54 64 55
REMARK SMILES IDX 29 57 55 58 38 59 54 60 39 61 42 62 53 63 69 64 40 65 41 66
REMARK SMILES IDX 52 68 70 69 43 70 30 71 31 72 36 73 32 74 33 75 35 76 37 77
REMARK SMILES IDX 34 78 56 79 57 80 62 81 58 82 59 83 61 84 63 85 60 86 44 87
REMARK SMILES IDX 45 88 50 89 46 90 47 91 49 92 51 93 48 94
REMARK H PARENT 11 5 18 37 68 56 42 67
REMARK Flexibility Score: inf
ROOT
ATOM      1  C   UNL A   1      33.665  27.981  23.631  1.00  0.00     0.002 C 
ENDROOT
BRANCH   1   2
ATOM      2  C   UNL A   1      33.785  26.767  22.701  1.00  0.00     0.021 C 
BRANCH   2   3
ATOM      3  C   UNL A   1      32.460  26.282  22.113  1.00  0.00     0.113 C 
BRANCH   3   4
ATOM      4  N   UNL A   1      32.474  24.846  22.004  1.00  0.00    -0.380 N 
ATOM      5  H   UNL A   1      32.460  24.498  21.083  1.00  0.00     0.160 HD
BRANCH   4   6
ATOM      6  C   UNL A   1      32.502  23.890  22.983  1.00  0.00     0.110 C 
ATOM      7  C   UNL A   1      33.412  23.055  23.501  1.00  0.00     0.056 C 
ATOM      8  C   UNL A   1      32.911  22.230  24.652  1.00  0.00     0.153 C 
ATOM      9  C   UNL A   1      31.265  23.654  23.799  1.00  0.00     0.271 C 
ATOM     10  N   UNL A   1      31.565  22.737  24.773  1.00  0.00    -0.320 N 
ATOM     11  O   UNL A   1      30.193  24.205  23.605  1.00  0.00    -0.267 OA
BRANCH   7  12
ATOM     12  C   UNL A   1      34.840  23.092  23.147  1.00  0.00     0.193 C 
ATOM     13  O   UNL A   1      35.164  23.285  21.977  1.00  0.00    -0.289 OA
BRANCH  12  14
ATOM     14  C   UNL A   1      35.888  22.929  24.199  1.00  0.00     0.023 A 
ATOM     15  C   UNL A   1      38.078  22.634  25.952  1.00  0.00     0.118 A 
ATOM     16  C   UNL A   1      37.691  21.584  25.120  1.00  0.00     0.047 A 
ATOM     17  C   UNL A   1      37.317  23.799  25.965  1.00  0.00     0.047 A 
ATOM     18  C   UNL A   1      36.612  21.731  24.241  1.00  0.00     0.016 A 
ATOM     19  C   UNL A   1      36.207  23.928  25.121  1.00  0.00     0.016 A 
BRANCH  15  20
ATOM     20  O   UNL A   1      39.198  22.402  26.701  1.00  0.00    -0.497 OA
ATOM     21  C   UNL A   1      40.037  21.331  26.280  1.00  0.00     0.278 C 
ENDBRANCH  15  20
ENDBRANCH  12  14
ENDBRANCH   7  12
BRANCH   8  22
ATOM     22  C   UNL A   1      32.923  20.735  24.377  1.00  0.00    -0.021 A 
ATOM     23  C   UNL A   1      32.301  20.190  23.233  1.00  0.00     0.006 A 
ATOM     24  C   UNL A   1      33.612  19.867  25.237  1.00  0.00     0.006 A 
ATOM     25  C   UNL A   1      32.398  18.830  22.941  1.00  0.00     0.000 A 
ATOM     26  C   UNL A   1      33.694  18.502  24.950  1.00  0.00     0.000 A 
ATOM     27  C   UNL A   1      33.097  17.987  23.799  1.00  0.00     0.000 A 
ENDBRANCH   8  22
BRANCH  10  28
ATOM     28  C   UNL A   1      30.596  22.273  25.756  1.00  0.00     0.173 C 
BRANCH  28  29
ATOM     29  C   UNL A   1      30.407  23.196  26.949  1.00  0.00     0.061 C 
ATOM     30  O   UNL A   1      29.361  23.339  27.566  1.00  0.00    -0.548 OA
ATOM     31  O   UNL A   1      31.529  23.806  27.379  1.00  0.00    -0.548 OA
ENDBRANCH  28  29
ENDBRANCH  10  28
ENDBRANCH   4   6
ENDBRANCH   3   4
ENDBRANCH   2   3
ENDBRANCH   1   2
BRANCH   1  32
ATOM     32  C   UNL A   1      32.427  28.856  23.405  1.00  0.00     0.002 C 
BRANCH  32  33
ATOM     33  C   UNL A   1      31.650  29.224  24.671  1.00  0.00     0.021 C 
BRANCH  33  34
ATOM     34  C   UNL A   1      32.502  29.786  25.803  1.00  0.00     0.116 C 
BRANCH  34  35
ATOM     35  N   UNL A   1      32.124  31.145  26.158  1.00  0.00    -0.352 N 
ATOM     36  C   UNL A   1      32.704  31.999  27.061  1.00  0.00     0.251 C 
ATOM     37  H   UNL A   1      31.339  31.502  25.682  1.00  0.00     0.163 HD
ATOM     38  O   UNL A   1      32.148  33.051  27.365  1.00  0.00    -0.269 OA
BRANCH  36  39
ATOM     39  C   UNL A   1      33.994  31.642  27.690  1.00  0.00     0.039 A 
ATOM     40  C   UNL A   1      34.918  32.656  27.954  1.00  0.00     0.014 A 
ATOM     41  C   UNL A   1      34.292  30.316  28.016  1.00  0.00     0.014 A 
ATOM     42  C   UNL A   1      36.117  32.348  28.598  1.00  0.00     0.010 A 
ATOM     43  C   UNL A   1      35.454  30.023  28.726  1.00  0.00     0.010 A 
ATOM     44  C   UNL A   1      36.379  31.034  29.020  1.00  0.00    -0.014 A 
BRANCH  44  45
ATOM     45  C   UNL A   1      37.616  30.703  29.773  1.00  0.00     0.031 A 
ATOM     46  C   UNL A   1      38.679  29.844  29.146  1.00  0.00     0.074 A 
ATOM     47  C   UNL A   1      37.755  31.125  31.045  1.00  0.00     0.049 A 
ATOM     48  N   UNL A   1      39.795  29.397  29.664  1.00  0.00    -0.248 NA
ATOM     49  C   UNL A   1      38.445  29.409  27.759  1.00  0.00     0.031 C 
ATOM     50  C   UNL A   1      36.776  31.926  31.783  1.00  0.00     0.029 A 
ATOM     51  N   UNL A   1      38.771  30.931  31.947  1.00  0.00    -0.354 N 
ATOM     52  C   UNL A   1      40.387  28.622  28.676  1.00  0.00     0.074 A 
ATOM     53  C   UNL A   1      39.484  28.614  27.547  1.00  0.00     0.031 C 
ATOM     54  C   UNL A   1      37.250  32.174  33.014  1.00  0.00     0.029 A 
ATOM     55  C   UNL A   1      38.543  31.518  33.169  1.00  0.00     0.049 A 
ATOM     56  H   UNL A   1      39.587  30.421  31.739  1.00  0.00     0.167 HD
ATOM     57  C   UNL A   1      41.587  27.994  28.698  1.00  0.00     0.037 A 
ATOM     58  C   UNL A   1      39.288  31.518  34.290  1.00  0.00     0.037 A 
ATOM     59  C   UNL A   1      42.493  28.019  29.817  1.00  0.00     0.049 A 
ATOM     60  C   UNL A   1      40.609  30.798  34.295  1.00  0.00     0.074 A 
ATOM     61  C   UNL A   1      43.756  27.461  29.916  1.00  0.00     0.029 A 
ATOM     62  N   UNL A   1      42.231  28.633  31.032  1.00  0.00    -0.354 N 
ATOM     63  N   UNL A   1      41.189  30.127  33.329  1.00  0.00    -0.248 NA
ATOM     64  C   UNL A   1      41.383  30.841  35.544  1.00  0.00     0.031 C 
ATOM     65  C   UNL A   1      44.237  27.693  31.208  1.00  0.00     0.029 A 
ATOM     66  C   UNL A   1      43.298  28.445  31.897  1.00  0.00     0.049 A 
ATOM     67  H   UNL A   1      41.409  29.129  31.249  1.00  0.00     0.167 HD
ATOM     68  C   UNL A   1      42.405  29.695  33.842  1.00  0.00     0.074 A 
ATOM     69  C   UNL A   1      42.486  30.192  35.200  1.00  0.00     0.031 C 
ATOM     70  C   UNL A   1      43.369  28.953  33.243  1.00  0.00     0.037 A 
BRANCH  57  71
ATOM     71  C   UNL A   1      41.991  27.224  27.473  1.00  0.00     0.057 A 
ATOM     72  C   UNL A   1      41.673  25.869  27.313  1.00  0.00     0.134 A 
ATOM     73  C   UNL A   1      42.674  27.854  26.424  1.00  0.00     0.134 A 
ATOM     74  F   UNL A   1      41.031  25.202  28.284  1.00  0.00    -0.206 F 
ATOM     75  C   UNL A   1      42.043  25.161  26.167  1.00  0.00     0.040 A 
ATOM     76  C   UNL A   1      43.023  27.165  25.261  1.00  0.00     0.040 A 
ATOM     77  F   UNL A   1      43.004  29.151  26.507  1.00  0.00    -0.206 F 
ATOM     78  C   UNL A   1      42.713  25.812  25.133  1.00  0.00     0.006 A 
ENDBRANCH  57  71
BRANCH  58  79
ATOM     79  C   UNL A   1      38.814  32.237  35.500  1.00  0.00     0.057 A 
ATOM     80  C   UNL A   1      38.996  33.619  35.637  1.00  0.00     0.134 A 
ATOM     81  C   UNL A   1      38.182  31.564  36.552  1.00  0.00     0.134 A 
ATOM     82  F   UNL A   1      39.612  34.317  34.672  1.00  0.00    -0.206 F 
ATOM     83  C   UNL A   1      38.586  34.301  36.784  1.00  0.00     0.040 A 
ATOM     84  C   UNL A   1      37.742  32.237  37.692  1.00  0.00     0.040 A 
ATOM     85  F   UNL A   1      37.970  30.240  36.479  1.00  0.00    -0.206 F 
ATOM     86  C   UNL A   1      37.953  33.609  37.815  1.00  0.00     0.006 A 
ENDBRANCH  58  79
BRANCH  70  87
ATOM     87  C   UNL A   1      44.612  28.669  34.035  1.00  0.00     0.057 A 
ATOM     88  C   UNL A   1      45.708  29.542  34.035  1.00  0.00     0.134 A 
ATOM     89  C   UNL A   1      44.698  27.525  34.838  1.00  0.00     0.134 A 
ATOM     90  F   UNL A   1      45.696  30.650  33.278  1.00  0.00    -0.206 F 
ATOM     91  C   UNL A   1      46.853  29.275  34.787  1.00  0.00     0.040 A 
ATOM     92  C   UNL A   1      45.825  27.262  35.618  1.00  0.00     0.040 A 
ATOM     93  F   UNL A   1      43.681  26.652  34.891  1.00  0.00    -0.206 F 
ATOM     94  C   UNL A   1      46.910  28.135  35.587  1.00  0.00     0.006 A 
ENDBRANCH  70  87
ENDBRANCH  44  45
ENDBRANCH  36  39
ENDBRANCH  34  35
ENDBRANCH  33  34
ENDBRANCH  32  33
ENDBRANCH   1  32
TORSDOF 19
ENDMDL
