MODEL 1
REMARK VINA RESULT:     -12.9      0.000      0.000
REMARK SMILES O=C(NCCCCCCNC(=O)c1cc(-c2ccccn2)nc2ccc(F)cc12)c1ccc(-c2c3nc(c(-c4c(F)cccc4F)c4ccc([nH]4)c(-c4c(F)cccc4F)c4nc(c(-c5c(F)cccc5F)c5ccc2[nH]5)C=C4)C=C3)cc1
REMARK SMILES IDX 6 1 5 2 4 3 3 4 1 5 2 6 30 8 31 9 83 10 32 11 82 12 33 13
REMARK SMILES IDX 34 14 35 15 76 16 36 17 81 18 75 19 77 20 37 21 80 22 74 23
REMARK SMILES IDX 73 24 38 26 64 27 47 28 63 29 48 30 51 31 62 32 78 33 49 34
REMARK SMILES IDX 50 35 61 37 79 38 52 39 39 40 40 41 45 42 41 43 42 44 44 45
REMARK SMILES IDX 46 46 43 47 65 48 66 49 71 50 67 51 68 52 70 53 72 54 69 55
REMARK SMILES IDX 53 56 54 57 59 58 55 59 56 60 58 61 60 62 57 63 7 64 8 65
REMARK SMILES IDX 9 66 10 67 11 68 12 70 13 71 14 72 29 73 15 74 23 75 28 76
REMARK SMILES IDX 22 77 24 78 26 79 25 80 27 81 16 82 17 83 21 84 18 85 20 86
REMARK SMILES IDX 19 87
REMARK H PARENT 3 7 77 25 51 36 10 69
REMARK Flexibility Score: inf
ROOT
ATOM      1  C   UNL A   1      31.417  30.880  25.994  1.00  0.00     0.002 C 
ENDROOT
BRANCH   1   2
ATOM      2  C   UNL A   1      31.318  32.320  26.501  1.00  0.00     0.021 C 
BRANCH   2   3
ATOM      3  C   UNL A   1      32.540  32.841  27.249  1.00  0.00     0.116 C 
BRANCH   3   4
ATOM      4  N   UNL A   1      32.370  34.201  27.721  1.00  0.00    -0.352 N 
ATOM      5  O   UNL A   1      32.620  35.991  29.054  1.00  0.00    -0.269 OA
ATOM      6  C   UNL A   1      33.020  34.878  28.721  1.00  0.00     0.251 C 
ATOM      7  H   UNL A   1      31.680  34.721  27.250  1.00  0.00     0.163 HD
BRANCH   6   8
ATOM      8  C   UNL A   1      34.189  34.288  29.416  1.00  0.00     0.039 A 
ATOM      9  C   UNL A   1      35.464  34.535  28.893  1.00  0.00     0.014 A 
ATOM     10  C   UNL A   1      34.048  33.438  30.517  1.00  0.00     0.014 A 
ATOM     11  C   UNL A   1      36.585  33.939  29.472  1.00  0.00     0.010 A 
ATOM     12  C   UNL A   1      35.175  32.908  31.145  1.00  0.00     0.010 A 
ATOM     13  C   UNL A   1      36.450  33.119  30.603  1.00  0.00    -0.014 A 
BRANCH  13  14
ATOM     14  C   UNL A   1      37.622  32.387  31.150  1.00  0.00     0.031 A 
ATOM     15  C   UNL A   1      38.118  32.707  32.536  1.00  0.00     0.074 A 
ATOM     16  C   UNL A   1      38.236  31.439  30.419  1.00  0.00     0.049 A 
ATOM     17  N   UNL A   1      39.122  32.192  33.200  1.00  0.00    -0.248 NA
ATOM     18  C   UNL A   1      37.404  33.769  33.266  1.00  0.00     0.031 C 
ATOM     19  C   UNL A   1      37.881  31.057  29.052  1.00  0.00     0.029 A 
ATOM     20  N   UNL A   1      39.290  30.617  30.732  1.00  0.00    -0.354 N 
ATOM     21  C   UNL A   1      39.161  32.868  34.413  1.00  0.00     0.074 A 
ATOM     22  C   UNL A   1      38.127  33.878  34.367  1.00  0.00     0.031 C 
ATOM     23  C   UNL A   1      38.685  30.055  28.655  1.00  0.00     0.029 A 
ATOM     24  C   UNL A   1      39.621  29.739  29.730  1.00  0.00     0.049 A 
ATOM     25  H   UNL A   1      39.765  30.654  31.594  1.00  0.00     0.167 HD
ATOM     26  C   UNL A   1      39.957  32.649  35.487  1.00  0.00     0.037 A 
ATOM     27  C   UNL A   1      40.564  28.781  29.691  1.00  0.00     0.037 A 
ATOM     28  C   UNL A   1      40.971  31.630  35.550  1.00  0.00     0.049 A 
ATOM     29  C   UNL A   1      41.427  28.545  30.901  1.00  0.00     0.074 A 
ATOM     30  C   UNL A   1      41.825  31.320  36.594  1.00  0.00     0.029 A 
ATOM     31  N   UNL A   1      41.255  30.745  34.522  1.00  0.00    -0.354 N 
ATOM     32  N   UNL A   1      41.428  29.172  32.052  1.00  0.00    -0.248 NA
ATOM     33  C   UNL A   1      42.409  27.455  30.808  1.00  0.00     0.031 C 
ATOM     34  C   UNL A   1      42.639  30.255  36.190  1.00  0.00     0.029 A 
ATOM     35  C   UNL A   1      42.269  29.884  34.907  1.00  0.00     0.049 A 
ATOM     36  H   UNL A   1      40.803  30.730  33.647  1.00  0.00     0.167 HD
ATOM     37  C   UNL A   1      42.392  28.538  32.828  1.00  0.00     0.074 A 
ATOM     38  C   UNL A   1      42.937  27.465  32.023  1.00  0.00     0.031 C 
ATOM     39  C   UNL A   1      42.794  28.820  34.092  1.00  0.00     0.037 A 
BRANCH  26  40
ATOM     40  C   UNL A   1      39.737  33.527  36.685  1.00  0.00     0.057 A 
ATOM     41  C   UNL A   1      40.421  34.740  36.826  1.00  0.00     0.134 A 
ATOM     42  C   UNL A   1      38.831  33.172  37.694  1.00  0.00     0.134 A 
ATOM     43  F   UNL A   1      41.303  35.137  35.899  1.00  0.00    -0.206 F 
ATOM     44  C   UNL A   1      40.204  35.573  37.926  1.00  0.00     0.040 A 
ATOM     45  C   UNL A   1      38.587  34.010  38.783  1.00  0.00     0.040 A 
ATOM     46  F   UNL A   1      38.129  32.032  37.607  1.00  0.00    -0.206 F 
ATOM     47  C   UNL A   1      39.278  35.213  38.903  1.00  0.00     0.006 A 
ENDBRANCH  26  40
BRANCH  27  48
ATOM     48  C   UNL A   1      40.728  27.939  28.479  1.00  0.00     0.057 A 
ATOM     49  C   UNL A   1      40.059  26.719  28.344  1.00  0.00     0.134 A 
ATOM     50  C   UNL A   1      41.532  28.360  27.413  1.00  0.00     0.134 A 
ATOM     51  F   UNL A   1      39.278  26.260  29.333  1.00  0.00    -0.206 F 
ATOM     52  C   UNL A   1      40.178  25.947  27.186  1.00  0.00     0.040 A 
ATOM     53  C   UNL A   1      41.642  27.608  26.241  1.00  0.00     0.040 A 
ATOM     54  F   UNL A   1      42.181  29.531  27.478  1.00  0.00    -0.206 F 
ATOM     55  C   UNL A   1      40.964  26.397  26.127  1.00  0.00     0.006 A 
ENDBRANCH  27  48
BRANCH  39  56
ATOM     56  C   UNL A   1      43.850  27.932  34.678  1.00  0.00     0.057 A 
ATOM     57  C   UNL A   1      45.203  28.282  34.592  1.00  0.00     0.134 A 
ATOM     58  C   UNL A   1      43.529  26.734  35.328  1.00  0.00     0.134 A 
ATOM     59  F   UNL A   1      45.577  29.414  33.976  1.00  0.00    -0.206 F 
ATOM     60  C   UNL A   1      46.200  27.474  35.140  1.00  0.00     0.040 A 
ATOM     61  C   UNL A   1      44.515  25.931  35.902  1.00  0.00     0.040 A 
ATOM     62  F   UNL A   1      42.249  26.352  35.457  1.00  0.00    -0.206 F 
ATOM     63  C   UNL A   1      45.856  26.300  35.806  1.00  0.00     0.006 A 
ENDBRANCH  39  56
ENDBRANCH  13  14
ENDBRANCH   6   8
ENDBRANCH   3   4
ENDBRANCH   2   3
ENDBRANCH   1   2
BRANCH   1  64
ATOM     64  C   UNL A   1      32.663  30.101  26.420  1.00  0.00     0.002 C 
BRANCH  64  65
ATOM     65  C   UNL A   1      32.429  28.911  27.355  1.00  0.00     0.021 C 
BRANCH  65  66
ATOM     66  C   UNL A   1      32.677  27.534  26.749  1.00  0.00     0.116 C 
BRANCH  66  67
ATOM     67  N   UNL A   1      31.529  26.649  26.873  1.00  0.00    -0.352 N 
ATOM     68  C   UNL A   1      30.588  26.315  25.934  1.00  0.00     0.252 C 
ATOM     69  H   UNL A   1      31.412  26.232  27.757  1.00  0.00     0.163 HD
ATOM     70  O   UNL A   1      29.647  25.579  26.231  1.00  0.00    -0.269 OA
BRANCH  68  71
ATOM     71  C   UNL A   1      30.720  26.823  24.556  1.00  0.00     0.051 A 
ATOM     72  C   UNL A   1      30.102  28.037  24.261  1.00  0.00     0.045 A 
ATOM     73  C   UNL A   1      31.443  26.119  23.571  1.00  0.00     0.016 A 
ATOM     74  C   UNL A   1      30.137  28.497  22.958  1.00  0.00     0.090 A 
ATOM     75  C   UNL A   1      31.453  26.692  22.282  1.00  0.00     0.072 A 
ATOM     76  C   UNL A   1      32.128  24.899  23.791  1.00  0.00     0.050 A 
ATOM     77  N   UNL A   1      30.811  27.835  21.985  1.00  0.00    -0.246 NA
ATOM     78  C   UNL A   1      32.150  26.042  21.269  1.00  0.00     0.032 A 
ATOM     79  C   UNL A   1      32.815  24.281  22.755  1.00  0.00     0.123 A 
ATOM     80  C   UNL A   1      32.834  24.844  21.491  1.00  0.00     0.041 A 
ATOM     81  F   UNL A   1      33.464  23.133  22.980  1.00  0.00    -0.207 F 
BRANCH  74  82
ATOM     82  C   UNL A   1      29.382  29.701  22.573  1.00  0.00     0.089 A 
ATOM     83  C   UNL A   1      28.883  30.589  23.528  1.00  0.00     0.030 A 
ATOM     84  N   UNL A   1      29.093  29.834  21.251  1.00  0.00    -0.255 NA
ATOM     85  C   UNL A   1      28.067  31.640  23.119  1.00  0.00     0.004 A 
ATOM     86  C   UNL A   1      28.312  30.872  20.881  1.00  0.00     0.112 A 
ATOM     87  C   UNL A   1      27.773  31.785  21.770  1.00  0.00     0.020 A 
ENDBRANCH  74  82
ENDBRANCH  68  71
ENDBRANCH  66  67
ENDBRANCH  65  66
ENDBRANCH  64  65
ENDBRANCH   1  64
TORSDOF 14
ENDMDL
MODEL 2
REMARK VINA RESULT:     -12.8      5.256     10.136
REMARK SMILES O=C(NCCCCCCNC(=O)c1cc(-c2ccccn2)nc2ccc(F)cc12)c1ccc(-c2c3nc(c(-c4c(F)cccc4F)c4ccc([nH]4)c(-c4c(F)cccc4F)c4nc(c(-c5c(F)cccc5F)c5ccc2[nH]5)C=C4)C=C3)cc1
REMARK SMILES IDX 6 1 5 2 4 3 3 4 1 5 2 6 30 8 31 9 83 10 32 11 82 12 33 13
REMARK SMILES IDX 34 14 35 15 76 16 36 17 81 18 75 19 77 20 37 21 80 22 74 23
REMARK SMILES IDX 73 24 38 26 64 27 47 28 63 29 48 30 51 31 62 32 78 33 49 34
REMARK SMILES IDX 50 35 61 37 79 38 52 39 39 40 40 41 45 42 41 43 42 44 44 45
REMARK SMILES IDX 46 46 43 47 65 48 66 49 71 50 67 51 68 52 70 53 72 54 69 55
REMARK SMILES IDX 53 56 54 57 59 58 55 59 56 60 58 61 60 62 57 63 7 64 8 65
REMARK SMILES IDX 9 66 10 67 11 68 12 70 13 71 14 72 29 73 15 74 23 75 28 76
REMARK SMILES IDX 22 77 24 78 26 79 25 80 27 81 16 82 17 83 21 84 18 85 20 86
REMARK SMILES IDX 19 87
REMARK H PARENT 3 7 77 25 51 36 10 69
REMARK Flexibility Score: inf
ROOT
ATOM      1  C   UNL A   1      36.598  20.561  24.961  1.00  0.00     0.002 C 
ENDROOT
BRANCH   1   2
ATOM      2  C   UNL A   1      37.864  19.703  24.927  1.00  0.00     0.021 C 
BRANCH   2   3
ATOM      3  C   UNL A   1      38.990  20.153  25.850  1.00  0.00     0.116 C 
BRANCH   3   4
ATOM      4  N   UNL A   1      40.145  19.278  25.794  1.00  0.00    -0.352 N 
ATOM      5  O   UNL A   1      42.310  18.682  25.783  1.00  0.00    -0.269 OA
ATOM      6  C   UNL A   1      41.470  19.545  26.026  1.00  0.00     0.251 C 
ATOM      7  H   UNL A   1      39.947  18.345  25.550  1.00  0.00     0.163 HD
BRANCH   6   8
ATOM      8  C   UNL A   1      41.909  20.859  26.554  1.00  0.00     0.039 A 
ATOM      9  C   UNL A   1      41.874  21.061  27.938  1.00  0.00     0.014 A 
ATOM     10  C   UNL A   1      42.276  21.913  25.711  1.00  0.00     0.014 A 
ATOM     11  C   UNL A   1      42.208  22.307  28.472  1.00  0.00     0.010 A 
ATOM     12  C   UNL A   1      42.687  23.131  26.250  1.00  0.00     0.010 A 
ATOM     13  C   UNL A   1      42.617  23.354  27.632  1.00  0.00    -0.014 A 
BRANCH  13  14
ATOM     14  C   UNL A   1      42.858  24.714  28.181  1.00  0.00     0.031 A 
ATOM     15  C   UNL A   1      44.263  25.145  28.509  1.00  0.00     0.074 A 
ATOM     16  C   UNL A   1      41.831  25.561  28.380  1.00  0.00     0.049 A 
ATOM     17  N   UNL A   1      44.691  26.282  28.998  1.00  0.00    -0.248 NA
ATOM     18  C   UNL A   1      45.329  24.156  28.280  1.00  0.00     0.031 C 
ATOM     19  C   UNL A   1      40.420  25.257  28.138  1.00  0.00     0.029 A 
ATOM     20  N   UNL A   1      41.821  26.858  28.826  1.00  0.00    -0.354 N 
ATOM     21  C   UNL A   1      46.066  26.139  29.139  1.00  0.00     0.074 A 
ATOM     22  C   UNL A   1      46.393  24.785  28.752  1.00  0.00     0.031 C 
ATOM     23  C   UNL A   1      39.684  26.348  28.413  1.00  0.00     0.029 A 
ATOM     24  C   UNL A   1      40.568  27.418  28.866  1.00  0.00     0.049 A 
ATOM     25  H   UNL A   1      42.636  27.342  29.094  1.00  0.00     0.167 HD
ATOM     26  C   UNL A   1      46.984  27.059  29.519  1.00  0.00     0.037 A 
ATOM     27  C   UNL A   1      40.182  28.658  29.216  1.00  0.00     0.037 A 
ATOM     28  C   UNL A   1      46.671  28.416  29.882  1.00  0.00     0.049 A 
ATOM     29  C   UNL A   1      41.221  29.668  29.620  1.00  0.00     0.074 A 
ATOM     30  C   UNL A   1      47.528  29.429  30.272  1.00  0.00     0.029 A 
ATOM     31  N   UNL A   1      45.392  28.949  29.882  1.00  0.00    -0.354 N 
ATOM     32  N   UNL A   1      42.521  29.527  29.716  1.00  0.00    -0.248 NA
ATOM     33  C   UNL A   1      40.737  31.017  29.950  1.00  0.00     0.031 C 
ATOM     34  C   UNL A   1      46.764  30.574  30.527  1.00  0.00     0.029 A 
ATOM     35  C   UNL A   1      45.435  30.280  30.264  1.00  0.00     0.049 A 
ATOM     36  H   UNL A   1      44.573  28.456  29.647  1.00  0.00     0.167 HD
ATOM     37  C   UNL A   1      43.011  30.771  30.093  1.00  0.00     0.074 A 
ATOM     38  C   UNL A   1      41.871  31.659  30.185  1.00  0.00     0.031 C 
ATOM     39  C   UNL A   1      44.289  31.147  30.344  1.00  0.00     0.037 A 
BRANCH  26  40
ATOM     40  C   UNL A   1      48.419  26.617  29.539  1.00  0.00     0.057 A 
ATOM     41  C   UNL A   1      49.256  26.833  28.437  1.00  0.00     0.134 A 
ATOM     42  C   UNL A   1      48.975  25.988  30.661  1.00  0.00     0.134 A 
ATOM     43  F   UNL A   1      48.787  27.428  27.331  1.00  0.00    -0.206 F 
ATOM     44  C   UNL A   1      50.597  26.446  28.456  1.00  0.00     0.040 A 
ATOM     45  C   UNL A   1      50.321  25.621  30.701  1.00  0.00     0.040 A 
ATOM     46  F   UNL A   1      48.231  25.770  31.756  1.00  0.00    -0.206 F 
ATOM     47  C   UNL A   1      51.135  25.847  29.594  1.00  0.00     0.006 A 
ENDBRANCH  26  40
BRANCH  27  48
ATOM     48  C   UNL A   1      38.748  29.038  29.167  1.00  0.00     0.057 A 
ATOM     49  C   UNL A   1      37.930  28.943  30.298  1.00  0.00     0.134 A 
ATOM     50  C   UNL A   1      38.174  29.539  27.993  1.00  0.00     0.134 A 
ATOM     51  F   UNL A   1      38.420  28.465  31.451  1.00  0.00    -0.206 F 
ATOM     52  C   UNL A   1      36.592  29.340  30.265  1.00  0.00     0.040 A 
ATOM     53  C   UNL A   1      36.844  29.961  27.952  1.00  0.00     0.040 A 
ATOM     54  F   UNL A   1      38.915  29.672  26.883  1.00  0.00    -0.206 F 
ATOM     55  C   UNL A   1      36.049  29.860  29.091  1.00  0.00     0.006 A 
ENDBRANCH  27  48
BRANCH  39  56
ATOM     56  C   UNL A   1      44.511  32.584  30.711  1.00  0.00     0.057 A 
ATOM     57  C   UNL A   1      44.484  32.989  32.052  1.00  0.00     0.134 A 
ATOM     58  C   UNL A   1      44.753  33.564  29.741  1.00  0.00     0.134 A 
ATOM     59  F   UNL A   1      44.250  32.099  33.028  1.00  0.00    -0.206 F 
ATOM     60  C   UNL A   1      44.698  34.319  32.414  1.00  0.00     0.040 A 
ATOM     61  C   UNL A   1      44.994  34.893  30.093  1.00  0.00     0.040 A 
ATOM     62  F   UNL A   1      44.808  33.236  28.441  1.00  0.00    -0.206 F 
ATOM     63  C   UNL A   1      44.963  35.274  31.435  1.00  0.00     0.006 A 
ENDBRANCH  39  56
ENDBRANCH  13  14
ENDBRANCH   6   8
ENDBRANCH   3   4
ENDBRANCH   2   3
ENDBRANCH   1   2
BRANCH   1  64
ATOM     64  C   UNL A   1      36.745  21.952  25.581  1.00  0.00     0.002 C 
BRANCH  64  65
ATOM     65  C   UNL A   1      36.808  23.125  24.598  1.00  0.00     0.021 C 
BRANCH  65  66
ATOM     66  C   UNL A   1      35.590  24.044  24.587  1.00  0.00     0.116 C 
BRANCH  66  67
ATOM     67  N   UNL A   1      34.916  24.067  23.299  1.00  0.00    -0.352 N 
ATOM     68  C   UNL A   1      33.805  23.374  22.890  1.00  0.00     0.252 C 
ATOM     69  H   UNL A   1      35.312  24.665  22.625  1.00  0.00     0.163 HD
ATOM     70  O   UNL A   1      33.395  23.482  21.735  1.00  0.00    -0.269 OA
BRANCH  68  71
ATOM     71  C   UNL A   1      33.088  22.514  23.850  1.00  0.00     0.051 A 
ATOM     72  C   UNL A   1      33.434  21.165  23.879  1.00  0.00     0.045 A 
ATOM     73  C   UNL A   1      32.094  23.027  24.709  1.00  0.00     0.016 A 
ATOM     74  C   UNL A   1      32.722  20.318  24.708  1.00  0.00     0.090 A 
ATOM     75  C   UNL A   1      31.454  22.089  25.545  1.00  0.00     0.072 A 
ATOM     76  C   UNL A   1      31.705  24.388  24.769  1.00  0.00     0.050 A 
ATOM     77  N   UNL A   1      31.750  20.778  25.535  1.00  0.00    -0.246 NA
ATOM     78  C   UNL A   1      30.465  22.537  26.415  1.00  0.00     0.032 A 
ATOM     79  C   UNL A   1      30.714  24.796  25.652  1.00  0.00     0.123 A 
ATOM     80  C   UNL A   1      30.090  23.881  26.480  1.00  0.00     0.041 A 
ATOM     81  F   UNL A   1      30.362  26.086  25.703  1.00  0.00    -0.207 F 
BRANCH  74  82
ATOM     82  C   UNL A   1      32.959  18.865  24.669  1.00  0.00     0.089 A 
ATOM     83  C   UNL A   1      33.595  18.256  23.585  1.00  0.00     0.030 A 
ATOM     84  N   UNL A   1      32.420  18.139  25.684  1.00  0.00    -0.255 NA
ATOM     85  C   UNL A   1      33.679  16.866  23.539  1.00  0.00     0.004 A 
ATOM     86  C   UNL A   1      32.530  16.795  25.622  1.00  0.00     0.112 A 
ATOM     87  C   UNL A   1      33.136  16.119  24.576  1.00  0.00     0.020 A 
ENDBRANCH  74  82
ENDBRANCH  68  71
ENDBRANCH  66  67
ENDBRANCH  65  66
ENDBRANCH  64  65
ENDBRANCH   1  64
TORSDOF 14
ENDMDL
MODEL 3
REMARK VINA RESULT:     -12.7      0.654      6.183
REMARK SMILES O=C(NCCCCCCNC(=O)c1cc(-c2ccccn2)nc2ccc(F)cc12)c1ccc(-c2c3nc(c(-c4c(F)cccc4F)c4ccc([nH]4)c(-c4c(F)cccc4F)c4nc(c(-c5c(F)cccc5F)c5ccc2[nH]5)C=C4)C=C3)cc1
REMARK SMILES IDX 6 1 5 2 4 3 3 4 1 5 2 6 30 8 31 9 83 10 32 11 82 12 33 13
REMARK SMILES IDX 34 14 35 15 76 16 36 17 81 18 75 19 77 20 37 21 80 22 74 23
REMARK SMILES IDX 73 24 38 26 64 27 47 28 63 29 48 30 51 31 62 32 78 33 49 34
REMARK SMILES IDX 50 35 61 37 79 38 52 39 39 40 40 41 45 42 41 43 42 44 44 45
REMARK SMILES IDX 46 46 43 47 65 48 66 49 71 50 67 51 68 52 70 53 72 54 69 55
REMARK SMILES IDX 53 56 54 57 59 58 55 59 56 60 58 61 60 62 57 63 7 64 8 65
REMARK SMILES IDX 9 66 10 67 11 68 12 70 13 71 14 72 29 73 15 74 23 75 28 76
REMARK SMILES IDX 22 77 24 78 26 79 25 80 27 81 16 82 17 83 21 84 18 85 20 86
REMARK SMILES IDX 19 87
REMARK H PARENT 3 7 77 25 51 36 10 69
REMARK Flexibility Score: inf
ROOT
ATOM      1  C   UNL A   1      31.640  30.834  25.857  1.00  0.00     0.002 C 
ENDROOT
BRANCH   1   2
ATOM      2  C   UNL A   1      31.403  32.154  26.592  1.00  0.00     0.021 C 
BRANCH   2   3
ATOM      3  C   UNL A   1      32.625  32.761  27.269  1.00  0.00     0.116 C 
BRANCH   3   4
ATOM      4  N   UNL A   1      32.450  34.164  27.590  1.00  0.00    -0.352 N 
ATOM      5  O   UNL A   1      32.634  36.075  28.755  1.00  0.00    -0.269 OA
ATOM      6  C   UNL A   1      33.034  34.928  28.567  1.00  0.00     0.251 C 
ATOM      7  H   UNL A   1      31.811  34.645  27.016  1.00  0.00     0.163 HD
BRANCH   6   8
ATOM      8  C   UNL A   1      34.131  34.394  29.409  1.00  0.00     0.039 A 
ATOM      9  C   UNL A   1      35.437  34.457  28.912  1.00  0.00     0.014 A 
ATOM     10  C   UNL A   1      33.888  33.765  30.634  1.00  0.00     0.014 A 
ATOM     11  C   UNL A   1      36.491  33.899  29.639  1.00  0.00     0.010 A 
ATOM     12  C   UNL A   1      34.949  33.280  31.398  1.00  0.00     0.010 A 
ATOM     13  C   UNL A   1      36.255  33.304  30.888  1.00  0.00    -0.014 A 
BRANCH  13  14
ATOM     14  C   UNL A   1      37.349  32.604  31.610  1.00  0.00     0.031 A 
ATOM     15  C   UNL A   1      38.061  31.453  30.947  1.00  0.00     0.074 A 
ATOM     16  C   UNL A   1      37.711  32.995  32.846  1.00  0.00     0.049 A 
ATOM     17  N   UNL A   1      39.036  30.707  31.401  1.00  0.00    -0.248 NA
ATOM     18  C   UNL A   1      37.596  31.075  29.603  1.00  0.00     0.031 C 
ATOM     19  C   UNL A   1      37.081  34.069  33.615  1.00  0.00     0.029 A 
ATOM     20  N   UNL A   1      38.706  32.534  33.670  1.00  0.00    -0.354 N 
ATOM     21  C   UNL A   1      39.293  29.773  30.404  1.00  0.00     0.074 A 
ATOM     22  C   UNL A   1      38.326  30.001  29.353  1.00  0.00     0.031 C 
ATOM     23  C   UNL A   1      37.725  34.203  34.788  1.00  0.00     0.029 A 
ATOM     24  C   UNL A   1      38.796  33.214  34.860  1.00  0.00     0.049 A 
ATOM     25  H   UNL A   1      39.299  31.784  33.432  1.00  0.00     0.167 HD
ATOM     26  C   UNL A   1      40.267  28.834  30.346  1.00  0.00     0.037 A 
ATOM     27  C   UNL A   1      39.655  33.062  35.884  1.00  0.00     0.037 A 
ATOM     28  C   UNL A   1      41.247  28.618  31.375  1.00  0.00     0.049 A 
ATOM     29  C   UNL A   1      40.739  32.022  35.790  1.00  0.00     0.074 A 
ATOM     30  C   UNL A   1      42.282  27.699  31.409  1.00  0.00     0.029 A 
ATOM     31  N   UNL A   1      41.320  29.346  32.552  1.00  0.00    -0.354 N 
ATOM     32  N   UNL A   1      40.988  31.170  34.826  1.00  0.00    -0.248 NA
ATOM     33  C   UNL A   1      41.670  31.936  36.924  1.00  0.00     0.031 C 
ATOM     34  C   UNL A   1      42.970  27.860  32.617  1.00  0.00     0.029 A 
ATOM     35  C   UNL A   1      42.383  28.901  33.320  1.00  0.00     0.049 A 
ATOM     36  H   UNL A   1      40.705  30.074  32.806  1.00  0.00     0.167 HD
ATOM     37  C   UNL A   1      42.117  30.464  35.225  1.00  0.00     0.074 A 
ATOM     38  C   UNL A   1      42.515  31.005  36.508  1.00  0.00     0.031 C 
ATOM     39  C   UNL A   1      42.765  29.457  34.591  1.00  0.00     0.037 A 
BRANCH  26  40
ATOM     40  C   UNL A   1      40.318  27.987  29.107  1.00  0.00     0.057 A 
ATOM     41  C   UNL A   1      41.072  28.379  27.995  1.00  0.00     0.134 A 
ATOM     42  C   UNL A   1      39.627  26.770  29.025  1.00  0.00     0.134 A 
ATOM     43  F   UNL A   1      41.754  29.533  28.007  1.00  0.00    -0.206 F 
ATOM     44  C   UNL A   1      41.144  27.586  26.848  1.00  0.00     0.040 A 
ATOM     45  C   UNL A   1      39.713  25.956  27.894  1.00  0.00     0.040 A 
ATOM     46  F   UNL A   1      38.903  26.328  30.064  1.00  0.00    -0.206 F 
ATOM     47  C   UNL A   1      40.471  26.366  26.800  1.00  0.00     0.006 A 
ENDBRANCH  26  40
BRANCH  27  48
ATOM     48  C   UNL A   1      39.558  33.937  37.079  1.00  0.00     0.057 A 
ATOM     49  C   UNL A   1      40.146  35.205  37.103  1.00  0.00     0.134 A 
ATOM     50  C   UNL A   1      38.841  33.533  38.212  1.00  0.00     0.134 A 
ATOM     51  F   UNL A   1      40.851  35.646  36.051  1.00  0.00    -0.206 F 
ATOM     52  C   UNL A   1      40.019  36.047  38.210  1.00  0.00     0.040 A 
ATOM     53  C   UNL A   1      38.688  34.373  39.316  1.00  0.00     0.040 A 
ATOM     54  F   UNL A   1      38.239  32.335  38.238  1.00  0.00    -0.206 F 
ATOM     55  C   UNL A   1      39.279  35.634  39.317  1.00  0.00     0.006 A 
ENDBRANCH  27  48
BRANCH  39  56
ATOM     56  C   UNL A   1      43.983  28.905  35.269  1.00  0.00     0.057 A 
ATOM     57  C   UNL A   1      43.872  27.854  36.188  1.00  0.00     0.134 A 
ATOM     58  C   UNL A   1      45.263  29.410  35.012  1.00  0.00     0.134 A 
ATOM     59  F   UNL A   1      42.673  27.330  36.484  1.00  0.00    -0.206 F 
ATOM     60  C   UNL A   1      44.995  27.321  36.822  1.00  0.00     0.040 A 
ATOM     61  C   UNL A   1      46.396  28.868  35.620  1.00  0.00     0.040 A 
ATOM     62  F   UNL A   1      45.437  30.406  34.129  1.00  0.00    -0.206 F 
ATOM     63  C   UNL A   1      46.262  27.821  36.531  1.00  0.00     0.006 A 
ENDBRANCH  39  56
ENDBRANCH  13  14
ENDBRANCH   6   8
ENDBRANCH   3   4
ENDBRANCH   2   3
ENDBRANCH   1   2
BRANCH   1  64
ATOM     64  C   UNL A   1      32.780  29.963  26.391  1.00  0.00     0.002 C 
BRANCH  64  65
ATOM     65  C   UNL A   1      32.374  28.818  27.323  1.00  0.00     0.021 C 
BRANCH  65  66
ATOM     66  C   UNL A   1      32.614  27.411  26.786  1.00  0.00     0.116 C 
BRANCH  66  67
ATOM     67  N   UNL A   1      31.433  26.566  26.876  1.00  0.00    -0.352 N 
ATOM     68  C   UNL A   1      30.495  26.284  25.916  1.00  0.00     0.252 C 
ATOM     69  H   UNL A   1      31.286  26.137  27.749  1.00  0.00     0.163 HD
ATOM     70  O   UNL A   1      29.524  25.578  26.184  1.00  0.00    -0.269 OA
BRANCH  68  71
ATOM     71  C   UNL A   1      30.667  26.813  24.550  1.00  0.00     0.051 A 
ATOM     72  C   UNL A   1      30.078  28.042  24.263  1.00  0.00     0.045 A 
ATOM     73  C   UNL A   1      31.399  26.113  23.569  1.00  0.00     0.016 A 
ATOM     74  C   UNL A   1      30.150  28.524  22.969  1.00  0.00     0.090 A 
ATOM     75  C   UNL A   1      31.448  26.707  22.291  1.00  0.00     0.072 A 
ATOM     76  C   UNL A   1      32.058  24.877  23.784  1.00  0.00     0.050 A 
ATOM     77  N   UNL A   1      30.834  27.866  21.999  1.00  0.00    -0.246 NA
ATOM     78  C   UNL A   1      32.156  26.062  21.282  1.00  0.00     0.032 A 
ATOM     79  C   UNL A   1      32.756  24.265  22.752  1.00  0.00     0.123 A 
ATOM     80  C   UNL A   1      32.814  24.848  21.500  1.00  0.00     0.041 A 
ATOM     81  F   UNL A   1      33.380  23.101  22.972  1.00  0.00    -0.207 F 
BRANCH  74  82
ATOM     82  C   UNL A   1      29.425  29.748  22.589  1.00  0.00     0.089 A 
ATOM     83  C   UNL A   1      28.822  30.569  23.544  1.00  0.00     0.030 A 
ATOM     84  N   UNL A   1      29.271  29.967  21.256  1.00  0.00    -0.255 NA
ATOM     85  C   UNL A   1      28.040  31.642  23.123  1.00  0.00     0.004 A 
ATOM     86  C   UNL A   1      28.521  31.024  20.876  1.00  0.00     0.112 A 
ATOM     87  C   UNL A   1      27.884  31.875  21.763  1.00  0.00     0.020 A 
ENDBRANCH  74  82
ENDBRANCH  68  71
ENDBRANCH  66  67
ENDBRANCH  65  66
ENDBRANCH  64  65
ENDBRANCH   1  64
TORSDOF 14
ENDMDL
