MODEL 1
REMARK VINA RESULT:     -11.5      0.000      0.000
REMARK SMILES CC[C@@H]1CCCN(S(=O)(=O)c2cc(C(=O)NCCCCCCNC(=O)c3ccc(-c4c5nc(c(-c6c(F)cccc6F)c6ccc([nH]6)c(-c6c(F)cccc6F)c6nc(c(-c7c(F)cccc7F)c7ccc4[nH]7)C=C6)C=C5)cc3)ccc2F)C1
REMARK SMILES IDX 19 1 18 2 17 3 16 4 14 5 15 6 13 8 11 9 12 10 82 11 81 12
REMARK SMILES IDX 83 13 80 14 8 15 9 16 10 17 7 18 3 19 4 20 84 21 5 22 6 23
REMARK SMILES IDX 2 24 1 25 20 26 21 27 22 28 23 29 24 30 25 32 26 33 27 34
REMARK SMILES IDX 79 35 28 36 78 37 29 38 30 39 31 40 72 41 32 42 77 43 71 44
REMARK SMILES IDX 73 45 33 46 76 47 70 48 69 49 34 51 60 52 43 53 59 54 44 55
REMARK SMILES IDX 47 56 58 57 74 58 45 59 46 60 57 62 75 63 48 64 35 65 36 66
REMARK SMILES IDX 41 67 37 68 38 69 40 70 42 71 39 72 61 73 62 74 67 75 63 76
REMARK SMILES IDX 64 77 66 78 68 79 65 80 49 81 50 82 55 83 51 84 52 85 54 86
REMARK SMILES IDX 56 87 53 88
REMARK H PARENT 16 7 23 31 73 50 47 61
REMARK Flexibility Score: inf
ROOT
ATOM      1  C   UNL A   1      36.237  22.217  25.411  1.00  0.00     0.002 C 
ENDROOT
BRANCH   1   2
ATOM      2  C   UNL A   1      35.298  22.862  26.441  1.00  0.00     0.021 C 
BRANCH   2   3
ATOM      3  C   UNL A   1      34.321  21.873  27.081  1.00  0.00     0.116 C 
BRANCH   3   4
ATOM      4  N   UNL A   1      32.999  22.457  27.171  1.00  0.00    -0.352 N 
ATOM      5  C   UNL A   1      32.104  22.920  26.245  1.00  0.00     0.251 C 
ATOM      6  O   UNL A   1      31.031  23.342  26.675  1.00  0.00    -0.269 OA
ATOM      7  H   UNL A   1      32.674  22.538  28.097  1.00  0.00     0.163 HD
BRANCH   5   8
ATOM      8  C   UNL A   1      32.332  22.921  24.769  1.00  0.00     0.041 A 
ATOM      9  C   UNL A   1      32.503  24.284  22.749  1.00  0.00     0.119 A 
ATOM     10  C   UNL A   1      32.246  24.169  24.121  1.00  0.00     0.038 A 
ATOM     11  C   UNL A   1      32.852  23.159  22.017  1.00  0.00     0.143 A 
ATOM     12  C   UNL A   1      32.925  21.916  22.635  1.00  0.00     0.041 A 
ATOM     13  F   UNL A   1      33.113  23.223  20.706  1.00  0.00    -0.206 F 
ATOM     14  C   UNL A   1      32.698  21.802  24.011  1.00  0.00     0.017 A 
BRANCH   9  15
ATOM     15  S   UNL A   1      32.566  25.876  21.989  1.00  0.00     0.246 S 
ATOM     16  O   UNL A   1      31.816  25.826  20.753  1.00  0.00    -0.207 OA
ATOM     17  O   UNL A   1      33.956  26.290  21.973  1.00  0.00    -0.207 OA
BRANCH  15  18
ATOM     18  N   UNL A   1      31.738  26.943  23.074  1.00  0.00    -0.197 NA
ATOM     19  C   UNL A   1      32.030  28.871  24.668  1.00  0.00     0.004 C 
ATOM     20  C   UNL A   1      30.827  29.558  24.016  1.00  0.00     0.006 C 
ATOM     21  C   UNL A   1      32.705  27.952  23.635  1.00  0.00     0.106 C 
ATOM     22  C   UNL A   1      29.851  28.529  23.472  1.00  0.00     0.017 C 
ATOM     23  C   UNL A   1      30.535  27.599  22.480  1.00  0.00     0.102 C 
BRANCH  19  24
ATOM     24  C   UNL A   1      31.701  28.091  25.959  1.00  0.00     0.001 C 
ATOM     25  C   UNL A   1      32.921  27.733  26.795  1.00  0.00     0.004 C 
ENDBRANCH  19  24
ENDBRANCH  15  18
ENDBRANCH   9  15
ENDBRANCH   5   8
ENDBRANCH   3   4
ENDBRANCH   2   3
ENDBRANCH   1   2
BRANCH   1  26
ATOM     26  C   UNL A   1      35.939  20.746  25.094  1.00  0.00     0.002 C 
BRANCH  26  27
ATOM     27  C   UNL A   1      37.174  19.859  24.917  1.00  0.00     0.021 C 
BRANCH  27  28
ATOM     28  C   UNL A   1      38.450  20.435  25.524  1.00  0.00     0.116 C 
BRANCH  28  29
ATOM     29  N   UNL A   1      39.484  19.423  25.657  1.00  0.00    -0.352 N 
ATOM     30  C   UNL A   1      40.805  19.570  25.999  1.00  0.00     0.251 C 
ATOM     31  H   UNL A   1      39.197  18.499  25.476  1.00  0.00     0.163 HD
ATOM     32  O   UNL A   1      41.594  18.645  25.829  1.00  0.00    -0.269 OA
BRANCH  30  33
ATOM     33  C   UNL A   1      41.281  20.849  26.565  1.00  0.00     0.039 A 
ATOM     34  C   UNL A   1      41.874  21.785  25.714  1.00  0.00     0.014 A 
ATOM     35  C   UNL A   1      41.166  21.113  27.932  1.00  0.00     0.014 A 
ATOM     36  C   UNL A   1      42.305  23.010  26.228  1.00  0.00     0.010 A 
ATOM     37  C   UNL A   1      41.533  22.360  28.431  1.00  0.00     0.010 A 
ATOM     38  C   UNL A   1      42.111  23.319  27.585  1.00  0.00    -0.014 A 
BRANCH  38  39
ATOM     39  C   UNL A   1      42.505  24.640  28.136  1.00  0.00     0.031 A 
ATOM     40  C   UNL A   1      41.472  25.712  28.342  1.00  0.00     0.074 A 
ATOM     41  C   UNL A   1      43.804  24.888  28.399  1.00  0.00     0.049 A 
ATOM     42  N   UNL A   1      41.637  26.948  28.737  1.00  0.00    -0.248 NA
ATOM     43  C   UNL A   1      40.075  25.360  28.041  1.00  0.00     0.031 C 
ATOM     44  C   UNL A   1      44.903  23.941  28.205  1.00  0.00     0.029 A 
ATOM     45  N   UNL A   1      44.420  26.017  28.879  1.00  0.00    -0.354 N 
ATOM     46  C   UNL A   1      40.370  27.520  28.724  1.00  0.00     0.074 A 
ATOM     47  C   UNL A   1      39.454  26.515  28.237  1.00  0.00     0.031 C 
ATOM     48  C   UNL A   1      46.054  24.520  28.580  1.00  0.00     0.029 A 
ATOM     49  C   UNL A   1      45.783  25.890  29.003  1.00  0.00     0.049 A 
ATOM     50  H   UNL A   1      43.932  26.840  29.112  1.00  0.00     0.167 HD
ATOM     51  C   UNL A   1      40.006  28.765  29.110  1.00  0.00     0.037 A 
ATOM     52  C   UNL A   1      46.711  26.780  29.404  1.00  0.00     0.037 A 
ATOM     53  C   UNL A   1      40.915  29.751  29.630  1.00  0.00     0.049 A 
ATOM     54  C   UNL A   1      46.277  28.158  29.822  1.00  0.00     0.074 A 
ATOM     55  C   UNL A   1      40.626  31.021  30.099  1.00  0.00     0.029 A 
ATOM     56  N   UNL A   1      42.284  29.578  29.754  1.00  0.00    -0.354 N 
ATOM     57  N   UNL A   1      45.068  28.667  29.853  1.00  0.00    -0.248 NA
ATOM     58  C   UNL A   1      47.329  29.085  30.262  1.00  0.00     0.031 C 
ATOM     59  C   UNL A   1      41.826  31.633  30.468  1.00  0.00     0.029 A 
ATOM     60  C   UNL A   1      42.856  30.726  30.276  1.00  0.00     0.049 A 
ATOM     61  H   UNL A   1      42.776  28.762  29.510  1.00  0.00     0.167 HD
ATOM     62  C   UNL A   1      45.212  29.959  30.339  1.00  0.00     0.074 A 
ATOM     63  C   UNL A   1      46.622  30.154  30.603  1.00  0.00     0.031 C 
ATOM     64  C   UNL A   1      44.260  30.901  30.546  1.00  0.00     0.037 A 
BRANCH  51  65
ATOM     65  C   UNL A   1      38.557  29.140  29.013  1.00  0.00     0.057 A 
ATOM     66  C   UNL A   1      38.024  29.636  27.816  1.00  0.00     0.134 A 
ATOM     67  C   UNL A   1      37.717  29.113  30.134  1.00  0.00     0.134 A 
ATOM     68  F   UNL A   1      38.777  29.694  26.708  1.00  0.00    -0.206 F 
ATOM     69  C   UNL A   1      36.714  30.113  27.743  1.00  0.00     0.040 A 
ATOM     70  C   UNL A   1      36.398  29.566  30.067  1.00  0.00     0.040 A 
ATOM     71  F   UNL A   1      38.164  28.640  31.307  1.00  0.00    -0.206 F 
ATOM     72  C   UNL A   1      35.899  30.080  28.873  1.00  0.00     0.006 A 
ENDBRANCH  51  65
BRANCH  52  73
ATOM     73  C   UNL A   1      48.144  26.389  29.445  1.00  0.00     0.057 A 
ATOM     74  C   UNL A   1      48.987  26.584  28.344  1.00  0.00     0.134 A 
ATOM     75  C   UNL A   1      48.702  25.807  30.588  1.00  0.00     0.134 A 
ATOM     76  F   UNL A   1      48.512  27.130  27.214  1.00  0.00    -0.206 F 
ATOM     77  C   UNL A   1      50.329  26.203  28.374  1.00  0.00     0.040 A 
ATOM     78  C   UNL A   1      50.050  25.446  30.643  1.00  0.00     0.040 A 
ATOM     79  F   UNL A   1      47.950  25.611  31.681  1.00  0.00    -0.206 F 
ATOM     80  C   UNL A   1      50.866  25.638  29.530  1.00  0.00     0.006 A 
ENDBRANCH  52  73
BRANCH  64  81
ATOM     81  C   UNL A   1      44.694  32.221  31.108  1.00  0.00     0.057 A 
ATOM     82  C   UNL A   1      44.695  32.440  32.493  1.00  0.00     0.134 A 
ATOM     83  C   UNL A   1      45.022  33.301  30.280  1.00  0.00     0.134 A 
ATOM     84  F   UNL A   1      44.377  31.449  33.339  1.00  0.00    -0.206 F 
ATOM     85  C   UNL A   1      44.989  33.692  33.033  1.00  0.00     0.040 A 
ATOM     86  C   UNL A   1      45.344  34.552  30.810  1.00  0.00     0.040 A 
ATOM     87  F   UNL A   1      45.048  33.154  28.948  1.00  0.00    -0.206 F 
ATOM     88  C   UNL A   1      45.317  34.752  32.189  1.00  0.00     0.006 A 
ENDBRANCH  64  81
ENDBRANCH  38  39
ENDBRANCH  30  33
ENDBRANCH  28  29
ENDBRANCH  27  28
ENDBRANCH  26  27
ENDBRANCH   1  26
TORSDOF 16
ENDMDL
MODEL 2
REMARK VINA RESULT:     -11.5      0.544      6.080
REMARK SMILES CC[C@@H]1CCCN(S(=O)(=O)c2cc(C(=O)NCCCCCCNC(=O)c3ccc(-c4c5nc(c(-c6c(F)cccc6F)c6ccc([nH]6)c(-c6c(F)cccc6F)c6nc(c(-c7c(F)cccc7F)c7ccc4[nH]7)C=C6)C=C5)cc3)ccc2F)C1
REMARK SMILES IDX 19 1 18 2 17 3 16 4 14 5 15 6 13 8 11 9 12 10 82 11 81 12
REMARK SMILES IDX 83 13 80 14 8 15 9 16 10 17 7 18 3 19 4 20 84 21 5 22 6 23
REMARK SMILES IDX 2 24 1 25 20 26 21 27 22 28 23 29 24 30 25 32 26 33 27 34
REMARK SMILES IDX 79 35 28 36 78 37 29 38 30 39 31 40 72 41 32 42 77 43 71 44
REMARK SMILES IDX 73 45 33 46 76 47 70 48 69 49 34 51 60 52 43 53 59 54 44 55
REMARK SMILES IDX 47 56 58 57 74 58 45 59 46 60 57 62 75 63 48 64 35 65 36 66
REMARK SMILES IDX 41 67 37 68 38 69 40 70 42 71 39 72 61 73 62 74 67 75 63 76
REMARK SMILES IDX 64 77 66 78 68 79 65 80 49 81 50 82 55 83 51 84 52 85 54 86
REMARK SMILES IDX 56 87 53 88
REMARK H PARENT 16 7 23 31 73 50 47 61
REMARK Flexibility Score: inf
ROOT
ATOM      1  C   UNL A   1      36.570  21.923  25.123  1.00  0.00     0.002 C 
ENDROOT
BRANCH   1   2
ATOM      2  C   UNL A   1      35.627  22.580  26.142  1.00  0.00     0.021 C 
BRANCH   2   3
ATOM      3  C   UNL A   1      34.614  21.608  26.752  1.00  0.00     0.116 C 
BRANCH   3   4
ATOM      4  N   UNL A   1      33.357  22.281  27.003  1.00  0.00    -0.352 N 
ATOM      5  C   UNL A   1      32.435  22.892  26.199  1.00  0.00     0.251 C 
ATOM      6  O   UNL A   1      31.438  23.355  26.752  1.00  0.00    -0.269 OA
ATOM      7  H   UNL A   1      33.114  22.303  27.957  1.00  0.00     0.163 HD
BRANCH   5   8
ATOM      8  C   UNL A   1      32.545  23.009  24.714  1.00  0.00     0.041 A 
ATOM      9  C   UNL A   1      32.570  24.526  22.799  1.00  0.00     0.119 A 
ATOM     10  C   UNL A   1      32.421  24.304  24.174  1.00  0.00     0.038 A 
ATOM     11  C   UNL A   1      32.849  23.460  21.956  1.00  0.00     0.143 A 
ATOM     12  C   UNL A   1      32.958  22.173  22.467  1.00  0.00     0.041 A 
ATOM     13  F   UNL A   1      33.007  23.626  20.637  1.00  0.00    -0.206 F 
ATOM     14  C   UNL A   1      32.839  21.952  23.844  1.00  0.00     0.017 A 
BRANCH   9  15
ATOM     15  S   UNL A   1      32.590  26.173  22.163  1.00  0.00     0.246 S 
ATOM     16  O   UNL A   1      31.446  26.344  21.294  1.00  0.00    -0.207 OA
ATOM     17  O   UNL A   1      33.925  26.422  21.655  1.00  0.00    -0.207 OA
BRANCH  15  18
ATOM     18  N   UNL A   1      32.376  27.204  23.539  1.00  0.00    -0.197 NA
ATOM     19  C   UNL A   1      33.581  28.499  25.332  1.00  0.00     0.004 C 
ATOM     20  C   UNL A   1      32.680  29.701  25.033  1.00  0.00     0.006 C 
ATOM     21  C   UNL A   1      33.718  27.645  24.060  1.00  0.00     0.106 C 
ATOM     22  C   UNL A   1      31.323  29.242  24.528  1.00  0.00     0.017 C 
ATOM     23  C   UNL A   1      31.470  28.365  23.291  1.00  0.00     0.102 C 
BRANCH  19  24
ATOM     24  C   UNL A   1      33.120  27.632  26.523  1.00  0.00     0.001 C 
ATOM     25  C   UNL A   1      32.455  28.420  27.643  1.00  0.00     0.004 C 
ENDBRANCH  19  24
ENDBRANCH  15  18
ENDBRANCH   9  15
ENDBRANCH   5   8
ENDBRANCH   3   4
ENDBRANCH   2   3
ENDBRANCH   1   2
BRANCH   1  26
ATOM     26  C   UNL A   1      36.405  20.406  24.972  1.00  0.00     0.002 C 
BRANCH  26  27
ATOM     27  C   UNL A   1      37.716  19.617  24.897  1.00  0.00     0.021 C 
BRANCH  27  28
ATOM     28  C   UNL A   1      38.841  20.190  25.752  1.00  0.00     0.116 C 
BRANCH  28  29
ATOM     29  N   UNL A   1      39.989  19.301  25.793  1.00  0.00    -0.352 N 
ATOM     30  C   UNL A   1      41.307  19.594  26.038  1.00  0.00     0.251 C 
ATOM     31  H   UNL A   1      39.794  18.351  25.621  1.00  0.00     0.163 HD
ATOM     32  O   UNL A   1      42.180  18.765  25.797  1.00  0.00    -0.269 OA
BRANCH  30  33
ATOM     33  C   UNL A   1      41.679  20.916  26.585  1.00  0.00     0.039 A 
ATOM     34  C   UNL A   1      42.163  21.895  25.715  1.00  0.00     0.014 A 
ATOM     35  C   UNL A   1      41.573  21.178  27.953  1.00  0.00     0.014 A 
ATOM     36  C   UNL A   1      42.493  23.158  26.212  1.00  0.00     0.010 A 
ATOM     37  C   UNL A   1      41.836  22.457  28.436  1.00  0.00     0.010 A 
ATOM     38  C   UNL A   1      42.304  23.458  27.571  1.00  0.00    -0.014 A 
BRANCH  38  39
ATOM     39  C   UNL A   1      42.590  24.813  28.105  1.00  0.00     0.031 A 
ATOM     40  C   UNL A   1      43.977  25.168  28.565  1.00  0.00     0.074 A 
ATOM     41  C   UNL A   1      41.586  25.704  28.227  1.00  0.00     0.049 A 
ATOM     42  N   UNL A   1      44.400  26.269  29.130  1.00  0.00    -0.248 NA
ATOM     43  C   UNL A   1      45.020  24.145  28.389  1.00  0.00     0.031 C 
ATOM     44  C   UNL A   1      40.191  25.464  27.851  1.00  0.00     0.029 A 
ATOM     45  N   UNL A   1      41.582  26.990  28.708  1.00  0.00    -0.354 N 
ATOM     46  C   UNL A   1      45.751  26.068  29.384  1.00  0.00     0.074 A 
ATOM     47  C   UNL A   1      46.069  24.724  28.958  1.00  0.00     0.031 C 
ATOM     48  C   UNL A   1      39.473  26.571  28.098  1.00  0.00     0.029 A 
ATOM     49  C   UNL A   1      40.343  27.584  28.685  1.00  0.00     0.049 A 
ATOM     50  H   UNL A   1      42.391  27.443  29.040  1.00  0.00     0.167 HD
ATOM     51  C   UNL A   1      46.648  26.938  29.903  1.00  0.00     0.037 A 
ATOM     52  C   UNL A   1      39.951  28.805  29.098  1.00  0.00     0.037 A 
ATOM     53  C   UNL A   1      46.337  28.287  30.292  1.00  0.00     0.049 A 
ATOM     54  C   UNL A   1      40.969  29.748  29.676  1.00  0.00     0.074 A 
ATOM     55  C   UNL A   1      47.194  29.260  30.775  1.00  0.00     0.029 A 
ATOM     56  N   UNL A   1      45.074  28.855  30.237  1.00  0.00    -0.354 N 
ATOM     57  N   UNL A   1      42.254  29.561  29.862  1.00  0.00    -0.248 NA
ATOM     58  C   UNL A   1      40.489  31.071  30.100  1.00  0.00     0.031 C 
ATOM     59  C   UNL A   1      46.443  30.404  31.055  1.00  0.00     0.029 A 
ATOM     60  C   UNL A   1      45.127  30.160  30.697  1.00  0.00     0.049 A 
ATOM     61  H   UNL A   1      44.262  28.400  29.919  1.00  0.00     0.167 HD
ATOM     62  C   UNL A   1      42.738  30.747  30.396  1.00  0.00     0.074 A 
ATOM     63  C   UNL A   1      41.613  31.653  30.494  1.00  0.00     0.031 C 
ATOM     64  C   UNL A   1      44.002  31.055  30.776  1.00  0.00     0.037 A 
BRANCH  51  65
ATOM     65  C   UNL A   1      48.067  26.479  30.065  1.00  0.00     0.057 A 
ATOM     66  C   UNL A   1      48.989  26.622  29.019  1.00  0.00     0.134 A 
ATOM     67  C   UNL A   1      48.490  25.799  31.213  1.00  0.00     0.134 A 
ATOM     68  F   UNL A   1      48.644  27.258  27.890  1.00  0.00    -0.206 F 
ATOM     69  C   UNL A   1      50.274  26.083  29.102  1.00  0.00     0.040 A 
ATOM     70  C   UNL A   1      49.780  25.276  31.316  1.00  0.00     0.040 A 
ATOM     71  F   UNL A   1      47.659  25.638  32.254  1.00  0.00    -0.206 F 
ATOM     72  C   UNL A   1      50.671  25.405  30.253  1.00  0.00     0.006 A 
ENDBRANCH  51  65
BRANCH  52  73
ATOM     73  C   UNL A   1      38.527  29.210  28.965  1.00  0.00     0.057 A 
ATOM     74  C   UNL A   1      38.003  29.653  27.744  1.00  0.00     0.134 A 
ATOM     75  C   UNL A   1      37.658  29.167  30.061  1.00  0.00     0.134 A 
ATOM     76  F   UNL A   1      38.786  29.725  26.657  1.00  0.00    -0.206 F 
ATOM     77  C   UNL A   1      36.671  30.049  27.621  1.00  0.00     0.040 A 
ATOM     78  C   UNL A   1      36.316  29.534  29.946  1.00  0.00     0.040 A 
ATOM     79  F   UNL A   1      38.096  28.736  31.253  1.00  0.00    -0.206 F 
ATOM     80  C   UNL A   1      35.820  29.983  28.723  1.00  0.00     0.006 A 
ENDBRANCH  52  73
BRANCH  64  81
ATOM     81  C   UNL A   1      44.254  32.435  31.306  1.00  0.00     0.057 A 
ATOM     82  C   UNL A   1      44.621  33.474  30.441  1.00  0.00     0.134 A 
ATOM     83  C   UNL A   1      44.225  32.712  32.678  1.00  0.00     0.134 A 
ATOM     84  F   UNL A   1      44.681  33.270  29.117  1.00  0.00    -0.206 F 
ATOM     85  C   UNL A   1      44.967  34.737  30.924  1.00  0.00     0.040 A 
ATOM     86  C   UNL A   1      44.543  33.978  33.171  1.00  0.00     0.040 A 
ATOM     87  F   UNL A   1      43.872  31.762  33.557  1.00  0.00    -0.206 F 
ATOM     88  C   UNL A   1      44.926  34.991  32.293  1.00  0.00     0.006 A 
ENDBRANCH  64  81
ENDBRANCH  38  39
ENDBRANCH  30  33
ENDBRANCH  28  29
ENDBRANCH  27  28
ENDBRANCH  26  27
ENDBRANCH   1  26
TORSDOF 16
ENDMDL
MODEL 3
REMARK VINA RESULT:     -11.3      5.026      9.879
REMARK SMILES CC[C@@H]1CCCN(S(=O)(=O)c2cc(C(=O)NCCCCCCNC(=O)c3ccc(-c4c5nc(c(-c6c(F)cccc6F)c6ccc([nH]6)c(-c6c(F)cccc6F)c6nc(c(-c7c(F)cccc7F)c7ccc4[nH]7)C=C6)C=C5)cc3)ccc2F)C1
REMARK SMILES IDX 19 1 18 2 17 3 16 4 14 5 15 6 13 8 11 9 12 10 82 11 81 12
REMARK SMILES IDX 83 13 80 14 8 15 9 16 10 17 7 18 3 19 4 20 84 21 5 22 6 23
REMARK SMILES IDX 2 24 1 25 20 26 21 27 22 28 23 29 24 30 25 32 26 33 27 34
REMARK SMILES IDX 79 35 28 36 78 37 29 38 30 39 31 40 72 41 32 42 77 43 71 44
REMARK SMILES IDX 73 45 33 46 76 47 70 48 69 49 34 51 60 52 43 53 59 54 44 55
REMARK SMILES IDX 47 56 58 57 74 58 45 59 46 60 57 62 75 63 48 64 35 65 36 66
REMARK SMILES IDX 41 67 37 68 38 69 40 70 42 71 39 72 61 73 62 74 67 75 63 76
REMARK SMILES IDX 64 77 66 78 68 79 65 80 49 81 50 82 55 83 51 84 52 85 54 86
REMARK SMILES IDX 56 87 53 88
REMARK H PARENT 16 7 23 31 73 50 47 61
REMARK Flexibility Score: inf
ROOT
ATOM      1  C   UNL A   1      34.438  32.349  29.097  1.00  0.00     0.002 C 
ENDROOT
BRANCH   1   2
ATOM      2  C   UNL A   1      34.785  31.230  28.103  1.00  0.00     0.021 C 
BRANCH   2   3
ATOM      3  C   UNL A   1      33.613  30.828  27.203  1.00  0.00     0.116 C 
BRANCH   3   4
ATOM      4  N   UNL A   1      32.955  29.649  27.728  1.00  0.00    -0.352 N 
ATOM      5  C   UNL A   1      32.235  28.636  27.158  1.00  0.00     0.251 C 
ATOM      6  O   UNL A   1      31.827  27.754  27.914  1.00  0.00    -0.269 OA
ATOM      7  H   UNL A   1      33.046  29.559  28.704  1.00  0.00     0.163 HD
BRANCH   5   8
ATOM      8  C   UNL A   1      31.939  28.517  25.700  1.00  0.00     0.041 A 
ATOM      9  C   UNL A   1      32.206  27.163  23.683  1.00  0.00     0.119 A 
ATOM     10  C   UNL A   1      32.477  27.396  25.038  1.00  0.00     0.038 A 
ATOM     11  C   UNL A   1      31.393  28.042  22.983  1.00  0.00     0.143 A 
ATOM     12  C   UNL A   1      30.867  29.163  23.614  1.00  0.00     0.041 A 
ATOM     13  F   UNL A   1      31.101  27.856  21.690  1.00  0.00    -0.206 F 
ATOM     14  C   UNL A   1      31.111  29.382  24.974  1.00  0.00     0.017 A 
BRANCH   9  15
ATOM     15  S   UNL A   1      32.738  25.665  22.917  1.00  0.00     0.246 S 
ATOM     16  O   UNL A   1      33.751  25.985  21.935  1.00  0.00    -0.207 OA
ATOM     17  O   UNL A   1      31.548  24.941  22.515  1.00  0.00    -0.207 OA
BRANCH  15  18
ATOM     18  N   UNL A   1      33.488  24.740  24.176  1.00  0.00    -0.197 NA
ATOM     19  C   UNL A   1      33.369  22.590  25.481  1.00  0.00     0.004 C 
ATOM     20  C   UNL A   1      34.873  22.403  25.261  1.00  0.00     0.006 C 
ATOM     21  C   UNL A   1      32.789  23.414  24.320  1.00  0.00     0.106 C 
ATOM     22  C   UNL A   1      35.568  23.748  25.137  1.00  0.00     0.017 C 
ATOM     23  C   UNL A   1      34.963  24.573  24.010  1.00  0.00     0.102 C 
BRANCH  19  24
ATOM     24  C   UNL A   1      32.994  23.222  26.839  1.00  0.00     0.001 C 
ATOM     25  C   UNL A   1      33.160  22.285  28.027  1.00  0.00     0.004 C 
ENDBRANCH  19  24
ENDBRANCH  15  18
ENDBRANCH   9  15
ENDBRANCH   5   8
ENDBRANCH   3   4
ENDBRANCH   2   3
ENDBRANCH   1   2
BRANCH   1  26
ATOM     26  C   UNL A   1      34.395  33.759  28.495  1.00  0.00     0.002 C 
BRANCH  26  27
ATOM     27  C   UNL A   1      33.152  34.578  28.854  1.00  0.00     0.021 C 
BRANCH  27  28
ATOM     28  C   UNL A   1      33.456  35.956  29.432  1.00  0.00     0.116 C 
BRANCH  28  29
ATOM     29  N   UNL A   1      32.617  36.252  30.581  1.00  0.00    -0.352 N 
ATOM     30  C   UNL A   1      32.693  35.764  31.862  1.00  0.00     0.251 C 
ATOM     31  H   UNL A   1      31.889  36.895  30.419  1.00  0.00     0.163 HD
ATOM     32  O   UNL A   1      31.762  35.934  32.644  1.00  0.00    -0.269 OA
BRANCH  30  33
ATOM     33  C   UNL A   1      33.896  35.025  32.298  1.00  0.00     0.039 A 
ATOM     34  C   UNL A   1      33.757  33.706  32.734  1.00  0.00     0.014 A 
ATOM     35  C   UNL A   1      35.151  35.640  32.300  1.00  0.00     0.014 A 
ATOM     36  C   UNL A   1      34.888  32.985  33.124  1.00  0.00     0.010 A 
ATOM     37  C   UNL A   1      36.285  34.900  32.623  1.00  0.00     0.010 A 
ATOM     38  C   UNL A   1      36.164  33.567  33.043  1.00  0.00    -0.014 A 
BRANCH  38  39
ATOM     39  C   UNL A   1      37.383  32.796  33.394  1.00  0.00     0.031 A 
ATOM     40  C   UNL A   1      38.119  33.086  34.673  1.00  0.00     0.074 A 
ATOM     41  C   UNL A   1      37.856  31.874  32.533  1.00  0.00     0.049 A 
ATOM     42  N   UNL A   1      39.241  32.574  35.111  1.00  0.00    -0.248 NA
ATOM     43  C   UNL A   1      37.534  34.099  35.566  1.00  0.00     0.031 C 
ATOM     44  C   UNL A   1      37.252  31.531  31.244  1.00  0.00     0.029 A 
ATOM     45  N   UNL A   1      38.960  31.061  32.607  1.00  0.00    -0.354 N 
ATOM     46  C   UNL A   1      39.497  33.208  36.320  1.00  0.00     0.074 A 
ATOM     47  C   UNL A   1      38.444  34.175  36.527  1.00  0.00     0.031 C 
ATOM     48  C   UNL A   1      37.979  30.566  30.660  1.00  0.00     0.029 A 
ATOM     49  C   UNL A   1      39.123  30.250  31.510  1.00  0.00     0.049 A 
ATOM     50  H   UNL A   1      39.577  31.060  33.374  1.00  0.00     0.167 HD
ATOM     51  C   UNL A   1      40.509  32.981  37.191  1.00  0.00     0.037 A 
ATOM     52  C   UNL A   1      40.089  29.358  31.217  1.00  0.00     0.037 A 
ATOM     53  C   UNL A   1      41.535  31.992  37.000  1.00  0.00     0.049 A 
ATOM     54  C   UNL A   1      41.204  29.132  32.201  1.00  0.00     0.074 A 
ATOM     55  C   UNL A   1      42.569  31.653  37.856  1.00  0.00     0.029 A 
ATOM     56  N   UNL A   1      41.655  31.181  35.883  1.00  0.00    -0.354 N 
ATOM     57  N   UNL A   1      41.404  29.702  33.364  1.00  0.00    -0.248 NA
ATOM     58  C   UNL A   1      42.224  28.139  31.836  1.00  0.00     0.031 C 
ATOM     59  C   UNL A   1      43.340  30.666  37.238  1.00  0.00     0.029 A 
ATOM     60  C   UNL A   1      42.758  30.355  36.021  1.00  0.00     0.049 A 
ATOM     61  H   UNL A   1      41.048  31.189  35.109  1.00  0.00     0.167 HD
ATOM     62  C   UNL A   1      42.553  29.121  33.881  1.00  0.00     0.074 A 
ATOM     63  C   UNL A   1      43.001  28.143  32.911  1.00  0.00     0.031 C 
ATOM     64  C   UNL A   1      43.183  29.377  35.053  1.00  0.00     0.037 A 
BRANCH  51  65
ATOM     65  C   UNL A   1      40.556  33.796  38.449  1.00  0.00     0.057 A 
ATOM     66  C   UNL A   1      39.729  33.482  39.536  1.00  0.00     0.134 A 
ATOM     67  C   UNL A   1      41.338  34.954  38.543  1.00  0.00     0.134 A 
ATOM     68  F   UNL A   1      38.951  32.391  39.507  1.00  0.00    -0.206 F 
ATOM     69  C   UNL A   1      39.662  34.305  40.662  1.00  0.00     0.040 A 
ATOM     70  C   UNL A   1      41.296  35.772  39.673  1.00  0.00     0.040 A 
ATOM     71  F   UNL A   1      42.158  35.304  37.541  1.00  0.00    -0.206 F 
ATOM     72  C   UNL A   1      40.446  35.455  40.731  1.00  0.00     0.006 A 
ENDBRANCH  51  65
BRANCH  52  73
ATOM     73  C   UNL A   1      40.036  28.601  29.940  1.00  0.00     0.057 A 
ATOM     74  C   UNL A   1      39.324  27.400  29.830  1.00  0.00     0.134 A 
ATOM     75  C   UNL A   1      40.703  29.060  28.798  1.00  0.00     0.134 A 
ATOM     76  F   UNL A   1      38.670  26.901  30.889  1.00  0.00    -0.206 F 
ATOM     77  C   UNL A   1      39.286  26.679  28.636  1.00  0.00     0.040 A 
ATOM     78  C   UNL A   1      40.651  28.364  27.589  1.00  0.00     0.040 A 
ATOM     79  F   UNL A   1      41.387  30.213  28.836  1.00  0.00    -0.206 F 
ATOM     80  C   UNL A   1      39.945  27.165  27.508  1.00  0.00     0.006 A 
ENDBRANCH  52  73
BRANCH  64  81
ATOM     81  C   UNL A   1      44.409  28.575  35.376  1.00  0.00     0.057 A 
ATOM     82  C   UNL A   1      44.312  27.399  36.131  1.00  0.00     0.134 A 
ATOM     83  C   UNL A   1      45.690  29.015  35.021  1.00  0.00     0.134 A 
ATOM     84  F   UNL A   1      43.115  26.932  36.514  1.00  0.00    -0.206 F 
ATOM     85  C   UNL A   1      45.448  26.697  36.536  1.00  0.00     0.040 A 
ATOM     86  C   UNL A   1      46.832  28.307  35.398  1.00  0.00     0.040 A 
ATOM     87  F   UNL A   1      45.849  30.128  34.291  1.00  0.00    -0.206 F 
ATOM     88  C   UNL A   1      46.713  27.151  36.167  1.00  0.00     0.006 A 
ENDBRANCH  64  81
ENDBRANCH  38  39
ENDBRANCH  30  33
ENDBRANCH  28  29
ENDBRANCH  27  28
ENDBRANCH  26  27
ENDBRANCH   1  26
TORSDOF 16
ENDMDL
