MODEL 1
REMARK VINA RESULT:     -12.5      0.000      0.000
REMARK SMILES O=C(NCCCCCCNC(=O)c1ccc(-c2c3nc(c(-c4c(F)cccc4F)c4ccc([nH]4)c(-c4c(F)cccc4F)c4nc(c(-c5c(F)cccc5F)c5ccc2[nH]5)C=C4)C=C3)cc1)C1=Cc2cc(S(F)(F)(F)(F)F)cc(Br)c2O[C@H]1C(F)(F)F
REMARK SMILES IDX 7 1 6 2 5 3 4 4 3 5 1 6 2 7 67 9 68 10 83 11 69 12 82 13
REMARK SMILES IDX 70 14 81 15 71 16 79 17 78 18 80 19 84 20 85 21 86 22 87 23
REMARK SMILES IDX 72 24 73 25 74 26 75 27 76 28 77 29 8 30 9 31 10 32 11 33
REMARK SMILES IDX 12 35 13 36 14 37 66 38 15 39 65 40 16 41 17 42 18 43 59 44
REMARK SMILES IDX 19 45 64 46 58 47 60 48 20 49 63 50 57 51 56 52 21 54 47 55
REMARK SMILES IDX 30 56 46 57 31 58 34 59 45 60 61 61 32 62 33 63 44 65 62 66
REMARK SMILES IDX 35 67 22 68 23 69 28 70 24 71 25 72 27 73 29 74 26 75 48 76
REMARK SMILES IDX 49 77 54 78 50 79 51 80 53 81 55 82 52 83 36 84 37 85 42 86
REMARK SMILES IDX 38 87 39 88 41 89 43 90 40 91
REMARK H PARENT 3 8 10 34 60 53 34 64
REMARK Flexibility Score: inf
ROOT
ATOM      1  C   UNL A   1      36.785  20.828  25.005  1.00  0.00     0.002 C 
ENDROOT
BRANCH   1   2
ATOM      2  C   UNL A   1      37.375  22.213  24.793  1.00  0.00     0.002 C 
BRANCH   2   3
ATOM      3  C   UNL A   1      36.646  22.906  23.654  1.00  0.00     0.021 C 
BRANCH   3   4
ATOM      4  C   UNL A   1      35.475  23.699  24.211  1.00  0.00     0.116 C 
BRANCH   4   5
ATOM      5  N   UNL A   1      34.310  23.538  23.329  1.00  0.00    -0.352 N 
ATOM      6  O   UNL A   1      31.979  23.119  23.141  1.00  0.00    -0.270 OA
ATOM      7  C   UNL A   1      32.986  23.258  23.904  1.00  0.00     0.251 C 
ATOM      8  H   UNL A   1      34.416  23.618  22.354  1.00  0.00     0.163 HD
BRANCH   7   9
ATOM      9  C   UNL A   1      32.821  23.134  25.410  1.00  0.00     0.067 C 
ATOM     10  C   UNL A   1      32.733  24.252  26.179  1.00  0.00     0.025 C 
ATOM     11  C   UNL A   1      32.756  21.760  26.056  1.00  0.00     0.314 C 
ATOM     12  C   UNL A   1      32.798  25.626  25.531  1.00  0.00     0.020 A 
ATOM     13  O   UNL A   1      31.522  24.703  23.753  1.00  0.00    -0.474 OA
ATOM     14  C   UNL A   1      33.484  26.669  26.133  1.00  0.00     0.036 A 
ATOM     15  C   UNL A   1      32.080  25.818  24.432  1.00  0.00     0.142 A 
ATOM     16  C   UNL A   1      33.113  27.949  25.658  1.00  0.00     0.109 A 
ATOM     17  C   UNL A   1      31.870  27.086  23.946  1.00  0.00     0.062 A 
ATOM     18  C   UNL A   1      32.469  28.170  24.526  1.00  0.00     0.044 A 
ATOM     19  Br  UNL A   1      30.696  27.346  22.399  1.00  0.00    -0.047 Br
BRANCH  11  20
ATOM     20  C   UNL A   1      32.878  20.689  24.985  1.00  0.00     0.429 C 
ATOM     21  F   UNL A   1      33.935  20.948  24.220  1.00  0.00    -0.167 F 
ATOM     22  F   UNL A   1      33.027  19.500  25.560  1.00  0.00    -0.167 F 
ATOM     23  F   UNL A   1      31.780  20.685  24.234  1.00  0.00    -0.167 F 
ENDBRANCH  11  20
BRANCH  16  24
ATOM     24  S   UNL A   1      33.551  29.384  26.671  1.00  0.00     0.310 S 
ATOM     25  F   UNL A   1      33.902  28.474  27.923  1.00  0.00    -0.094 F 
ATOM     26  F   UNL A   1      32.067  29.421  27.202  1.00  0.00    -0.094 F 
ATOM     27  F   UNL A   1      33.922  30.617  27.542  1.00  0.00    -0.094 F 
ATOM     28  F   UNL A   1      35.062  29.245  26.237  1.00  0.00    -0.094 F 
ATOM     29  F   UNL A   1      33.214  28.062  25.871  1.00  0.00    -0.094 F 
ENDBRANCH  16  24
ENDBRANCH   7   9
ENDBRANCH   4   5
ENDBRANCH   3   4
ENDBRANCH   2   3
ENDBRANCH   1   2
BRANCH   1  30
ATOM     30  C   UNL A   1      37.871  19.781  24.825  1.00  0.00     0.021 C 
BRANCH  30  31
ATOM     31  C   UNL A   1      39.022  20.077  25.772  1.00  0.00     0.116 C 
BRANCH  31  32
ATOM     32  N   UNL A   1      40.019  19.001  25.685  1.00  0.00    -0.352 N 
ATOM     33  C   UNL A   1      41.417  19.263  26.058  1.00  0.00     0.251 C 
ATOM     34  H   UNL A   1      39.750  18.105  25.378  1.00  0.00     0.163 HD
ATOM     35  O   UNL A   1      42.280  18.332  25.982  1.00  0.00    -0.269 OA
BRANCH  33  36
ATOM     36  C   UNL A   1      41.831  20.646  26.532  1.00  0.00     0.039 A 
ATOM     37  C   UNL A   1      41.879  20.912  27.891  1.00  0.00     0.014 A 
ATOM     38  C   UNL A   1      42.140  21.576  25.637  1.00  0.00     0.014 A 
ATOM     39  C   UNL A   1      41.988  22.288  28.202  1.00  0.00     0.010 A 
ATOM     40  C   UNL A   1      42.368  22.874  26.027  1.00  0.00     0.010 A 
ATOM     41  C   UNL A   1      42.373  23.220  27.349  1.00  0.00    -0.014 A 
BRANCH  41  42
ATOM     42  C   UNL A   1      42.796  24.604  27.814  1.00  0.00     0.031 A 
ATOM     43  C   UNL A   1      44.163  24.873  27.912  1.00  0.00     0.074 A 
ATOM     44  C   UNL A   1      41.804  25.521  28.115  1.00  0.00     0.049 A 
ATOM     45  N   UNL A   1      44.743  26.022  28.265  1.00  0.00    -0.248 NA
ATOM     46  C   UNL A   1      45.219  23.890  27.625  1.00  0.00     0.031 C 
ATOM     47  C   UNL A   1      40.423  25.260  28.011  1.00  0.00     0.029 A 
ATOM     48  N   UNL A   1      41.955  26.816  28.560  1.00  0.00    -0.354 N 
ATOM     49  C   UNL A   1      46.071  25.899  28.224  1.00  0.00     0.074 A 
ATOM     50  C   UNL A   1      46.397  24.525  27.818  1.00  0.00     0.031 C 
ATOM     51  C   UNL A   1      39.753  26.377  28.397  1.00  0.00     0.029 A 
ATOM     52  C   UNL A   1      40.702  27.355  28.748  1.00  0.00     0.049 A 
ATOM     53  H   UNL A   1      42.811  27.275  28.715  1.00  0.00     0.167 HD
ATOM     54  C   UNL A   1      47.023  26.880  28.507  1.00  0.00     0.037 A 
ATOM     55  C   UNL A   1      40.385  28.624  29.204  1.00  0.00     0.037 A 
ATOM     56  C   UNL A   1      46.705  28.163  28.920  1.00  0.00     0.049 A 
ATOM     57  C   UNL A   1      41.338  29.588  29.543  1.00  0.00     0.074 A 
ATOM     58  C   UNL A   1      47.653  29.166  29.202  1.00  0.00     0.029 A 
ATOM     59  N   UNL A   1      45.452  28.694  29.133  1.00  0.00    -0.354 N 
ATOM     60  N   UNL A   1      42.665  29.477  29.464  1.00  0.00    -0.248 NA
ATOM     61  C   UNL A   1      41.014  30.925  30.057  1.00  0.00     0.031 C 
ATOM     62  C   UNL A   1      46.982  30.283  29.589  1.00  0.00     0.029 A 
ATOM     63  C   UNL A   1      45.603  29.996  29.556  1.00  0.00     0.049 A 
ATOM     64  H   UNL A   1      44.597  28.224  29.006  1.00  0.00     0.167 HD
ATOM     65  C   UNL A   1      43.245  30.613  29.857  1.00  0.00     0.074 A 
ATOM     66  C   UNL A   1      42.191  31.558  30.252  1.00  0.00     0.031 C 
ATOM     67  C   UNL A   1      44.610  30.900  29.899  1.00  0.00     0.037 A 
BRANCH  54  68
ATOM     68  C   UNL A   1      48.492  26.518  28.353  1.00  0.00     0.057 A 
ATOM     69  C   UNL A   1      49.177  26.763  27.174  1.00  0.00     0.134 A 
ATOM     70  C   UNL A   1      49.098  25.977  29.403  1.00  0.00     0.134 A 
ATOM     71  F   UNL A   1      48.692  27.523  26.196  1.00  0.00    -0.206 F 
ATOM     72  C   UNL A   1      50.441  26.130  27.104  1.00  0.00     0.040 A 
ATOM     73  C   UNL A   1      50.383  25.502  29.301  1.00  0.00     0.040 A 
ATOM     74  F   UNL A   1      48.456  25.894  30.565  1.00  0.00    -0.206 F 
ATOM     75  C   UNL A   1      51.100  25.656  28.146  1.00  0.00     0.006 A 
ENDBRANCH  54  68
BRANCH  55  76
ATOM     76  C   UNL A   1      38.916  28.990  29.342  1.00  0.00     0.057 A 
ATOM     77  C   UNL A   1      38.307  29.622  28.270  1.00  0.00     0.134 A 
ATOM     78  C   UNL A   1      38.251  28.744  30.465  1.00  0.00     0.134 A 
ATOM     79  F   UNL A   1      38.841  29.665  27.053  1.00  0.00    -0.206 F 
ATOM     80  C   UNL A   1      37.064  30.220  28.589  1.00  0.00     0.040 A 
ATOM     81  C   UNL A   1      36.986  29.246  30.654  1.00  0.00     0.040 A 
ATOM     82  F   UNL A   1      38.816  28.004  31.416  1.00  0.00    -0.206 F 
ATOM     83  C   UNL A   1      36.346  29.931  29.659  1.00  0.00     0.006 A 
ENDBRANCH  55  76
BRANCH  67  84
ATOM     84  C   UNL A   1      45.034  32.289  30.350  1.00  0.00     0.057 A 
ATOM     85  C   UNL A   1      45.313  32.514  31.688  1.00  0.00     0.134 A 
ATOM     86  C   UNL A   1      45.129  33.264  29.453  1.00  0.00     0.134 A 
ATOM     87  F   UNL A   1      45.477  31.532  32.569  1.00  0.00    -0.206 F 
ATOM     88  C   UNL A   1      45.407  33.883  32.031  1.00  0.00     0.040 A 
ATOM     89  C   UNL A   1      45.358  34.560  29.850  1.00  0.00     0.040 A 
ATOM     90  F   UNL A   1      45.002  32.984  28.159  1.00  0.00    -0.206 F 
ATOM     91  C   UNL A   1      45.584  34.863  31.164  1.00  0.00     0.006 A 
ENDBRANCH  67  84
ENDBRANCH  41  42
ENDBRANCH  33  36
ENDBRANCH  31  32
ENDBRANCH  30  31
ENDBRANCH   1  30
TORSDOF 15
ENDMDL
MODEL 2
REMARK VINA RESULT:     -12.5      0.184      5.892
REMARK SMILES O=C(NCCCCCCNC(=O)c1ccc(-c2c3nc(c(-c4c(F)cccc4F)c4ccc([nH]4)c(-c4c(F)cccc4F)c4nc(c(-c5c(F)cccc5F)c5ccc2[nH]5)C=C4)C=C3)cc1)C1=Cc2cc(S(F)(F)(F)(F)F)cc(Br)c2O[C@H]1C(F)(F)F
REMARK SMILES IDX 7 1 6 2 5 3 4 4 3 5 1 6 2 7 67 9 68 10 83 11 69 12 82 13
REMARK SMILES IDX 70 14 81 15 71 16 79 17 78 18 80 19 84 20 85 21 86 22 87 23
REMARK SMILES IDX 72 24 73 25 74 26 75 27 76 28 77 29 8 30 9 31 10 32 11 33
REMARK SMILES IDX 12 35 13 36 14 37 66 38 15 39 65 40 16 41 17 42 18 43 59 44
REMARK SMILES IDX 19 45 64 46 58 47 60 48 20 49 63 50 57 51 56 52 21 54 47 55
REMARK SMILES IDX 30 56 46 57 31 58 34 59 45 60 61 61 32 62 33 63 44 65 62 66
REMARK SMILES IDX 35 67 22 68 23 69 28 70 24 71 25 72 27 73 29 74 26 75 48 76
REMARK SMILES IDX 49 77 54 78 50 79 51 80 53 81 55 82 52 83 36 84 37 85 42 86
REMARK SMILES IDX 38 87 39 88 41 89 43 90 40 91
REMARK H PARENT 3 8 10 34 60 53 34 64
REMARK Flexibility Score: inf
ROOT
ATOM      1  C   UNL A   1      36.703  20.802  24.985  1.00  0.00     0.002 C 
ENDROOT
BRANCH   1   2
ATOM      2  C   UNL A   1      37.402  22.133  24.755  1.00  0.00     0.002 C 
BRANCH   2   3
ATOM      3  C   UNL A   1      36.688  22.895  23.651  1.00  0.00     0.021 C 
BRANCH   3   4
ATOM      4  C   UNL A   1      35.498  23.638  24.236  1.00  0.00     0.116 C 
BRANCH   4   5
ATOM      5  N   UNL A   1      34.340  23.491  23.342  1.00  0.00    -0.352 N 
ATOM      6  O   UNL A   1      32.006  23.100  23.130  1.00  0.00    -0.270 OA
ATOM      7  C   UNL A   1      33.007  23.227  23.903  1.00  0.00     0.251 C 
ATOM      8  H   UNL A   1      34.458  23.568  22.368  1.00  0.00     0.163 HD
BRANCH   7   9
ATOM      9  C   UNL A   1      32.826  23.106  25.408  1.00  0.00     0.067 C 
ATOM     10  C   UNL A   1      32.727  24.226  26.173  1.00  0.00     0.025 C 
ATOM     11  C   UNL A   1      32.754  21.733  26.057  1.00  0.00     0.314 C 
ATOM     12  C   UNL A   1      32.799  25.598  25.524  1.00  0.00     0.020 A 
ATOM     13  O   UNL A   1      31.544  24.669  23.733  1.00  0.00    -0.474 OA
ATOM     14  C   UNL A   1      33.477  26.644  26.131  1.00  0.00     0.036 A 
ATOM     15  C   UNL A   1      32.092  25.787  24.416  1.00  0.00     0.142 A 
ATOM     16  C   UNL A   1      33.109  27.922  25.648  1.00  0.00     0.109 A 
ATOM     17  C   UNL A   1      31.887  27.054  23.925  1.00  0.00     0.062 A 
ATOM     18  C   UNL A   1      32.477  28.139  24.509  1.00  0.00     0.044 A 
ATOM     19  Br  UNL A   1      30.729  27.308  22.364  1.00  0.00    -0.047 Br
BRANCH  11  20
ATOM     20  C   UNL A   1      32.890  20.660  24.989  1.00  0.00     0.429 C 
ATOM     21  F   UNL A   1      31.773  20.608  24.269  1.00  0.00    -0.167 F 
ATOM     22  F   UNL A   1      33.916  20.950  24.195  1.00  0.00    -0.167 F 
ATOM     23  F   UNL A   1      33.098  19.481  25.570  1.00  0.00    -0.167 F 
ENDBRANCH  11  20
BRANCH  16  24
ATOM     24  S   UNL A   1      33.534  29.359  26.664  1.00  0.00     0.310 S 
ATOM     25  F   UNL A   1      33.918  28.450  27.906  1.00  0.00    -0.094 F 
ATOM     26  F   UNL A   1      32.057  29.366  27.214  1.00  0.00    -0.094 F 
ATOM     27  F   UNL A   1      33.893  30.595  27.536  1.00  0.00    -0.094 F 
ATOM     28  F   UNL A   1      35.042  29.250  26.209  1.00  0.00    -0.094 F 
ATOM     29  F   UNL A   1      33.211  28.035  25.861  1.00  0.00    -0.094 F 
ENDBRANCH  16  24
ENDBRANCH   7   9
ENDBRANCH   4   5
ENDBRANCH   3   4
ENDBRANCH   2   3
ENDBRANCH   1   2
BRANCH   1  30
ATOM     30  C   UNL A   1      37.728  19.679  24.952  1.00  0.00     0.021 C 
BRANCH  30  31
ATOM     31  C   UNL A   1      38.976  20.111  25.704  1.00  0.00     0.116 C 
BRANCH  31  32
ATOM     32  N   UNL A   1      39.981  19.041  25.642  1.00  0.00    -0.352 N 
ATOM     33  C   UNL A   1      41.367  19.310  26.053  1.00  0.00     0.251 C 
ATOM     34  H   UNL A   1      39.726  18.144  25.325  1.00  0.00     0.163 HD
ATOM     35  O   UNL A   1      42.236  18.384  25.999  1.00  0.00    -0.269 OA
BRANCH  33  36
ATOM     36  C   UNL A   1      41.760  20.694  26.542  1.00  0.00     0.039 A 
ATOM     37  C   UNL A   1      41.760  20.959  27.902  1.00  0.00     0.014 A 
ATOM     38  C   UNL A   1      42.096  21.626  25.659  1.00  0.00     0.014 A 
ATOM     39  C   UNL A   1      41.853  22.334  28.218  1.00  0.00     0.010 A 
ATOM     40  C   UNL A   1      42.306  22.924  26.058  1.00  0.00     0.010 A 
ATOM     41  C   UNL A   1      42.263  23.269  27.380  1.00  0.00    -0.014 A 
BRANCH  41  42
ATOM     42  C   UNL A   1      42.666  24.654  27.860  1.00  0.00     0.031 A 
ATOM     43  C   UNL A   1      41.652  25.573  28.136  1.00  0.00     0.074 A 
ATOM     44  C   UNL A   1      44.016  24.928  27.995  1.00  0.00     0.049 A 
ATOM     45  N   UNL A   1      41.786  26.819  28.595  1.00  0.00    -0.248 NA
ATOM     46  C   UNL A   1      40.218  25.296  27.961  1.00  0.00     0.031 C 
ATOM     47  C   UNL A   1      45.045  24.004  27.726  1.00  0.00     0.029 A 
ATOM     48  N   UNL A   1      44.604  26.106  28.400  1.00  0.00    -0.354 N 
ATOM     49  C   UNL A   1      40.586  27.382  28.754  1.00  0.00     0.074 A 
ATOM     50  C   UNL A   1      39.561  26.413  28.343  1.00  0.00     0.031 C 
ATOM     51  C   UNL A   1      46.235  24.619  27.955  1.00  0.00     0.029 A 
ATOM     52  C   UNL A   1      45.970  25.938  28.372  1.00  0.00     0.049 A 
ATOM     53  H   UNL A   1      44.128  26.926  28.665  1.00  0.00     0.167 HD
ATOM     54  C   UNL A   1      40.307  28.665  29.228  1.00  0.00     0.037 A 
ATOM     55  C   UNL A   1      46.947  26.870  28.684  1.00  0.00     0.037 A 
ATOM     56  C   UNL A   1      41.283  29.582  29.583  1.00  0.00     0.049 A 
ATOM     57  C   UNL A   1      46.669  28.174  29.103  1.00  0.00     0.074 A 
ATOM     58  C   UNL A   1      41.018  30.877  30.069  1.00  0.00     0.029 A 
ATOM     59  N   UNL A   1      42.650  29.422  29.530  1.00  0.00    -0.354 N 
ATOM     60  N   UNL A   1      45.469  28.723  29.299  1.00  0.00    -0.248 NA
ATOM     61  C   UNL A   1      47.695  29.179  29.406  1.00  0.00     0.031 C 
ATOM     62  C   UNL A   1      42.209  31.493  30.298  1.00  0.00     0.029 A 
ATOM     63  C   UNL A   1      43.237  30.593  29.956  1.00  0.00     0.049 A 
ATOM     64  H   UNL A   1      43.125  28.611  29.237  1.00  0.00     0.167 HD
ATOM     65  C   UNL A   1      45.604  29.983  29.718  1.00  0.00     0.074 A 
ATOM     66  C   UNL A   1      47.038  30.297  29.786  1.00  0.00     0.031 C 
ATOM     67  C   UNL A   1      44.589  30.882  30.050  1.00  0.00     0.037 A 
BRANCH  54  68
ATOM     68  C   UNL A   1      38.850  29.079  29.362  1.00  0.00     0.057 A 
ATOM     69  C   UNL A   1      38.168  29.675  28.314  1.00  0.00     0.134 A 
ATOM     70  C   UNL A   1      38.251  28.825  30.519  1.00  0.00     0.134 A 
ATOM     71  F   UNL A   1      38.640  29.717  27.072  1.00  0.00    -0.206 F 
ATOM     72  C   UNL A   1      36.923  30.235  28.686  1.00  0.00     0.040 A 
ATOM     73  C   UNL A   1      36.980  29.287  30.765  1.00  0.00     0.040 A 
ATOM     74  F   UNL A   1      38.886  28.119  31.450  1.00  0.00    -0.206 F 
ATOM     75  C   UNL A   1      36.269  29.937  29.795  1.00  0.00     0.006 A 
ENDBRANCH  54  68
BRANCH  55  76
ATOM     76  C   UNL A   1      48.403  26.450  28.565  1.00  0.00     0.057 A 
ATOM     77  C   UNL A   1      49.036  26.657  27.351  1.00  0.00     0.134 A 
ATOM     78  C   UNL A   1      49.033  25.871  29.581  1.00  0.00     0.134 A 
ATOM     79  F   UNL A   1      48.542  27.445  26.400  1.00  0.00    -0.206 F 
ATOM     80  C   UNL A   1      50.255  25.952  27.213  1.00  0.00     0.040 A 
ATOM     81  C   UNL A   1      50.281  25.323  29.409  1.00  0.00     0.040 A 
ATOM     82  F   UNL A   1      48.451  25.824  30.776  1.00  0.00    -0.206 F 
ATOM     83  C   UNL A   1      50.941  25.438  28.217  1.00  0.00     0.006 A 
ENDBRANCH  55  76
BRANCH  67  84
ATOM     84  C   UNL A   1      44.992  32.262  30.545  1.00  0.00     0.057 A 
ATOM     85  C   UNL A   1      45.120  33.299  29.636  1.00  0.00     0.134 A 
ATOM     86  C   UNL A   1      45.213  32.450  31.841  1.00  0.00     0.134 A 
ATOM     87  F   UNL A   1      44.670  33.227  28.386  1.00  0.00    -0.206 F 
ATOM     88  C   UNL A   1      45.773  34.441  30.157  1.00  0.00     0.040 A 
ATOM     89  C   UNL A   1      45.727  33.641  32.296  1.00  0.00     0.040 A 
ATOM     90  F   UNL A   1      44.938  31.478  32.705  1.00  0.00    -0.206 F 
ATOM     91  C   UNL A   1      45.934  34.689  31.443  1.00  0.00     0.006 A 
ENDBRANCH  67  84
ENDBRANCH  41  42
ENDBRANCH  33  36
ENDBRANCH  31  32
ENDBRANCH  30  31
ENDBRANCH   1  30
TORSDOF 15
ENDMDL
MODEL 3
REMARK VINA RESULT:     -12.4      1.934      3.989
REMARK SMILES O=C(NCCCCCCNC(=O)c1ccc(-c2c3nc(c(-c4c(F)cccc4F)c4ccc([nH]4)c(-c4c(F)cccc4F)c4nc(c(-c5c(F)cccc5F)c5ccc2[nH]5)C=C4)C=C3)cc1)C1=Cc2cc(S(F)(F)(F)(F)F)cc(Br)c2O[C@H]1C(F)(F)F
REMARK SMILES IDX 7 1 6 2 5 3 4 4 3 5 1 6 2 7 67 9 68 10 83 11 69 12 82 13
REMARK SMILES IDX 70 14 81 15 71 16 79 17 78 18 80 19 84 20 85 21 86 22 87 23
REMARK SMILES IDX 72 24 73 25 74 26 75 27 76 28 77 29 8 30 9 31 10 32 11 33
REMARK SMILES IDX 12 35 13 36 14 37 66 38 15 39 65 40 16 41 17 42 18 43 59 44
REMARK SMILES IDX 19 45 64 46 58 47 60 48 20 49 63 50 57 51 56 52 21 54 47 55
REMARK SMILES IDX 30 56 46 57 31 58 34 59 45 60 61 61 32 62 33 63 44 65 62 66
REMARK SMILES IDX 35 67 22 68 23 69 28 70 24 71 25 72 27 73 29 74 26 75 48 76
REMARK SMILES IDX 49 77 54 78 50 79 51 80 53 81 55 82 52 83 36 84 37 85 42 86
REMARK SMILES IDX 38 87 39 88 41 89 43 90 40 91
REMARK H PARENT 3 8 10 34 60 53 34 64
REMARK Flexibility Score: inf
ROOT
ATOM      1  C   UNL A   1      36.342  20.910  25.132  1.00  0.00     0.002 C 
ENDROOT
BRANCH   1   2
ATOM      2  C   UNL A   1      36.765  22.352  24.903  1.00  0.00     0.002 C 
BRANCH   2   3
ATOM      3  C   UNL A   1      35.822  23.281  25.651  1.00  0.00     0.021 C 
BRANCH   3   4
ATOM      4  C   UNL A   1      35.456  24.456  24.759  1.00  0.00     0.116 C 
BRANCH   4   5
ATOM      5  N   UNL A   1      34.317  25.179  25.343  1.00  0.00    -0.352 N 
ATOM      6  O   UNL A   1      32.209  26.218  24.997  1.00  0.00    -0.270 OA
ATOM      7  C   UNL A   1      33.193  25.593  24.491  1.00  0.00     0.251 C 
ATOM      8  H   UNL A   1      34.308  25.386  26.306  1.00  0.00     0.163 HD
BRANCH   7   9
ATOM      9  C   UNL A   1      33.208  25.273  23.005  1.00  0.00     0.067 C 
ATOM     10  C   UNL A   1      33.015  23.995  22.582  1.00  0.00     0.025 C 
ATOM     11  C   UNL A   1      33.438  26.382  21.991  1.00  0.00     0.314 C 
ATOM     12  C   UNL A   1      32.784  22.886  23.596  1.00  0.00     0.020 A 
ATOM     13  O   UNL A   1      31.503  24.461  24.829  1.00  0.00    -0.474 OA
ATOM     14  C   UNL A   1      33.346  21.631  23.425  1.00  0.00     0.036 A 
ATOM     15  C   UNL A   1      31.934  23.131  24.586  1.00  0.00     0.142 A 
ATOM     16  C   UNL A   1      32.721  20.614  24.185  1.00  0.00     0.109 A 
ATOM     17  C   UNL A   1      31.468  22.108  25.376  1.00  0.00     0.062 A 
ATOM     18  C   UNL A   1      31.936  20.832  25.224  1.00  0.00     0.044 A 
ATOM     19  Br  UNL A   1      30.113  22.483  26.742  1.00  0.00    -0.047 Br
BRANCH  11  20
ATOM     20  C   UNL A   1      33.625  27.703  22.719  1.00  0.00     0.429 C 
ATOM     21  F   UNL A   1      32.441  28.164  23.112  1.00  0.00    -0.167 F 
ATOM     22  F   UNL A   1      34.404  27.519  23.781  1.00  0.00    -0.167 F 
ATOM     23  F   UNL A   1      34.194  28.584  21.900  1.00  0.00    -0.167 F 
ENDBRANCH  11  20
BRANCH  16  24
ATOM     24  S   UNL A   1      33.017  18.896  23.698  1.00  0.00     0.310 S 
ATOM     25  F   UNL A   1      31.885  18.358  24.671  1.00  0.00    -0.094 F 
ATOM     26  F   UNL A   1      34.022  18.762  24.905  1.00  0.00    -0.094 F 
ATOM     27  F   UNL A   1      33.276  17.421  23.283  1.00  0.00    -0.094 F 
ATOM     28  F   UNL A   1      31.904  19.007  22.583  1.00  0.00    -0.094 F 
ATOM     29  F   UNL A   1      32.661  20.360  24.179  1.00  0.00    -0.094 F 
ENDBRANCH  16  24
ENDBRANCH   7   9
ENDBRANCH   4   5
ENDBRANCH   3   4
ENDBRANCH   2   3
ENDBRANCH   1   2
BRANCH   1  30
ATOM     30  C   UNL A   1      37.511  19.986  24.831  1.00  0.00     0.021 C 
BRANCH  30  31
ATOM     31  C   UNL A   1      38.688  20.352  25.720  1.00  0.00     0.116 C 
BRANCH  31  32
ATOM     32  N   UNL A   1      39.712  19.302  25.636  1.00  0.00    -0.352 N 
ATOM     33  C   UNL A   1      41.091  19.584  26.063  1.00  0.00     0.251 C 
ATOM     34  H   UNL A   1      39.475  18.409  25.294  1.00  0.00     0.163 HD
ATOM     35  O   UNL A   1      41.977  18.675  25.990  1.00  0.00    -0.269 OA
BRANCH  33  36
ATOM     36  C   UNL A   1      41.456  20.961  26.592  1.00  0.00     0.039 A 
ATOM     37  C   UNL A   1      41.915  21.927  25.711  1.00  0.00     0.014 A 
ATOM     38  C   UNL A   1      41.329  21.216  27.888  1.00  0.00     0.014 A 
ATOM     39  C   UNL A   1      42.494  23.052  26.344  1.00  0.00     0.010 A 
ATOM     40  C   UNL A   1      41.795  22.396  28.418  1.00  0.00     0.010 A 
ATOM     41  C   UNL A   1      42.315  23.371  27.614  1.00  0.00    -0.014 A 
BRANCH  41  42
ATOM     42  C   UNL A   1      42.669  24.748  28.151  1.00  0.00     0.031 A 
ATOM     43  C   UNL A   1      44.006  25.007  28.461  1.00  0.00     0.074 A 
ATOM     44  C   UNL A   1      41.648  25.669  28.303  1.00  0.00     0.049 A 
ATOM     45  N   UNL A   1      44.531  26.148  28.909  1.00  0.00    -0.248 NA
ATOM     46  C   UNL A   1      45.088  24.019  28.331  1.00  0.00     0.031 C 
ATOM     47  C   UNL A   1      40.298  25.419  27.985  1.00  0.00     0.029 A 
ATOM     48  N   UNL A   1      41.736  26.959  28.778  1.00  0.00    -0.354 N 
ATOM     49  C   UNL A   1      45.849  26.017  29.072  1.00  0.00     0.074 A 
ATOM     50  C   UNL A   1      46.226  24.644  28.709  1.00  0.00     0.031 C 
ATOM     51  C   UNL A   1      39.582  26.537  28.273  1.00  0.00     0.029 A 
ATOM     52  C   UNL A   1      40.472  27.505  28.776  1.00  0.00     0.049 A 
ATOM     53  H   UNL A   1      42.560  27.412  29.067  1.00  0.00     0.167 HD
ATOM     54  C   UNL A   1      46.752  26.988  29.507  1.00  0.00     0.037 A 
ATOM     55  C   UNL A   1      40.095  28.774  29.189  1.00  0.00     0.037 A 
ATOM     56  C   UNL A   1      46.381  28.271  29.878  1.00  0.00     0.049 A 
ATOM     57  C   UNL A   1      40.990  29.728  29.679  1.00  0.00     0.074 A 
ATOM     58  C   UNL A   1      47.279  29.264  30.311  1.00  0.00     0.029 A 
ATOM     59  N   UNL A   1      45.113  28.809  29.900  1.00  0.00    -0.354 N 
ATOM     60  N   UNL A   1      42.312  29.608  29.804  1.00  0.00    -0.248 NA
ATOM     61  C   UNL A   1      40.598  31.062  30.149  1.00  0.00     0.031 C 
ATOM     62  C   UNL A   1      46.563  30.383  30.601  1.00  0.00     0.029 A 
ATOM     63  C   UNL A   1      45.205  30.106  30.353  1.00  0.00     0.049 A 
ATOM     64  H   UNL A   1      44.285  28.346  29.638  1.00  0.00     0.167 HD
ATOM     65  C   UNL A   1      42.832  30.737  30.292  1.00  0.00     0.074 A 
ATOM     66  C   UNL A   1      41.735  31.686  30.528  1.00  0.00     0.031 C 
ATOM     67  C   UNL A   1      44.175  31.014  30.547  1.00  0.00     0.037 A 
BRANCH  54  68
ATOM     68  C   UNL A   1      48.224  26.618  29.578  1.00  0.00     0.057 A 
ATOM     69  C   UNL A   1      49.090  26.890  28.531  1.00  0.00     0.134 A 
ATOM     70  C   UNL A   1      48.653  26.041  30.694  1.00  0.00     0.134 A 
ATOM     71  F   UNL A   1      48.770  27.683  27.512  1.00  0.00    -0.206 F 
ATOM     72  C   UNL A   1      50.346  26.248  28.644  1.00  0.00     0.040 A 
ATOM     73  C   UNL A   1      49.936  25.557  30.784  1.00  0.00     0.040 A 
ATOM     74  F   UNL A   1      47.834  25.930  31.736  1.00  0.00    -0.206 F 
ATOM     75  C   UNL A   1      50.828  25.738  29.763  1.00  0.00     0.006 A 
ENDBRANCH  54  68
BRANCH  55  76
ATOM     76  C   UNL A   1      38.624  29.148  29.102  1.00  0.00     0.057 A 
ATOM     77  C   UNL A   1      38.170  29.699  27.915  1.00  0.00     0.134 A 
ATOM     78  C   UNL A   1      37.814  28.986  30.141  1.00  0.00     0.134 A 
ATOM     79  F   UNL A   1      38.862  29.652  26.780  1.00  0.00    -0.206 F 
ATOM     80  C   UNL A   1      36.902  30.319  28.020  1.00  0.00     0.040 A 
ATOM     81  C   UNL A   1      36.540  29.500  30.121  1.00  0.00     0.040 A 
ATOM     82  F   UNL A   1      38.239  28.318  31.210  1.00  0.00    -0.206 F 
ATOM     83  C   UNL A   1      36.045  30.110  29.002  1.00  0.00     0.006 A 
ENDBRANCH  55  76
BRANCH  67  84
ATOM     84  C   UNL A   1      44.532  32.397  31.070  1.00  0.00     0.057 A 
ATOM     85  C   UNL A   1      44.598  32.610  32.437  1.00  0.00     0.134 A 
ATOM     86  C   UNL A   1      44.775  33.376  30.207  1.00  0.00     0.134 A 
ATOM     87  F   UNL A   1      44.615  31.620  33.325  1.00  0.00    -0.206 F 
ATOM     88  C   UNL A   1      44.647  33.976  32.802  1.00  0.00     0.040 A 
ATOM     89  C   UNL A   1      44.947  34.668  30.646  1.00  0.00     0.040 A 
ATOM     90  F   UNL A   1      44.851  33.106  28.907  1.00  0.00    -0.206 F 
ATOM     91  C   UNL A   1      44.965  34.960  31.981  1.00  0.00     0.006 A 
ENDBRANCH  67  84
ENDBRANCH  41  42
ENDBRANCH  33  36
ENDBRANCH  31  32
ENDBRANCH  30  31
ENDBRANCH   1  30
TORSDOF 15
ENDMDL
