MODEL 1
REMARK VINA RESULT:     -12.1      0.000      0.000
REMARK SMILES COC(=O)c1ccc(-c2ccc(C(=O)NCCCCCCNC(=O)c3ccc(-c4c5nc(c(-c6c(F)cccc6F)c6ccc([nH]6)c(-c6c(F)cccc6F)c6nc(c(-c7c(F)cccc7F)c7ccc4[nH]7)C=C6)C=C5)cc3)cc2O)cc1F
REMARK SMILES IDX 18 1 17 2 16 3 15 4 13 5 14 6 12 8 9 9 10 10 80 11 11 12
REMARK SMILES IDX 79 13 8 14 5 15 6 16 83 17 7 18 82 19 84 20 3 21 4 22 2 23
REMARK SMILES IDX 1 24 81 25 19 27 20 28 21 29 22 30 23 31 24 33 25 34 26 35
REMARK SMILES IDX 78 36 27 37 77 38 28 39 29 40 30 41 71 42 31 43 76 44 70 45
REMARK SMILES IDX 72 46 32 47 75 48 69 49 68 50 33 52 59 53 42 54 58 55 43 56
REMARK SMILES IDX 46 57 57 58 73 59 44 60 45 61 56 63 74 64 47 65 34 66 35 67
REMARK SMILES IDX 40 68 36 69 37 70 39 71 41 72 38 73 60 74 61 75 66 76 62 77
REMARK SMILES IDX 63 78 65 79 67 80 64 81 48 82 49 83 54 84 50 85 51 86 53 87
REMARK SMILES IDX 55 88 52 89
REMARK H PARENT 15 7 81 26 22 32 72 51 46 62
REMARK Flexibility Score: inf
ROOT
ATOM      1  C   UNL A   1      35.694  21.527  24.632  1.00  0.00     0.002 C 
ENDROOT
BRANCH   1   2
ATOM      2  C   UNL A   1      35.530  22.532  25.782  1.00  0.00     0.021 C 
BRANCH   2   3
ATOM      3  C   UNL A   1      34.444  22.120  26.779  1.00  0.00     0.116 C 
BRANCH   3   4
ATOM      4  N   UNL A   1      33.521  21.201  26.150  1.00  0.00    -0.352 N 
ATOM      5  C   UNL A   1      32.334  21.362  25.489  1.00  0.00     0.251 C 
ATOM      6  O   UNL A   1      31.771  20.336  25.104  1.00  0.00    -0.269 OA
ATOM      7  H   UNL A   1      33.807  20.261  26.210  1.00  0.00     0.163 HD
BRANCH   5   8
ATOM      8  C   UNL A   1      31.718  22.683  25.170  1.00  0.00     0.043 A 
ATOM      9  C   UNL A   1      30.560  25.137  24.329  1.00  0.00     0.024 A 
ATOM     10  C   UNL A   1      30.840  24.123  23.405  1.00  0.00     0.013 A 
ATOM     11  C   UNL A   1      30.870  24.898  25.675  1.00  0.00     0.124 A 
ATOM     12  C   UNL A   1      31.424  22.922  23.818  1.00  0.00     0.015 A 
ATOM     13  C   UNL A   1      31.390  23.671  26.100  1.00  0.00     0.060 A 
BRANCH   9  14
ATOM     14  C   UNL A   1      29.914  26.379  23.889  1.00  0.00    -0.012 A 
ATOM     15  C   UNL A   1      28.700  28.750  22.989  1.00  0.00     0.095 A 
ATOM     16  C   UNL A   1      30.081  28.579  22.855  1.00  0.00     0.019 A 
ATOM     17  C   UNL A   1      27.929  27.735  23.550  1.00  0.00     0.138 A 
ATOM     18  C   UNL A   1      30.681  27.404  23.311  1.00  0.00     0.010 A 
ATOM     19  C   UNL A   1      28.526  26.559  24.000  1.00  0.00     0.049 A 
ATOM     20  F   UNL A   1      26.595  27.847  23.644  1.00  0.00    -0.206 F 
BRANCH  15  21
ATOM     21  C   UNL A   1      28.104  30.009  22.514  1.00  0.00     0.340 C 
ATOM     22  O   UNL A   1      27.358  30.692  23.187  1.00  0.00    -0.246 OA
BRANCH  21  23
ATOM     23  O   UNL A   1      28.415  30.190  21.207  1.00  0.00    -0.465 OA
ATOM     24  C   UNL A   1      27.884  31.390  20.649  1.00  0.00     0.282 C 
ENDBRANCH  21  23
ENDBRANCH  15  21
ENDBRANCH   9  14
BRANCH  11  25
ATOM     25  O   UNL A   1      30.634  25.883  26.599  1.00  0.00    -0.507 OA
ATOM     26  H   UNL A   1      31.250  26.036  27.288  1.00  0.00     0.293 HD
ENDBRANCH  11  25
ENDBRANCH   5   8
ENDBRANCH   3   4
ENDBRANCH   2   3
ENDBRANCH   1   2
BRANCH   1  27
ATOM     27  C   UNL A   1      36.327  20.190  25.039  1.00  0.00     0.002 C 
BRANCH  27  28
ATOM     28  C   UNL A   1      37.796  20.033  24.642  1.00  0.00     0.021 C 
BRANCH  28  29
ATOM     29  C   UNL A   1      38.775  20.375  25.759  1.00  0.00     0.116 C 
BRANCH  29  30
ATOM     30  N   UNL A   1      39.852  19.399  25.837  1.00  0.00    -0.352 N 
ATOM     31  C   UNL A   1      41.186  19.603  26.078  1.00  0.00     0.251 C 
ATOM     32  H   UNL A   1      39.586  18.463  25.695  1.00  0.00     0.163 HD
ATOM     33  O   UNL A   1      42.001  18.715  25.854  1.00  0.00    -0.269 OA
BRANCH  31  34
ATOM     34  C   UNL A   1      41.636  20.905  26.609  1.00  0.00     0.039 A 
ATOM     35  C   UNL A   1      42.103  21.878  25.723  1.00  0.00     0.014 A 
ATOM     36  C   UNL A   1      41.609  21.155  27.984  1.00  0.00     0.014 A 
ATOM     37  C   UNL A   1      42.502  23.121  26.213  1.00  0.00     0.010 A 
ATOM     38  C   UNL A   1      41.933  22.418  28.464  1.00  0.00     0.010 A 
ATOM     39  C   UNL A   1      42.395  23.409  27.584  1.00  0.00    -0.014 A 
BRANCH  39  40
ATOM     40  C   UNL A   1      42.780  24.734  28.127  1.00  0.00     0.031 A 
ATOM     41  C   UNL A   1      41.734  25.792  28.337  1.00  0.00     0.074 A 
ATOM     42  C   UNL A   1      44.076  25.000  28.376  1.00  0.00     0.049 A 
ATOM     43  N   UNL A   1      41.881  27.032  28.727  1.00  0.00    -0.248 NA
ATOM     44  C   UNL A   1      40.343  25.415  28.042  1.00  0.00     0.031 C 
ATOM     45  C   UNL A   1      45.184  24.064  28.183  1.00  0.00     0.029 A 
ATOM     46  N   UNL A   1      44.680  26.142  28.840  1.00  0.00    -0.354 N 
ATOM     47  C   UNL A   1      40.606  27.583  28.717  1.00  0.00     0.074 A 
ATOM     48  C   UNL A   1      39.708  26.563  28.221  1.00  0.00     0.031 C 
ATOM     49  C   UNL A   1      46.328  24.657  28.557  1.00  0.00     0.029 A 
ATOM     50  C   UNL A   1      46.042  26.026  28.975  1.00  0.00     0.049 A 
ATOM     51  H   UNL A   1      44.185  26.964  29.056  1.00  0.00     0.167 HD
ATOM     52  C   UNL A   1      40.217  28.816  29.113  1.00  0.00     0.037 A 
ATOM     53  C   UNL A   1      46.958  26.924  29.385  1.00  0.00     0.037 A 
ATOM     54  C   UNL A   1      41.113  29.819  29.623  1.00  0.00     0.049 A 
ATOM     55  C   UNL A   1      46.508  28.299  29.790  1.00  0.00     0.074 A 
ATOM     56  C   UNL A   1      40.812  31.086  30.089  1.00  0.00     0.029 A 
ATOM     57  N   UNL A   1      42.488  29.666  29.735  1.00  0.00    -0.354 N 
ATOM     58  N   UNL A   1      45.294  28.795  29.815  1.00  0.00    -0.248 NA
ATOM     59  C   UNL A   1      47.550  29.239  30.226  1.00  0.00     0.031 C 
ATOM     60  C   UNL A   1      42.009  31.718  30.437  1.00  0.00     0.029 A 
ATOM     61  C   UNL A   1      43.051  30.825  30.242  1.00  0.00     0.049 A 
ATOM     62  H   UNL A   1      42.989  28.854  29.490  1.00  0.00     0.167 HD
ATOM     63  C   UNL A   1      45.422  30.093  30.292  1.00  0.00     0.074 A 
ATOM     64  C   UNL A   1      46.831  30.306  30.551  1.00  0.00     0.031 C 
ATOM     65  C   UNL A   1      44.456  31.021  30.500  1.00  0.00     0.037 A 
BRANCH  52  66
ATOM     66  C   UNL A   1      38.754  29.147  29.017  1.00  0.00     0.057 A 
ATOM     67  C   UNL A   1      38.198  29.603  27.815  1.00  0.00     0.134 A 
ATOM     68  C   UNL A   1      37.904  29.057  30.127  1.00  0.00     0.134 A 
ATOM     69  F   UNL A   1      38.956  29.720  26.715  1.00  0.00    -0.206 F 
ATOM     70  C   UNL A   1      36.853  29.960  27.723  1.00  0.00     0.040 A 
ATOM     71  C   UNL A   1      36.550  29.382  30.040  1.00  0.00     0.040 A 
ATOM     72  F   UNL A   1      38.370  28.615  31.306  1.00  0.00    -0.206 F 
ATOM     73  C   UNL A   1      36.023  29.844  28.837  1.00  0.00     0.006 A 
ENDBRANCH  52  66
BRANCH  53  74
ATOM     74  C   UNL A   1      48.384  26.522  29.473  1.00  0.00     0.057 A 
ATOM     75  C   UNL A   1      48.919  25.958  30.637  1.00  0.00     0.134 A 
ATOM     76  C   UNL A   1      49.259  26.748  28.404  1.00  0.00     0.134 A 
ATOM     77  F   UNL A   1      48.134  25.727  31.700  1.00  0.00    -0.206 F 
ATOM     78  C   UNL A   1      50.277  25.653  30.744  1.00  0.00     0.040 A 
ATOM     79  C   UNL A   1      50.615  26.427  28.489  1.00  0.00     0.040 A 
ATOM     80  F   UNL A   1      48.801  27.272  27.258  1.00  0.00    -0.206 F 
ATOM     81  C   UNL A   1      51.128  25.887  29.666  1.00  0.00     0.006 A 
ENDBRANCH  53  74
BRANCH  65  82
ATOM     82  C   UNL A   1      44.873  32.351  31.058  1.00  0.00     0.057 A 
ATOM     83  C   UNL A   1      45.258  33.391  30.202  1.00  0.00     0.134 A 
ATOM     84  C   UNL A   1      44.984  32.571  32.435  1.00  0.00     0.134 A 
ATOM     85  F   UNL A   1      45.185  33.240  28.870  1.00  0.00    -0.206 F 
ATOM     86  C   UNL A   1      45.761  34.594  30.696  1.00  0.00     0.040 A 
ATOM     87  C   UNL A   1      45.461  33.781  32.943  1.00  0.00     0.040 A 
ATOM     88  F   UNL A   1      44.622  31.617  33.308  1.00  0.00    -0.206 F 
ATOM     89  C   UNL A   1      45.862  34.791  32.071  1.00  0.00     0.006 A 
ENDBRANCH  65  82
ENDBRANCH  39  40
ENDBRANCH  31  34
ENDBRANCH  29  30
ENDBRANCH  28  29
ENDBRANCH  27  28
ENDBRANCH   1  27
TORSDOF 17
ENDMDL
MODEL 2
REMARK VINA RESULT:     -12.0      4.678      9.910
REMARK SMILES COC(=O)c1ccc(-c2ccc(C(=O)NCCCCCCNC(=O)c3ccc(-c4c5nc(c(-c6c(F)cccc6F)c6ccc([nH]6)c(-c6c(F)cccc6F)c6nc(c(-c7c(F)cccc7F)c7ccc4[nH]7)C=C6)C=C5)cc3)cc2O)cc1F
REMARK SMILES IDX 18 1 17 2 16 3 15 4 13 5 14 6 12 8 9 9 10 10 80 11 11 12
REMARK SMILES IDX 79 13 8 14 5 15 6 16 83 17 7 18 82 19 84 20 3 21 4 22 2 23
REMARK SMILES IDX 1 24 81 25 19 27 20 28 21 29 22 30 23 31 24 33 25 34 26 35
REMARK SMILES IDX 78 36 27 37 77 38 28 39 29 40 30 41 71 42 31 43 76 44 70 45
REMARK SMILES IDX 72 46 32 47 75 48 69 49 68 50 33 52 59 53 42 54 58 55 43 56
REMARK SMILES IDX 46 57 57 58 73 59 44 60 45 61 56 63 74 64 47 65 34 66 35 67
REMARK SMILES IDX 40 68 36 69 37 70 39 71 41 72 38 73 60 74 61 75 66 76 62 77
REMARK SMILES IDX 63 78 65 79 67 80 64 81 48 82 49 83 54 84 50 85 51 86 53 87
REMARK SMILES IDX 55 88 52 89
REMARK H PARENT 15 7 81 26 22 32 72 51 46 62
REMARK Flexibility Score: inf
ROOT
ATOM      1  C   UNL A   1      32.264  29.662  26.240  1.00  0.00     0.002 C 
ENDROOT
BRANCH   1   2
ATOM      2  C   UNL A   1      31.729  28.526  27.123  1.00  0.00     0.021 C 
BRANCH   2   3
ATOM      3  C   UNL A   1      31.745  27.168  26.416  1.00  0.00     0.116 C 
BRANCH   3   4
ATOM      4  N   UNL A   1      31.137  27.287  25.108  1.00  0.00    -0.352 N 
ATOM      5  C   UNL A   1      30.973  26.421  24.063  1.00  0.00     0.251 C 
ATOM      6  O   UNL A   1      30.433  26.871  23.050  1.00  0.00    -0.269 OA
ATOM      7  H   UNL A   1      30.763  28.181  24.934  1.00  0.00     0.163 HD
BRANCH   5   8
ATOM      8  C   UNL A   1      31.356  24.979  24.093  1.00  0.00     0.043 A 
ATOM      9  C   UNL A   1      32.199  22.271  23.939  1.00  0.00     0.024 A 
ATOM     10  C   UNL A   1      32.618  23.206  22.986  1.00  0.00     0.013 A 
ATOM     11  C   UNL A   1      31.355  22.717  24.965  1.00  0.00     0.124 A 
ATOM     12  C   UNL A   1      32.190  24.536  23.054  1.00  0.00     0.015 A 
ATOM     13  C   UNL A   1      30.982  24.060  25.075  1.00  0.00     0.060 A 
BRANCH   9  14
ATOM     14  C   UNL A   1      32.683  20.887  23.877  1.00  0.00    -0.012 A 
ATOM     15  C   UNL A   1      33.600  18.230  23.818  1.00  0.00     0.095 A 
ATOM     16  C   UNL A   1      34.189  19.151  24.689  1.00  0.00     0.019 A 
ATOM     17  C   UNL A   1      32.547  18.628  22.998  1.00  0.00     0.138 A 
ATOM     18  C   UNL A   1      33.737  20.472  24.709  1.00  0.00     0.010 A 
ATOM     19  C   UNL A   1      32.091  19.944  23.022  1.00  0.00     0.049 A 
ATOM     20  F   UNL A   1      31.927  17.754  22.191  1.00  0.00    -0.206 F 
BRANCH  15  21
ATOM     21  C   UNL A   1      34.115  16.851  23.811  1.00  0.00     0.340 C 
ATOM     22  O   UNL A   1      34.280  16.203  22.796  1.00  0.00    -0.246 OA
BRANCH  21  23
ATOM     23  O   UNL A   1      34.237  16.409  25.087  1.00  0.00    -0.465 OA
ATOM     24  C   UNL A   1      35.508  15.829  25.376  1.00  0.00     0.282 C 
ENDBRANCH  21  23
ENDBRANCH  15  21
ENDBRANCH   9  14
BRANCH  11  25
ATOM     25  O   UNL A   1      30.905  21.818  25.897  1.00  0.00    -0.507 OA
ATOM     26  H   UNL A   1      30.887  22.052  26.804  1.00  0.00     0.293 HD
ENDBRANCH  11  25
ENDBRANCH   5   8
ENDBRANCH   3   4
ENDBRANCH   2   3
ENDBRANCH   1   2
BRANCH   1  27
ATOM     27  C   UNL A   1      31.183  30.584  25.660  1.00  0.00     0.002 C 
BRANCH  27  28
ATOM     28  C   UNL A   1      31.091  31.958  26.327  1.00  0.00     0.021 C 
BRANCH  28  29
ATOM     29  C   UNL A   1      32.391  32.410  26.983  1.00  0.00     0.116 C 
BRANCH  29  30
ATOM     30  N   UNL A   1      32.324  33.809  27.382  1.00  0.00    -0.352 N 
ATOM     31  C   UNL A   1      33.012  34.458  28.374  1.00  0.00     0.251 C 
ATOM     32  H   UNL A   1      31.697  34.366  26.867  1.00  0.00     0.163 HD
ATOM     33  O   UNL A   1      32.655  35.568  28.754  1.00  0.00    -0.269 OA
BRANCH  31  34
ATOM     34  C   UNL A   1      34.187  33.807  28.987  1.00  0.00     0.039 A 
ATOM     35  C   UNL A   1      35.460  34.328  28.741  1.00  0.00     0.014 A 
ATOM     36  C   UNL A   1      34.028  32.675  29.792  1.00  0.00     0.014 A 
ATOM     37  C   UNL A   1      36.572  33.737  29.339  1.00  0.00     0.010 A 
ATOM     38  C   UNL A   1      35.127  32.136  30.449  1.00  0.00     0.010 A 
ATOM     39  C   UNL A   1      36.411  32.654  30.219  1.00  0.00    -0.014 A 
BRANCH  39  40
ATOM     40  C   UNL A   1      37.573  32.029  30.896  1.00  0.00     0.031 A 
ATOM     41  C   UNL A   1      38.371  30.970  30.192  1.00  0.00     0.074 A 
ATOM     42  C   UNL A   1      37.870  32.375  32.163  1.00  0.00     0.049 A 
ATOM     43  N   UNL A   1      39.370  30.253  30.641  1.00  0.00    -0.248 NA
ATOM     44  C   UNL A   1      37.980  30.655  28.809  1.00  0.00     0.031 C 
ATOM     45  C   UNL A   1      37.149  33.368  32.960  1.00  0.00     0.029 A 
ATOM     46  N   UNL A   1      38.856  31.924  33.004  1.00  0.00    -0.354 N 
ATOM     47  C   UNL A   1      39.717  29.400  29.601  1.00  0.00     0.074 A 
ATOM     48  C   UNL A   1      38.784  29.643  28.523  1.00  0.00     0.031 C 
ATOM     49  C   UNL A   1      37.736  33.475  34.162  1.00  0.00     0.029 A 
ATOM     50  C   UNL A   1      38.846  32.530  34.236  1.00  0.00     0.049 A 
ATOM     51  H   UNL A   1      39.508  31.232  32.748  1.00  0.00     0.167 HD
ATOM     52  C   UNL A   1      40.739  28.516  29.541  1.00  0.00     0.037 A 
ATOM     53  C   UNL A   1      39.640  32.342  35.307  1.00  0.00     0.037 A 
ATOM     54  C   UNL A   1      41.675  28.293  30.610  1.00  0.00     0.049 A 
ATOM     55  C   UNL A   1      40.751  31.333  35.231  1.00  0.00     0.074 A 
ATOM     56  C   UNL A   1      42.771  27.449  30.633  1.00  0.00     0.029 A 
ATOM     57  N   UNL A   1      41.626  28.921  31.847  1.00  0.00    -0.354 N 
ATOM     58  N   UNL A   1      41.095  30.562  34.228  1.00  0.00    -0.248 NA
ATOM     59  C   UNL A   1      41.584  31.167  36.430  1.00  0.00     0.031 C 
ATOM     60  C   UNL A   1      43.356  27.528  31.900  1.00  0.00     0.029 A 
ATOM     61  C   UNL A   1      42.660  28.465  32.648  1.00  0.00     0.049 A 
ATOM     62  H   UNL A   1      40.956  29.591  32.115  1.00  0.00     0.167 HD
ATOM     63  C   UNL A   1      42.199  29.839  34.663  1.00  0.00     0.074 A 
ATOM     64  C   UNL A   1      42.470  30.268  36.019  1.00  0.00     0.031 C 
ATOM     65  C   UNL A   1      42.921  28.907  33.996  1.00  0.00     0.037 A 
BRANCH  52  66
ATOM     66  C   UNL A   1      40.904  27.729  28.272  1.00  0.00     0.057 A 
ATOM     67  C   UNL A   1      41.670  28.230  27.211  1.00  0.00     0.134 A 
ATOM     68  C   UNL A   1      40.268  26.495  28.081  1.00  0.00     0.134 A 
ATOM     69  F   UNL A   1      42.301  29.408  27.323  1.00  0.00    -0.206 F 
ATOM     70  C   UNL A   1      41.793  27.534  26.008  1.00  0.00     0.040 A 
ATOM     71  C   UNL A   1      40.408  25.776  26.894  1.00  0.00     0.040 A 
ATOM     72  F   UNL A   1      39.529  25.953  29.062  1.00  0.00    -0.206 F 
ATOM     73  C   UNL A   1      41.166  26.299  25.850  1.00  0.00     0.006 A 
ENDBRANCH  52  66
BRANCH  53  74
ATOM     74  C   UNL A   1      39.433  33.169  36.522  1.00  0.00     0.057 A 
ATOM     75  C   UNL A   1      40.134  34.363  36.728  1.00  0.00     0.134 A 
ATOM     76  C   UNL A   1      38.563  32.748  37.534  1.00  0.00     0.134 A 
ATOM     77  F   UNL A   1      40.992  34.814  35.801  1.00  0.00    -0.206 F 
ATOM     78  C   UNL A   1      39.995  35.098  37.907  1.00  0.00     0.040 A 
ATOM     79  C   UNL A   1      38.396  33.485  38.708  1.00  0.00     0.040 A 
ATOM     80  F   UNL A   1      37.853  31.620  37.387  1.00  0.00    -0.206 F 
ATOM     81  C   UNL A   1      39.122  34.659  38.900  1.00  0.00     0.006 A 
ENDBRANCH  53  74
BRANCH  65  82
ATOM     82  C   UNL A   1      44.097  28.296  34.702  1.00  0.00     0.057 A 
ATOM     83  C   UNL A   1      45.389  28.796  34.491  1.00  0.00     0.134 A 
ATOM     84  C   UNL A   1      43.965  27.161  35.509  1.00  0.00     0.134 A 
ATOM     85  F   UNL A   1      45.585  29.875  33.718  1.00  0.00    -0.206 F 
ATOM     86  C   UNL A   1      46.510  28.175  35.041  1.00  0.00     0.040 A 
ATOM     87  C   UNL A   1      45.077  26.546  36.087  1.00  0.00     0.040 A 
ATOM     88  F   UNL A   1      42.753  26.640  35.758  1.00  0.00    -0.206 F 
ATOM     89  C   UNL A   1      46.355  27.046  35.843  1.00  0.00     0.006 A 
ENDBRANCH  65  82
ENDBRANCH  39  40
ENDBRANCH  31  34
ENDBRANCH  29  30
ENDBRANCH  28  29
ENDBRANCH  27  28
ENDBRANCH   1  27
TORSDOF 17
ENDMDL
MODEL 3
REMARK VINA RESULT:     -12.0      1.393      2.224
REMARK SMILES COC(=O)c1ccc(-c2ccc(C(=O)NCCCCCCNC(=O)c3ccc(-c4c5nc(c(-c6c(F)cccc6F)c6ccc([nH]6)c(-c6c(F)cccc6F)c6nc(c(-c7c(F)cccc7F)c7ccc4[nH]7)C=C6)C=C5)cc3)cc2O)cc1F
REMARK SMILES IDX 18 1 17 2 16 3 15 4 13 5 14 6 12 8 9 9 10 10 80 11 11 12
REMARK SMILES IDX 79 13 8 14 5 15 6 16 83 17 7 18 82 19 84 20 3 21 4 22 2 23
REMARK SMILES IDX 1 24 81 25 19 27 20 28 21 29 22 30 23 31 24 33 25 34 26 35
REMARK SMILES IDX 78 36 27 37 77 38 28 39 29 40 30 41 71 42 31 43 76 44 70 45
REMARK SMILES IDX 72 46 32 47 75 48 69 49 68 50 33 52 59 53 42 54 58 55 43 56
REMARK SMILES IDX 46 57 57 58 73 59 44 60 45 61 56 63 74 64 47 65 34 66 35 67
REMARK SMILES IDX 40 68 36 69 37 70 39 71 41 72 38 73 60 74 61 75 66 76 62 77
REMARK SMILES IDX 63 78 65 79 67 80 64 81 48 82 49 83 54 84 50 85 51 86 53 87
REMARK SMILES IDX 55 88 52 89
REMARK H PARENT 15 7 81 26 22 32 72 51 46 62
REMARK Flexibility Score: inf
ROOT
ATOM      1  C   UNL A   1      37.088  21.811  25.066  1.00  0.00     0.002 C 
ENDROOT
BRANCH   1   2
ATOM      2  C   UNL A   1      35.832  22.552  25.545  1.00  0.00     0.021 C 
BRANCH   2   3
ATOM      3  C   UNL A   1      34.767  22.682  24.452  1.00  0.00     0.116 C 
BRANCH   3   4
ATOM      4  N   UNL A   1      33.620  21.865  24.784  1.00  0.00    -0.352 N 
ATOM      5  C   UNL A   1      32.294  22.138  24.984  1.00  0.00     0.251 C 
ATOM      6  O   UNL A   1      31.576  21.189  25.303  1.00  0.00    -0.269 OA
ATOM      7  H   UNL A   1      33.839  20.911  24.889  1.00  0.00     0.163 HD
BRANCH   5   8
ATOM      8  C   UNL A   1      31.671  23.480  24.794  1.00  0.00     0.043 A 
ATOM      9  C   UNL A   1      30.526  26.010  24.193  1.00  0.00     0.024 A 
ATOM     10  C   UNL A   1      30.938  25.149  23.169  1.00  0.00     0.013 A 
ATOM     11  C   UNL A   1      30.698  25.580  25.516  1.00  0.00     0.124 A 
ATOM     12  C   UNL A   1      31.515  23.911  23.466  1.00  0.00     0.015 A 
ATOM     13  C   UNL A   1      31.212  24.314  25.814  1.00  0.00     0.060 A 
BRANCH   9  14
ATOM     14  C   UNL A   1      29.889  27.291  23.869  1.00  0.00    -0.012 A 
ATOM     15  C   UNL A   1      28.709  29.754  23.202  1.00  0.00     0.095 A 
ATOM     16  C   UNL A   1      30.072  29.694  23.506  1.00  0.00     0.019 A 
ATOM     17  C   UNL A   1      27.946  28.589  23.210  1.00  0.00     0.138 A 
ATOM     18  C   UNL A   1      30.652  28.471  23.846  1.00  0.00     0.010 A 
ATOM     19  C   UNL A   1      28.526  27.367  23.542  1.00  0.00     0.049 A 
ATOM     20  F   UNL A   1      26.648  28.606  22.870  1.00  0.00    -0.206 F 
BRANCH  15  21
ATOM     21  C   UNL A   1      28.127  31.064  22.866  1.00  0.00     0.340 C 
ATOM     22  O   UNL A   1      27.187  31.552  23.463  1.00  0.00    -0.246 OA
BRANCH  21  23
ATOM     23  O   UNL A   1      28.713  31.543  21.741  1.00  0.00    -0.465 OA
ATOM     24  C   UNL A   1      27.880  32.422  20.987  1.00  0.00     0.282 C 
ENDBRANCH  21  23
ENDBRANCH  15  21
ENDBRANCH   9  14
BRANCH  11  25
ATOM     25  O   UNL A   1      30.331  26.414  26.541  1.00  0.00    -0.507 OA
ATOM     26  H   UNL A   1      30.181  26.065  27.397  1.00  0.00     0.293 HD
ENDBRANCH  11  25
ENDBRANCH   5   8
ENDBRANCH   3   4
ENDBRANCH   2   3
ENDBRANCH   1   2
BRANCH   1  27
ATOM     27  C   UNL A   1      36.906  20.298  24.884  1.00  0.00     0.002 C 
BRANCH  27  28
ATOM     28  C   UNL A   1      38.212  19.504  24.806  1.00  0.00     0.021 C 
BRANCH  28  29
ATOM     29  C   UNL A   1      39.292  20.000  25.761  1.00  0.00     0.116 C 
BRANCH  29  30
ATOM     30  N   UNL A   1      40.329  18.996  25.955  1.00  0.00    -0.352 N 
ATOM     31  C   UNL A   1      41.675  19.172  26.139  1.00  0.00     0.251 C 
ATOM     32  H   UNL A   1      40.019  18.063  25.953  1.00  0.00     0.163 HD
ATOM     33  O   UNL A   1      42.446  18.224  26.028  1.00  0.00    -0.269 OA
BRANCH  31  34
ATOM     34  C   UNL A   1      42.194  20.513  26.472  1.00  0.00     0.039 A 
ATOM     35  C   UNL A   1      42.667  21.335  25.446  1.00  0.00     0.014 A 
ATOM     36  C   UNL A   1      42.224  20.950  27.799  1.00  0.00     0.014 A 
ATOM     37  C   UNL A   1      43.130  22.615  25.748  1.00  0.00     0.010 A 
ATOM     38  C   UNL A   1      42.613  22.252  28.089  1.00  0.00     0.010 A 
ATOM     39  C   UNL A   1      43.082  23.092  27.068  1.00  0.00    -0.014 A 
BRANCH  39  40
ATOM     40  C   UNL A   1      43.536  24.461  27.411  1.00  0.00     0.031 A 
ATOM     41  C   UNL A   1      42.538  25.497  27.844  1.00  0.00     0.074 A 
ATOM     42  C   UNL A   1      44.837  24.784  27.278  1.00  0.00     0.049 A 
ATOM     43  N   UNL A   1      42.726  26.764  28.111  1.00  0.00    -0.248 NA
ATOM     44  C   UNL A   1      41.139  25.058  27.966  1.00  0.00     0.031 C 
ATOM     45  C   UNL A   1      45.893  23.873  26.837  1.00  0.00     0.029 A 
ATOM     46  N   UNL A   1      45.489  25.972  27.494  1.00  0.00    -0.354 N 
ATOM     47  C   UNL A   1      41.472  27.272  28.423  1.00  0.00     0.074 A 
ATOM     48  C   UNL A   1      40.523  26.195  28.251  1.00  0.00     0.031 C 
ATOM     49  C   UNL A   1      47.066  24.524  26.848  1.00  0.00     0.029 A 
ATOM     50  C   UNL A   1      46.839  25.908  27.254  1.00  0.00     0.049 A 
ATOM     51  H   UNL A   1      45.032  26.790  27.794  1.00  0.00     0.167 HD
ATOM     52  C   UNL A   1      41.147  28.516  28.844  1.00  0.00     0.037 A 
ATOM     53  C   UNL A   1      47.788  26.859  27.346  1.00  0.00     0.037 A 
ATOM     54  C   UNL A   1      42.099  29.578  29.032  1.00  0.00     0.049 A 
ATOM     55  C   UNL A   1      47.401  28.243  27.785  1.00  0.00     0.074 A 
ATOM     56  C   UNL A   1      41.876  30.863  29.494  1.00  0.00     0.029 A 
ATOM     57  N   UNL A   1      43.458  29.476  28.768  1.00  0.00    -0.354 N 
ATOM     58  N   UNL A   1      46.218  28.701  28.117  1.00  0.00    -0.248 NA
ATOM     59  C   UNL A   1      48.475  29.242  27.864  1.00  0.00     0.031 C 
ATOM     60  C   UNL A   1      43.090  31.554  29.463  1.00  0.00     0.029 A 
ATOM     61  C   UNL A   1      44.081  30.683  29.037  1.00  0.00     0.049 A 
ATOM     62  H   UNL A   1      43.911  28.666  28.439  1.00  0.00     0.167 HD
ATOM     63  C   UNL A   1      46.408  30.031  28.470  1.00  0.00     0.074 A 
ATOM     64  C   UNL A   1      47.822  30.305  28.317  1.00  0.00     0.031 C 
ATOM     65  C   UNL A   1      45.492  30.940  28.885  1.00  0.00     0.037 A 
BRANCH  52  66
ATOM     66  C   UNL A   1      39.700  28.794  29.139  1.00  0.00     0.057 A 
ATOM     67  C   UNL A   1      39.177  28.591  30.423  1.00  0.00     0.134 A 
ATOM     68  C   UNL A   1      38.812  29.219  28.142  1.00  0.00     0.134 A 
ATOM     69  F   UNL A   1      39.968  28.178  31.424  1.00  0.00    -0.206 F 
ATOM     70  C   UNL A   1      37.826  28.798  30.701  1.00  0.00     0.040 A 
ATOM     71  C   UNL A   1      37.465  29.459  28.415  1.00  0.00     0.040 A 
ATOM     72  F   UNL A   1      39.251  29.444  26.893  1.00  0.00    -0.206 F 
ATOM     73  C   UNL A   1      36.967  29.240  29.696  1.00  0.00     0.006 A 
ENDBRANCH  52  66
BRANCH  53  74
ATOM     74  C   UNL A   1      49.201  26.510  27.058  1.00  0.00     0.057 A 
ATOM     75  C   UNL A   1      49.744  26.639  25.774  1.00  0.00     0.134 A 
ATOM     76  C   UNL A   1      50.027  25.983  28.057  1.00  0.00     0.134 A 
ATOM     77  F   UNL A   1      49.001  27.127  24.770  1.00  0.00    -0.206 F 
ATOM     78  C   UNL A   1      51.050  26.236  25.489  1.00  0.00     0.040 A 
ATOM     79  C   UNL A   1      51.342  25.597  27.792  1.00  0.00     0.040 A 
ATOM     80  F   UNL A   1      49.566  25.849  29.310  1.00  0.00    -0.206 F 
ATOM     81  C   UNL A   1      51.852  25.715  26.501  1.00  0.00     0.006 A 
ENDBRANCH  53  74
BRANCH  65  82
ATOM     82  C   UNL A   1      45.981  32.315  29.234  1.00  0.00     0.057 A 
ATOM     83  C   UNL A   1      46.326  32.633  30.554  1.00  0.00     0.134 A 
ATOM     84  C   UNL A   1      46.018  33.346  28.290  1.00  0.00     0.134 A 
ATOM     85  F   UNL A   1      46.301  31.691  31.511  1.00  0.00    -0.206 F 
ATOM     86  C   UNL A   1      46.670  33.932  30.927  1.00  0.00     0.040 A 
ATOM     87  C   UNL A   1      46.386  34.646  28.644  1.00  0.00     0.040 A 
ATOM     88  F   UNL A   1      45.708  33.105  27.006  1.00  0.00    -0.206 F 
ATOM     89  C   UNL A   1      46.701  34.943  29.969  1.00  0.00     0.006 A 
ENDBRANCH  65  82
ENDBRANCH  39  40
ENDBRANCH  31  34
ENDBRANCH  29  30
ENDBRANCH  28  29
ENDBRANCH  27  28
ENDBRANCH   1  27
TORSDOF 17
ENDMDL
