MODEL 1
REMARK VINA RESULT:     -10.7      0.000      0.000
REMARK SMILES Cc1c(C[C@@H](C)O)c(=O)oc2cc(OCC(=O)NCCCCCCNC(=O)c3ccc(-c4c5nc(c(-c6c(F)cccc6F)c6ccc([nH]6)c(-c6c(F)cccc6F)c6nc(c(-c7c(F)cccc7F)c7ccc4[nH]7)C=C6)C=C5)cc3)ccc12
REMARK SMILES IDX 20 1 19 2 18 3 16 4 17 5 15 7 14 8 13 9 1 10 2 11 3 12 84 13
REMARK SMILES IDX 8 14 11 15 83 16 9 17 10 18 12 19 82 20 4 21 5 22 6 23 7 24
REMARK SMILES IDX 21 26 22 27 23 28 24 29 25 30 26 31 27 33 28 34 29 35 81 36
REMARK SMILES IDX 30 37 80 38 31 39 32 40 33 41 74 42 34 43 79 44 73 45 75 46
REMARK SMILES IDX 35 47 78 48 72 49 71 50 36 52 62 53 45 54 61 55 46 56 49 57
REMARK SMILES IDX 60 58 76 59 47 60 48 61 59 63 77 64 50 65 37 66 38 67 43 68
REMARK SMILES IDX 39 69 40 70 42 71 44 72 41 73 63 74 64 75 69 76 65 77 66 78
REMARK SMILES IDX 68 79 70 80 67 81 51 82 52 83 57 84 53 85 54 86 56 87 58 88
REMARK SMILES IDX 55 89
REMARK H PARENT 18 6 7 25 25 32 75 51 49 62
REMARK Flexibility Score: inf
ROOT
ATOM      1  C   UNL A   1      35.335  31.784  28.409  1.00  0.00     0.021 C 
ENDROOT
BRANCH   1   2
ATOM      2  C   UNL A   1      34.184  31.110  27.664  1.00  0.00     0.116 C 
BRANCH   2   3
ATOM      3  N   UNL A   1      33.146  32.058  27.307  1.00  0.00    -0.353 N 
ATOM      4  C   UNL A   1      31.905  31.814  26.798  1.00  0.00     0.257 C 
ATOM      5  O   UNL A   1      31.162  32.768  26.567  1.00  0.00    -0.271 OA
ATOM      6  H   UNL A   1      33.368  33.006  27.451  1.00  0.00     0.163 HD
BRANCH   4   7
ATOM      7  C   UNL A   1      31.441  30.370  26.577  1.00  0.00     0.329 C 
BRANCH   7   8
ATOM      8  O   UNL A   1      31.998  29.675  25.474  1.00  0.00    -0.484 OA
BRANCH   8   9
ATOM      9  C   UNL A   1      32.366  28.373  25.648  1.00  0.00     0.123 A 
ATOM     10  C   UNL A   1      35.317  24.100  25.608  1.00  0.00     0.046 C 
ATOM     11  C   UNL A   1      33.881  24.360  25.986  1.00  0.00    -0.030 A 
ATOM     12  C   UNL A   1      33.030  23.417  26.447  1.00  0.00     0.044 A 
ATOM     13  C   UNL A   1      33.392  25.741  25.827  1.00  0.00     0.021 A 
ATOM     14  C   UNL A   1      31.654  23.777  26.904  1.00  0.00     0.339 A 
ATOM     15  C   UNL A   1      32.163  26.088  26.374  1.00  0.00     0.142 A 
ATOM     16  C   UNL A   1      34.097  26.740  25.147  1.00  0.00     0.016 A 
ATOM     17  O   UNL A   1      30.844  22.923  27.249  1.00  0.00    -0.246 OA
ATOM     18  O   UNL A   1      31.343  25.123  26.982  1.00  0.00    -0.422 OA
ATOM     19  C   UNL A   1      31.650  27.388  26.319  1.00  0.00     0.094 A 
ATOM     20  C   UNL A   1      33.585  28.039  25.054  1.00  0.00     0.047 A 
BRANCH  12  21
ATOM     21  C   UNL A   1      33.362  21.945  26.597  1.00  0.00     0.075 C 
BRANCH  21  22
ATOM     22  C   UNL A   1      33.027  21.084  25.365  1.00  0.00     0.116 C 
ATOM     23  C   UNL A   1      34.183  20.223  24.867  1.00  0.00     0.038 C 
BRANCH  22  24
ATOM     24  O   UNL A   1      31.947  20.207  25.696  1.00  0.00    -0.393 OA
ATOM     25  H   UNL A   1      31.273  20.697  26.194  1.00  0.00     0.210 HD
ENDBRANCH  22  24
ENDBRANCH  21  22
ENDBRANCH  12  21
ENDBRANCH   8   9
ENDBRANCH   7   8
ENDBRANCH   4   7
ENDBRANCH   2   3
ENDBRANCH   1   2
BRANCH   1  26
ATOM     26  C   UNL A   1      35.609  33.234  27.984  1.00  0.00     0.002 C 
BRANCH  26  27
ATOM     27  C   UNL A   1      35.484  34.281  29.097  1.00  0.00     0.002 C 
BRANCH  27  28
ATOM     28  C   UNL A   1      34.299  35.238  28.962  1.00  0.00     0.021 C 
BRANCH  28  29
ATOM     29  C   UNL A   1      33.005  34.749  29.604  1.00  0.00     0.116 C 
BRANCH  29  30
ATOM     30  N   UNL A   1      32.527  35.650  30.639  1.00  0.00    -0.352 N 
ATOM     31  C   UNL A   1      32.928  35.768  31.948  1.00  0.00     0.251 C 
ATOM     32  H   UNL A   1      31.811  36.267  30.363  1.00  0.00     0.163 HD
ATOM     33  O   UNL A   1      32.288  36.463  32.730  1.00  0.00    -0.269 OA
BRANCH  31  34
ATOM     34  C   UNL A   1      34.123  35.037  32.423  1.00  0.00     0.039 A 
ATOM     35  C   UNL A   1      33.971  33.728  32.890  1.00  0.00     0.014 A 
ATOM     36  C   UNL A   1      35.386  35.636  32.415  1.00  0.00     0.014 A 
ATOM     37  C   UNL A   1      35.094  33.001  33.289  1.00  0.00     0.010 A 
ATOM     38  C   UNL A   1      36.512  34.885  32.740  1.00  0.00     0.010 A 
ATOM     39  C   UNL A   1      36.378  33.560  33.182  1.00  0.00    -0.014 A 
BRANCH  39  40
ATOM     40  C   UNL A   1      37.590  32.771  33.521  1.00  0.00     0.031 A 
ATOM     41  C   UNL A   1      38.355  33.057  34.784  1.00  0.00     0.074 A 
ATOM     42  C   UNL A   1      38.040  31.839  32.659  1.00  0.00     0.049 A 
ATOM     43  N   UNL A   1      39.468  32.521  35.217  1.00  0.00    -0.248 NA
ATOM     44  C   UNL A   1      37.812  34.103  35.666  1.00  0.00     0.031 C 
ATOM     45  C   UNL A   1      37.418  31.500  31.377  1.00  0.00     0.029 A 
ATOM     46  N   UNL A   1      39.136  31.013  32.722  1.00  0.00    -0.354 N 
ATOM     47  C   UNL A   1      39.765  33.172  36.407  1.00  0.00     0.074 A 
ATOM     48  C   UNL A   1      38.745  34.178  36.604  1.00  0.00     0.031 C 
ATOM     49  C   UNL A   1      38.127  30.525  30.786  1.00  0.00     0.029 A 
ATOM     50  C   UNL A   1      39.275  30.198  31.625  1.00  0.00     0.049 A 
ATOM     51  H   UNL A   1      39.760  31.005  33.482  1.00  0.00     0.167 HD
ATOM     52  C   UNL A   1      40.784  32.938  37.268  1.00  0.00     0.037 A 
ATOM     53  C   UNL A   1      40.228  29.295  31.322  1.00  0.00     0.037 A 
ATOM     54  C   UNL A   1      41.783  31.919  37.083  1.00  0.00     0.049 A 
ATOM     55  C   UNL A   1      41.353  29.060  32.292  1.00  0.00     0.074 A 
ATOM     56  C   UNL A   1      42.815  31.559  37.932  1.00  0.00     0.029 A 
ATOM     57  N   UNL A   1      41.882  31.102  35.966  1.00  0.00    -0.354 N 
ATOM     58  N   UNL A   1      41.578  29.630  33.451  1.00  0.00    -0.248 NA
ATOM     59  C   UNL A   1      42.354  28.052  31.916  1.00  0.00     0.031 C 
ATOM     60  C   UNL A   1      43.570  30.562  37.307  1.00  0.00     0.029 A 
ATOM     61  C   UNL A   1      42.975  30.260  36.093  1.00  0.00     0.049 A 
ATOM     62  H   UNL A   1      41.266  31.118  35.198  1.00  0.00     0.167 HD
ATOM     63  C   UNL A   1      42.725  29.030  33.956  1.00  0.00     0.074 A 
ATOM     64  C   UNL A   1      43.140  28.042  32.982  1.00  0.00     0.031 C 
ATOM     65  C   UNL A   1      43.374  29.274  35.119  1.00  0.00     0.037 A 
BRANCH  52  66
ATOM     66  C   UNL A   1      40.871  33.801  38.495  1.00  0.00     0.057 A 
ATOM     67  C   UNL A   1      40.160  33.502  39.665  1.00  0.00     0.134 A 
ATOM     68  C   UNL A   1      41.712  34.922  38.521  1.00  0.00     0.134 A 
ATOM     69  F   UNL A   1      39.328  32.450  39.706  1.00  0.00    -0.206 F 
ATOM     70  C   UNL A   1      40.262  34.300  40.806  1.00  0.00     0.040 A 
ATOM     71  C   UNL A   1      41.845  35.710  39.665  1.00  0.00     0.040 A 
ATOM     72  F   UNL A   1      42.428  35.262  37.438  1.00  0.00    -0.206 F 
ATOM     73  C   UNL A   1      41.114  35.403  40.811  1.00  0.00     0.006 A 
ENDBRANCH  52  66
BRANCH  53  74
ATOM     74  C   UNL A   1      40.158  28.536  30.047  1.00  0.00     0.057 A 
ATOM     75  C   UNL A   1      39.413  27.355  29.947  1.00  0.00     0.134 A 
ATOM     76  C   UNL A   1      40.844  28.962  28.903  1.00  0.00     0.134 A 
ATOM     77  F   UNL A   1      38.748  26.885  31.013  1.00  0.00    -0.206 F 
ATOM     78  C   UNL A   1      39.373  26.612  28.766  1.00  0.00     0.040 A 
ATOM     79  C   UNL A   1      40.789  28.244  27.707  1.00  0.00     0.040 A 
ATOM     80  F   UNL A   1      41.569  30.090  28.928  1.00  0.00    -0.206 F 
ATOM     81  C   UNL A   1      40.059  27.060  27.640  1.00  0.00     0.006 A 
ENDBRANCH  53  74
BRANCH  65  82
ATOM     82  C   UNL A   1      44.581  28.434  35.426  1.00  0.00     0.057 A 
ATOM     83  C   UNL A   1      44.482  27.216  36.109  1.00  0.00     0.134 A 
ATOM     84  C   UNL A   1      45.853  28.834  34.995  1.00  0.00     0.134 A 
ATOM     85  F   UNL A   1      43.296  26.782  36.561  1.00  0.00    -0.206 F 
ATOM     86  C   UNL A   1      45.610  26.437  36.377  1.00  0.00     0.040 A 
ATOM     87  C   UNL A   1      46.982  28.048  35.229  1.00  0.00     0.040 A 
ATOM     88  F   UNL A   1      46.015  29.984  34.327  1.00  0.00    -0.206 F 
ATOM     89  C   UNL A   1      46.864  26.850  35.928  1.00  0.00     0.006 A 
ENDBRANCH  65  82
ENDBRANCH  39  40
ENDBRANCH  31  34
ENDBRANCH  29  30
ENDBRANCH  28  29
ENDBRANCH  27  28
ENDBRANCH  26  27
ENDBRANCH   1  26
TORSDOF 18
ENDMDL
MODEL 2
REMARK VINA RESULT:     -10.3      3.581      8.839
REMARK SMILES Cc1c(C[C@@H](C)O)c(=O)oc2cc(OCC(=O)NCCCCCCNC(=O)c3ccc(-c4c5nc(c(-c6c(F)cccc6F)c6ccc([nH]6)c(-c6c(F)cccc6F)c6nc(c(-c7c(F)cccc7F)c7ccc4[nH]7)C=C6)C=C5)cc3)ccc12
REMARK SMILES IDX 20 1 19 2 18 3 16 4 17 5 15 7 14 8 13 9 1 10 2 11 3 12 84 13
REMARK SMILES IDX 8 14 11 15 83 16 9 17 10 18 12 19 82 20 4 21 5 22 6 23 7 24
REMARK SMILES IDX 21 26 22 27 23 28 24 29 25 30 26 31 27 33 28 34 29 35 81 36
REMARK SMILES IDX 30 37 80 38 31 39 32 40 33 41 74 42 34 43 79 44 73 45 75 46
REMARK SMILES IDX 35 47 78 48 72 49 71 50 36 52 62 53 45 54 61 55 46 56 49 57
REMARK SMILES IDX 60 58 76 59 47 60 48 61 59 63 77 64 50 65 37 66 38 67 43 68
REMARK SMILES IDX 39 69 40 70 42 71 44 72 41 73 63 74 64 75 69 76 65 77 66 78
REMARK SMILES IDX 68 79 70 80 67 81 51 82 52 83 57 84 53 85 54 86 56 87 58 88
REMARK SMILES IDX 55 89
REMARK H PARENT 18 6 7 25 25 32 75 51 49 62
REMARK Flexibility Score: inf
ROOT
ATOM      1  C   UNL A   1      43.828  22.869  29.481  1.00  0.00     0.021 C 
ENDROOT
BRANCH   1   2
ATOM      2  C   UNL A   1      42.763  22.456  28.467  1.00  0.00     0.116 C 
BRANCH   2   3
ATOM      3  N   UNL A   1      43.349  21.863  27.281  1.00  0.00    -0.353 N 
ATOM      4  C   UNL A   1      42.723  21.299  26.210  1.00  0.00     0.257 C 
ATOM      5  O   UNL A   1      43.410  20.853  25.289  1.00  0.00    -0.271 OA
ATOM      6  H   UNL A   1      44.333  21.869  27.245  1.00  0.00     0.163 HD
BRANCH   4   7
ATOM      7  C   UNL A   1      41.192  21.279  26.143  1.00  0.00     0.329 C 
BRANCH   7   8
ATOM      8  O   UNL A   1      40.513  22.445  26.577  1.00  0.00    -0.484 OA
BRANCH   8   9
ATOM      9  C   UNL A   1      39.193  22.581  26.261  1.00  0.00     0.123 A 
ATOM     10  C   UNL A   1      34.620  24.856  25.320  1.00  0.00     0.046 C 
ATOM     11  C   UNL A   1      35.067  23.417  25.369  1.00  0.00    -0.030 A 
ATOM     12  C   UNL A   1      34.261  22.358  25.131  1.00  0.00     0.044 A 
ATOM     13  C   UNL A   1      36.480  23.172  25.707  1.00  0.00     0.021 A 
ATOM     14  C   UNL A   1      34.807  20.968  25.090  1.00  0.00     0.339 A 
ATOM     15  C   UNL A   1      37.002  21.895  25.539  1.00  0.00     0.142 A 
ATOM     16  C   UNL A   1      37.342  24.158  26.199  1.00  0.00     0.016 A 
ATOM     17  O   UNL A   1      34.077  19.991  24.955  1.00  0.00    -0.246 OA
ATOM     18  O   UNL A   1      36.182  20.824  25.150  1.00  0.00    -0.422 OA
ATOM     19  C   UNL A   1      38.345  21.589  25.782  1.00  0.00     0.094 A 
ATOM     20  C   UNL A   1      38.681  23.862  26.477  1.00  0.00     0.047 A 
BRANCH  12  21
ATOM     21  C   UNL A   1      32.776  22.445  24.842  1.00  0.00     0.075 C 
BRANCH  21  22
ATOM     22  C   UNL A   1      31.878  22.453  26.093  1.00  0.00     0.116 C 
ATOM     23  C   UNL A   1      31.274  23.815  26.423  1.00  0.00     0.038 C 
BRANCH  22  24
ATOM     24  O   UNL A   1      30.797  21.539  25.892  1.00  0.00    -0.393 OA
ATOM     25  H   UNL A   1      29.986  21.907  26.277  1.00  0.00     0.210 HD
ENDBRANCH  22  24
ENDBRANCH  21  22
ENDBRANCH  12  21
ENDBRANCH   8   9
ENDBRANCH   7   8
ENDBRANCH   4   7
ENDBRANCH   2   3
ENDBRANCH   1   2
BRANCH   1  26
ATOM     26  C   UNL A   1      44.291  24.328  29.361  1.00  0.00     0.002 C 
BRANCH  26  27
ATOM     27  C   UNL A   1      45.717  24.525  28.833  1.00  0.00     0.002 C 
BRANCH  27  28
ATOM     28  C   UNL A   1      45.923  24.163  27.362  1.00  0.00     0.021 C 
BRANCH  28  29
ATOM     29  C   UNL A   1      45.540  25.259  26.374  1.00  0.00     0.116 C 
BRANCH  29  30
ATOM     30  N   UNL A   1      44.404  24.886  25.547  1.00  0.00    -0.352 N 
ATOM     31  C   UNL A   1      43.068  25.152  25.726  1.00  0.00     0.251 C 
ATOM     32  H   UNL A   1      44.624  24.366  24.740  1.00  0.00     0.163 HD
ATOM     33  O   UNL A   1      42.229  24.603  25.019  1.00  0.00    -0.269 OA
BRANCH  31  34
ATOM     34  C   UNL A   1      42.637  26.085  26.789  1.00  0.00     0.039 A 
ATOM     35  C   UNL A   1      41.659  25.668  27.697  1.00  0.00     0.014 A 
ATOM     36  C   UNL A   1      43.187  27.366  26.891  1.00  0.00     0.014 A 
ATOM     37  C   UNL A   1      41.280  26.512  28.742  1.00  0.00     0.010 A 
ATOM     38  C   UNL A   1      42.864  28.176  27.976  1.00  0.00     0.010 A 
ATOM     39  C   UNL A   1      41.906  27.759  28.913  1.00  0.00    -0.014 A 
BRANCH  39  40
ATOM     40  C   UNL A   1      41.576  28.632  30.068  1.00  0.00     0.031 A 
ATOM     41  C   UNL A   1      42.363  28.531  31.346  1.00  0.00     0.074 A 
ATOM     42  C   UNL A   1      40.527  29.474  29.988  1.00  0.00     0.049 A 
ATOM     43  N   UNL A   1      42.184  29.161  32.479  1.00  0.00    -0.248 NA
ATOM     44  C   UNL A   1      43.481  27.575  31.363  1.00  0.00     0.031 C 
ATOM     45  C   UNL A   1      39.655  29.631  28.822  1.00  0.00     0.029 A 
ATOM     46  N   UNL A   1      40.006  30.347  30.911  1.00  0.00    -0.354 N 
ATOM     47  C   UNL A   1      43.153  28.668  33.344  1.00  0.00     0.074 A 
ATOM     48  C   UNL A   1      43.885  27.651  32.622  1.00  0.00     0.031 C 
ATOM     49  C   UNL A   1      38.723  30.559  29.092  1.00  0.00     0.029 A 
ATOM     50  C   UNL A   1      38.903  31.031  30.461  1.00  0.00     0.049 A 
ATOM     51  H   UNL A   1      40.388  30.471  31.810  1.00  0.00     0.167 HD
ATOM     52  C   UNL A   1      43.422  29.046  34.617  1.00  0.00     0.037 A 
ATOM     53  C   UNL A   1      38.118  31.931  31.084  1.00  0.00     0.037 A 
ATOM     54  C   UNL A   1      42.709  30.077  35.324  1.00  0.00     0.049 A 
ATOM     55  C   UNL A   1      38.434  32.327  32.500  1.00  0.00     0.074 A 
ATOM     56  C   UNL A   1      42.951  30.579  36.591  1.00  0.00     0.029 A 
ATOM     57  N   UNL A   1      41.608  30.759  34.827  1.00  0.00    -0.354 N 
ATOM     58  N   UNL A   1      39.402  31.908  33.279  1.00  0.00    -0.248 NA
ATOM     59  C   UNL A   1      37.553  33.325  33.122  1.00  0.00     0.031 C 
ATOM     60  C   UNL A   1      41.965  31.525  36.883  1.00  0.00     0.029 A 
ATOM     61  C   UNL A   1      41.142  31.656  35.776  1.00  0.00     0.049 A 
ATOM     62  H   UNL A   1      41.215  30.626  33.934  1.00  0.00     0.167 HD
ATOM     63  C   UNL A   1      39.266  32.612  34.469  1.00  0.00     0.074 A 
ATOM     64  C   UNL A   1      38.130  33.495  34.303  1.00  0.00     0.031 C 
ATOM     65  C   UNL A   1      40.014  32.535  35.596  1.00  0.00     0.037 A 
BRANCH  52  66
ATOM     66  C   UNL A   1      44.539  28.339  35.332  1.00  0.00     0.057 A 
ATOM     67  C   UNL A   1      45.857  28.812  35.300  1.00  0.00     0.134 A 
ATOM     68  C   UNL A   1      44.283  27.194  36.098  1.00  0.00     0.134 A 
ATOM     69  F   UNL A   1      46.173  29.898  34.578  1.00  0.00    -0.206 F 
ATOM     70  C   UNL A   1      46.885  28.159  35.983  1.00  0.00     0.040 A 
ATOM     71  C   UNL A   1      45.296  26.548  36.808  1.00  0.00     0.040 A 
ATOM     72  F   UNL A   1      43.042  26.690  36.177  1.00  0.00    -0.206 F 
ATOM     73  C   UNL A   1      46.603  27.028  36.748  1.00  0.00     0.006 A 
ENDBRANCH  52  66
BRANCH  53  74
ATOM     74  C   UNL A   1      36.960  32.530  30.371  1.00  0.00     0.057 A 
ATOM     75  C   UNL A   1      35.657  32.067  30.590  1.00  0.00     0.134 A 
ATOM     76  C   UNL A   1      37.128  33.565  29.444  1.00  0.00     0.134 A 
ATOM     77  F   UNL A   1      35.433  31.065  31.453  1.00  0.00    -0.206 F 
ATOM     78  C   UNL A   1      34.566  32.595  29.896  1.00  0.00     0.040 A 
ATOM     79  C   UNL A   1      36.043  34.122  28.764  1.00  0.00     0.040 A 
ATOM     80  F   UNL A   1      38.349  34.060  29.193  1.00  0.00    -0.206 F 
ATOM     81  C   UNL A   1      34.758  33.629  28.983  1.00  0.00     0.006 A 
ENDBRANCH  53  74
BRANCH  65  82
ATOM     82  C   UNL A   1      39.654  33.456  36.727  1.00  0.00     0.057 A 
ATOM     83  C   UNL A   1      38.766  33.075  37.740  1.00  0.00     0.134 A 
ATOM     84  C   UNL A   1      40.237  34.726  36.821  1.00  0.00     0.134 A 
ATOM     85  F   UNL A   1      38.163  31.877  37.702  1.00  0.00    -0.206 F 
ATOM     86  C   UNL A   1      38.449  33.935  38.793  1.00  0.00     0.040 A 
ATOM     87  C   UNL A   1      39.952  35.582  37.887  1.00  0.00     0.040 A 
ATOM     88  F   UNL A   1      41.104  35.149  35.890  1.00  0.00    -0.206 F 
ATOM     89  C   UNL A   1      39.051  35.189  38.873  1.00  0.00     0.006 A 
ENDBRANCH  65  82
ENDBRANCH  39  40
ENDBRANCH  31  34
ENDBRANCH  29  30
ENDBRANCH  28  29
ENDBRANCH  27  28
ENDBRANCH  26  27
ENDBRANCH   1  26
TORSDOF 18
ENDMDL
MODEL 3
REMARK VINA RESULT:     -10.3      3.778      9.180
REMARK SMILES Cc1c(C[C@@H](C)O)c(=O)oc2cc(OCC(=O)NCCCCCCNC(=O)c3ccc(-c4c5nc(c(-c6c(F)cccc6F)c6ccc([nH]6)c(-c6c(F)cccc6F)c6nc(c(-c7c(F)cccc7F)c7ccc4[nH]7)C=C6)C=C5)cc3)ccc12
REMARK SMILES IDX 20 1 19 2 18 3 16 4 17 5 15 7 14 8 13 9 1 10 2 11 3 12 84 13
REMARK SMILES IDX 8 14 11 15 83 16 9 17 10 18 12 19 82 20 4 21 5 22 6 23 7 24
REMARK SMILES IDX 21 26 22 27 23 28 24 29 25 30 26 31 27 33 28 34 29 35 81 36
REMARK SMILES IDX 30 37 80 38 31 39 32 40 33 41 74 42 34 43 79 44 73 45 75 46
REMARK SMILES IDX 35 47 78 48 72 49 71 50 36 52 62 53 45 54 61 55 46 56 49 57
REMARK SMILES IDX 60 58 76 59 47 60 48 61 59 63 77 64 50 65 37 66 38 67 43 68
REMARK SMILES IDX 39 69 40 70 42 71 44 72 41 73 63 74 64 75 69 76 65 77 66 78
REMARK SMILES IDX 68 79 70 80 67 81 51 82 52 83 57 84 53 85 54 86 56 87 58 88
REMARK SMILES IDX 55 89
REMARK H PARENT 18 6 7 25 25 32 75 51 49 62
REMARK Flexibility Score: inf
ROOT
ATOM      1  C   UNL A   1      44.165  23.034  29.496  1.00  0.00     0.021 C 
ENDROOT
BRANCH   1   2
ATOM      2  C   UNL A   1      42.968  22.398  28.791  1.00  0.00     0.116 C 
BRANCH   2   3
ATOM      3  N   UNL A   1      43.323  21.889  27.481  1.00  0.00    -0.353 N 
ATOM      4  C   UNL A   1      42.504  21.420  26.497  1.00  0.00     0.257 C 
ATOM      5  O   UNL A   1      43.009  21.035  25.441  1.00  0.00    -0.271 OA
ATOM      6  H   UNL A   1      44.285  21.880  27.275  1.00  0.00     0.163 HD
BRANCH   4   7
ATOM      7  C   UNL A   1      40.985  21.432  26.696  1.00  0.00     0.329 C 
BRANCH   7   8
ATOM      8  O   UNL A   1      40.207  20.694  25.769  1.00  0.00    -0.484 OA
BRANCH   8   9
ATOM      9  C   UNL A   1      38.891  21.022  25.622  1.00  0.00     0.123 A 
ATOM     10  C   UNL A   1      33.797  20.459  24.784  1.00  0.00     0.046 C 
ATOM     11  C   UNL A   1      34.677  21.658  25.030  1.00  0.00    -0.030 A 
ATOM     12  C   UNL A   1      34.230  22.931  25.100  1.00  0.00     0.044 A 
ATOM     13  C   UNL A   1      36.118  21.401  25.197  1.00  0.00     0.021 A 
ATOM     14  C   UNL A   1      35.150  24.053  25.457  1.00  0.00     0.339 A 
ATOM     15  C   UNL A   1      36.937  22.426  25.657  1.00  0.00     0.142 A 
ATOM     16  C   UNL A   1      36.725  20.172  24.916  1.00  0.00     0.016 A 
ATOM     17  O   UNL A   1      34.779  25.222  25.446  1.00  0.00    -0.246 OA
ATOM     18  O   UNL A   1      36.430  23.718  25.863  1.00  0.00    -0.422 OA
ATOM     19  C   UNL A   1      38.304  22.251  25.897  1.00  0.00     0.094 A 
ATOM     20  C   UNL A   1      38.097  19.989  25.121  1.00  0.00     0.047 A 
BRANCH  12  21
ATOM     21  C   UNL A   1      32.793  23.362  24.878  1.00  0.00     0.075 C 
BRANCH  21  22
ATOM     22  C   UNL A   1      31.976  23.555  26.169  1.00  0.00     0.116 C 
ATOM     23  C   UNL A   1      32.510  22.785  27.373  1.00  0.00     0.038 C 
BRANCH  22  24
ATOM     24  O   UNL A   1      31.976  24.944  26.511  1.00  0.00    -0.393 OA
ATOM     25  H   UNL A   1      32.848  25.324  26.320  1.00  0.00     0.210 HD
ENDBRANCH  22  24
ENDBRANCH  21  22
ENDBRANCH  12  21
ENDBRANCH   8   9
ENDBRANCH   7   8
ENDBRANCH   4   7
ENDBRANCH   2   3
ENDBRANCH   1   2
BRANCH   1  26
ATOM     26  C   UNL A   1      44.719  24.289  28.807  1.00  0.00     0.002 C 
BRANCH  26  27
ATOM     27  C   UNL A   1      46.187  24.207  28.373  1.00  0.00     0.002 C 
BRANCH  27  28
ATOM     28  C   UNL A   1      46.416  23.764  26.927  1.00  0.00     0.021 C 
BRANCH  28  29
ATOM     29  C   UNL A   1      46.140  24.836  25.878  1.00  0.00     0.116 C 
BRANCH  29  30
ATOM     30  N   UNL A   1      45.091  24.445  24.951  1.00  0.00    -0.352 N 
ATOM     31  C   UNL A   1      43.735  24.654  25.027  1.00  0.00     0.251 C 
ATOM     32  H   UNL A   1      45.397  23.959  24.151  1.00  0.00     0.163 HD
ATOM     33  O   UNL A   1      42.980  24.095  24.239  1.00  0.00    -0.269 OA
BRANCH  31  34
ATOM     34  C   UNL A   1      43.182  25.537  26.076  1.00  0.00     0.039 A 
ATOM     35  C   UNL A   1      42.063  25.109  26.797  1.00  0.00     0.014 A 
ATOM     36  C   UNL A   1      43.756  26.782  26.348  1.00  0.00     0.014 A 
ATOM     37  C   UNL A   1      41.560  25.901  27.830  1.00  0.00     0.010 A 
ATOM     38  C   UNL A   1      43.301  27.535  27.427  1.00  0.00     0.010 A 
ATOM     39  C   UNL A   1      42.197  27.104  28.178  1.00  0.00    -0.014 A 
BRANCH  39  40
ATOM     40  C   UNL A   1      41.728  27.917  29.329  1.00  0.00     0.031 A 
ATOM     41  C   UNL A   1      42.394  27.790  30.672  1.00  0.00     0.074 A 
ATOM     42  C   UNL A   1      40.659  28.724  29.183  1.00  0.00     0.049 A 
ATOM     43  N   UNL A   1      42.086  28.366  31.806  1.00  0.00    -0.248 NA
ATOM     44  C   UNL A   1      43.542  26.873  30.758  1.00  0.00     0.031 C 
ATOM     45  C   UNL A   1      39.894  28.900  27.946  1.00  0.00     0.029 A 
ATOM     46  N   UNL A   1      40.021  29.540  30.084  1.00  0.00    -0.354 N 
ATOM     47  C   UNL A   1      42.988  27.872  32.739  1.00  0.00     0.074 A 
ATOM     48  C   UNL A   1      43.823  26.911  32.052  1.00  0.00     0.031 C 
ATOM     49  C   UNL A   1      38.906  29.783  28.161  1.00  0.00     0.029 A 
ATOM     50  C   UNL A   1      38.939  30.204  29.557  1.00  0.00     0.049 A 
ATOM     51  H   UNL A   1      40.311  29.640  31.019  1.00  0.00     0.167 HD
ATOM     52  C   UNL A   1      43.122  28.205  34.045  1.00  0.00     0.037 A 
ATOM     53  C   UNL A   1      38.065  31.049  30.137  1.00  0.00     0.037 A 
ATOM     54  C   UNL A   1      42.307  29.180  34.720  1.00  0.00     0.049 A 
ATOM     55  C   UNL A   1      38.232  31.396  31.591  1.00  0.00     0.074 A 
ATOM     56  C   UNL A   1      42.410  29.637  36.023  1.00  0.00     0.029 A 
ATOM     57  N   UNL A   1      41.232  29.844  34.148  1.00  0.00    -0.354 N 
ATOM     58  N   UNL A   1      39.138  30.980  32.442  1.00  0.00    -0.248 NA
ATOM     59  C   UNL A   1      37.259  32.337  32.164  1.00  0.00     0.031 C 
ATOM     60  C   UNL A   1      41.365  30.536  36.256  1.00  0.00     0.029 A 
ATOM     61  C   UNL A   1      40.646  30.684  35.081  1.00  0.00     0.049 A 
ATOM     62  H   UNL A   1      40.930  29.735  33.217  1.00  0.00     0.167 HD
ATOM     63  C   UNL A   1      38.864  31.628  33.639  1.00  0.00     0.074 A 
ATOM     64  C   UNL A   1      37.716  32.477  33.400  1.00  0.00     0.031 C 
ATOM     65  C   UNL A   1      39.506  31.530  34.829  1.00  0.00     0.037 A 
BRANCH  52  66
ATOM     66  C   UNL A   1      44.193  27.508  34.836  1.00  0.00     0.057 A 
ATOM     67  C   UNL A   1      43.959  26.292  35.492  1.00  0.00     0.134 A 
ATOM     68  C   UNL A   1      45.489  28.039  34.905  1.00  0.00     0.134 A 
ATOM     69  F   UNL A   1      42.739  25.733  35.474  1.00  0.00    -0.206 F 
ATOM     70  C   UNL A   1      44.966  25.642  36.208  1.00  0.00     0.040 A 
ATOM     71  C   UNL A   1      46.511  27.384  35.594  1.00  0.00     0.040 A 
ATOM     72  F   UNL A   1      45.784  29.196  34.295  1.00  0.00    -0.206 F 
ATOM     73  C   UNL A   1      46.249  26.184  36.253  1.00  0.00     0.006 A 
ENDBRANCH  52  66
BRANCH  53  74
ATOM     74  C   UNL A   1      36.957  31.636  29.341  1.00  0.00     0.057 A 
ATOM     75  C   UNL A   1      37.037  32.942  28.841  1.00  0.00     0.134 A 
ATOM     76  C   UNL A   1      35.786  30.917  29.075  1.00  0.00     0.134 A 
ATOM     77  F   UNL A   1      38.125  33.689  29.078  1.00  0.00    -0.206 F 
ATOM     78  C   UNL A   1      35.985  33.519  28.127  1.00  0.00     0.040 A 
ATOM     79  C   UNL A   1      34.738  31.470  28.337  1.00  0.00     0.040 A 
ATOM     80  F   UNL A   1      35.648  29.658  29.518  1.00  0.00    -0.206 F 
ATOM     81  C   UNL A   1      34.833  32.779  27.869  1.00  0.00     0.006 A 
ENDBRANCH  53  74
BRANCH  65  82
ATOM     82  C   UNL A   1      39.007  32.390  35.954  1.00  0.00     0.057 A 
ATOM     83  C   UNL A   1      38.145  31.895  36.940  1.00  0.00     0.134 A 
ATOM     84  C   UNL A   1      39.429  33.721  36.073  1.00  0.00     0.134 A 
ATOM     85  F   UNL A   1      37.693  30.633  36.878  1.00  0.00    -0.206 F 
ATOM     86  C   UNL A   1      37.698  32.701  37.989  1.00  0.00     0.040 A 
ATOM     87  C   UNL A   1      39.014  34.526  37.134  1.00  0.00     0.040 A 
ATOM     88  F   UNL A   1      40.262  34.255  35.168  1.00  0.00    -0.206 F 
ATOM     89  C   UNL A   1      38.140  34.018  38.093  1.00  0.00     0.006 A 
ENDBRANCH  65  82
ENDBRANCH  39  40
ENDBRANCH  31  34
ENDBRANCH  29  30
ENDBRANCH  28  29
ENDBRANCH  27  28
ENDBRANCH  26  27
ENDBRANCH   1  26
TORSDOF 18
ENDMDL
