MODEL 1
REMARK VINA RESULT:     -12.0      0.000      0.000
REMARK SMILES O=C(NCCCCCCNC(=O)[C@@H]1CCCC[N@H+]1Cc1cn2cccnc2n1)c1ccc(-c2c3nc(c(-c4c(F)cccc4F)c4ccc([nH]4)c(-c4c(F)cccc4F)c4nc(c(-c5c(F)cccc5F)c5ccc2[nH]5)C=C4)C=C3)cc1
REMARK SMILES IDX 6 1 5 2 4 3 3 4 1 5 2 6 29 8 30 9 82 10 31 11 81 12 32 13
REMARK SMILES IDX 33 14 34 15 75 16 35 17 80 18 74 19 76 20 36 21 79 22 73 23
REMARK SMILES IDX 72 24 37 26 63 27 46 28 62 29 47 30 50 31 61 32 77 33 48 34
REMARK SMILES IDX 49 35 60 37 78 38 51 39 38 40 39 41 44 42 40 43 41 44 43 45
REMARK SMILES IDX 45 46 42 47 64 48 65 49 70 50 66 51 67 52 69 53 71 54 68 55
REMARK SMILES IDX 52 56 53 57 58 58 54 59 55 60 57 61 59 62 56 63 7 64 8 65
REMARK SMILES IDX 9 66 10 67 11 68 12 70 13 71 14 72 18 73 15 74 17 75 16 77
REMARK SMILES IDX 19 78 20 79 21 80 28 81 22 82 27 83 23 84 26 85 24 86 25 87
REMARK H PARENT 3 7 76 25 50 36 10 69 18 76
REMARK Flexibility Score: inf
ROOT
ATOM      1  C   UNL A   1      31.145  30.781  25.405  1.00  0.00     0.002 C 
ENDROOT
BRANCH   1   2
ATOM      2  C   UNL A   1      31.094  31.859  26.493  1.00  0.00     0.021 C 
BRANCH   2   3
ATOM      3  C   UNL A   1      32.439  32.439  26.917  1.00  0.00     0.116 C 
BRANCH   3   4
ATOM      4  N   UNL A   1      32.333  33.809  27.384  1.00  0.00    -0.352 N 
ATOM      5  O   UNL A   1      32.675  35.586  28.722  1.00  0.00    -0.269 OA
ATOM      6  C   UNL A   1      33.043  34.478  28.347  1.00  0.00     0.251 C 
ATOM      7  H   UNL A   1      31.638  34.344  26.937  1.00  0.00     0.163 HD
BRANCH   6   8
ATOM      8  C   UNL A   1      34.248  33.866  28.948  1.00  0.00     0.039 A 
ATOM      9  C   UNL A   1      35.531  34.279  28.582  1.00  0.00     0.014 A 
ATOM     10  C   UNL A   1      34.080  32.896  29.941  1.00  0.00     0.014 A 
ATOM     11  C   UNL A   1      36.646  33.644  29.122  1.00  0.00     0.010 A 
ATOM     12  C   UNL A   1      35.200  32.310  30.534  1.00  0.00     0.010 A 
ATOM     13  C   UNL A   1      36.492  32.663  30.113  1.00  0.00    -0.014 A 
BRANCH  13  14
ATOM     14  C   UNL A   1      37.681  32.038  30.742  1.00  0.00     0.031 A 
ATOM     15  C   UNL A   1      38.450  30.966  30.025  1.00  0.00     0.074 A 
ATOM     16  C   UNL A   1      38.044  32.417  31.981  1.00  0.00     0.049 A 
ATOM     17  N   UNL A   1      39.460  30.249  30.449  1.00  0.00    -0.248 NA
ATOM     18  C   UNL A   1      38.023  30.652  28.653  1.00  0.00     0.031 C 
ATOM     19  C   UNL A   1      37.371  33.446  32.777  1.00  0.00     0.029 A 
ATOM     20  N   UNL A   1      39.055  31.974  32.794  1.00  0.00    -0.354 N 
ATOM     21  C   UNL A   1      39.774  29.383  29.410  1.00  0.00     0.074 A 
ATOM     22  C   UNL A   1      38.832  29.649  28.343  1.00  0.00     0.031 C 
ATOM     23  C   UNL A   1      37.993  33.560  33.960  1.00  0.00     0.029 A 
ATOM     24  C   UNL A   1      39.064  32.573  34.029  1.00  0.00     0.049 A 
ATOM     25  H   UNL A   1      39.710  31.292  32.518  1.00  0.00     0.167 HD
ATOM     26  C   UNL A   1      40.760  28.455  29.352  1.00  0.00     0.037 A 
ATOM     27  C   UNL A   1      39.824  32.331  35.114  1.00  0.00     0.037 A 
ATOM     28  C   UNL A   1      41.688  28.196  30.423  1.00  0.00     0.049 A 
ATOM     29  C   UNL A   1      40.878  31.264  35.045  1.00  0.00     0.074 A 
ATOM     30  C   UNL A   1      42.744  27.301  30.452  1.00  0.00     0.029 A 
ATOM     31  N   UNL A   1      41.661  28.820  31.663  1.00  0.00    -0.354 N 
ATOM     32  N   UNL A   1      41.192  30.479  34.043  1.00  0.00    -0.248 NA
ATOM     33  C   UNL A   1      41.684  31.049  36.254  1.00  0.00     0.031 C 
ATOM     34  C   UNL A   1      43.318  27.343  31.726  1.00  0.00     0.029 A 
ATOM     35  C   UNL A   1      42.664  28.311  32.471  1.00  0.00     0.049 A 
ATOM     36  H   UNL A   1      41.023  29.521  31.928  1.00  0.00     0.167 HD
ATOM     37  C   UNL A   1      42.251  29.699  34.489  1.00  0.00     0.074 A 
ATOM     38  C   UNL A   1      42.526  30.108  35.850  1.00  0.00     0.031 C 
ATOM     39  C   UNL A   1      42.935  28.736  33.824  1.00  0.00     0.037 A 
BRANCH  26  40
ATOM     40  C   UNL A   1      40.858  27.627  28.101  1.00  0.00     0.057 A 
ATOM     41  C   UNL A   1      40.203  26.395  27.969  1.00  0.00     0.134 A 
ATOM     42  C   UNL A   1      41.610  28.075  27.007  1.00  0.00     0.134 A 
ATOM     43  F   UNL A   1      39.473  25.901  28.981  1.00  0.00    -0.206 F 
ATOM     44  C   UNL A   1      40.321  25.624  26.810  1.00  0.00     0.040 A 
ATOM     45  C   UNL A   1      41.712  27.328  25.832  1.00  0.00     0.040 A 
ATOM     46  F   UNL A   1      42.255  29.250  27.059  1.00  0.00    -0.206 F 
ATOM     47  C   UNL A   1      41.075  26.093  25.736  1.00  0.00     0.006 A 
ENDBRANCH  26  40
BRANCH  27  48
ATOM     48  C   UNL A   1      39.599  33.117  36.351  1.00  0.00     0.057 A 
ATOM     49  C   UNL A   1      40.288  34.312  36.585  1.00  0.00     0.134 A 
ATOM     50  C   UNL A   1      38.661  32.713  37.310  1.00  0.00     0.134 A 
ATOM     51  F   UNL A   1      41.208  34.742  35.709  1.00  0.00    -0.206 F 
ATOM     52  C   UNL A   1      40.056  35.075  37.730  1.00  0.00     0.040 A 
ATOM     53  C   UNL A   1      38.400  33.480  38.445  1.00  0.00     0.040 A 
ATOM     54  F   UNL A   1      37.960  31.583  37.137  1.00  0.00    -0.206 F 
ATOM     55  C   UNL A   1      39.103  34.663  38.659  1.00  0.00     0.006 A 
ENDBRANCH  27  48
BRANCH  39  56
ATOM     56  C   UNL A   1      44.090  28.093  34.534  1.00  0.00     0.057 A 
ATOM     57  C   UNL A   1      43.950  26.905  35.262  1.00  0.00     0.134 A 
ATOM     58  C   UNL A   1      45.375  28.643  34.435  1.00  0.00     0.134 A 
ATOM     59  F   UNL A   1      42.744  26.334  35.408  1.00  0.00    -0.206 F 
ATOM     60  C   UNL A   1      45.045  26.294  35.877  1.00  0.00     0.040 A 
ATOM     61  C   UNL A   1      46.481  28.027  35.022  1.00  0.00     0.040 A 
ATOM     62  F   UNL A   1      45.579  29.777  33.748  1.00  0.00    -0.206 F 
ATOM     63  C   UNL A   1      46.316  26.850  35.748  1.00  0.00     0.006 A 
ENDBRANCH  39  56
ENDBRANCH  13  14
ENDBRANCH   6   8
ENDBRANCH   3   4
ENDBRANCH   2   3
ENDBRANCH   1   2
BRANCH   1  64
ATOM     64  C   UNL A   1      32.107  29.610  25.633  1.00  0.00     0.002 C 
BRANCH  64  65
ATOM     65  C   UNL A   1      31.721  28.606  26.716  1.00  0.00     0.021 C 
BRANCH  65  66
ATOM     66  C   UNL A   1      32.119  27.161  26.472  1.00  0.00     0.116 C 
BRANCH  66  67
ATOM     67  N   UNL A   1      31.167  26.137  26.800  1.00  0.00    -0.351 N 
ATOM     68  C   UNL A   1      31.266  24.793  26.520  1.00  0.00     0.278 C 
ATOM     69  H   UNL A   1      30.356  26.427  27.277  1.00  0.00     0.163 HD
ATOM     70  O   UNL A   1      30.514  24.059  27.174  1.00  0.00    -0.268 OA
BRANCH  68  71
ATOM     71  C   UNL A   1      32.201  24.235  25.381  1.00  0.00     0.274 C 
ATOM     72  C   UNL A   1      33.611  24.120  26.031  1.00  0.00     0.076 C 
ATOM     73  N   UNL A   1      32.247  25.105  24.157  1.00  0.00    -0.320 N 
ATOM     74  C   UNL A   1      34.706  23.747  25.044  1.00  0.00     0.012 C 
ATOM     75  C   UNL A   1      33.366  24.795  23.247  1.00  0.00     0.263 C 
ATOM     76  H   UNL A   1      32.378  26.020  24.586  1.00  0.00     0.349 HD
ATOM     77  C   UNL A   1      34.724  24.768  23.925  1.00  0.00     0.062 C 
BRANCH  73  78
ATOM     78  C   UNL A   1      31.011  25.168  23.346  1.00  0.00     0.322 C 
BRANCH  78  79
ATOM     79  C   UNL A   1      30.357  26.534  23.224  1.00  0.00     0.115 A 
ATOM     80  C   UNL A   1      29.105  26.943  23.648  1.00  0.00     0.124 A 
ATOM     81  N   UNL A   1      30.959  27.573  22.538  1.00  0.00    -0.210 NA
ATOM     82  N   UNL A   1      28.924  28.203  23.123  1.00  0.00    -0.291 N 
ATOM     83  C   UNL A   1      30.068  28.526  22.405  1.00  0.00     0.234 A 
ATOM     84  C   UNL A   1      27.831  29.057  23.185  1.00  0.00     0.096 A 
ATOM     85  N   UNL A   1      30.142  29.666  21.659  1.00  0.00    -0.221 NA
ATOM     86  C   UNL A   1      27.861  30.208  22.498  1.00  0.00     0.039 A 
ATOM     87  C   UNL A   1      29.102  30.438  21.702  1.00  0.00     0.117 A 
ENDBRANCH  78  79
ENDBRANCH  73  78
ENDBRANCH  68  71
ENDBRANCH  66  67
ENDBRANCH  65  66
ENDBRANCH  64  65
ENDBRANCH   1  64
TORSDOF 15
ENDMDL
MODEL 2
REMARK VINA RESULT:     -11.8      0.744      1.854
REMARK SMILES O=C(NCCCCCCNC(=O)[C@@H]1CCCC[N@H+]1Cc1cn2cccnc2n1)c1ccc(-c2c3nc(c(-c4c(F)cccc4F)c4ccc([nH]4)c(-c4c(F)cccc4F)c4nc(c(-c5c(F)cccc5F)c5ccc2[nH]5)C=C4)C=C3)cc1
REMARK SMILES IDX 6 1 5 2 4 3 3 4 1 5 2 6 29 8 30 9 82 10 31 11 81 12 32 13
REMARK SMILES IDX 33 14 34 15 75 16 35 17 80 18 74 19 76 20 36 21 79 22 73 23
REMARK SMILES IDX 72 24 37 26 63 27 46 28 62 29 47 30 50 31 61 32 77 33 48 34
REMARK SMILES IDX 49 35 60 37 78 38 51 39 38 40 39 41 44 42 40 43 41 44 43 45
REMARK SMILES IDX 45 46 42 47 64 48 65 49 70 50 66 51 67 52 69 53 71 54 68 55
REMARK SMILES IDX 52 56 53 57 58 58 54 59 55 60 57 61 59 62 56 63 7 64 8 65
REMARK SMILES IDX 9 66 10 67 11 68 12 70 13 71 14 72 18 73 15 74 17 75 16 77
REMARK SMILES IDX 19 78 20 79 21 80 28 81 22 82 27 83 23 84 26 85 24 86 25 87
REMARK H PARENT 3 7 76 25 50 36 10 69 18 76
REMARK Flexibility Score: inf
ROOT
ATOM      1  C   UNL A   1      31.040  30.867  25.382  1.00  0.00     0.002 C 
ENDROOT
BRANCH   1   2
ATOM      2  C   UNL A   1      31.092  31.778  26.613  1.00  0.00     0.021 C 
BRANCH   2   3
ATOM      3  C   UNL A   1      32.426  32.473  26.868  1.00  0.00     0.116 C 
BRANCH   3   4
ATOM      4  N   UNL A   1      32.262  33.838  27.336  1.00  0.00    -0.352 N 
ATOM      5  O   UNL A   1      32.527  35.625  28.678  1.00  0.00    -0.269 OA
ATOM      6  C   UNL A   1      32.941  34.533  28.303  1.00  0.00     0.251 C 
ATOM      7  H   UNL A   1      31.548  34.345  26.887  1.00  0.00     0.163 HD
BRANCH   6   8
ATOM      8  C   UNL A   1      34.166  33.970  28.910  1.00  0.00     0.039 A 
ATOM      9  C   UNL A   1      34.098  32.974  29.887  1.00  0.00     0.014 A 
ATOM     10  C   UNL A   1      35.408  34.413  28.445  1.00  0.00     0.014 A 
ATOM     11  C   UNL A   1      35.266  32.504  30.483  1.00  0.00     0.010 A 
ATOM     12  C   UNL A   1      36.580  33.889  28.992  1.00  0.00     0.010 A 
ATOM     13  C   UNL A   1      36.519  32.947  30.031  1.00  0.00    -0.014 A 
BRANCH  13  14
ATOM     14  C   UNL A   1      37.765  32.393  30.614  1.00  0.00     0.031 A 
ATOM     15  C   UNL A   1      38.432  31.198  29.997  1.00  0.00     0.074 A 
ATOM     16  C   UNL A   1      38.276  32.953  31.726  1.00  0.00     0.049 A 
ATOM     17  N   UNL A   1      39.475  30.526  30.413  1.00  0.00    -0.248 NA
ATOM     18  C   UNL A   1      37.843  30.684  28.751  1.00  0.00     0.031 C 
ATOM     19  C   UNL A   1      37.714  34.115  32.417  1.00  0.00     0.029 A 
ATOM     20  N   UNL A   1      39.370  32.613  32.480  1.00  0.00    -0.354 N 
ATOM     21  C   UNL A   1      39.655  29.497  29.498  1.00  0.00     0.074 A 
ATOM     22  C   UNL A   1      38.597  29.619  28.516  1.00  0.00     0.031 C 
ATOM     23  C   UNL A   1      38.472  34.397  33.487  1.00  0.00     0.029 A 
ATOM     24  C   UNL A   1      39.532  33.400  33.593  1.00  0.00     0.049 A 
ATOM     25  H   UNL A   1      39.980  31.877  32.245  1.00  0.00     0.167 HD
ATOM     26  C   UNL A   1      40.615  28.541  29.478  1.00  0.00     0.037 A 
ATOM     27  C   UNL A   1      40.410  33.310  34.608  1.00  0.00     0.037 A 
ATOM     28  C   UNL A   1      41.660  28.426  30.465  1.00  0.00     0.049 A 
ATOM     29  C   UNL A   1      41.436  32.213  34.593  1.00  0.00     0.074 A 
ATOM     30  C   UNL A   1      42.700  27.516  30.517  1.00  0.00     0.029 A 
ATOM     31  N   UNL A   1      41.786  29.241  31.582  1.00  0.00    -0.354 N 
ATOM     32  N   UNL A   1      41.621  31.270  33.701  1.00  0.00    -0.248 NA
ATOM     33  C   UNL A   1      42.375  32.168  35.721  1.00  0.00     0.031 C 
ATOM     34  C   UNL A   1      43.420  27.741  31.695  1.00  0.00     0.029 A 
ATOM     35  C   UNL A   1      42.871  28.835  32.343  1.00  0.00     0.049 A 
ATOM     36  H   UNL A   1      41.192  29.994  31.802  1.00  0.00     0.167 HD
ATOM     37  C   UNL A   1      42.715  30.538  34.144  1.00  0.00     0.074 A 
ATOM     38  C   UNL A   1      43.153  31.149  35.381  1.00  0.00     0.031 C 
ATOM     39  C   UNL A   1      43.304  29.460  33.569  1.00  0.00     0.037 A 
BRANCH  26  40
ATOM     40  C   UNL A   1      40.555  27.523  28.375  1.00  0.00     0.057 A 
ATOM     41  C   UNL A   1      41.273  27.675  27.180  1.00  0.00     0.134 A 
ATOM     42  C   UNL A   1      39.778  26.367  28.514  1.00  0.00     0.134 A 
ATOM     43  F   UNL A   1      42.031  28.763  26.975  1.00  0.00    -0.206 F 
ATOM     44  C   UNL A   1      41.190  26.732  26.153  1.00  0.00     0.040 A 
ATOM     45  C   UNL A   1      39.710  25.402  27.506  1.00  0.00     0.040 A 
ATOM     46  F   UNL A   1      39.072  26.150  29.635  1.00  0.00    -0.206 F 
ATOM     47  C   UNL A   1      40.410  25.590  26.317  1.00  0.00     0.006 A 
ENDBRANCH  26  40
BRANCH  27  48
ATOM     48  C   UNL A   1      40.342  34.290  35.720  1.00  0.00     0.057 A 
ATOM     49  C   UNL A   1      39.590  34.029  36.870  1.00  0.00     0.134 A 
ATOM     50  C   UNL A   1      41.061  35.491  35.676  1.00  0.00     0.134 A 
ATOM     51  F   UNL A   1      38.870  32.901  36.963  1.00  0.00    -0.206 F 
ATOM     52  C   UNL A   1      39.550  34.930  37.935  1.00  0.00     0.040 A 
ATOM     53  C   UNL A   1      41.052  36.388  36.744  1.00  0.00     0.040 A 
ATOM     54  F   UNL A   1      41.812  35.793  34.605  1.00  0.00    -0.206 F 
ATOM     55  C   UNL A   1      40.289  36.110  37.876  1.00  0.00     0.006 A 
ENDBRANCH  27  48
BRANCH  39  56
ATOM     56  C   UNL A   1      44.526  28.903  34.238  1.00  0.00     0.057 A 
ATOM     57  C   UNL A   1      45.808  29.407  33.987  1.00  0.00     0.134 A 
ATOM     58  C   UNL A   1      44.407  27.885  35.194  1.00  0.00     0.134 A 
ATOM     59  F   UNL A   1      45.995  30.371  33.073  1.00  0.00    -0.206 F 
ATOM     60  C   UNL A   1      46.930  28.909  34.655  1.00  0.00     0.040 A 
ATOM     61  C   UNL A   1      45.516  27.399  35.887  1.00  0.00     0.040 A 
ATOM     62  F   UNL A   1      43.206  27.363  35.484  1.00  0.00    -0.206 F 
ATOM     63  C   UNL A   1      46.782  27.910  35.615  1.00  0.00     0.006 A 
ENDBRANCH  39  56
ENDBRANCH  13  14
ENDBRANCH   6   8
ENDBRANCH   3   4
ENDBRANCH   2   3
ENDBRANCH   1   2
BRANCH   1  64
ATOM     64  C   UNL A   1      31.838  29.561  25.452  1.00  0.00     0.002 C 
BRANCH  64  65
ATOM     65  C   UNL A   1      31.923  28.880  26.815  1.00  0.00     0.021 C 
BRANCH  65  66
ATOM     66  C   UNL A   1      32.084  27.369  26.808  1.00  0.00     0.116 C 
BRANCH  66  67
ATOM     67  N   UNL A   1      30.894  26.567  26.746  1.00  0.00    -0.351 N 
ATOM     68  C   UNL A   1      30.801  25.253  26.346  1.00  0.00     0.278 C 
ATOM     69  H   UNL A   1      30.055  27.003  27.018  1.00  0.00     0.163 HD
ATOM     70  O   UNL A   1      29.762  24.670  26.683  1.00  0.00    -0.268 OA
BRANCH  68  71
ATOM     71  C   UNL A   1      31.894  24.567  25.443  1.00  0.00     0.274 C 
ATOM     72  C   UNL A   1      33.139  24.402  26.363  1.00  0.00     0.076 C 
ATOM     73  N   UNL A   1      32.241  25.354  24.211  1.00  0.00    -0.320 N 
ATOM     74  C   UNL A   1      34.373  23.898  25.631  1.00  0.00     0.012 C 
ATOM     75  C   UNL A   1      33.488  24.917  23.556  1.00  0.00     0.263 C 
ATOM     76  H   UNL A   1      32.355  26.284  24.613  1.00  0.00     0.349 HD
ATOM     77  C   UNL A   1      34.683  24.845  24.489  1.00  0.00     0.062 C 
BRANCH  73  78
ATOM     78  C   UNL A   1      31.193  25.446  23.170  1.00  0.00     0.322 C 
BRANCH  78  79
ATOM     79  C   UNL A   1      30.449  26.768  23.082  1.00  0.00     0.115 A 
ATOM     80  C   UNL A   1      29.176  27.083  23.522  1.00  0.00     0.124 A 
ATOM     81  N   UNL A   1      30.976  27.859  22.417  1.00  0.00    -0.210 NA
ATOM     82  N   UNL A   1      28.907  28.339  23.027  1.00  0.00    -0.291 N 
ATOM     83  C   UNL A   1      30.022  28.754  22.310  1.00  0.00     0.234 A 
ATOM     84  C   UNL A   1      27.760  29.116  23.113  1.00  0.00     0.096 A 
ATOM     85  N   UNL A   1      30.015  29.912  21.589  1.00  0.00    -0.221 NA
ATOM     86  C   UNL A   1      27.709  30.282  22.452  1.00  0.00     0.039 A 
ATOM     87  C   UNL A   1      28.925  30.612  21.654  1.00  0.00     0.117 A 
ENDBRANCH  78  79
ENDBRANCH  73  78
ENDBRANCH  68  71
ENDBRANCH  66  67
ENDBRANCH  65  66
ENDBRANCH  64  65
ENDBRANCH   1  64
TORSDOF 15
ENDMDL
MODEL 3
REMARK VINA RESULT:     -11.6      5.178     10.274
REMARK SMILES O=C(NCCCCCCNC(=O)[C@@H]1CCCC[N@H+]1Cc1cn2cccnc2n1)c1ccc(-c2c3nc(c(-c4c(F)cccc4F)c4ccc([nH]4)c(-c4c(F)cccc4F)c4nc(c(-c5c(F)cccc5F)c5ccc2[nH]5)C=C4)C=C3)cc1
REMARK SMILES IDX 6 1 5 2 4 3 3 4 1 5 2 6 29 8 30 9 82 10 31 11 81 12 32 13
REMARK SMILES IDX 33 14 34 15 75 16 35 17 80 18 74 19 76 20 36 21 79 22 73 23
REMARK SMILES IDX 72 24 37 26 63 27 46 28 62 29 47 30 50 31 61 32 77 33 48 34
REMARK SMILES IDX 49 35 60 37 78 38 51 39 38 40 39 41 44 42 40 43 41 44 43 45
REMARK SMILES IDX 45 46 42 47 64 48 65 49 70 50 66 51 67 52 69 53 71 54 68 55
REMARK SMILES IDX 52 56 53 57 58 58 54 59 55 60 57 61 59 62 56 63 7 64 8 65
REMARK SMILES IDX 9 66 10 67 11 68 12 70 13 71 14 72 18 73 15 74 17 75 16 77
REMARK SMILES IDX 19 78 20 79 21 80 28 81 22 82 27 83 23 84 26 85 24 86 25 87
REMARK H PARENT 3 7 76 25 50 36 10 69 18 76
REMARK Flexibility Score: inf
ROOT
ATOM      1  C   UNL A   1      36.970  20.271  24.634  1.00  0.00     0.002 C 
ENDROOT
BRANCH   1   2
ATOM      2  C   UNL A   1      38.070  19.281  25.032  1.00  0.00     0.021 C 
BRANCH   2   3
ATOM      3  C   UNL A   1      39.228  19.863  25.836  1.00  0.00     0.116 C 
BRANCH   3   4
ATOM      4  N   UNL A   1      40.364  18.962  25.909  1.00  0.00    -0.352 N 
ATOM      5  O   UNL A   1      42.525  18.334  25.947  1.00  0.00    -0.269 OA
ATOM      6  C   UNL A   1      41.696  19.225  26.101  1.00  0.00     0.251 C 
ATOM      7  H   UNL A   1      40.142  18.009  25.804  1.00  0.00     0.163 HD
BRANCH   6   8
ATOM      8  C   UNL A   1      42.144  20.582  26.480  1.00  0.00     0.039 A 
ATOM      9  C   UNL A   1      42.493  21.526  25.511  1.00  0.00     0.014 A 
ATOM     10  C   UNL A   1      42.160  20.928  27.834  1.00  0.00     0.014 A 
ATOM     11  C   UNL A   1      42.968  22.777  25.899  1.00  0.00     0.010 A 
ATOM     12  C   UNL A   1      42.568  22.206  28.219  1.00  0.00     0.010 A 
ATOM     13  C   UNL A   1      42.997  23.133  27.256  1.00  0.00    -0.014 A 
BRANCH  13  14
ATOM     14  C   UNL A   1      43.432  24.490  27.667  1.00  0.00     0.031 A 
ATOM     15  C   UNL A   1      42.424  25.529  28.066  1.00  0.00     0.074 A 
ATOM     16  C   UNL A   1      44.743  24.794  27.644  1.00  0.00     0.049 A 
ATOM     17  N   UNL A   1      42.610  26.787  28.372  1.00  0.00    -0.248 NA
ATOM     18  C   UNL A   1      41.019  25.098  28.121  1.00  0.00     0.031 C 
ATOM     19  C   UNL A   1      45.815  23.869  27.271  1.00  0.00     0.029 A 
ATOM     20  N   UNL A   1      45.397  25.967  27.925  1.00  0.00    -0.354 N 
ATOM     21  C   UNL A   1      41.348  27.306  28.631  1.00  0.00     0.074 A 
ATOM     22  C   UNL A   1      40.401  26.230  28.423  1.00  0.00     0.031 C 
ATOM     23  C   UNL A   1      46.992  24.506  27.354  1.00  0.00     0.029 A 
ATOM     24  C   UNL A   1      46.753  25.897  27.724  1.00  0.00     0.049 A 
ATOM     25  H   UNL A   1      44.937  26.779  28.240  1.00  0.00     0.167 HD
ATOM     26  C   UNL A   1      41.013  28.563  29.010  1.00  0.00     0.037 A 
ATOM     27  C   UNL A   1      47.698  26.853  27.791  1.00  0.00     0.037 A 
ATOM     28  C   UNL A   1      41.964  29.628  29.209  1.00  0.00     0.049 A 
ATOM     29  C   UNL A   1      47.298  28.252  28.165  1.00  0.00     0.074 A 
ATOM     30  C   UNL A   1      41.731  30.926  29.624  1.00  0.00     0.029 A 
ATOM     31  N   UNL A   1      43.331  29.519  28.988  1.00  0.00    -0.354 N 
ATOM     32  N   UNL A   1      46.107  28.721  28.446  1.00  0.00    -0.248 NA
ATOM     33  C   UNL A   1      48.371  29.252  28.232  1.00  0.00     0.031 C 
ATOM     34  C   UNL A   1      42.946  31.619  29.600  1.00  0.00     0.029 A 
ATOM     35  C   UNL A   1      43.948  30.735  29.234  1.00  0.00     0.049 A 
ATOM     36  H   UNL A   1      43.793  28.699  28.700  1.00  0.00     0.167 HD
ATOM     37  C   UNL A   1      46.289  30.063  28.754  1.00  0.00     0.074 A 
ATOM     38  C   UNL A   1      47.707  30.330  28.627  1.00  0.00     0.031 C 
ATOM     39  C   UNL A   1      45.364  30.985  29.115  1.00  0.00     0.037 A 
BRANCH  26  40
ATOM     40  C   UNL A   1      39.552  28.863  29.197  1.00  0.00     0.057 A 
ATOM     41  C   UNL A   1      38.732  29.271  28.136  1.00  0.00     0.134 A 
ATOM     42  C   UNL A   1      38.953  28.729  30.456  1.00  0.00     0.134 A 
ATOM     43  F   UNL A   1      39.242  29.428  26.904  1.00  0.00    -0.206 F 
ATOM     44  C   UNL A   1      37.381  29.569  28.328  1.00  0.00     0.040 A 
ATOM     45  C   UNL A   1      37.597  28.996  30.655  1.00  0.00     0.040 A 
ATOM     46  F   UNL A   1      39.674  28.334  31.516  1.00  0.00    -0.206 F 
ATOM     47  C   UNL A   1      36.810  29.427  29.590  1.00  0.00     0.006 A 
ENDBRANCH  26  40
BRANCH  27  48
ATOM     48  C   UNL A   1      49.108  26.507  27.489  1.00  0.00     0.057 A 
ATOM     49  C   UNL A   1      49.988  26.109  28.501  1.00  0.00     0.134 A 
ATOM     50  C   UNL A   1      49.597  26.526  26.177  1.00  0.00     0.134 A 
ATOM     51  F   UNL A   1      49.581  26.084  29.778  1.00  0.00    -0.206 F 
ATOM     52  C   UNL A   1      51.306  25.748  28.220  1.00  0.00     0.040 A 
ATOM     53  C   UNL A   1      50.904  26.142  25.878  1.00  0.00     0.040 A 
ATOM     54  F   UNL A   1      48.798  26.887  25.162  1.00  0.00    -0.206 F 
ATOM     55  C   UNL A   1      51.764  25.755  26.904  1.00  0.00     0.006 A 
ENDBRANCH  27  48
BRANCH  39  56
ATOM     56  C   UNL A   1      45.857  32.361  29.458  1.00  0.00     0.057 A 
ATOM     57  C   UNL A   1      45.916  33.389  28.510  1.00  0.00     0.134 A 
ATOM     58  C   UNL A   1      46.218  32.673  30.775  1.00  0.00     0.134 A 
ATOM     59  F   UNL A   1      45.598  33.154  27.228  1.00  0.00    -0.206 F 
ATOM     60  C   UNL A   1      46.332  34.676  28.858  1.00  0.00     0.040 A 
ATOM     61  C   UNL A   1      46.608  33.962  31.141  1.00  0.00     0.040 A 
ATOM     62  F   UNL A   1      46.178  31.734  31.733  1.00  0.00    -0.206 F 
ATOM     63  C   UNL A   1      46.668  34.967  30.179  1.00  0.00     0.006 A 
ENDBRANCH  39  56
ENDBRANCH  13  14
ENDBRANCH   6   8
ENDBRANCH   3   4
ENDBRANCH   2   3
ENDBRANCH   1   2
BRANCH   1  64
ATOM     64  C   UNL A   1      37.346  21.757  24.620  1.00  0.00     0.002 C 
BRANCH  64  65
ATOM     65  C   UNL A   1      36.708  22.616  23.533  1.00  0.00     0.021 C 
BRANCH  65  66
ATOM     66  C   UNL A   1      35.628  23.585  23.981  1.00  0.00     0.116 C 
BRANCH  66  67
ATOM     67  N   UNL A   1      35.227  23.553  25.360  1.00  0.00    -0.351 N 
ATOM     68  C   UNL A   1      33.972  23.811  25.863  1.00  0.00     0.278 C 
ATOM     69  H   UNL A   1      35.924  23.322  26.015  1.00  0.00     0.163 HD
ATOM     70  O   UNL A   1      33.771  23.407  27.016  1.00  0.00    -0.268 OA
BRANCH  68  71
ATOM     71  C   UNL A   1      32.899  24.645  25.067  1.00  0.00     0.274 C 
ATOM     72  C   UNL A   1      32.369  25.702  26.080  1.00  0.00     0.076 C 
ATOM     73  N   UNL A   1      31.771  23.815  24.523  1.00  0.00    -0.320 N 
ATOM     74  C   UNL A   1      31.198  26.515  25.553  1.00  0.00     0.012 C 
ATOM     75  C   UNL A   1      30.602  24.606  24.096  1.00  0.00     0.263 C 
ATOM     76  H   UNL A   1      31.543  23.254  25.343  1.00  0.00     0.349 HD
ATOM     77  C   UNL A   1      30.086  25.567  25.153  1.00  0.00     0.062 C 
BRANCH  73  78
ATOM     78  C   UNL A   1      32.109  22.882  23.426  1.00  0.00     0.322 C 
BRANCH  78  79
ATOM     79  C   UNL A   1      32.157  21.407  23.791  1.00  0.00     0.115 A 
ATOM     80  C   UNL A   1      32.309  20.821  25.034  1.00  0.00     0.124 A 
ATOM     81  N   UNL A   1      32.144  20.416  22.827  1.00  0.00    -0.210 NA
ATOM     82  N   UNL A   1      32.487  19.477  24.797  1.00  0.00    -0.291 N 
ATOM     83  C   UNL A   1      32.430  19.283  23.423  1.00  0.00     0.234 A 
ATOM     84  C   UNL A   1      32.739  18.432  25.675  1.00  0.00     0.096 A 
ATOM     85  N   UNL A   1      32.699  18.069  22.864  1.00  0.00    -0.221 NA
ATOM     86  C   UNL A   1      32.977  17.207  25.183  1.00  0.00     0.039 A 
ATOM     87  C   UNL A   1      32.963  17.109  23.695  1.00  0.00     0.117 A 
ENDBRANCH  78  79
ENDBRANCH  73  78
ENDBRANCH  68  71
ENDBRANCH  66  67
ENDBRANCH  65  66
ENDBRANCH  64  65
ENDBRANCH   1  64
TORSDOF 15
ENDMDL
