MODEL 1
REMARK VINA RESULT:     -12.2      0.000      0.000
REMARK SMILES O=C(NCCCCCCNC(=O)[C@H]1CCCC[C@@H]1C(=O)Nc1ccc(Br)c(Cl)c1)c1ccc(-c2c3nc(c(-c4c(F)cccc4F)c4ccc([nH]4)c(-c4c(F)cccc4F)c4nc(c(-c5c(F)cccc5F)c5ccc2[nH]5)C=C4)C=C3)cc1
REMARK SMILES IDX 6 1 5 2 4 3 3 4 1 5 2 6 30 8 31 9 83 10 32 11 82 12 33 13
REMARK SMILES IDX 34 14 35 15 76 16 36 17 81 18 75 19 77 20 37 21 80 22 74 23
REMARK SMILES IDX 73 24 38 26 64 27 47 28 63 29 48 30 51 31 62 32 78 33 49 34
REMARK SMILES IDX 50 35 61 37 79 38 52 39 39 40 40 41 45 42 41 43 42 44 44 45
REMARK SMILES IDX 46 46 43 47 65 48 66 49 71 50 67 51 68 52 70 53 72 54 69 55
REMARK SMILES IDX 53 56 54 57 59 58 55 59 56 60 58 61 60 62 57 63 7 64 8 65
REMARK SMILES IDX 9 66 10 67 11 68 12 70 13 71 14 72 18 73 15 74 17 75 16 76
REMARK SMILES IDX 19 77 20 78 21 79 22 81 23 82 29 83 24 84 27 85 25 86 28 87
REMARK SMILES IDX 26 88
REMARK H PARENT 3 7 77 25 51 36 10 69 21 80
REMARK Flexibility Score: inf
ROOT
ATOM      1  C   UNL A   1      36.985  20.206  24.692  1.00  0.00     0.002 C 
ENDROOT
BRANCH   1   2
ATOM      2  C   UNL A   1      38.149  19.246  24.956  1.00  0.00     0.021 C 
BRANCH   2   3
ATOM      3  C   UNL A   1      39.289  19.801  25.805  1.00  0.00     0.116 C 
BRANCH   3   4
ATOM      4  N   UNL A   1      40.416  18.891  25.884  1.00  0.00    -0.352 N 
ATOM      5  O   UNL A   1      42.557  18.223  25.934  1.00  0.00    -0.269 OA
ATOM      6  C   UNL A   1      41.749  19.137  26.077  1.00  0.00     0.251 C 
ATOM      7  H   UNL A   1      40.184  17.939  25.782  1.00  0.00     0.163 HD
BRANCH   6   8
ATOM      8  C   UNL A   1      42.234  20.484  26.454  1.00  0.00     0.039 A 
ATOM      9  C   UNL A   1      42.166  20.863  27.799  1.00  0.00     0.014 A 
ATOM     10  C   UNL A   1      42.664  21.407  25.495  1.00  0.00     0.014 A 
ATOM     11  C   UNL A   1      42.534  22.154  28.183  1.00  0.00     0.010 A 
ATOM     12  C   UNL A   1      43.102  22.671  25.888  1.00  0.00     0.010 A 
ATOM     13  C   UNL A   1      43.007  23.069  27.230  1.00  0.00    -0.014 A 
BRANCH  13  14
ATOM     14  C   UNL A   1      43.308  24.473  27.605  1.00  0.00     0.031 A 
ATOM     15  C   UNL A   1      44.737  24.953  27.599  1.00  0.00     0.074 A 
ATOM     16  C   UNL A   1      42.318  25.310  27.964  1.00  0.00     0.049 A 
ATOM     17  N   UNL A   1      45.223  26.120  27.941  1.00  0.00    -0.248 NA
ATOM     18  C   UNL A   1      45.757  23.981  27.174  1.00  0.00     0.031 C 
ATOM     19  C   UNL A   1      40.897  24.965  28.026  1.00  0.00     0.029 A 
ATOM     20  N   UNL A   1      42.359  26.627  28.346  1.00  0.00    -0.354 N 
ATOM     21  C   UNL A   1      46.601  26.013  27.791  1.00  0.00     0.074 A 
ATOM     22  C   UNL A   1      46.878  24.653  27.384  1.00  0.00     0.031 C 
ATOM     23  C   UNL A   1      40.198  26.052  28.392  1.00  0.00     0.029 A 
ATOM     24  C   UNL A   1      41.123  27.157  28.625  1.00  0.00     0.049 A 
ATOM     25  H   UNL A   1      43.194  27.143  28.412  1.00  0.00     0.167 HD
ATOM     26  C   UNL A   1      47.550  26.966  27.948  1.00  0.00     0.037 A 
ATOM     27  C   UNL A   1      40.779  28.397  29.024  1.00  0.00     0.037 A 
ATOM     28  C   UNL A   1      47.274  28.328  28.322  1.00  0.00     0.049 A 
ATOM     29  C   UNL A   1      41.855  29.431  29.218  1.00  0.00     0.074 A 
ATOM     30  C   UNL A   1      48.156  29.382  28.464  1.00  0.00     0.029 A 
ATOM     31  N   UNL A   1      46.009  28.822  28.609  1.00  0.00    -0.354 N 
ATOM     32  N   UNL A   1      43.149  29.328  29.031  1.00  0.00    -0.248 NA
ATOM     33  C   UNL A   1      41.418  30.756  29.681  1.00  0.00     0.031 C 
ATOM     34  C   UNL A   1      47.431  30.509  28.872  1.00  0.00     0.029 A 
ATOM     35  C   UNL A   1      46.091  30.163  28.945  1.00  0.00     0.049 A 
ATOM     36  H   UNL A   1      45.178  28.297  28.578  1.00  0.00     0.167 HD
ATOM     37  C   UNL A   1      43.676  30.580  29.325  1.00  0.00     0.074 A 
ATOM     38  C   UNL A   1      42.559  31.429  29.687  1.00  0.00     0.031 C 
ATOM     39  C   UNL A   1      44.967  30.992  29.298  1.00  0.00     0.037 A 
BRANCH  26  40
ATOM     40  C   UNL A   1      48.976  26.557  27.716  1.00  0.00     0.057 A 
ATOM     41  C   UNL A   1      49.544  26.631  26.439  1.00  0.00     0.134 A 
ATOM     42  C   UNL A   1      49.791  26.095  28.759  1.00  0.00     0.134 A 
ATOM     43  F   UNL A   1      48.819  27.059  25.394  1.00  0.00    -0.206 F 
ATOM     44  C   UNL A   1      50.872  26.268  26.208  1.00  0.00     0.040 A 
ATOM     45  C   UNL A   1      51.128  25.757  28.546  1.00  0.00     0.040 A 
ATOM     46  F   UNL A   1      49.313  26.015  30.010  1.00  0.00    -0.206 F 
ATOM     47  C   UNL A   1      51.671  25.840  27.266  1.00  0.00     0.006 A 
ENDBRANCH  26  40
BRANCH  27  48
ATOM     48  C   UNL A   1      39.355  28.746  29.244  1.00  0.00     0.057 A 
ATOM     49  C   UNL A   1      38.741  28.580  30.491  1.00  0.00     0.134 A 
ATOM     50  C   UNL A   1      38.580  29.288  28.211  1.00  0.00     0.134 A 
ATOM     51  F   UNL A   1      39.427  28.063  31.520  1.00  0.00    -0.206 F 
ATOM     52  C   UNL A   1      37.409  28.941  30.703  1.00  0.00     0.040 A 
ATOM     53  C   UNL A   1      37.255  29.675  28.415  1.00  0.00     0.040 A 
ATOM     54  F   UNL A   1      39.119  29.491  27.000  1.00  0.00    -0.206 F 
ATOM     55  C   UNL A   1      36.665  29.498  29.665  1.00  0.00     0.006 A 
ENDBRANCH  27  48
BRANCH  39  56
ATOM     56  C   UNL A   1      45.229  32.428  29.639  1.00  0.00     0.057 A 
ATOM     57  C   UNL A   1      45.183  33.416  28.648  1.00  0.00     0.134 A 
ATOM     58  C   UNL A   1      45.540  32.833  30.944  1.00  0.00     0.134 A 
ATOM     59  F   UNL A   1      44.898  33.094  27.376  1.00  0.00    -0.206 F 
ATOM     60  C   UNL A   1      45.434  34.756  28.942  1.00  0.00     0.040 A 
ATOM     61  C   UNL A   1      45.767  34.175  31.255  1.00  0.00     0.040 A 
ATOM     62  F   UNL A   1      45.584  31.937  31.941  1.00  0.00    -0.206 F 
ATOM     63  C   UNL A   1      45.719  35.140  30.251  1.00  0.00     0.006 A 
ENDBRANCH  39  56
ENDBRANCH  13  14
ENDBRANCH   6   8
ENDBRANCH   3   4
ENDBRANCH   2   3
ENDBRANCH   1   2
BRANCH   1  64
ATOM     64  C   UNL A   1      37.303  21.705  24.753  1.00  0.00     0.002 C 
BRANCH  64  65
ATOM     65  C   UNL A   1      36.672  22.573  23.665  1.00  0.00     0.021 C 
BRANCH  65  66
ATOM     66  C   UNL A   1      35.771  23.696  24.165  1.00  0.00     0.116 C 
BRANCH  66  67
ATOM     67  N   UNL A   1      34.698  24.041  23.267  1.00  0.00    -0.356 N 
ATOM     68  C   UNL A   1      33.352  24.022  23.440  1.00  0.00     0.223 C 
ATOM     69  H   UNL A   1      34.992  24.342  22.377  1.00  0.00     0.163 HD
ATOM     70  O   UNL A   1      32.686  24.598  22.570  1.00  0.00    -0.275 OA
BRANCH  68  71
ATOM     71  C   UNL A   1      32.622  23.331  24.608  1.00  0.00     0.091 C 
ATOM     72  C   UNL A   1      32.524  21.813  24.470  1.00  0.00     0.014 C 
ATOM     73  C   UNL A   1      32.952  23.851  26.016  1.00  0.00     0.091 C 
ATOM     74  C   UNL A   1      33.593  21.020  25.197  1.00  0.00     0.001 C 
ATOM     75  C   UNL A   1      33.907  22.977  26.860  1.00  0.00     0.014 C 
ATOM     76  C   UNL A   1      33.798  21.468  26.638  1.00  0.00     0.001 C 
BRANCH  73  77
ATOM     77  C   UNL A   1      31.661  23.978  26.840  1.00  0.00     0.228 C 
ATOM     78  O   UNL A   1      31.355  23.127  27.679  1.00  0.00    -0.274 OA
ATOM     79  N   UNL A   1      30.918  25.123  26.780  1.00  0.00    -0.326 N 
ATOM     80  H   UNL A   1      30.402  25.321  27.593  1.00  0.00     0.169 HD
BRANCH  79  81
ATOM     81  C   UNL A   1      30.771  26.062  25.751  1.00  0.00     0.042 A 
ATOM     82  C   UNL A   1      29.898  25.873  24.681  1.00  0.00     0.027 A 
ATOM     83  C   UNL A   1      31.454  27.274  25.870  1.00  0.00     0.047 A 
ATOM     84  C   UNL A   1      29.739  26.865  23.712  1.00  0.00     0.019 A 
ATOM     85  C   UNL A   1      31.323  28.261  24.885  1.00  0.00     0.057 A 
ATOM     86  C   UNL A   1      30.462  28.057  23.802  1.00  0.00     0.036 A 
ATOM     87  Cl  UNL A   1      32.263  29.698  25.070  1.00  0.00    -0.083 Cl
ATOM     88  Br  UNL A   1      30.204  29.345  22.433  1.00  0.00    -0.049 Br
ENDBRANCH  79  81
ENDBRANCH  73  77
ENDBRANCH  68  71
ENDBRANCH  66  67
ENDBRANCH  65  66
ENDBRANCH  64  65
ENDBRANCH   1  64
TORSDOF 15
ENDMDL
MODEL 2
REMARK VINA RESULT:     -12.2      0.229      1.302
REMARK SMILES O=C(NCCCCCCNC(=O)[C@H]1CCCC[C@@H]1C(=O)Nc1ccc(Br)c(Cl)c1)c1ccc(-c2c3nc(c(-c4c(F)cccc4F)c4ccc([nH]4)c(-c4c(F)cccc4F)c4nc(c(-c5c(F)cccc5F)c5ccc2[nH]5)C=C4)C=C3)cc1
REMARK SMILES IDX 6 1 5 2 4 3 3 4 1 5 2 6 30 8 31 9 83 10 32 11 82 12 33 13
REMARK SMILES IDX 34 14 35 15 76 16 36 17 81 18 75 19 77 20 37 21 80 22 74 23
REMARK SMILES IDX 73 24 38 26 64 27 47 28 63 29 48 30 51 31 62 32 78 33 49 34
REMARK SMILES IDX 50 35 61 37 79 38 52 39 39 40 40 41 45 42 41 43 42 44 44 45
REMARK SMILES IDX 46 46 43 47 65 48 66 49 71 50 67 51 68 52 70 53 72 54 69 55
REMARK SMILES IDX 53 56 54 57 59 58 55 59 56 60 58 61 60 62 57 63 7 64 8 65
REMARK SMILES IDX 9 66 10 67 11 68 12 70 13 71 14 72 18 73 15 74 17 75 16 76
REMARK SMILES IDX 19 77 20 78 21 79 22 81 23 82 29 83 24 84 27 85 25 86 28 87
REMARK SMILES IDX 26 88
REMARK H PARENT 3 7 77 25 51 36 10 69 21 80
REMARK Flexibility Score: inf
ROOT
ATOM      1  C   UNL A   1      36.966  20.234  24.682  1.00  0.00     0.002 C 
ENDROOT
BRANCH   1   2
ATOM      2  C   UNL A   1      38.101  19.257  25.007  1.00  0.00     0.021 C 
BRANCH   2   3
ATOM      3  C   UNL A   1      39.280  19.841  25.780  1.00  0.00     0.116 C 
BRANCH   3   4
ATOM      4  N   UNL A   1      40.382  18.905  25.899  1.00  0.00    -0.352 N 
ATOM      5  O   UNL A   1      42.505  18.186  25.998  1.00  0.00    -0.269 OA
ATOM      6  C   UNL A   1      41.718  19.124  26.105  1.00  0.00     0.251 C 
ATOM      7  H   UNL A   1      40.128  17.957  25.820  1.00  0.00     0.163 HD
BRANCH   6   8
ATOM      8  C   UNL A   1      42.232  20.468  26.453  1.00  0.00     0.039 A 
ATOM      9  C   UNL A   1      42.193  20.868  27.793  1.00  0.00     0.014 A 
ATOM     10  C   UNL A   1      42.660  21.369  25.472  1.00  0.00     0.014 A 
ATOM     11  C   UNL A   1      42.589  22.158  28.150  1.00  0.00     0.010 A 
ATOM     12  C   UNL A   1      43.125  22.631  25.839  1.00  0.00     0.010 A 
ATOM     13  C   UNL A   1      43.060  23.051  27.176  1.00  0.00    -0.014 A 
BRANCH  13  14
ATOM     14  C   UNL A   1      43.391  24.455  27.524  1.00  0.00     0.031 A 
ATOM     15  C   UNL A   1      44.823  24.920  27.455  1.00  0.00     0.074 A 
ATOM     16  C   UNL A   1      42.425  25.306  27.914  1.00  0.00     0.049 A 
ATOM     17  N   UNL A   1      45.334  26.085  27.765  1.00  0.00    -0.248 NA
ATOM     18  C   UNL A   1      45.815  23.933  26.998  1.00  0.00     0.031 C 
ATOM     19  C   UNL A   1      41.004  24.977  28.037  1.00  0.00     0.029 A 
ATOM     20  N   UNL A   1      42.494  26.626  28.280  1.00  0.00    -0.354 N 
ATOM     21  C   UNL A   1      46.704  25.962  27.560  1.00  0.00     0.074 A 
ATOM     22  C   UNL A   1      46.950  24.595  27.155  1.00  0.00     0.031 C 
ATOM     23  C   UNL A   1      40.331  26.075  28.421  1.00  0.00     0.029 A 
ATOM     24  C   UNL A   1      41.276  27.172  28.604  1.00  0.00     0.049 A 
ATOM     25  H   UNL A   1      43.337  27.134  28.308  1.00  0.00     0.167 HD
ATOM     26  C   UNL A   1      47.668  26.906  27.669  1.00  0.00     0.037 A 
ATOM     27  C   UNL A   1      40.962  28.419  29.004  1.00  0.00     0.037 A 
ATOM     28  C   UNL A   1      47.421  28.274  28.040  1.00  0.00     0.049 A 
ATOM     29  C   UNL A   1      42.055  29.443  29.144  1.00  0.00     0.074 A 
ATOM     30  C   UNL A   1      48.320  29.321  28.135  1.00  0.00     0.029 A 
ATOM     31  N   UNL A   1      46.175  28.785  28.373  1.00  0.00    -0.354 N 
ATOM     32  N   UNL A   1      43.339  29.325  28.906  1.00  0.00    -0.248 NA
ATOM     33  C   UNL A   1      41.651  30.778  29.611  1.00  0.00     0.031 C 
ATOM     34  C   UNL A   1      47.623  30.459  28.560  1.00  0.00     0.029 A 
ATOM     35  C   UNL A   1      46.284  30.128  28.691  1.00  0.00     0.049 A 
ATOM     36  H   UNL A   1      45.337  28.269  28.381  1.00  0.00     0.167 HD
ATOM     37  C   UNL A   1      43.891  30.574  29.165  1.00  0.00     0.074 A 
ATOM     38  C   UNL A   1      42.799  31.438  29.564  1.00  0.00     0.031 C 
ATOM     39  C   UNL A   1      45.184  30.972  29.082  1.00  0.00     0.037 A 
BRANCH  26  40
ATOM     40  C   UNL A   1      49.079  26.480  27.383  1.00  0.00     0.057 A 
ATOM     41  C   UNL A   1      49.628  26.629  26.104  1.00  0.00     0.134 A 
ATOM     42  C   UNL A   1      49.899  25.926  28.376  1.00  0.00     0.134 A 
ATOM     43  F   UNL A   1      48.897  27.147  25.104  1.00  0.00    -0.206 F 
ATOM     44  C   UNL A   1      50.942  26.251  25.824  1.00  0.00     0.040 A 
ATOM     45  C   UNL A   1      51.224  25.571  28.116  1.00  0.00     0.040 A 
ATOM     46  F   UNL A   1      49.440  25.771  29.627  1.00  0.00    -0.206 F 
ATOM     47  C   UNL A   1      51.748  25.731  26.835  1.00  0.00     0.006 A 
ENDBRANCH  26  40
BRANCH  27  48
ATOM     48  C   UNL A   1      39.551  28.786  29.279  1.00  0.00     0.057 A 
ATOM     49  C   UNL A   1      38.706  29.263  28.270  1.00  0.00     0.134 A 
ATOM     50  C   UNL A   1      39.005  28.633  30.559  1.00  0.00     0.134 A 
ATOM     51  F   UNL A   1      39.169  29.435  27.024  1.00  0.00    -0.206 F 
ATOM     52  C   UNL A   1      37.370  29.576  28.525  1.00  0.00     0.040 A 
ATOM     53  C   UNL A   1      37.665  28.919  30.823  1.00  0.00     0.040 A 
ATOM     54  F   UNL A   1      39.760  28.159  31.561  1.00  0.00    -0.206 F 
ATOM     55  C   UNL A   1      36.843  29.395  29.803  1.00  0.00     0.006 A 
ENDBRANCH  27  48
BRANCH  39  56
ATOM     56  C   UNL A   1      45.474  32.409  29.397  1.00  0.00     0.057 A 
ATOM     57  C   UNL A   1      45.822  32.797  30.697  1.00  0.00     0.134 A 
ATOM     58  C   UNL A   1      45.395  33.410  28.421  1.00  0.00     0.134 A 
ATOM     59  F   UNL A   1      45.906  31.888  31.681  1.00  0.00    -0.206 F 
ATOM     60  C   UNL A   1      46.084  34.130  31.015  1.00  0.00     0.040 A 
ATOM     61  C   UNL A   1      45.682  34.744  28.721  1.00  0.00     0.040 A 
ATOM     62  F   UNL A   1      45.083  33.101  27.154  1.00  0.00    -0.206 F 
ATOM     63  C   UNL A   1      46.022  35.106  30.023  1.00  0.00     0.006 A 
ENDBRANCH  39  56
ENDBRANCH  13  14
ENDBRANCH   6   8
ENDBRANCH   3   4
ENDBRANCH   2   3
ENDBRANCH   1   2
BRANCH   1  64
ATOM     64  C   UNL A   1      37.328  21.724  24.663  1.00  0.00     0.002 C 
BRANCH  64  65
ATOM     65  C   UNL A   1      36.633  22.573  23.598  1.00  0.00     0.021 C 
BRANCH  65  66
ATOM     66  C   UNL A   1      35.734  23.683  24.131  1.00  0.00     0.116 C 
BRANCH  66  67
ATOM     67  N   UNL A   1      34.660  24.054  23.245  1.00  0.00    -0.356 N 
ATOM     68  C   UNL A   1      33.316  24.050  23.428  1.00  0.00     0.223 C 
ATOM     69  H   UNL A   1      34.952  24.362  22.356  1.00  0.00     0.163 HD
ATOM     70  O   UNL A   1      32.651  24.645  22.569  1.00  0.00    -0.275 OA
BRANCH  68  71
ATOM     71  C   UNL A   1      32.585  23.354  24.591  1.00  0.00     0.091 C 
ATOM     72  C   UNL A   1      32.481  21.837  24.444  1.00  0.00     0.014 C 
ATOM     73  C   UNL A   1      32.918  23.864  26.003  1.00  0.00     0.091 C 
ATOM     74  C   UNL A   1      33.548  21.036  25.164  1.00  0.00     0.001 C 
ATOM     75  C   UNL A   1      33.870  22.981  26.840  1.00  0.00     0.014 C 
ATOM     76  C   UNL A   1      33.756  21.474  26.608  1.00  0.00     0.001 C 
BRANCH  73  77
ATOM     77  C   UNL A   1      31.628  23.990  26.829  1.00  0.00     0.228 C 
ATOM     78  O   UNL A   1      31.323  23.139  27.668  1.00  0.00    -0.274 OA
ATOM     79  N   UNL A   1      30.884  25.134  26.770  1.00  0.00    -0.326 N 
ATOM     80  H   UNL A   1      30.369  25.332  27.585  1.00  0.00     0.169 HD
BRANCH  79  81
ATOM     81  C   UNL A   1      30.735  26.074  25.742  1.00  0.00     0.042 A 
ATOM     82  C   UNL A   1      29.848  25.891  24.681  1.00  0.00     0.027 A 
ATOM     83  C   UNL A   1      31.430  27.279  25.852  1.00  0.00     0.047 A 
ATOM     84  C   UNL A   1      29.689  26.884  23.712  1.00  0.00     0.019 A 
ATOM     85  C   UNL A   1      31.297  28.266  24.868  1.00  0.00     0.057 A 
ATOM     86  C   UNL A   1      30.424  28.069  23.794  1.00  0.00     0.036 A 
ATOM     87  Cl  UNL A   1      32.252  29.696  25.041  1.00  0.00    -0.083 Cl
ATOM     88  Br  UNL A   1      30.163  29.358  22.426  1.00  0.00    -0.049 Br
ENDBRANCH  79  81
ENDBRANCH  73  77
ENDBRANCH  68  71
ENDBRANCH  66  67
ENDBRANCH  65  66
ENDBRANCH  64  65
ENDBRANCH   1  64
TORSDOF 15
ENDMDL
MODEL 3
REMARK VINA RESULT:     -12.1      0.932      1.859
REMARK SMILES O=C(NCCCCCCNC(=O)[C@H]1CCCC[C@@H]1C(=O)Nc1ccc(Br)c(Cl)c1)c1ccc(-c2c3nc(c(-c4c(F)cccc4F)c4ccc([nH]4)c(-c4c(F)cccc4F)c4nc(c(-c5c(F)cccc5F)c5ccc2[nH]5)C=C4)C=C3)cc1
REMARK SMILES IDX 6 1 5 2 4 3 3 4 1 5 2 6 30 8 31 9 83 10 32 11 82 12 33 13
REMARK SMILES IDX 34 14 35 15 76 16 36 17 81 18 75 19 77 20 37 21 80 22 74 23
REMARK SMILES IDX 73 24 38 26 64 27 47 28 63 29 48 30 51 31 62 32 78 33 49 34
REMARK SMILES IDX 50 35 61 37 79 38 52 39 39 40 40 41 45 42 41 43 42 44 44 45
REMARK SMILES IDX 46 46 43 47 65 48 66 49 71 50 67 51 68 52 70 53 72 54 69 55
REMARK SMILES IDX 53 56 54 57 59 58 55 59 56 60 58 61 60 62 57 63 7 64 8 65
REMARK SMILES IDX 9 66 10 67 11 68 12 70 13 71 14 72 18 73 15 74 17 75 16 76
REMARK SMILES IDX 19 77 20 78 21 79 22 81 23 82 29 83 24 84 27 85 25 86 28 87
REMARK SMILES IDX 26 88
REMARK H PARENT 3 7 77 25 51 36 10 69 21 80
REMARK Flexibility Score: inf
ROOT
ATOM      1  C   UNL A   1      36.861  20.595  24.806  1.00  0.00     0.002 C 
ENDROOT
BRANCH   1   2
ATOM      2  C   UNL A   1      38.073  19.664  24.920  1.00  0.00     0.021 C 
BRANCH   2   3
ATOM      3  C   UNL A   1      39.155  20.099  25.904  1.00  0.00     0.116 C 
BRANCH   3   4
ATOM      4  N   UNL A   1      40.330  19.250  25.846  1.00  0.00    -0.352 N 
ATOM      5  O   UNL A   1      42.503  18.703  25.742  1.00  0.00    -0.269 OA
ATOM      6  C   UNL A   1      41.656  19.552  26.007  1.00  0.00     0.251 C 
ATOM      7  H   UNL A   1      40.144  18.301  25.663  1.00  0.00     0.163 HD
BRANCH   6   8
ATOM      8  C   UNL A   1      42.088  20.883  26.492  1.00  0.00     0.039 A 
ATOM      9  C   UNL A   1      42.096  21.117  27.872  1.00  0.00     0.014 A 
ATOM     10  C   UNL A   1      42.391  21.925  25.610  1.00  0.00     0.014 A 
ATOM     11  C   UNL A   1      42.416  22.383  28.365  1.00  0.00     0.010 A 
ATOM     12  C   UNL A   1      42.782  23.168  26.106  1.00  0.00     0.010 A 
ATOM     13  C   UNL A   1      42.763  23.420  27.486  1.00  0.00    -0.014 A 
BRANCH  13  14
ATOM     14  C   UNL A   1      43.008  24.795  27.988  1.00  0.00     0.031 A 
ATOM     15  C   UNL A   1      44.419  25.240  28.274  1.00  0.00     0.074 A 
ATOM     16  C   UNL A   1      41.979  25.635  28.202  1.00  0.00     0.049 A 
ATOM     17  N   UNL A   1      44.848  26.376  28.765  1.00  0.00    -0.248 NA
ATOM     18  C   UNL A   1      45.487  24.267  27.993  1.00  0.00     0.031 C 
ATOM     19  C   UNL A   1      40.568  25.322  27.979  1.00  0.00     0.029 A 
ATOM     20  N   UNL A   1      41.966  26.930  28.656  1.00  0.00    -0.354 N 
ATOM     21  C   UNL A   1      46.228  26.244  28.868  1.00  0.00     0.074 A 
ATOM     22  C   UNL A   1      46.557  24.901  28.445  1.00  0.00     0.031 C 
ATOM     23  C   UNL A   1      39.827  26.405  28.268  1.00  0.00     0.029 A 
ATOM     24  C   UNL A   1      40.707  27.474  28.729  1.00  0.00     0.049 A 
ATOM     25  H   UNL A   1      42.782  27.422  28.906  1.00  0.00     0.167 HD
ATOM     26  C   UNL A   1      47.144  27.165  29.252  1.00  0.00     0.037 A 
ATOM     27  C   UNL A   1      40.312  28.699  29.125  1.00  0.00     0.037 A 
ATOM     28  C   UNL A   1      46.821  28.512  29.643  1.00  0.00     0.049 A 
ATOM     29  C   UNL A   1      41.347  29.696  29.574  1.00  0.00     0.074 A 
ATOM     30  C   UNL A   1      47.677  29.536  30.005  1.00  0.00     0.029 A 
ATOM     31  N   UNL A   1      45.533  29.020  29.716  1.00  0.00    -0.354 N 
ATOM     32  N   UNL A   1      42.651  29.572  29.626  1.00  0.00    -0.248 NA
ATOM     33  C   UNL A   1      40.849  31.006  30.019  1.00  0.00     0.031 C 
ATOM     34  C   UNL A   1      46.903  30.657  30.332  1.00  0.00     0.029 A 
ATOM     35  C   UNL A   1      45.568  30.339  30.135  1.00  0.00     0.049 A 
ATOM     36  H   UNL A   1      44.714  28.518  29.501  1.00  0.00     0.167 HD
ATOM     37  C   UNL A   1      43.131  30.794  30.081  1.00  0.00     0.074 A 
ATOM     38  C   UNL A   1      41.978  31.649  30.276  1.00  0.00     0.031 C 
ATOM     39  C   UNL A   1      44.410  31.176  30.318  1.00  0.00     0.037 A 
BRANCH  26  40
ATOM     40  C   UNL A   1      48.583  26.734  29.268  1.00  0.00     0.057 A 
ATOM     41  C   UNL A   1      49.140  26.137  30.404  1.00  0.00     0.134 A 
ATOM     42  C   UNL A   1      49.417  26.906  28.154  1.00  0.00     0.134 A 
ATOM     43  F   UNL A   1      48.399  25.947  31.507  1.00  0.00    -0.206 F 
ATOM     44  C   UNL A   1      50.471  25.717  30.431  1.00  0.00     0.040 A 
ATOM     45  C   UNL A   1      50.741  26.465  28.158  1.00  0.00     0.040 A 
ATOM     46  F   UNL A   1      48.941  27.458  27.028  1.00  0.00    -0.206 F 
ATOM     47  C   UNL A   1      51.272  25.871  29.301  1.00  0.00     0.006 A 
ENDBRANCH  26  40
BRANCH  27  48
ATOM     48  C   UNL A   1      38.876  29.070  29.095  1.00  0.00     0.057 A 
ATOM     49  C   UNL A   1      38.250  29.493  27.916  1.00  0.00     0.134 A 
ATOM     50  C   UNL A   1      38.086  28.977  30.247  1.00  0.00     0.134 A 
ATOM     51  F   UNL A   1      38.953  29.607  26.781  1.00  0.00    -0.206 F 
ATOM     52  C   UNL A   1      36.891  29.810  27.885  1.00  0.00     0.040 A 
ATOM     53  C   UNL A   1      36.721  29.268  30.225  1.00  0.00     0.040 A 
ATOM     54  F   UNL A   1      38.624  28.557  31.401  1.00  0.00    -0.206 F 
ATOM     55  C   UNL A   1      36.121  29.689  29.039  1.00  0.00     0.006 A 
ENDBRANCH  27  48
BRANCH  39  56
ATOM     56  C   UNL A   1      44.623  32.586  30.781  1.00  0.00     0.057 A 
ATOM     57  C   UNL A   1      44.646  32.892  32.147  1.00  0.00     0.134 A 
ATOM     58  C   UNL A   1      44.790  33.643  29.877  1.00  0.00     0.134 A 
ATOM     59  F   UNL A   1      44.483  31.926  33.065  1.00  0.00    -0.206 F 
ATOM     60  C   UNL A   1      44.831  34.199  32.599  1.00  0.00     0.040 A 
ATOM     61  C   UNL A   1      45.003  34.951  30.318  1.00  0.00     0.040 A 
ATOM     62  F   UNL A   1      44.793  33.413  28.556  1.00  0.00    -0.206 F 
ATOM     63  C   UNL A   1      45.018  35.231  31.683  1.00  0.00     0.006 A 
ENDBRANCH  39  56
ENDBRANCH  13  14
ENDBRANCH   6   8
ENDBRANCH   3   4
ENDBRANCH   2   3
ENDBRANCH   1   2
BRANCH   1  64
ATOM     64  C   UNL A   1      37.158  22.090  24.631  1.00  0.00     0.002 C 
BRANCH  64  65
ATOM     65  C   UNL A   1      36.476  22.779  23.449  1.00  0.00     0.021 C 
BRANCH  65  66
ATOM     66  C   UNL A   1      35.186  23.520  23.780  1.00  0.00     0.116 C 
BRANCH  66  67
ATOM     67  N   UNL A   1      34.048  23.107  22.998  1.00  0.00    -0.356 N 
ATOM     68  C   UNL A   1      32.777  22.807  23.368  1.00  0.00     0.223 C 
ATOM     69  H   UNL A   1      34.223  23.031  22.032  1.00  0.00     0.163 HD
ATOM     70  O   UNL A   1      31.954  22.712  22.447  1.00  0.00    -0.275 OA
BRANCH  68  71
ATOM     71  C   UNL A   1      32.313  22.564  24.816  1.00  0.00     0.091 C 
ATOM     72  C   UNL A   1      32.463  21.117  25.284  1.00  0.00     0.014 C 
ATOM     73  C   UNL A   1      32.704  23.639  25.843  1.00  0.00     0.091 C 
ATOM     74  C   UNL A   1      33.727  20.811  26.063  1.00  0.00     0.001 C 
ATOM     75  C   UNL A   1      33.883  23.292  26.778  1.00  0.00     0.014 C 
ATOM     76  C   UNL A   1      34.013  21.819  27.169  1.00  0.00     0.001 C 
BRANCH  73  77
ATOM     77  C   UNL A   1      31.510  23.937  26.765  1.00  0.00     0.228 C 
ATOM     78  O   UNL A   1      31.166  23.138  27.639  1.00  0.00    -0.274 OA
ATOM     79  N   UNL A   1      30.918  25.168  26.744  1.00  0.00    -0.326 N 
ATOM     80  H   UNL A   1      30.499  25.436  27.593  1.00  0.00     0.169 HD
BRANCH  79  81
ATOM     81  C   UNL A   1      30.810  26.112  25.715  1.00  0.00     0.042 A 
ATOM     82  C   UNL A   1      30.153  25.843  24.515  1.00  0.00     0.027 A 
ATOM     83  C   UNL A   1      31.294  27.400  25.956  1.00  0.00     0.047 A 
ATOM     84  C   UNL A   1      30.018  26.837  23.544  1.00  0.00     0.019 A 
ATOM     85  C   UNL A   1      31.188  28.392  24.974  1.00  0.00     0.057 A 
ATOM     86  C   UNL A   1      30.547  28.110  23.763  1.00  0.00     0.036 A 
ATOM     87  Cl  UNL A   1      31.880  29.935  25.324  1.00  0.00    -0.083 Cl
ATOM     88  Br  UNL A   1      30.338  29.396  22.383  1.00  0.00    -0.049 Br
ENDBRANCH  79  81
ENDBRANCH  73  77
ENDBRANCH  68  71
ENDBRANCH  66  67
ENDBRANCH  65  66
ENDBRANCH  64  65
ENDBRANCH   1  64
TORSDOF 15
ENDMDL
