MODEL 1
REMARK VINA RESULT:     -10.8      0.000      0.000
REMARK SMILES CCSc1nc(CC(=O)N[C@@H](C(=O)NCCCCCCNC(=O)c2ccc(-c3c4nc(c(-c5c(F)cccc5F)c5ccc([nH]5)c(-c5c(F)cccc5F)c5nc(c(-c6c(F)cccc6F)c6ccc3[nH]6)C=C5)C=C4)cc2)C2=C(C)N=N[C@@H]2C)cs1
REMARK SMILES IDX 16 1 15 2 14 3 12 4 13 5 11 7 10 8 8 9 9 10 7 12 6 13 4 14
REMARK SMILES IDX 5 15 86 16 85 17 3 18 2 19 1 20 78 21 79 22 83 23 80 24
REMARK SMILES IDX 81 25 82 26 84 27 17 28 18 29 19 30 20 31 21 32 22 33 23 35
REMARK SMILES IDX 24 36 25 37 77 38 26 39 76 40 27 41 28 42 29 43 70 44 30 45
REMARK SMILES IDX 75 46 69 47 71 48 31 49 74 50 68 51 67 52 32 54 58 55 41 56
REMARK SMILES IDX 57 57 42 58 45 59 56 60 72 61 43 62 44 63 55 65 73 66 46 67
REMARK SMILES IDX 33 68 34 69 39 70 35 71 36 72 38 73 40 74 37 75 59 76 60 77
REMARK SMILES IDX 65 78 61 79 62 80 64 81 66 82 63 83 47 84 48 85 53 86 49 87
REMARK SMILES IDX 50 88 52 89 54 90 51 91
REMARK H PARENT 14 6 10 11 21 34 71 53 45 64
REMARK Flexibility Score: inf
ROOT
ATOM      1  C   UNL A   1      37.126  23.344  24.628  1.00  0.00     0.021 C 
ENDROOT
BRANCH   1   2
ATOM      2  C   UNL A   1      35.828  23.845  25.247  1.00  0.00     0.116 C 
BRANCH   2   3
ATOM      3  N   UNL A   1      35.420  23.142  26.441  1.00  0.00    -0.354 N 
ATOM      4  C   UNL A   1      34.297  22.392  26.658  1.00  0.00     0.247 C 
ATOM      5  O   UNL A   1      34.453  21.443  27.438  1.00  0.00    -0.272 OA
ATOM      6  H   UNL A   1      36.036  23.212  27.205  1.00  0.00     0.163 HD
BRANCH   4   7
ATOM      7  C   UNL A   1      32.905  22.643  25.940  1.00  0.00     0.202 C 
BRANCH   7   8
ATOM      8  N   UNL A   1      31.740  22.483  26.804  1.00  0.00    -0.340 N 
ATOM      9  C   UNL A   1      30.520  23.097  26.743  1.00  0.00     0.226 C 
ATOM     10  O   UNL A   1      29.756  22.942  27.700  1.00  0.00    -0.275 OA
ATOM     11  H   UNL A   1      31.849  21.838  27.539  1.00  0.00     0.164 HD
BRANCH   9  12
ATOM     12  C   UNL A   1      30.105  23.941  25.550  1.00  0.00     0.157 C 
BRANCH  12  13
ATOM     13  C   UNL A   1      30.791  25.265  25.447  1.00  0.00     0.062 A 
ATOM     14  C   UNL A   1      31.542  27.156  26.344  1.00  0.00     0.150 A 
ATOM     15  N   UNL A   1      30.764  26.117  26.548  1.00  0.00    -0.234 NA
ATOM     16  S   UNL A   1      32.286  27.226  24.802  1.00  0.00    -0.116 S 
ATOM     17  C   UNL A   1      31.540  25.737  24.384  1.00  0.00     0.092 A 
BRANCH  14  18
ATOM     18  S   UNL A   1      31.878  28.315  27.608  1.00  0.00    -0.096 SA
BRANCH  18  19
ATOM     19  C   UNL A   1      33.591  28.790  27.247  1.00  0.00     0.074 C 
ATOM     20  C   UNL A   1      33.708  30.277  26.966  1.00  0.00     0.016 C 
ENDBRANCH  18  19
ENDBRANCH  14  18
ENDBRANCH  12  13
ENDBRANCH   9  12
ENDBRANCH   7   8
BRANCH   7  21
ATOM     21  C   UNL A   1      32.687  21.737  24.753  1.00  0.00     0.011 C 
ATOM     22  C   UNL A   1      32.649  20.397  24.678  1.00  0.00     0.064 C 
ATOM     23  C   UNL A   1      32.347  22.192  23.363  1.00  0.00     0.156 C 
ATOM     24  C   UNL A   1      32.870  19.374  25.734  1.00  0.00     0.069 C 
ATOM     25  N   UNL A   1      32.341  19.941  23.421  1.00  0.00    -0.160 NA
ATOM     26  N   UNL A   1      32.146  20.905  22.639  1.00  0.00    -0.181 NA
ATOM     27  C   UNL A   1      33.448  22.958  22.645  1.00  0.00     0.040 C 
ENDBRANCH   7  21
ENDBRANCH   4   7
ENDBRANCH   2   3
ENDBRANCH   1   2
BRANCH   1  28
ATOM     28  C   UNL A   1      37.714  22.096  25.289  1.00  0.00     0.002 C 
BRANCH  28  29
ATOM     29  C   UNL A   1      37.367  20.762  24.618  1.00  0.00     0.002 C 
BRANCH  29  30
ATOM     30  C   UNL A   1      38.304  19.591  24.924  1.00  0.00     0.021 C 
BRANCH  30  31
ATOM     31  C   UNL A   1      39.277  19.832  26.071  1.00  0.00     0.116 C 
BRANCH  31  32
ATOM     32  N   UNL A   1      40.448  18.976  25.986  1.00  0.00    -0.352 N 
ATOM     33  C   UNL A   1      41.780  19.295  26.068  1.00  0.00     0.251 C 
ATOM     34  H   UNL A   1      40.257  18.019  25.850  1.00  0.00     0.163 HD
ATOM     35  O   UNL A   1      42.629  18.457  25.784  1.00  0.00    -0.269 OA
BRANCH  33  36
ATOM     36  C   UNL A   1      42.193  20.653  26.480  1.00  0.00     0.039 A 
ATOM     37  C   UNL A   1      42.500  21.592  25.493  1.00  0.00     0.014 A 
ATOM     38  C   UNL A   1      42.302  20.995  27.831  1.00  0.00     0.014 A 
ATOM     39  C   UNL A   1      42.861  22.889  25.858  1.00  0.00     0.010 A 
ATOM     40  C   UNL A   1      42.584  22.309  28.193  1.00  0.00     0.010 A 
ATOM     41  C   UNL A   1      42.875  23.267  27.210  1.00  0.00    -0.014 A 
BRANCH  41  42
ATOM     42  C   UNL A   1      43.201  24.658  27.616  1.00  0.00     0.031 A 
ATOM     43  C   UNL A   1      44.635  25.097  27.723  1.00  0.00     0.074 A 
ATOM     44  C   UNL A   1      42.207  25.504  27.947  1.00  0.00     0.049 A 
ATOM     45  N   UNL A   1      45.120  26.246  28.122  1.00  0.00    -0.248 NA
ATOM     46  C   UNL A   1      45.661  24.107  27.358  1.00  0.00     0.031 C 
ATOM     47  C   UNL A   1      40.779  25.181  27.930  1.00  0.00     0.029 A 
ATOM     48  N   UNL A   1      42.247  26.808  28.372  1.00  0.00    -0.354 N 
ATOM     49  C   UNL A   1      46.502  26.110  28.072  1.00  0.00     0.074 A 
ATOM     50  C   UNL A   1      46.779  24.753  27.657  1.00  0.00     0.031 C 
ATOM     51  C   UNL A   1      40.079  26.264  28.306  1.00  0.00     0.029 A 
ATOM     52  C   UNL A   1      41.007  27.343  28.628  1.00  0.00     0.049 A 
ATOM     53  H   UNL A   1      43.084  27.313  28.484  1.00  0.00     0.167 HD
ATOM     54  C   UNL A   1      47.453  27.040  28.327  1.00  0.00     0.037 A 
ATOM     55  C   UNL A   1      40.659  28.563  29.079  1.00  0.00     0.037 A 
ATOM     56  C   UNL A   1      47.172  28.397  28.715  1.00  0.00     0.049 A 
ATOM     57  C   UNL A   1      41.735  29.575  29.358  1.00  0.00     0.074 A 
ATOM     58  C   UNL A   1      48.063  29.433  28.933  1.00  0.00     0.029 A 
ATOM     59  N   UNL A   1      45.902  28.905  28.944  1.00  0.00    -0.354 N 
ATOM     60  N   UNL A   1      43.035  29.455  29.236  1.00  0.00    -0.248 NA
ATOM     61  C   UNL A   1      41.296  30.895  29.830  1.00  0.00     0.031 C 
ATOM     62  C   UNL A   1      47.337  30.555  29.343  1.00  0.00     0.029 A 
ATOM     63  C   UNL A   1      45.988  30.234  29.326  1.00  0.00     0.049 A 
ATOM     64  H   UNL A   1      45.064  28.398  28.849  1.00  0.00     0.167 HD
ATOM     65  C   UNL A   1      43.566  30.690  29.588  1.00  0.00     0.074 A 
ATOM     66  C   UNL A   1      42.446  31.549  29.912  1.00  0.00     0.031 C 
ATOM     67  C   UNL A   1      44.863  31.078  29.637  1.00  0.00     0.037 A 
BRANCH  54  68
ATOM     68  C   UNL A   1      48.889  26.621  28.192  1.00  0.00     0.057 A 
ATOM     69  C   UNL A   1      49.564  26.681  26.966  1.00  0.00     0.134 A 
ATOM     70  C   UNL A   1      49.617  26.194  29.310  1.00  0.00     0.134 A 
ATOM     71  F   UNL A   1      48.923  27.069  25.853  1.00  0.00    -0.206 F 
ATOM     72  C   UNL A   1      50.905  26.306  26.851  1.00  0.00     0.040 A 
ATOM     73  C   UNL A   1      50.965  25.844  29.213  1.00  0.00     0.040 A 
ATOM     74  F   UNL A   1      49.034  26.119  30.515  1.00  0.00    -0.206 F 
ATOM     75  C   UNL A   1      51.611  25.894  27.979  1.00  0.00     0.006 A 
ENDBRANCH  54  68
BRANCH  55  76
ATOM     76  C   UNL A   1      39.227  28.903  29.279  1.00  0.00     0.057 A 
ATOM     77  C   UNL A   1      38.594  28.671  30.506  1.00  0.00     0.134 A 
ATOM     78  C   UNL A   1      38.455  29.453  28.250  1.00  0.00     0.134 A 
ATOM     79  F   UNL A   1      39.277  28.130  31.526  1.00  0.00    -0.206 F 
ATOM     80  C   UNL A   1      37.240  28.951  30.695  1.00  0.00     0.040 A 
ATOM     81  C   UNL A   1      37.106  29.764  28.433  1.00  0.00     0.040 A 
ATOM     82  F   UNL A   1      39.004  29.709  27.052  1.00  0.00    -0.206 F 
ATOM     83  C   UNL A   1      36.492  29.503  29.656  1.00  0.00     0.006 A 
ENDBRANCH  55  76
BRANCH  67  84
ATOM     84  C   UNL A   1      45.141  32.502  30.021  1.00  0.00     0.057 A 
ATOM     85  C   UNL A   1      45.168  33.534  29.076  1.00  0.00     0.134 A 
ATOM     86  C   UNL A   1      45.345  32.849  31.364  1.00  0.00     0.134 A 
ATOM     87  F   UNL A   1      44.994  33.266  27.773  1.00  0.00    -0.206 F 
ATOM     88  C   UNL A   1      45.412  34.857  29.448  1.00  0.00     0.040 A 
ATOM     89  C   UNL A   1      45.561  34.172  31.751  1.00  0.00     0.040 A 
ATOM     90  F   UNL A   1      45.322  31.910  32.322  1.00  0.00    -0.206 F 
ATOM     91  C   UNL A   1      45.601  35.179  30.790  1.00  0.00     0.006 A 
ENDBRANCH  67  84
ENDBRANCH  41  42
ENDBRANCH  33  36
ENDBRANCH  31  32
ENDBRANCH  30  31
ENDBRANCH  29  30
ENDBRANCH  28  29
ENDBRANCH   1  28
TORSDOF 19
ENDMDL
MODEL 2
REMARK VINA RESULT:     -10.8      1.281      6.208
REMARK SMILES CCSc1nc(CC(=O)N[C@@H](C(=O)NCCCCCCNC(=O)c2ccc(-c3c4nc(c(-c5c(F)cccc5F)c5ccc([nH]5)c(-c5c(F)cccc5F)c5nc(c(-c6c(F)cccc6F)c6ccc3[nH]6)C=C5)C=C4)cc2)C2=C(C)N=N[C@@H]2C)cs1
REMARK SMILES IDX 16 1 15 2 14 3 12 4 13 5 11 7 10 8 8 9 9 10 7 12 6 13 4 14
REMARK SMILES IDX 5 15 86 16 85 17 3 18 2 19 1 20 78 21 79 22 83 23 80 24
REMARK SMILES IDX 81 25 82 26 84 27 17 28 18 29 19 30 20 31 21 32 22 33 23 35
REMARK SMILES IDX 24 36 25 37 77 38 26 39 76 40 27 41 28 42 29 43 70 44 30 45
REMARK SMILES IDX 75 46 69 47 71 48 31 49 74 50 68 51 67 52 32 54 58 55 41 56
REMARK SMILES IDX 57 57 42 58 45 59 56 60 72 61 43 62 44 63 55 65 73 66 46 67
REMARK SMILES IDX 33 68 34 69 39 70 35 71 36 72 38 73 40 74 37 75 59 76 60 77
REMARK SMILES IDX 65 78 61 79 62 80 64 81 66 82 63 83 47 84 48 85 53 86 49 87
REMARK SMILES IDX 50 88 52 89 54 90 51 91
REMARK H PARENT 14 6 10 11 21 34 71 53 45 64
REMARK Flexibility Score: inf
ROOT
ATOM      1  C   UNL A   1      36.643  22.944  23.508  1.00  0.00     0.021 C 
ENDROOT
BRANCH   1   2
ATOM      2  C   UNL A   1      35.149  23.238  23.480  1.00  0.00     0.116 C 
BRANCH   2   3
ATOM      3  N   UNL A   1      34.743  24.368  24.282  1.00  0.00    -0.354 N 
ATOM      4  C   UNL A   1      33.697  24.472  25.158  1.00  0.00     0.247 C 
ATOM      5  O   UNL A   1      33.905  25.220  26.123  1.00  0.00    -0.272 OA
ATOM      6  H   UNL A   1      35.297  25.176  24.186  1.00  0.00     0.163 HD
BRANCH   4   7
ATOM      7  C   UNL A   1      32.336  23.669  25.019  1.00  0.00     0.202 C 
BRANCH   7   8
ATOM      8  N   UNL A   1      31.302  24.061  25.971  1.00  0.00    -0.340 N 
ATOM      9  C   UNL A   1      30.272  24.947  25.822  1.00  0.00     0.226 C 
ATOM     10  O   UNL A   1      29.637  25.259  26.834  1.00  0.00    -0.275 OA
ATOM     11  H   UNL A   1      31.354  23.622  26.850  1.00  0.00     0.164 HD
BRANCH   9  12
ATOM     12  C   UNL A   1      29.910  25.537  24.469  1.00  0.00     0.157 C 
BRANCH  12  13
ATOM     13  C   UNL A   1      30.537  26.861  24.172  1.00  0.00     0.062 A 
ATOM     14  C   UNL A   1      31.986  28.486  24.619  1.00  0.00     0.150 A 
ATOM     15  N   UNL A   1      31.410  27.411  25.107  1.00  0.00    -0.234 NA
ATOM     16  S   UNL A   1      31.466  28.956  23.056  1.00  0.00    -0.116 S 
ATOM     17  C   UNL A   1      30.413  27.601  23.008  1.00  0.00     0.092 A 
BRANCH  14  18
ATOM     18  S   UNL A   1      33.277  29.302  25.470  1.00  0.00    -0.096 SA
BRANCH  18  19
ATOM     19  C   UNL A   1      32.376  30.199  26.764  1.00  0.00     0.074 C 
ATOM     20  C   UNL A   1      31.404  31.202  26.170  1.00  0.00     0.016 C 
ENDBRANCH  18  19
ENDBRANCH  14  18
ENDBRANCH  12  13
ENDBRANCH   9  12
ENDBRANCH   7   8
BRANCH   7  21
ATOM     21  C   UNL A   1      32.518  22.179  25.172  1.00  0.00     0.011 C 
ATOM     22  C   UNL A   1      33.219  21.478  26.077  1.00  0.00     0.064 C 
ATOM     23  C   UNL A   1      31.823  21.130  24.354  1.00  0.00     0.156 C 
ATOM     24  C   UNL A   1      34.092  21.950  27.185  1.00  0.00     0.069 C 
ATOM     25  N   UNL A   1      33.070  20.122  25.934  1.00  0.00    -0.160 NA
ATOM     26  N   UNL A   1      32.284  19.863  24.988  1.00  0.00    -0.181 NA
ATOM     27  C   UNL A   1      32.223  21.083  22.886  1.00  0.00     0.040 C 
ENDBRANCH   7  21
ENDBRANCH   4   7
ENDBRANCH   2   3
ENDBRANCH   1   2
BRANCH   1  28
ATOM     28  C   UNL A   1      37.117  22.139  24.719  1.00  0.00     0.002 C 
BRANCH  28  29
ATOM     29  C   UNL A   1      36.670  20.673  24.761  1.00  0.00     0.002 C 
BRANCH  29  30
ATOM     30  C   UNL A   1      37.780  19.636  24.942  1.00  0.00     0.021 C 
BRANCH  30  31
ATOM     31  C   UNL A   1      38.978  20.113  25.751  1.00  0.00     0.116 C 
BRANCH  31  32
ATOM     32  N   UNL A   1      40.020  19.104  25.838  1.00  0.00    -0.352 N 
ATOM     33  C   UNL A   1      41.370  19.247  26.031  1.00  0.00     0.251 C 
ATOM     34  H   UNL A   1      39.709  18.174  25.743  1.00  0.00     0.163 HD
ATOM     35  O   UNL A   1      42.116  18.284  25.886  1.00  0.00    -0.269 OA
BRANCH  33  36
ATOM     36  C   UNL A   1      41.932  20.565  26.396  1.00  0.00     0.039 A 
ATOM     37  C   UNL A   1      42.277  21.455  25.376  1.00  0.00     0.014 A 
ATOM     38  C   UNL A   1      42.141  20.915  27.732  1.00  0.00     0.014 A 
ATOM     39  C   UNL A   1      42.779  22.717  25.698  1.00  0.00     0.010 A 
ATOM     40  C   UNL A   1      42.565  22.201  28.054  1.00  0.00     0.010 A 
ATOM     41  C   UNL A   1      42.896  23.111  27.040  1.00  0.00    -0.014 A 
BRANCH  41  42
ATOM     42  C   UNL A   1      43.374  24.470  27.402  1.00  0.00     0.031 A 
ATOM     43  C   UNL A   1      42.393  25.525  27.837  1.00  0.00     0.074 A 
ATOM     44  C   UNL A   1      44.681  24.770  27.280  1.00  0.00     0.049 A 
ATOM     45  N   UNL A   1      42.608  26.783  28.129  1.00  0.00    -0.248 NA
ATOM     46  C   UNL A   1      40.981  25.120  27.930  1.00  0.00     0.031 C 
ATOM     47  C   UNL A   1      45.722  23.848  26.822  1.00  0.00     0.029 A 
ATOM     48  N   UNL A   1      45.356  25.940  27.521  1.00  0.00    -0.354 N 
ATOM     49  C   UNL A   1      41.361  27.320  28.424  1.00  0.00     0.074 A 
ATOM     50  C   UNL A   1      40.388  26.268  28.222  1.00  0.00     0.031 C 
ATOM     51  C   UNL A   1      46.907  24.481  26.837  1.00  0.00     0.029 A 
ATOM     52  C   UNL A   1      46.704  25.861  27.265  1.00  0.00     0.049 A 
ATOM     53  H   UNL A   1      44.917  26.759  27.846  1.00  0.00     0.167 HD
ATOM     54  C   UNL A   1      41.056  28.570  28.846  1.00  0.00     0.037 A 
ATOM     55  C   UNL A   1      47.666  26.799  27.357  1.00  0.00     0.037 A 
ATOM     56  C   UNL A   1      42.030  29.606  29.070  1.00  0.00     0.049 A 
ATOM     57  C   UNL A   1      47.300  28.180  27.824  1.00  0.00     0.074 A 
ATOM     58  C   UNL A   1      41.830  30.885  29.559  1.00  0.00     0.029 A 
ATOM     59  N   UNL A   1      43.388  29.480  28.818  1.00  0.00    -0.354 N 
ATOM     60  N   UNL A   1      46.127  28.653  28.168  1.00  0.00    -0.248 NA
ATOM     61  C   UNL A   1      48.394  29.157  27.923  1.00  0.00     0.031 C 
ATOM     62  C   UNL A   1      43.060  31.550  29.556  1.00  0.00     0.029 A 
ATOM     63  C   UNL A   1      44.035  30.668  29.118  1.00  0.00     0.049 A 
ATOM     64  H   UNL A   1      43.828  28.668  28.477  1.00  0.00     0.167 HD
ATOM     65  C   UNL A   1      46.345  29.971  28.552  1.00  0.00     0.074 A 
ATOM     66  C   UNL A   1      47.766  30.216  28.413  1.00  0.00     0.031 C 
ATOM     67  C   UNL A   1      45.451  30.893  28.981  1.00  0.00     0.037 A 
BRANCH  54  68
ATOM     68  C   UNL A   1      39.610  28.887  29.096  1.00  0.00     0.057 A 
ATOM     69  C   UNL A   1      39.034  28.759  30.367  1.00  0.00     0.134 A 
ATOM     70  C   UNL A   1      38.794  29.366  28.063  1.00  0.00     0.134 A 
ATOM     71  F   UNL A   1      39.755  28.294  31.398  1.00  0.00    -0.206 F 
ATOM     72  C   UNL A   1      37.692  29.073  30.596  1.00  0.00     0.040 A 
ATOM     73  C   UNL A   1      37.460  29.710  28.286  1.00  0.00     0.040 A 
ATOM     74  F   UNL A   1      39.283  29.519  26.823  1.00  0.00    -0.206 F 
ATOM     75  C   UNL A   1      36.903  29.558  29.555  1.00  0.00     0.006 A 
ENDBRANCH  54  68
BRANCH  55  76
ATOM     76  C   UNL A   1      49.071  26.460  27.015  1.00  0.00     0.057 A 
ATOM     77  C   UNL A   1      49.971  26.028  27.997  1.00  0.00     0.134 A 
ATOM     78  C   UNL A   1      49.553  26.573  25.706  1.00  0.00     0.134 A 
ATOM     79  F   UNL A   1      49.573  25.916  29.274  1.00  0.00    -0.206 F 
ATOM     80  C   UNL A   1      51.303  25.744  27.695  1.00  0.00     0.040 A 
ATOM     81  C   UNL A   1      50.876  26.266  25.384  1.00  0.00     0.040 A 
ATOM     82  F   UNL A   1      48.740  26.973  24.716  1.00  0.00    -0.206 F 
ATOM     83  C   UNL A   1      51.758  25.860  26.383  1.00  0.00     0.006 A 
ENDBRANCH  55  76
BRANCH  67  84
ATOM     84  C   UNL A   1      45.986  32.242  29.366  1.00  0.00     0.057 A 
ATOM     85  C   UNL A   1      46.434  32.521  30.663  1.00  0.00     0.134 A 
ATOM     86  C   UNL A   1      46.089  33.264  28.412  1.00  0.00     0.134 A 
ATOM     87  F   UNL A   1      46.349  31.590  31.626  1.00  0.00    -0.206 F 
ATOM     88  C   UNL A   1      46.943  33.775  31.005  1.00  0.00     0.040 A 
ATOM     89  C   UNL A   1      46.624  34.512  28.735  1.00  0.00     0.040 A 
ATOM     90  F   UNL A   1      45.687  33.061  27.149  1.00  0.00    -0.206 F 
ATOM     91  C   UNL A   1      47.047  34.771  30.036  1.00  0.00     0.006 A 
ENDBRANCH  67  84
ENDBRANCH  41  42
ENDBRANCH  33  36
ENDBRANCH  31  32
ENDBRANCH  30  31
ENDBRANCH  29  30
ENDBRANCH  28  29
ENDBRANCH   1  28
TORSDOF 19
ENDMDL
MODEL 3
REMARK VINA RESULT:     -10.7      4.668      9.714
REMARK SMILES CCSc1nc(CC(=O)N[C@@H](C(=O)NCCCCCCNC(=O)c2ccc(-c3c4nc(c(-c5c(F)cccc5F)c5ccc([nH]5)c(-c5c(F)cccc5F)c5nc(c(-c6c(F)cccc6F)c6ccc3[nH]6)C=C5)C=C4)cc2)C2=C(C)N=N[C@@H]2C)cs1
REMARK SMILES IDX 16 1 15 2 14 3 12 4 13 5 11 7 10 8 8 9 9 10 7 12 6 13 4 14
REMARK SMILES IDX 5 15 86 16 85 17 3 18 2 19 1 20 78 21 79 22 83 23 80 24
REMARK SMILES IDX 81 25 82 26 84 27 17 28 18 29 19 30 20 31 21 32 22 33 23 35
REMARK SMILES IDX 24 36 25 37 77 38 26 39 76 40 27 41 28 42 29 43 70 44 30 45
REMARK SMILES IDX 75 46 69 47 71 48 31 49 74 50 68 51 67 52 32 54 58 55 41 56
REMARK SMILES IDX 57 57 42 58 45 59 56 60 72 61 43 62 44 63 55 65 73 66 46 67
REMARK SMILES IDX 33 68 34 69 39 70 35 71 36 72 38 73 40 74 37 75 59 76 60 77
REMARK SMILES IDX 65 78 61 79 62 80 64 81 66 82 63 83 47 84 48 85 53 86 49 87
REMARK SMILES IDX 50 88 52 89 54 90 51 91
REMARK H PARENT 14 6 10 11 21 34 71 53 45 64
REMARK Flexibility Score: inf
ROOT
ATOM      1  C   UNL A   1      33.138  28.570  27.482  1.00  0.00     0.021 C 
ENDROOT
BRANCH   1   2
ATOM      2  C   UNL A   1      33.215  27.658  26.266  1.00  0.00     0.116 C 
BRANCH   2   3
ATOM      3  N   UNL A   1      33.736  28.286  25.074  1.00  0.00    -0.354 N 
ATOM      4  C   UNL A   1      33.239  28.264  23.800  1.00  0.00     0.247 C 
ATOM      5  O   UNL A   1      33.449  29.296  23.147  1.00  0.00    -0.272 OA
ATOM      6  H   UNL A   1      34.565  28.802  25.197  1.00  0.00     0.163 HD
BRANCH   4   7
ATOM      7  C   UNL A   1      32.402  27.062  23.191  1.00  0.00     0.202 C 
BRANCH   7   8
ATOM      8  N   UNL A   1      32.655  26.803  21.777  1.00  0.00    -0.340 N 
ATOM      9  C   UNL A   1      32.655  25.618  21.096  1.00  0.00     0.226 C 
ATOM     10  O   UNL A   1      33.087  25.625  19.940  1.00  0.00    -0.275 OA
ATOM     11  H   UNL A   1      32.856  27.599  21.235  1.00  0.00     0.164 HD
BRANCH   9  12
ATOM     12  C   UNL A   1      32.146  24.332  21.724  1.00  0.00     0.157 C 
BRANCH  12  13
ATOM     13  C   UNL A   1      33.035  23.749  22.775  1.00  0.00     0.062 A 
ATOM     14  C   UNL A   1      35.028  23.095  23.510  1.00  0.00     0.150 A 
ATOM     15  N   UNL A   1      34.351  23.443  22.440  1.00  0.00    -0.234 NA
ATOM     16  S   UNL A   1      34.124  23.030  24.964  1.00  0.00    -0.116 S 
ATOM     17  C   UNL A   1      32.726  23.539  24.107  1.00  0.00     0.092 A 
BRANCH  14  18
ATOM     18  S   UNL A   1      36.756  22.834  23.460  1.00  0.00    -0.096 SA
BRANCH  18  19
ATOM     19  C   UNL A   1      37.247  23.196  25.169  1.00  0.00     0.074 C 
ATOM     20  C   UNL A   1      38.154  22.114  25.727  1.00  0.00     0.016 C 
ENDBRANCH  18  19
ENDBRANCH  14  18
ENDBRANCH  12  13
ENDBRANCH   9  12
ENDBRANCH   7   8
BRANCH   7  21
ATOM     21  C   UNL A   1      30.912  27.256  23.332  1.00  0.00     0.011 C 
ATOM     22  C   UNL A   1      30.119  28.241  22.883  1.00  0.00     0.064 C 
ATOM     23  C   UNL A   1      29.962  26.272  23.949  1.00  0.00     0.156 C 
ATOM     24  C   UNL A   1      30.464  29.490  22.152  1.00  0.00     0.069 C 
ATOM     25  N   UNL A   1      28.791  28.018  23.144  1.00  0.00    -0.160 NA
ATOM     26  N   UNL A   1      28.637  26.918  23.731  1.00  0.00    -0.181 NA
ATOM     27  C   UNL A   1      30.131  26.061  25.447  1.00  0.00     0.040 C 
ENDBRANCH   7  21
ENDBRANCH   4   7
ENDBRANCH   2   3
ENDBRANCH   1   2
BRANCH   1  28
ATOM     28  C   UNL A   1      33.069  30.065  27.162  1.00  0.00     0.002 C 
BRANCH  28  29
ATOM     29  C   UNL A   1      31.692  30.593  26.742  1.00  0.00     0.002 C 
BRANCH  29  30
ATOM     30  C   UNL A   1      31.490  32.106  26.849  1.00  0.00     0.021 C 
BRANCH  30  31
ATOM     31  C   UNL A   1      32.773  32.917  26.973  1.00  0.00     0.116 C 
BRANCH  31  32
ATOM     32  N   UNL A   1      32.552  34.200  27.616  1.00  0.00    -0.352 N 
ATOM     33  C   UNL A   1      33.155  34.746  28.721  1.00  0.00     0.251 C 
ATOM     34  H   UNL A   1      31.865  34.766  27.195  1.00  0.00     0.163 HD
ATOM     35  O   UNL A   1      32.699  35.767  29.226  1.00  0.00    -0.269 OA
BRANCH  33  36
ATOM     36  C   UNL A   1      34.342  34.097  29.316  1.00  0.00     0.039 A 
ATOM     37  C   UNL A   1      34.156  33.155  30.331  1.00  0.00     0.014 A 
ATOM     38  C   UNL A   1      35.633  34.428  28.895  1.00  0.00     0.014 A 
ATOM     39  C   UNL A   1      35.260  32.506  30.885  1.00  0.00     0.010 A 
ATOM     40  C   UNL A   1      36.726  33.723  29.391  1.00  0.00     0.010 A 
ATOM     41  C   UNL A   1      36.551  32.762  30.396  1.00  0.00    -0.014 A 
BRANCH  41  42
ATOM     42  C   UNL A   1      37.732  32.039  30.932  1.00  0.00     0.031 A 
ATOM     43  C   UNL A   1      38.339  32.451  32.245  1.00  0.00     0.074 A 
ATOM     44  C   UNL A   1      38.295  31.053  30.207  1.00  0.00     0.049 A 
ATOM     45  N   UNL A   1      39.406  31.988  32.845  1.00  0.00    -0.248 NA
ATOM     46  C   UNL A   1      37.674  33.548  32.968  1.00  0.00     0.031 C 
ATOM     47  C   UNL A   1      37.828  30.594  28.897  1.00  0.00     0.029 A 
ATOM     48  N   UNL A   1      39.388  30.265  30.465  1.00  0.00    -0.354 N 
ATOM     49  C   UNL A   1      39.548  32.744  34.002  1.00  0.00     0.074 A 
ATOM     50  C   UNL A   1      38.491  33.732  33.994  1.00  0.00     0.031 C 
ATOM     51  C   UNL A   1      38.616  29.590  28.477  1.00  0.00     0.029 A 
ATOM     52  C   UNL A   1      39.665  29.364  29.466  1.00  0.00     0.049 A 
ATOM     53  H   UNL A   1      39.923  30.339  31.288  1.00  0.00     0.167 HD
ATOM     54  C   UNL A   1      40.462  32.613  34.992  1.00  0.00     0.037 A 
ATOM     55  C   UNL A   1      40.658  28.461  29.356  1.00  0.00     0.037 A 
ATOM     56  C   UNL A   1      41.496  31.612  35.009  1.00  0.00     0.049 A 
ATOM     57  C   UNL A   1      41.662  28.338  30.468  1.00  0.00     0.074 A 
ATOM     58  C   UNL A   1      42.431  31.354  35.996  1.00  0.00     0.029 A 
ATOM     59  N   UNL A   1      41.732  30.704  33.987  1.00  0.00    -0.354 N 
ATOM     60  N   UNL A   1      41.741  29.011  31.590  1.00  0.00    -0.248 NA
ATOM     61  C   UNL A   1      42.713  27.324  30.302  1.00  0.00     0.031 C 
ATOM     62  C   UNL A   1      43.264  30.323  35.551  1.00  0.00     0.029 A 
ATOM     63  C   UNL A   1      42.814  29.901  34.310  1.00  0.00     0.049 A 
ATOM     64  H   UNL A   1      41.208  30.639  33.155  1.00  0.00     0.167 HD
ATOM     65  C   UNL A   1      42.828  28.484  32.276  1.00  0.00     0.074 A 
ATOM     66  C   UNL A   1      43.368  27.424  31.450  1.00  0.00     0.031 C 
ATOM     67  C   UNL A   1      43.333  28.845  33.480  1.00  0.00     0.037 A 
BRANCH  54  68
ATOM     68  C   UNL A   1      40.384  33.574  36.143  1.00  0.00     0.057 A 
ATOM     69  C   UNL A   1      39.556  33.338  37.249  1.00  0.00     0.134 A 
ATOM     70  C   UNL A   1      41.179  34.727  36.166  1.00  0.00     0.134 A 
ATOM     71  F   UNL A   1      38.761  32.259  37.286  1.00  0.00    -0.206 F 
ATOM     72  C   UNL A   1      39.502  34.228  38.324  1.00  0.00     0.040 A 
ATOM     73  C   UNL A   1      41.154  35.609  37.248  1.00  0.00     0.040 A 
ATOM     74  F   UNL A   1      41.999  35.011  35.144  1.00  0.00    -0.206 F 
ATOM     75  C   UNL A   1      40.309  35.363  38.329  1.00  0.00     0.006 A 
ENDBRANCH  54  68
BRANCH  55  76
ATOM     76  C   UNL A   1      40.744  27.590  28.156  1.00  0.00     0.057 A 
ATOM     77  C   UNL A   1      41.471  27.984  27.026  1.00  0.00     0.134 A 
ATOM     78  C   UNL A   1      40.093  26.352  28.103  1.00  0.00     0.134 A 
ATOM     79  F   UNL A   1      42.103  29.167  27.010  1.00  0.00    -0.206 F 
ATOM     80  C   UNL A   1      41.528  27.191  25.879  1.00  0.00     0.040 A 
ATOM     81  C   UNL A   1      40.164  25.535  26.973  1.00  0.00     0.040 A 
ATOM     82  F   UNL A   1      39.388  25.910  29.156  1.00  0.00    -0.206 F 
ATOM     83  C   UNL A   1      40.875  25.960  25.852  1.00  0.00     0.006 A 
ENDBRANCH  55  76
BRANCH  67  84
ATOM     84  C   UNL A   1      44.508  28.064  33.995  1.00  0.00     0.057 A 
ATOM     85  C   UNL A   1      44.349  26.913  34.777  1.00  0.00     0.134 A 
ATOM     86  C   UNL A   1      45.815  28.449  33.669  1.00  0.00     0.134 A 
ATOM     87  F   UNL A   1      43.124  26.499  35.135  1.00  0.00    -0.206 F 
ATOM     88  C   UNL A   1      45.449  26.187  35.237  1.00  0.00     0.040 A 
ATOM     89  C   UNL A   1      46.921  27.714  34.098  1.00  0.00     0.040 A 
ATOM     90  F   UNL A   1      46.038  29.536  32.914  1.00  0.00    -0.206 F 
ATOM     91  C   UNL A   1      46.739  26.583  34.890  1.00  0.00     0.006 A 
ENDBRANCH  67  84
ENDBRANCH  41  42
ENDBRANCH  33  36
ENDBRANCH  31  32
ENDBRANCH  30  31
ENDBRANCH  29  30
ENDBRANCH  28  29
ENDBRANCH   1  28
TORSDOF 19
ENDMDL
