MODEL 1
REMARK VINA RESULT:     -12.7      0.000      0.000
REMARK SMILES O=C(CCN1C(=O)/C(=C/c2c3ccccc3cc3ccccc23)SC1=S)NCCCCCCNC(=O)c1ccc(-c2c3nc(c(-c4c(F)cccc4F)c4ccc([nH]4)c(-c4c(F)cccc4F)c4nc(c(-c5c(F)cccc5F)c5ccc2[nH]5)C=C4)C=C3)cc1
REMARK SMILES IDX 30 1 29 2 28 3 27 4 1 5 2 6 3 8 4 9 5 10 6 11 25 12 7 13
REMARK SMILES IDX 8 14 24 15 26 16 9 17 10 18 11 19 23 20 12 21 16 22 18 23
REMARK SMILES IDX 22 24 13 25 15 26 17 27 19 28 21 29 14 30 20 31 31 32 32 33
REMARK SMILES IDX 33 34 34 35 35 36 36 38 37 39 38 40 90 41 39 42 89 43 40 44
REMARK SMILES IDX 41 45 42 46 83 47 43 48 88 49 82 50 84 51 44 52 87 53 81 54
REMARK SMILES IDX 80 55 45 57 71 58 54 59 70 60 55 61 58 62 69 63 85 64 56 65
REMARK SMILES IDX 57 66 68 68 86 69 59 70 46 71 47 72 52 73 48 74 49 75 51 76
REMARK SMILES IDX 53 77 50 78 72 79 73 80 78 81 74 82 75 83 77 84 79 85 76 86
REMARK SMILES IDX 60 87 61 88 66 89 62 90 63 91 65 92 67 93 64 94
REMARK H PARENT 27 7 34 37 84 56 58 67
REMARK Flexibility Score: inf
ROOT
ATOM      1  C   UNL A   1      34.618  32.678  28.884  1.00  0.00     0.002 C 
ENDROOT
BRANCH   1   2
ATOM      2  C   UNL A   1      35.142  31.286  28.518  1.00  0.00     0.021 C 
BRANCH   2   3
ATOM      3  C   UNL A   1      34.475  30.629  27.309  1.00  0.00     0.116 C 
BRANCH   3   4
ATOM      4  N   UNL A   1      33.669  29.477  27.659  1.00  0.00    -0.356 N 
ATOM      5  O   UNL A   1      31.764  30.216  26.619  1.00  0.00    -0.275 OA
ATOM      6  C   UNL A   1      32.358  29.361  27.267  1.00  0.00     0.221 C 
ATOM      7  H   UNL A   1      34.073  28.756  28.194  1.00  0.00     0.163 HD
BRANCH   6   8
ATOM      8  C   UNL A   1      31.696  28.060  27.666  1.00  0.00     0.122 C 
BRANCH   8   9
ATOM      9  C   UNL A   1      31.136  27.321  26.450  1.00  0.00     0.137 C 
BRANCH   9  10
ATOM     10  N   UNL A   1      31.942  26.274  25.790  1.00  0.00    -0.292 N 
ATOM     11  C   UNL A   1      32.004  24.975  26.256  1.00  0.00     0.266 C 
ATOM     12  C   UNL A   1      32.611  26.502  24.594  1.00  0.00     0.148 C 
ATOM     13  O   UNL A   1      31.397  24.503  27.209  1.00  0.00    -0.268 OA
ATOM     14  C   UNL A   1      32.984  24.182  25.465  1.00  0.00     0.081 C 
ATOM     15  S   UNL A   1      33.435  25.036  24.061  1.00  0.00    -0.054 SA
ATOM     16  S   UNL A   1      32.682  27.914  23.706  1.00  0.00    -0.052 S 
ATOM     17  C   UNL A   1      33.443  23.026  25.960  1.00  0.00     0.030 C 
BRANCH  17  18
ATOM     18  C   UNL A   1      34.524  22.112  25.505  1.00  0.00    -0.009 A 
ATOM     19  C   UNL A   1      35.912  22.448  25.683  1.00  0.00    -0.010 A 
ATOM     20  C   UNL A   1      34.137  20.791  25.103  1.00  0.00    -0.010 A 
ATOM     21  C   UNL A   1      36.403  23.674  26.208  1.00  0.00     0.009 A 
ATOM     22  C   UNL A   1      36.886  21.470  25.377  1.00  0.00    -0.017 A 
ATOM     23  C   UNL A   1      35.147  19.840  24.834  1.00  0.00    -0.017 A 
ATOM     24  C   UNL A   1      32.794  20.343  24.992  1.00  0.00     0.009 A 
ATOM     25  C   UNL A   1      37.767  23.932  26.378  1.00  0.00     0.001 A 
ATOM     26  C   UNL A   1      38.256  21.740  25.545  1.00  0.00     0.009 A 
ATOM     27  C   UNL A   1      36.492  20.199  24.948  1.00  0.00     0.017 A 
ATOM     28  C   UNL A   1      34.812  18.520  24.489  1.00  0.00     0.009 A 
ATOM     29  C   UNL A   1      32.472  19.023  24.662  1.00  0.00     0.001 A 
ATOM     30  C   UNL A   1      38.696  22.963  26.039  1.00  0.00     0.001 A 
ATOM     31  C   UNL A   1      33.484  18.110  24.412  1.00  0.00     0.001 A 
ENDBRANCH  17  18
ENDBRANCH   9  10
ENDBRANCH   8   9
ENDBRANCH   6   8
ENDBRANCH   3   4
ENDBRANCH   2   3
ENDBRANCH   1   2
BRANCH   1  32
ATOM     32  C   UNL A   1      33.421  33.165  28.069  1.00  0.00     0.002 C 
BRANCH  32  33
ATOM     33  C   UNL A   1      32.945  34.585  28.350  1.00  0.00     0.021 C 
BRANCH  33  34
ATOM     34  C   UNL A   1      33.625  35.242  29.547  1.00  0.00     0.116 C 
BRANCH  34  35
ATOM     35  N   UNL A   1      32.695  35.801  30.523  1.00  0.00    -0.352 N 
ATOM     36  C   UNL A   1      32.757  35.755  31.900  1.00  0.00     0.251 C 
ATOM     37  H   UNL A   1      31.918  36.275  30.148  1.00  0.00     0.163 HD
ATOM     38  O   UNL A   1      31.860  36.213  32.591  1.00  0.00    -0.269 OA
BRANCH  36  39
ATOM     39  C   UNL A   1      33.909  35.084  32.544  1.00  0.00     0.039 A 
ATOM     40  C   UNL A   1      33.730  33.794  33.050  1.00  0.00     0.014 A 
ATOM     41  C   UNL A   1      35.165  35.693  32.587  1.00  0.00     0.014 A 
ATOM     42  C   UNL A   1      34.836  33.073  33.503  1.00  0.00     0.010 A 
ATOM     43  C   UNL A   1      36.276  34.946  32.963  1.00  0.00     0.010 A 
ATOM     44  C   UNL A   1      36.124  33.623  33.409  1.00  0.00    -0.014 A 
BRANCH  44  45
ATOM     45  C   UNL A   1      37.331  32.825  33.733  1.00  0.00     0.031 A 
ATOM     46  C   UNL A   1      38.111  33.109  34.985  1.00  0.00     0.074 A 
ATOM     47  C   UNL A   1      37.784  31.915  32.849  1.00  0.00     0.049 A 
ATOM     48  N   UNL A   1      39.252  32.605  35.381  1.00  0.00    -0.248 NA
ATOM     49  C   UNL A   1      37.549  34.120  35.895  1.00  0.00     0.031 C 
ATOM     50  C   UNL A   1      37.155  31.594  31.565  1.00  0.00     0.029 A 
ATOM     51  N   UNL A   1      38.894  31.108  32.884  1.00  0.00    -0.354 N 
ATOM     52  C   UNL A   1      39.555  33.252  36.570  1.00  0.00     0.074 A 
ATOM     53  C   UNL A   1      38.504  34.219  36.808  1.00  0.00     0.031 C 
ATOM     54  C   UNL A   1      37.881  30.652  30.943  1.00  0.00     0.029 A 
ATOM     55  C   UNL A   1      39.043  30.328  31.764  1.00  0.00     0.049 A 
ATOM     56  H   UNL A   1      39.523  31.090  33.641  1.00  0.00     0.167 HD
ATOM     57  C   UNL A   1      40.605  33.047  37.401  1.00  0.00     0.037 A 
ATOM     58  C   UNL A   1      40.014  29.458  31.429  1.00  0.00     0.037 A 
ATOM     59  C   UNL A   1      41.632  32.063  37.181  1.00  0.00     0.049 A 
ATOM     60  C   UNL A   1      41.156  29.227  32.378  1.00  0.00     0.074 A 
ATOM     61  C   UNL A   1      42.692  31.724  38.003  1.00  0.00     0.029 A 
ATOM     62  N   UNL A   1      41.724  31.260  36.054  1.00  0.00    -0.354 N 
ATOM     63  N   UNL A   1      41.393  29.795  33.534  1.00  0.00    -0.248 NA
ATOM     64  C   UNL A   1      42.161  28.232  31.976  1.00  0.00     0.031 C 
ATOM     65  C   UNL A   1      43.445  30.736  37.358  1.00  0.00     0.029 A 
ATOM     66  C   UNL A   1      42.834  30.437  36.151  1.00  0.00     0.049 A 
ATOM     67  H   UNL A   1      41.094  31.272  35.298  1.00  0.00     0.167 HD
ATOM     68  C   UNL A   1      42.564  29.220  34.007  1.00  0.00     0.074 A 
ATOM     69  C   UNL A   1      42.981  28.245  33.019  1.00  0.00     0.031 C 
ATOM     70  C   UNL A   1      43.235  29.476  35.156  1.00  0.00     0.037 A 
BRANCH  57  71
ATOM     71  C   UNL A   1      40.684  33.905  38.629  1.00  0.00     0.057 A 
ATOM     72  C   UNL A   1      40.019  33.560  39.813  1.00  0.00     0.134 A 
ATOM     73  C   UNL A   1      41.441  35.082  38.632  1.00  0.00     0.134 A 
ATOM     74  F   UNL A   1      39.266  32.452  39.871  1.00  0.00    -0.206 F 
ATOM     75  C   UNL A   1      40.077  34.372  40.946  1.00  0.00     0.040 A 
ATOM     76  C   UNL A   1      41.528  35.890  39.766  1.00  0.00     0.040 A 
ATOM     77  F   UNL A   1      42.107  35.468  37.533  1.00  0.00    -0.206 F 
ATOM     78  C   UNL A   1      40.838  35.540  40.926  1.00  0.00     0.006 A 
ENDBRANCH  57  71
BRANCH  58  79
ATOM     79  C   UNL A   1      39.937  28.729  30.139  1.00  0.00     0.057 A 
ATOM     80  C   UNL A   1      39.239  27.520  30.036  1.00  0.00     0.134 A 
ATOM     81  C   UNL A   1      40.542  29.229  28.981  1.00  0.00     0.134 A 
ATOM     82  F   UNL A   1      38.653  26.985  31.116  1.00  0.00    -0.206 F 
ATOM     83  C   UNL A   1      39.155  26.828  28.827  1.00  0.00     0.040 A 
ATOM     84  C   UNL A   1      40.450  28.556  27.761  1.00  0.00     0.040 A 
ATOM     85  F   UNL A   1      41.218  30.386  29.016  1.00  0.00    -0.206 F 
ATOM     86  C   UNL A   1      39.757  27.349  27.684  1.00  0.00     0.006 A 
ENDBRANCH  58  79
BRANCH  70  87
ATOM     87  C   UNL A   1      44.481  28.683  35.411  1.00  0.00     0.057 A 
ATOM     88  C   UNL A   1      44.443  27.448  36.070  1.00  0.00     0.134 A 
ATOM     89  C   UNL A   1      45.725  29.138  34.956  1.00  0.00     0.134 A 
ATOM     90  F   UNL A   1      43.283  26.965  36.542  1.00  0.00    -0.206 F 
ATOM     91  C   UNL A   1      45.601  26.699  36.280  1.00  0.00     0.040 A 
ATOM     92  C   UNL A   1      46.886  28.389  35.141  1.00  0.00     0.040 A 
ATOM     93  F   UNL A   1      45.826  30.311  34.312  1.00  0.00    -0.206 F 
ATOM     94  C   UNL A   1      46.827  27.167  35.808  1.00  0.00     0.006 A 
ENDBRANCH  70  87
ENDBRANCH  44  45
ENDBRANCH  36  39
ENDBRANCH  34  35
ENDBRANCH  33  34
ENDBRANCH  32  33
ENDBRANCH   1  32
TORSDOF 16
ENDMDL
MODEL 2
REMARK VINA RESULT:     -12.4      0.347      5.915
REMARK SMILES O=C(CCN1C(=O)/C(=C/c2c3ccccc3cc3ccccc23)SC1=S)NCCCCCCNC(=O)c1ccc(-c2c3nc(c(-c4c(F)cccc4F)c4ccc([nH]4)c(-c4c(F)cccc4F)c4nc(c(-c5c(F)cccc5F)c5ccc2[nH]5)C=C4)C=C3)cc1
REMARK SMILES IDX 30 1 29 2 28 3 27 4 1 5 2 6 3 8 4 9 5 10 6 11 25 12 7 13
REMARK SMILES IDX 8 14 24 15 26 16 9 17 10 18 11 19 23 20 12 21 16 22 18 23
REMARK SMILES IDX 22 24 13 25 15 26 17 27 19 28 21 29 14 30 20 31 31 32 32 33
REMARK SMILES IDX 33 34 34 35 35 36 36 38 37 39 38 40 90 41 39 42 89 43 40 44
REMARK SMILES IDX 41 45 42 46 83 47 43 48 88 49 82 50 84 51 44 52 87 53 81 54
REMARK SMILES IDX 80 55 45 57 71 58 54 59 70 60 55 61 58 62 69 63 85 64 56 65
REMARK SMILES IDX 57 66 68 68 86 69 59 70 46 71 47 72 52 73 48 74 49 75 51 76
REMARK SMILES IDX 53 77 50 78 72 79 73 80 78 81 74 82 75 83 77 84 79 85 76 86
REMARK SMILES IDX 60 87 61 88 66 89 62 90 63 91 65 92 67 93 64 94
REMARK H PARENT 27 7 34 37 84 56 58 67
REMARK Flexibility Score: inf
ROOT
ATOM      1  C   UNL A   1      34.822  32.377  29.083  1.00  0.00     0.002 C 
ENDROOT
BRANCH   1   2
ATOM      2  C   UNL A   1      35.388  31.005  28.705  1.00  0.00     0.021 C 
BRANCH   2   3
ATOM      3  C   UNL A   1      34.818  30.388  27.427  1.00  0.00     0.116 C 
BRANCH   3   4
ATOM      4  N   UNL A   1      33.875  29.318  27.683  1.00  0.00    -0.356 N 
ATOM      5  O   UNL A   1      32.099  30.336  26.649  1.00  0.00    -0.275 OA
ATOM      6  C   UNL A   1      32.572  29.380  27.254  1.00  0.00     0.221 C 
ATOM      7  H   UNL A   1      34.177  28.524  28.180  1.00  0.00     0.163 HD
BRANCH   6   8
ATOM      8  C   UNL A   1      31.754  28.143  27.552  1.00  0.00     0.122 C 
BRANCH   8   9
ATOM      9  C   UNL A   1      31.270  27.469  26.268  1.00  0.00     0.137 C 
BRANCH   9  10
ATOM     10  N   UNL A   1      32.087  26.410  25.640  1.00  0.00    -0.292 N 
ATOM     11  C   UNL A   1      32.078  25.101  26.080  1.00  0.00     0.266 C 
ATOM     12  C   UNL A   1      32.842  26.642  24.498  1.00  0.00     0.148 C 
ATOM     13  O   UNL A   1      31.394  24.628  26.978  1.00  0.00    -0.268 OA
ATOM     14  C   UNL A   1      33.085  24.293  25.338  1.00  0.00     0.081 C 
ATOM     15  S   UNL A   1      33.656  25.162  23.988  1.00  0.00    -0.054 SA
ATOM     16  S   UNL A   1      33.016  28.069  23.648  1.00  0.00    -0.052 S 
ATOM     17  C   UNL A   1      33.475  23.114  25.837  1.00  0.00     0.030 C 
BRANCH  17  18
ATOM     18  C   UNL A   1      34.556  22.175  25.435  1.00  0.00    -0.009 A 
ATOM     19  C   UNL A   1      35.942  22.496  25.650  1.00  0.00    -0.010 A 
ATOM     20  C   UNL A   1      34.163  20.851  25.049  1.00  0.00    -0.010 A 
ATOM     21  C   UNL A   1      36.435  23.726  26.164  1.00  0.00     0.009 A 
ATOM     22  C   UNL A   1      36.911  21.499  25.394  1.00  0.00    -0.017 A 
ATOM     23  C   UNL A   1      35.167  19.882  24.831  1.00  0.00    -0.017 A 
ATOM     24  C   UNL A   1      32.817  20.420  24.905  1.00  0.00     0.009 A 
ATOM     25  C   UNL A   1      37.796  23.969  26.371  1.00  0.00     0.001 A 
ATOM     26  C   UNL A   1      38.279  21.753  25.599  1.00  0.00     0.009 A 
ATOM     27  C   UNL A   1      36.513  20.225  24.979  1.00  0.00     0.017 A 
ATOM     28  C   UNL A   1      34.824  18.559  24.503  1.00  0.00     0.009 A 
ATOM     29  C   UNL A   1      32.487  19.098  24.593  1.00  0.00     0.001 A 
ATOM     30  C   UNL A   1      38.721  22.981  26.081  1.00  0.00     0.001 A 
ATOM     31  C   UNL A   1      33.493  18.166  24.393  1.00  0.00     0.001 A 
ENDBRANCH  17  18
ENDBRANCH   9  10
ENDBRANCH   8   9
ENDBRANCH   6   8
ENDBRANCH   3   4
ENDBRANCH   2   3
ENDBRANCH   1   2
BRANCH   1  32
ATOM     32  C   UNL A   1      34.054  33.099  27.977  1.00  0.00     0.002 C 
BRANCH  32  33
ATOM     33  C   UNL A   1      33.134  34.230  28.422  1.00  0.00     0.021 C 
BRANCH  33  34
ATOM     34  C   UNL A   1      33.672  35.044  29.594  1.00  0.00     0.116 C 
BRANCH  34  35
ATOM     35  N   UNL A   1      32.658  35.402  30.581  1.00  0.00    -0.352 N 
ATOM     36  C   UNL A   1      32.720  35.309  31.956  1.00  0.00     0.251 C 
ATOM     37  H   UNL A   1      31.816  35.759  30.217  1.00  0.00     0.163 HD
ATOM     38  O   UNL A   1      31.756  35.585  32.654  1.00  0.00    -0.269 OA
BRANCH  36  39
ATOM     39  C   UNL A   1      33.962  34.808  32.585  1.00  0.00     0.039 A 
ATOM     40  C   UNL A   1      33.943  33.545  33.183  1.00  0.00     0.014 A 
ATOM     41  C   UNL A   1      35.146  35.544  32.527  1.00  0.00     0.014 A 
ATOM     42  C   UNL A   1      35.138  32.976  33.628  1.00  0.00     0.010 A 
ATOM     43  C   UNL A   1      36.346  34.945  32.896  1.00  0.00     0.010 A 
ATOM     44  C   UNL A   1      36.355  33.648  33.435  1.00  0.00    -0.014 A 
BRANCH  44  45
ATOM     45  C   UNL A   1      37.652  33.004  33.752  1.00  0.00     0.031 A 
ATOM     46  C   UNL A   1      38.223  31.963  32.833  1.00  0.00     0.074 A 
ATOM     47  C   UNL A   1      38.266  33.282  34.919  1.00  0.00     0.049 A 
ATOM     48  N   UNL A   1      39.278  31.205  32.995  1.00  0.00    -0.248 NA
ATOM     49  C   UNL A   1      37.490  31.716  31.581  1.00  0.00     0.031 C 
ATOM     50  C   UNL A   1      37.779  34.225  35.929  1.00  0.00     0.029 A 
ATOM     51  N   UNL A   1      39.421  32.781  35.464  1.00  0.00    -0.354 N 
ATOM     52  C   UNL A   1      39.321  30.379  31.880  1.00  0.00     0.074 A 
ATOM     53  C   UNL A   1      38.161  30.694  31.073  1.00  0.00     0.031 C 
ATOM     54  C   UNL A   1      38.634  34.242  36.964  1.00  0.00     0.029 A 
ATOM     55  C   UNL A   1      39.709  33.289  36.707  1.00  0.00     0.049 A 
ATOM     56  H   UNL A   1      39.990  32.121  35.007  1.00  0.00     0.167 HD
ATOM     57  C   UNL A   1      40.253  29.453  31.549  1.00  0.00     0.037 A 
ATOM     58  C   UNL A   1      40.718  33.009  37.553  1.00  0.00     0.037 A 
ATOM     59  C   UNL A   1      41.423  29.165  32.336  1.00  0.00     0.049 A 
ATOM     60  C   UNL A   1      41.754  31.998  37.153  1.00  0.00     0.074 A 
ATOM     61  C   UNL A   1      42.466  28.303  32.046  1.00  0.00     0.029 A 
ATOM     62  N   UNL A   1      41.702  29.733  33.570  1.00  0.00    -0.354 N 
ATOM     63  N   UNL A   1      41.823  31.274  36.062  1.00  0.00    -0.248 NA
ATOM     64  C   UNL A   1      42.857  31.768  38.098  1.00  0.00     0.031 C 
ATOM     65  C   UNL A   1      43.362  28.326  33.121  1.00  0.00     0.029 A 
ATOM     66  C   UNL A   1      42.894  29.227  34.063  1.00  0.00     0.049 A 
ATOM     67  H   UNL A   1      41.138  30.398  34.027  1.00  0.00     0.167 HD
ATOM     68  C   UNL A   1      42.977  30.514  36.181  1.00  0.00     0.074 A 
ATOM     69  C   UNL A   1      43.589  30.877  37.444  1.00  0.00     0.031 C 
ATOM     70  C   UNL A   1      43.485  29.597  35.323  1.00  0.00     0.037 A 
BRANCH  57  71
ATOM     71  C   UNL A   1      40.041  28.695  30.273  1.00  0.00     0.057 A 
ATOM     72  C   UNL A   1      40.621  29.106  29.066  1.00  0.00     0.134 A 
ATOM     73  C   UNL A   1      39.256  27.535  30.252  1.00  0.00     0.134 A 
ATOM     74  F   UNL A   1      41.371  30.217  29.016  1.00  0.00    -0.206 F 
ATOM     75  C   UNL A   1      40.402  28.410  27.876  1.00  0.00     0.040 A 
ATOM     76  C   UNL A   1      39.051  26.816  29.074  1.00  0.00     0.040 A 
ATOM     77  F   UNL A   1      38.676  27.084  31.374  1.00  0.00    -0.206 F 
ATOM     78  C   UNL A   1      39.618  27.257  27.879  1.00  0.00     0.006 A 
ENDBRANCH  57  71
BRANCH  58  79
ATOM     79  C   UNL A   1      40.803  33.711  38.857  1.00  0.00     0.057 A 
ATOM     80  C   UNL A   1      41.642  34.817  39.026  1.00  0.00     0.134 A 
ATOM     81  C   UNL A   1      40.037  33.304  39.955  1.00  0.00     0.134 A 
ATOM     82  F   UNL A   1      42.411  35.242  38.013  1.00  0.00    -0.206 F 
ATOM     83  C   UNL A   1      41.727  35.489  40.247  1.00  0.00     0.040 A 
ATOM     84  C   UNL A   1      40.097  33.978  41.177  1.00  0.00     0.040 A 
ATOM     85  F   UNL A   1      39.208  32.255  39.852  1.00  0.00    -0.206 F 
ATOM     86  C   UNL A   1      40.948  35.073  41.325  1.00  0.00     0.006 A 
ENDBRANCH  58  79
BRANCH  70  87
ATOM     87  C   UNL A   1      44.770  28.933  35.715  1.00  0.00     0.057 A 
ATOM     88  C   UNL A   1      44.787  27.750  36.463  1.00  0.00     0.134 A 
ATOM     89  C   UNL A   1      46.001  29.458  35.302  1.00  0.00     0.134 A 
ATOM     90  F   UNL A   1      43.640  27.206  36.900  1.00  0.00    -0.206 F 
ATOM     91  C   UNL A   1      45.985  27.120  36.802  1.00  0.00     0.040 A 
ATOM     92  C   UNL A   1      47.204  28.825  35.616  1.00  0.00     0.040 A 
ATOM     93  F   UNL A   1      46.052  30.586  34.577  1.00  0.00    -0.206 F 
ATOM     94  C   UNL A   1      47.198  27.655  36.370  1.00  0.00     0.006 A 
ENDBRANCH  70  87
ENDBRANCH  44  45
ENDBRANCH  36  39
ENDBRANCH  34  35
ENDBRANCH  33  34
ENDBRANCH  32  33
ENDBRANCH   1  32
TORSDOF 16
ENDMDL
MODEL 3
REMARK VINA RESULT:     -12.4      0.501      2.353
REMARK SMILES O=C(CCN1C(=O)/C(=C/c2c3ccccc3cc3ccccc23)SC1=S)NCCCCCCNC(=O)c1ccc(-c2c3nc(c(-c4c(F)cccc4F)c4ccc([nH]4)c(-c4c(F)cccc4F)c4nc(c(-c5c(F)cccc5F)c5ccc2[nH]5)C=C4)C=C3)cc1
REMARK SMILES IDX 30 1 29 2 28 3 27 4 1 5 2 6 3 8 4 9 5 10 6 11 25 12 7 13
REMARK SMILES IDX 8 14 24 15 26 16 9 17 10 18 11 19 23 20 12 21 16 22 18 23
REMARK SMILES IDX 22 24 13 25 15 26 17 27 19 28 21 29 14 30 20 31 31 32 32 33
REMARK SMILES IDX 33 34 34 35 35 36 36 38 37 39 38 40 90 41 39 42 89 43 40 44
REMARK SMILES IDX 41 45 42 46 83 47 43 48 88 49 82 50 84 51 44 52 87 53 81 54
REMARK SMILES IDX 80 55 45 57 71 58 54 59 70 60 55 61 58 62 69 63 85 64 56 65
REMARK SMILES IDX 57 66 68 68 86 69 59 70 46 71 47 72 52 73 48 74 49 75 51 76
REMARK SMILES IDX 53 77 50 78 72 79 73 80 78 81 74 82 75 83 77 84 79 85 76 86
REMARK SMILES IDX 60 87 61 88 66 89 62 90 63 91 65 92 67 93 64 94
REMARK H PARENT 27 7 34 37 84 56 58 67
REMARK Flexibility Score: inf
ROOT
ATOM      1  C   UNL A   1      34.992  32.690  27.959  1.00  0.00     0.002 C 
ENDROOT
BRANCH   1   2
ATOM      2  C   UNL A   1      33.932  31.644  27.599  1.00  0.00     0.021 C 
BRANCH   2   3
ATOM      3  C   UNL A   1      34.394  30.188  27.671  1.00  0.00     0.116 C 
BRANCH   3   4
ATOM      4  N   UNL A   1      33.297  29.246  27.763  1.00  0.00    -0.356 N 
ATOM      5  O   UNL A   1      32.818  29.244  25.521  1.00  0.00    -0.275 OA
ATOM      6  C   UNL A   1      32.594  28.838  26.656  1.00  0.00     0.221 C 
ATOM      7  H   UNL A   1      33.047  28.890  28.646  1.00  0.00     0.163 HD
BRANCH   6   8
ATOM      8  C   UNL A   1      31.529  27.801  26.936  1.00  0.00     0.122 C 
BRANCH   8   9
ATOM      9  C   UNL A   1      31.113  27.067  25.660  1.00  0.00     0.137 C 
BRANCH   9  10
ATOM     10  N   UNL A   1      31.865  25.874  25.220  1.00  0.00    -0.292 N 
ATOM     11  C   UNL A   1      31.924  24.712  25.964  1.00  0.00     0.266 C 
ATOM     12  C   UNL A   1      32.479  25.808  23.975  1.00  0.00     0.148 C 
ATOM     13  O   UNL A   1      31.355  24.485  27.024  1.00  0.00    -0.268 OA
ATOM     14  C   UNL A   1      32.848  23.732  25.330  1.00  0.00     0.081 C 
ATOM     15  S   UNL A   1      33.246  24.235  23.752  1.00  0.00    -0.054 SA
ATOM     16  S   UNL A   1      32.535  26.981  22.789  1.00  0.00    -0.052 S 
ATOM     17  C   UNL A   1      33.308  22.703  26.053  1.00  0.00     0.030 C 
BRANCH  17  18
ATOM     18  C   UNL A   1      34.347  21.678  25.771  1.00  0.00    -0.009 A 
ATOM     19  C   UNL A   1      33.997  20.383  25.250  1.00  0.00    -0.010 A 
ATOM     20  C   UNL A   1      35.715  22.105  25.812  1.00  0.00    -0.010 A 
ATOM     21  C   UNL A   1      32.674  19.910  25.034  1.00  0.00     0.009 A 
ATOM     22  C   UNL A   1      35.039  19.513  24.854  1.00  0.00    -0.017 A 
ATOM     23  C   UNL A   1      36.719  21.210  25.379  1.00  0.00    -0.017 A 
ATOM     24  C   UNL A   1      36.145  23.396  26.221  1.00  0.00     0.009 A 
ATOM     25  C   UNL A   1      32.401  18.646  24.502  1.00  0.00     0.001 A 
ATOM     26  C   UNL A   1      34.755  18.242  24.326  1.00  0.00     0.009 A 
ATOM     27  C   UNL A   1      36.370  19.931  24.937  1.00  0.00     0.017 A 
ATOM     28  C   UNL A   1      38.067  21.606  25.352  1.00  0.00     0.009 A 
ATOM     29  C   UNL A   1      37.487  23.784  26.176  1.00  0.00     0.001 A 
ATOM     30  C   UNL A   1      33.445  17.807  24.153  1.00  0.00     0.001 A 
ATOM     31  C   UNL A   1      38.449  22.888  25.740  1.00  0.00     0.001 A 
ENDBRANCH  17  18
ENDBRANCH   9  10
ENDBRANCH   8   9
ENDBRANCH   6   8
ENDBRANCH   3   4
ENDBRANCH   2   3
ENDBRANCH   1   2
BRANCH   1  32
ATOM     32  C   UNL A   1      34.622  33.635  29.101  1.00  0.00     0.002 C 
BRANCH  32  33
ATOM     33  C   UNL A   1      33.581  34.701  28.785  1.00  0.00     0.021 C 
BRANCH  33  34
ATOM     34  C   UNL A   1      33.719  35.971  29.619  1.00  0.00     0.116 C 
BRANCH  34  35
ATOM     35  N   UNL A   1      32.623  36.184  30.559  1.00  0.00    -0.352 N 
ATOM     36  C   UNL A   1      32.545  35.832  31.890  1.00  0.00     0.251 C 
ATOM     37  H   UNL A   1      31.832  36.642  30.193  1.00  0.00     0.163 HD
ATOM     38  O   UNL A   1      31.525  36.017  32.536  1.00  0.00    -0.269 OA
BRANCH  36  39
ATOM     39  C   UNL A   1      33.703  35.165  32.524  1.00  0.00     0.039 A 
ATOM     40  C   UNL A   1      33.525  33.887  33.058  1.00  0.00     0.014 A 
ATOM     41  C   UNL A   1      34.965  35.764  32.530  1.00  0.00     0.014 A 
ATOM     42  C   UNL A   1      34.635  33.165  33.504  1.00  0.00     0.010 A 
ATOM     43  C   UNL A   1      36.077  35.016  32.900  1.00  0.00     0.010 A 
ATOM     44  C   UNL A   1      35.924  33.703  33.374  1.00  0.00    -0.014 A 
BRANCH  44  45
ATOM     45  C   UNL A   1      37.132  32.902  33.690  1.00  0.00     0.031 A 
ATOM     46  C   UNL A   1      37.914  33.177  34.942  1.00  0.00     0.074 A 
ATOM     47  C   UNL A   1      37.582  31.997  32.799  1.00  0.00     0.049 A 
ATOM     48  N   UNL A   1      39.056  32.670  35.332  1.00  0.00    -0.248 NA
ATOM     49  C   UNL A   1      37.356  34.183  35.860  1.00  0.00     0.031 C 
ATOM     50  C   UNL A   1      36.949  31.685  31.515  1.00  0.00     0.029 A 
ATOM     51  N   UNL A   1      38.691  31.189  32.827  1.00  0.00    -0.354 N 
ATOM     52  C   UNL A   1      39.363  33.310  36.525  1.00  0.00     0.074 A 
ATOM     53  C   UNL A   1      38.314  34.275  36.771  1.00  0.00     0.031 C 
ATOM     54  C   UNL A   1      37.673  30.746  30.885  1.00  0.00     0.029 A 
ATOM     55  C   UNL A   1      38.837  30.416  31.701  1.00  0.00     0.049 A 
ATOM     56  H   UNL A   1      39.321  31.166  33.582  1.00  0.00     0.167 HD
ATOM     57  C   UNL A   1      40.415  33.098  37.352  1.00  0.00     0.037 A 
ATOM     58  C   UNL A   1      39.806  29.547  31.358  1.00  0.00     0.037 A 
ATOM     59  C   UNL A   1      41.440  32.114  37.123  1.00  0.00     0.049 A 
ATOM     60  C   UNL A   1      40.949  29.310  32.302  1.00  0.00     0.074 A 
ATOM     61  C   UNL A   1      42.502  31.769  37.940  1.00  0.00     0.029 A 
ATOM     62  N   UNL A   1      41.529  31.318  35.990  1.00  0.00    -0.354 N 
ATOM     63  N   UNL A   1      41.190  29.870  33.462  1.00  0.00    -0.248 NA
ATOM     64  C   UNL A   1      41.953  28.317  31.892  1.00  0.00     0.031 C 
ATOM     65  C   UNL A   1      43.253  30.785  37.287  1.00  0.00     0.029 A 
ATOM     66  C   UNL A   1      42.639  30.494  36.080  1.00  0.00     0.049 A 
ATOM     67  H   UNL A   1      40.897  31.336  35.236  1.00  0.00     0.167 HD
ATOM     68  C   UNL A   1      42.362  29.290  33.929  1.00  0.00     0.074 A 
ATOM     69  C   UNL A   1      42.775  28.322  32.933  1.00  0.00     0.031 C 
ATOM     70  C   UNL A   1      43.036  29.539  35.077  1.00  0.00     0.037 A 
BRANCH  57  71
ATOM     71  C   UNL A   1      40.498  33.947  38.585  1.00  0.00     0.057 A 
ATOM     72  C   UNL A   1      41.238  35.136  38.613  1.00  0.00     0.134 A 
ATOM     73  C   UNL A   1      39.821  33.579  39.754  1.00  0.00     0.134 A 
ATOM     74  F   UNL A   1      41.921  35.537  37.530  1.00  0.00    -0.206 F 
ATOM     75  C   UNL A   1      41.330  35.912  39.769  1.00  0.00     0.040 A 
ATOM     76  C   UNL A   1      39.884  34.360  40.909  1.00  0.00     0.040 A 
ATOM     77  F   UNL A   1      39.089  32.455  39.793  1.00  0.00    -0.206 F 
ATOM     78  C   UNL A   1      40.647  35.526  40.922  1.00  0.00     0.006 A 
ENDBRANCH  57  71
BRANCH  58  79
ATOM     79  C   UNL A   1      39.725  28.827  30.064  1.00  0.00     0.057 A 
ATOM     80  C   UNL A   1      39.107  27.574  29.974  1.00  0.00     0.134 A 
ATOM     81  C   UNL A   1      40.246  29.378  28.888  1.00  0.00     0.134 A 
ATOM     82  F   UNL A   1      38.604  26.990  31.071  1.00  0.00    -0.206 F 
ATOM     83  C   UNL A   1      39.020  26.889  28.762  1.00  0.00     0.040 A 
ATOM     84  C   UNL A   1      40.149  28.712  27.665  1.00  0.00     0.040 A 
ATOM     85  F   UNL A   1      40.843  30.578  28.909  1.00  0.00    -0.206 F 
ATOM     86  C   UNL A   1      39.538  27.460  27.601  1.00  0.00     0.006 A 
ENDBRANCH  58  79
BRANCH  70  87
ATOM     87  C   UNL A   1      44.282  28.743  35.324  1.00  0.00     0.057 A 
ATOM     88  C   UNL A   1      45.540  29.201  34.915  1.00  0.00     0.134 A 
ATOM     89  C   UNL A   1      44.227  27.527  36.016  1.00  0.00     0.134 A 
ATOM     90  F   UNL A   1      45.655  30.353  34.234  1.00  0.00    -0.206 F 
ATOM     91  C   UNL A   1      46.700  28.470  35.172  1.00  0.00     0.040 A 
ATOM     92  C   UNL A   1      45.383  26.798  36.298  1.00  0.00     0.040 A 
ATOM     93  F   UNL A   1      43.053  27.037  36.440  1.00  0.00    -0.206 F 
ATOM     94  C   UNL A   1      46.623  27.267  35.873  1.00  0.00     0.006 A 
ENDBRANCH  70  87
ENDBRANCH  44  45
ENDBRANCH  36  39
ENDBRANCH  34  35
ENDBRANCH  33  34
ENDBRANCH  32  33
ENDBRANCH   1  32
TORSDOF 16
ENDMDL
