MODEL 1
REMARK VINA RESULT:     -12.1      0.000      0.000
REMARK SMILES NC(=O)CC[C@H](C(=O)NCCCCCCNC(=O)c1ccc(-c2c3nc(c(-c4c(F)cccc4F)c4ccc([nH]4)c(-c4c(F)cccc4F)c4nc(c(-c5c(F)cccc5F)c5ccc2[nH]5)C=C4)C=C3)cc1)N1C(=O)/C(=C/c2ccc(O)c(O)c2)SC1=S
REMARK SMILES IDX 12 1 11 2 10 3 9 4 7 5 8 6 6 8 5 9 4 10 2 11 1 12 3 15 73 16
REMARK SMILES IDX 74 17 87 18 75 19 76 20 86 21 88 22 77 23 78 24 79 25 85 26
REMARK SMILES IDX 80 27 83 28 81 29 84 30 82 32 13 34 14 35 15 36 16 37 17 38
REMARK SMILES IDX 18 40 19 41 20 42 72 43 21 44 71 45 22 46 23 47 24 48 65 49
REMARK SMILES IDX 25 50 70 51 64 52 66 53 26 54 69 55 63 56 62 57 27 59 53 60
REMARK SMILES IDX 36 61 52 62 37 63 40 64 51 65 67 66 38 67 39 68 50 70 68 71
REMARK SMILES IDX 41 72 28 73 29 74 34 75 30 76 31 77 33 78 35 79 32 80 54 81
REMARK SMILES IDX 55 82 60 83 56 84 57 85 59 86 61 87 58 88 42 89 43 90 48 91
REMARK SMILES IDX 44 92 45 93 47 94 49 95 46 96
REMARK H PARENT 9 7 1 13 1 14 84 31 82 33 16 39 66 58 40 69
REMARK Flexibility Score: inf
ROOT
ATOM      1  C   UNL A   1      32.846  29.842  25.564  1.00  0.00     0.002 C 
ENDROOT
BRANCH   1   2
ATOM      2  C   UNL A   1      32.918  28.969  24.312  1.00  0.00     0.021 C 
BRANCH   2   3
ATOM      3  C   UNL A   1      33.920  27.823  24.332  1.00  0.00     0.116 C 
BRANCH   3   4
ATOM      4  N   UNL A   1      33.945  27.019  23.136  1.00  0.00    -0.354 N 
ATOM      5  C   UNL A   1      33.330  25.837  22.863  1.00  0.00     0.243 C 
ATOM      6  O   UNL A   1      33.600  25.324  21.769  1.00  0.00    -0.273 OA
ATOM      7  H   UNL A   1      34.493  27.382  22.404  1.00  0.00     0.163 HD
BRANCH   5   8
ATOM      8  C   UNL A   1      32.467  25.032  23.885  1.00  0.00     0.181 C 
BRANCH   8   9
ATOM      9  C   UNL A   1      30.974  25.357  23.582  1.00  0.00     0.045 C 
BRANCH   9  10
ATOM     10  C   UNL A   1      29.979  25.991  24.555  1.00  0.00     0.102 C 
BRANCH  10  11
ATOM     11  C   UNL A   1      30.110  25.812  26.049  1.00  0.00     0.217 C 
ATOM     12  N   UNL A   1      29.564  24.709  26.618  1.00  0.00    -0.370 N 
ATOM     13  H   UNL A   1      29.635  24.570  27.590  1.00  0.00     0.159 HD
ATOM     14  H   UNL A   1      29.095  24.048  26.059  1.00  0.00     0.159 HD
ATOM     15  O   UNL A   1      30.728  26.606  26.753  1.00  0.00    -0.275 OA
ENDBRANCH  10  11
ENDBRANCH   9  10
ENDBRANCH   8   9
BRANCH   8  16
ATOM     16  N   UNL A   1      32.922  23.661  24.174  1.00  0.00    -0.280 N 
ATOM     17  C   UNL A   1      32.264  22.537  23.721  1.00  0.00     0.266 C 
ATOM     18  C   UNL A   1      34.106  23.414  24.857  1.00  0.00     0.149 C 
ATOM     19  O   UNL A   1      31.348  22.510  22.916  1.00  0.00    -0.268 OA
ATOM     20  C   UNL A   1      32.901  21.298  24.243  1.00  0.00     0.081 C 
ATOM     21  S   UNL A   1      34.404  21.685  24.956  1.00  0.00    -0.054 SA
ATOM     22  S   UNL A   1      35.187  24.505  25.514  1.00  0.00    -0.052 S 
ATOM     23  C   UNL A   1      32.312  20.109  24.055  1.00  0.00     0.029 C 
BRANCH  23  24
ATOM     24  C   UNL A   1      32.820  18.743  24.283  1.00  0.00    -0.020 A 
ATOM     25  C   UNL A   1      32.568  18.185  25.551  1.00  0.00     0.012 A 
ATOM     26  C   UNL A   1      33.502  17.971  23.334  1.00  0.00     0.058 A 
ATOM     27  C   UNL A   1      32.912  16.865  25.842  1.00  0.00     0.051 A 
ATOM     28  C   UNL A   1      33.818  16.643  23.620  1.00  0.00     0.157 A 
ATOM     29  C   UNL A   1      33.513  16.095  24.861  1.00  0.00     0.157 A 
BRANCH  28  30
ATOM     30  O   UNL A   1      34.415  15.830  22.695  1.00  0.00    -0.504 OA
ATOM     31  H   UNL A   1      34.658  16.173  21.858  1.00  0.00     0.293 HD
ENDBRANCH  28  30
BRANCH  29  32
ATOM     32  O   UNL A   1      33.790  14.787  25.124  1.00  0.00    -0.504 OA
ATOM     33  H   UNL A   1      34.672  14.476  25.074  1.00  0.00     0.293 HD
ENDBRANCH  29  32
ENDBRANCH  23  24
ENDBRANCH   8  16
ENDBRANCH   5   8
ENDBRANCH   3   4
ENDBRANCH   2   3
ENDBRANCH   1   2
BRANCH   1  34
ATOM     34  C   UNL A   1      31.461  30.326  25.993  1.00  0.00     0.002 C 
BRANCH  34  35
ATOM     35  C   UNL A   1      31.343  31.780  26.451  1.00  0.00     0.021 C 
BRANCH  35  36
ATOM     36  C   UNL A   1      32.599  32.414  27.040  1.00  0.00     0.116 C 
BRANCH  36  37
ATOM     37  N   UNL A   1      32.401  33.774  27.503  1.00  0.00    -0.352 N 
ATOM     38  C   UNL A   1      33.114  34.489  28.433  1.00  0.00     0.251 C 
ATOM     39  H   UNL A   1      31.646  34.254  27.091  1.00  0.00     0.163 HD
ATOM     40  O   UNL A   1      32.749  35.615  28.757  1.00  0.00    -0.269 OA
BRANCH  38  41
ATOM     41  C   UNL A   1      34.302  33.889  29.078  1.00  0.00     0.039 A 
ATOM     42  C   UNL A   1      34.104  32.952  30.095  1.00  0.00     0.014 A 
ATOM     43  C   UNL A   1      35.600  34.238  28.690  1.00  0.00     0.014 A 
ATOM     44  C   UNL A   1      35.203  32.319  30.679  1.00  0.00     0.010 A 
ATOM     45  C   UNL A   1      36.690  33.554  29.222  1.00  0.00     0.010 A 
ATOM     46  C   UNL A   1      36.503  32.591  30.224  1.00  0.00    -0.014 A 
BRANCH  46  47
ATOM     47  C   UNL A   1      37.675  31.874  30.787  1.00  0.00     0.031 A 
ATOM     48  C   UNL A   1      38.206  32.240  32.145  1.00  0.00     0.074 A 
ATOM     49  C   UNL A   1      38.295  30.932  30.051  1.00  0.00     0.049 A 
ATOM     50  N   UNL A   1      39.244  31.763  32.783  1.00  0.00    -0.248 NA
ATOM     51  C   UNL A   1      37.489  33.300  32.871  1.00  0.00     0.031 C 
ATOM     52  C   UNL A   1      37.905  30.520  28.701  1.00  0.00     0.029 A 
ATOM     53  N   UNL A   1      39.391  30.155  30.331  1.00  0.00    -0.354 N 
ATOM     54  C   UNL A   1      39.314  32.472  33.975  1.00  0.00     0.074 A 
ATOM     55  C   UNL A   1      38.244  33.448  33.948  1.00  0.00     0.031 C 
ATOM     56  C   UNL A   1      38.735  29.553  28.280  1.00  0.00     0.029 A 
ATOM     57  C   UNL A   1      39.736  29.302  29.311  1.00  0.00     0.049 A 
ATOM     58  H   UNL A   1      39.883  30.205  31.183  1.00  0.00     0.167 HD
ATOM     59  C   UNL A   1      40.175  32.311  35.007  1.00  0.00     0.037 A 
ATOM     60  C   UNL A   1      40.750  28.420  29.217  1.00  0.00     0.037 A 
ATOM     61  C   UNL A   1      41.226  31.327  35.038  1.00  0.00     0.049 A 
ATOM     62  C   UNL A   1      41.696  28.263  30.374  1.00  0.00     0.074 A 
ATOM     63  C   UNL A   1      42.112  31.043  36.062  1.00  0.00     0.029 A 
ATOM     64  N   UNL A   1      41.536  30.471  33.991  1.00  0.00    -0.354 N 
ATOM     65  N   UNL A   1      41.704  28.887  31.527  1.00  0.00    -0.248 NA
ATOM     66  C   UNL A   1      42.770  27.272  30.220  1.00  0.00     0.031 C 
ATOM     67  C   UNL A   1      42.987  30.046  35.617  1.00  0.00     0.029 A 
ATOM     68  C   UNL A   1      42.615  29.674  34.335  1.00  0.00     0.049 A 
ATOM     69  H   UNL A   1      41.059  30.435  33.130  1.00  0.00     0.167 HD
ATOM     70  C   UNL A   1      42.766  28.349  32.243  1.00  0.00     0.074 A 
ATOM     71  C   UNL A   1      43.367  27.337  31.401  1.00  0.00     0.031 C 
ATOM     72  C   UNL A   1      43.201  28.666  33.488  1.00  0.00     0.037 A 
BRANCH  59  73
ATOM     73  C   UNL A   1      40.014  33.223  36.190  1.00  0.00     0.057 A 
ATOM     74  C   UNL A   1      40.742  34.414  36.310  1.00  0.00     0.134 A 
ATOM     75  C   UNL A   1      39.106  32.917  37.211  1.00  0.00     0.134 A 
ATOM     76  F   UNL A   1      41.637  34.761  35.373  1.00  0.00    -0.206 F 
ATOM     77  C   UNL A   1      40.597  35.252  37.417  1.00  0.00     0.040 A 
ATOM     78  C   UNL A   1      38.930  33.762  38.310  1.00  0.00     0.040 A 
ATOM     79  F   UNL A   1      38.370  31.797  37.159  1.00  0.00    -0.206 F 
ATOM     80  C   UNL A   1      39.684  34.929  38.419  1.00  0.00     0.006 A 
ENDBRANCH  59  73
BRANCH  60  81
ATOM     81  C   UNL A   1      40.903  27.599  27.991  1.00  0.00     0.057 A 
ATOM     82  C   UNL A   1      41.673  28.050  26.913  1.00  0.00     0.134 A 
ATOM     83  C   UNL A   1      40.292  26.345  27.866  1.00  0.00     0.134 A 
ATOM     84  F   UNL A   1      42.270  29.250  26.966  1.00  0.00    -0.206 F 
ATOM     85  C   UNL A   1      41.819  27.293  25.750  1.00  0.00     0.040 A 
ATOM     86  C   UNL A   1      40.449  25.566  26.720  1.00  0.00     0.040 A 
ATOM     87  F   UNL A   1      39.547  25.851  28.867  1.00  0.00    -0.206 F 
ATOM     88  C   UNL A   1      41.210  26.042  25.654  1.00  0.00     0.006 A 
ENDBRANCH  60  81
BRANCH  72  89
ATOM     89  C   UNL A   1      44.365  27.887  34.027  1.00  0.00     0.057 A 
ATOM     90  C   UNL A   1      44.196  26.664  34.689  1.00  0.00     0.134 A 
ATOM     91  C   UNL A   1      45.675  28.348  33.844  1.00  0.00     0.134 A 
ATOM     92  F   UNL A   1      42.966  26.174  34.908  1.00  0.00    -0.206 F 
ATOM     93  C   UNL A   1      45.287  25.939  35.170  1.00  0.00     0.040 A 
ATOM     94  C   UNL A   1      46.776  27.618  34.296  1.00  0.00     0.040 A 
ATOM     95  F   UNL A   1      45.908  29.508  33.210  1.00  0.00    -0.206 F 
ATOM     96  C   UNL A   1      46.582  26.413  34.967  1.00  0.00     0.006 A 
ENDBRANCH  72  89
ENDBRANCH  46  47
ENDBRANCH  38  41
ENDBRANCH  36  37
ENDBRANCH  35  36
ENDBRANCH  34  35
ENDBRANCH   1  34
TORSDOF 20
ENDMDL
MODEL 2
REMARK VINA RESULT:     -12.1      4.165      9.511
REMARK SMILES NC(=O)CC[C@H](C(=O)NCCCCCCNC(=O)c1ccc(-c2c3nc(c(-c4c(F)cccc4F)c4ccc([nH]4)c(-c4c(F)cccc4F)c4nc(c(-c5c(F)cccc5F)c5ccc2[nH]5)C=C4)C=C3)cc1)N1C(=O)/C(=C/c2ccc(O)c(O)c2)SC1=S
REMARK SMILES IDX 12 1 11 2 10 3 9 4 7 5 8 6 6 8 5 9 4 10 2 11 1 12 3 15 73 16
REMARK SMILES IDX 74 17 87 18 75 19 76 20 86 21 88 22 77 23 78 24 79 25 85 26
REMARK SMILES IDX 80 27 83 28 81 29 84 30 82 32 13 34 14 35 15 36 16 37 17 38
REMARK SMILES IDX 18 40 19 41 20 42 72 43 21 44 71 45 22 46 23 47 24 48 65 49
REMARK SMILES IDX 25 50 70 51 64 52 66 53 26 54 69 55 63 56 62 57 27 59 53 60
REMARK SMILES IDX 36 61 52 62 37 63 40 64 51 65 67 66 38 67 39 68 50 70 68 71
REMARK SMILES IDX 41 72 28 73 29 74 34 75 30 76 31 77 33 78 35 79 32 80 54 81
REMARK SMILES IDX 55 82 60 83 56 84 57 85 59 86 61 87 58 88 42 89 43 90 48 91
REMARK SMILES IDX 44 92 45 93 47 94 49 95 46 96
REMARK H PARENT 9 7 1 13 1 14 84 31 82 33 16 39 66 58 40 69
REMARK Flexibility Score: inf
ROOT
ATOM      1  C   UNL A   1      34.750  20.985  25.243  1.00  0.00     0.002 C 
ENDROOT
BRANCH   1   2
ATOM      2  C   UNL A   1      34.230  21.716  26.479  1.00  0.00     0.021 C 
BRANCH   2   3
ATOM      3  C   UNL A   1      34.057  23.224  26.362  1.00  0.00     0.116 C 
BRANCH   3   4
ATOM      4  N   UNL A   1      32.768  23.720  26.773  1.00  0.00    -0.354 N 
ATOM      5  C   UNL A   1      31.787  24.316  26.044  1.00  0.00     0.243 C 
ATOM      6  O   UNL A   1      30.806  24.722  26.680  1.00  0.00    -0.273 OA
ATOM      7  H   UNL A   1      32.566  23.610  27.730  1.00  0.00     0.163 HD
BRANCH   5   8
ATOM      8  C   UNL A   1      31.900  24.663  24.525  1.00  0.00     0.181 C 
BRANCH   8   9
ATOM      9  C   UNL A   1      31.398  23.420  23.732  1.00  0.00     0.045 C 
BRANCH   9  10
ATOM     10  C   UNL A   1      32.204  22.629  22.701  1.00  0.00     0.102 C 
BRANCH  10  11
ATOM     11  C   UNL A   1      31.978  21.151  22.485  1.00  0.00     0.217 C 
ATOM     12  N   UNL A   1      31.660  20.721  21.239  1.00  0.00    -0.370 N 
ATOM     13  H   UNL A   1      31.507  19.763  21.073  1.00  0.00     0.159 HD
ATOM     14  H   UNL A   1      31.581  21.367  20.501  1.00  0.00     0.159 HD
ATOM     15  O   UNL A   1      32.115  20.329  23.386  1.00  0.00    -0.275 OA
ENDBRANCH  10  11
ENDBRANCH   9  10
ENDBRANCH   8   9
BRANCH   8  16
ATOM     16  N   UNL A   1      31.518  26.034  24.147  1.00  0.00    -0.280 N 
ATOM     17  C   UNL A   1      30.232  26.390  23.799  1.00  0.00     0.266 C 
ATOM     18  C   UNL A   1      32.424  27.086  24.201  1.00  0.00     0.149 C 
ATOM     19  O   UNL A   1      29.235  25.695  23.905  1.00  0.00    -0.268 OA
ATOM     20  C   UNL A   1      30.167  27.816  23.379  1.00  0.00     0.081 C 
ATOM     21  S   UNL A   1      31.633  28.596  23.777  1.00  0.00    -0.054 SA
ATOM     22  S   UNL A   1      34.042  27.057  24.617  1.00  0.00    -0.052 S 
ATOM     23  C   UNL A   1      29.040  28.308  22.844  1.00  0.00     0.029 C 
BRANCH  23  24
ATOM     24  C   UNL A   1      28.653  29.699  22.544  1.00  0.00    -0.020 A 
ATOM     25  C   UNL A   1      28.803  30.632  23.588  1.00  0.00     0.012 A 
ATOM     26  C   UNL A   1      28.177  30.150  21.305  1.00  0.00     0.058 A 
ATOM     27  C   UNL A   1      28.564  31.991  23.384  1.00  0.00     0.051 A 
ATOM     28  C   UNL A   1      27.968  31.513  21.099  1.00  0.00     0.157 A 
ATOM     29  C   UNL A   1      28.172  32.423  22.130  1.00  0.00     0.157 A 
BRANCH  28  30
ATOM     30  O   UNL A   1      27.578  32.005  19.883  1.00  0.00    -0.504 OA
ATOM     31  H   UNL A   1      26.667  32.046  19.665  1.00  0.00     0.293 HD
ENDBRANCH  28  30
BRANCH  29  32
ATOM     32  O   UNL A   1      28.002  33.759  21.915  1.00  0.00    -0.504 OA
ATOM     33  H   UNL A   1      28.606  34.226  21.372  1.00  0.00     0.293 HD
ENDBRANCH  29  32
ENDBRANCH  23  24
ENDBRANCH   8  16
ENDBRANCH   5   8
ENDBRANCH   3   4
ENDBRANCH   2   3
ENDBRANCH   1   2
BRANCH   1  34
ATOM     34  C   UNL A   1      36.166  21.328  24.778  1.00  0.00     0.002 C 
BRANCH  34  35
ATOM     35  C   UNL A   1      37.242  20.261  24.982  1.00  0.00     0.021 C 
BRANCH  35  36
ATOM     36  C   UNL A   1      38.597  20.747  25.484  1.00  0.00     0.116 C 
BRANCH  36  37
ATOM     37  N   UNL A   1      39.600  19.701  25.554  1.00  0.00    -0.352 N 
ATOM     38  C   UNL A   1      40.887  19.758  26.030  1.00  0.00     0.251 C 
ATOM     39  H   UNL A   1      39.318  18.823  25.209  1.00  0.00     0.163 HD
ATOM     40  O   UNL A   1      41.622  18.781  25.936  1.00  0.00    -0.269 OA
BRANCH  38  41
ATOM     41  C   UNL A   1      41.403  21.012  26.623  1.00  0.00     0.039 A 
ATOM     42  C   UNL A   1      41.970  21.964  25.773  1.00  0.00     0.014 A 
ATOM     43  C   UNL A   1      41.329  21.255  27.998  1.00  0.00     0.014 A 
ATOM     44  C   UNL A   1      42.407  23.185  26.291  1.00  0.00     0.010 A 
ATOM     45  C   UNL A   1      41.698  22.499  28.502  1.00  0.00     0.010 A 
ATOM     46  C   UNL A   1      42.244  23.475  27.655  1.00  0.00    -0.014 A 
BRANCH  46  47
ATOM     47  C   UNL A   1      42.639  24.795  28.207  1.00  0.00     0.031 A 
ATOM     48  C   UNL A   1      41.608  25.868  28.417  1.00  0.00     0.074 A 
ATOM     49  C   UNL A   1      43.937  25.046  28.467  1.00  0.00     0.049 A 
ATOM     50  N   UNL A   1      41.767  27.096  28.842  1.00  0.00    -0.248 NA
ATOM     51  C   UNL A   1      40.218  25.524  28.080  1.00  0.00     0.031 C 
ATOM     52  C   UNL A   1      45.038  24.102  28.261  1.00  0.00     0.029 A 
ATOM     53  N   UNL A   1      44.551  26.172  28.952  1.00  0.00    -0.354 N 
ATOM     54  C   UNL A   1      40.504  27.673  28.810  1.00  0.00     0.074 A 
ATOM     55  C   UNL A   1      39.599  26.678  28.274  1.00  0.00     0.031 C 
ATOM     56  C   UNL A   1      46.189  24.683  28.637  1.00  0.00     0.029 A 
ATOM     57  C   UNL A   1      45.914  26.048  29.075  1.00  0.00     0.049 A 
ATOM     58  H   UNL A   1      44.061  26.992  29.190  1.00  0.00     0.167 HD
ATOM     59  C   UNL A   1      40.128  28.910  29.211  1.00  0.00     0.037 A 
ATOM     60  C   UNL A   1      46.838  26.936  29.488  1.00  0.00     0.037 A 
ATOM     61  C   UNL A   1      41.028  29.891  29.760  1.00  0.00     0.049 A 
ATOM     62  C   UNL A   1      46.396  28.305  29.923  1.00  0.00     0.074 A 
ATOM     63  C   UNL A   1      40.735  31.151  30.253  1.00  0.00     0.029 A 
ATOM     64  N   UNL A   1      42.400  29.722  29.881  1.00  0.00    -0.354 N 
ATOM     65  N   UNL A   1      45.188  28.812  29.961  1.00  0.00    -0.248 NA
ATOM     66  C   UNL A   1      47.447  29.224  30.383  1.00  0.00     0.031 C 
ATOM     67  C   UNL A   1      41.936  31.761  30.630  1.00  0.00     0.029 A 
ATOM     68  C   UNL A   1      42.971  30.864  30.420  1.00  0.00     0.049 A 
ATOM     69  H   UNL A   1      42.895  28.911  29.623  1.00  0.00     0.167 HD
ATOM     70  C   UNL A   1      45.330  30.097  30.468  1.00  0.00     0.074 A 
ATOM     71  C   UNL A   1      46.739  30.285  30.740  1.00  0.00     0.031 C 
ATOM     72  C   UNL A   1      44.376  31.036  30.689  1.00  0.00     0.037 A 
BRANCH  59  73
ATOM     73  C   UNL A   1      38.677  29.271  29.068  1.00  0.00     0.057 A 
ATOM     74  C   UNL A   1      38.131  29.670  27.840  1.00  0.00     0.134 A 
ATOM     75  C   UNL A   1      37.811  29.201  30.166  1.00  0.00     0.134 A 
ATOM     76  F   UNL A   1      38.908  29.770  26.751  1.00  0.00    -0.206 F 
ATOM     77  C   UNL A   1      36.784  30.016  27.716  1.00  0.00     0.040 A 
ATOM     78  C   UNL A   1      36.455  29.517  30.048  1.00  0.00     0.040 A 
ATOM     79  F   UNL A   1      38.263  28.821  31.370  1.00  0.00    -0.206 F 
ATOM     80  C   UNL A   1      35.940  29.934  28.822  1.00  0.00     0.006 A 
ENDBRANCH  59  73
BRANCH  60  81
ATOM     81  C   UNL A   1      48.268  26.545  29.537  1.00  0.00     0.057 A 
ATOM     82  C   UNL A   1      48.798  25.889  30.655  1.00  0.00     0.134 A 
ATOM     83  C   UNL A   1      49.138  26.809  28.472  1.00  0.00     0.134 A 
ATOM     84  F   UNL A   1      48.019  25.624  31.713  1.00  0.00    -0.206 F 
ATOM     85  C   UNL A   1      50.143  25.523  30.719  1.00  0.00     0.040 A 
ATOM     86  C   UNL A   1      50.479  26.426  28.512  1.00  0.00     0.040 A 
ATOM     87  F   UNL A   1      48.691  27.426  27.368  1.00  0.00    -0.206 F 
ATOM     88  C   UNL A   1      50.987  25.786  29.641  1.00  0.00     0.006 A 
ENDBRANCH  60  81
BRANCH  72  89
ATOM     89  C   UNL A   1      44.822  32.340  31.283  1.00  0.00     0.057 A 
ATOM     90  C   UNL A   1      44.947  32.520  32.667  1.00  0.00     0.134 A 
ATOM     91  C   UNL A   1      45.169  33.416  30.457  1.00  0.00     0.134 A 
ATOM     92  F   UNL A   1      44.618  31.532  33.513  1.00  0.00    -0.206 F 
ATOM     93  C   UNL A   1      45.380  33.732  33.208  1.00  0.00     0.040 A 
ATOM     94  C   UNL A   1      45.629  34.624  30.985  1.00  0.00     0.040 A 
ATOM     95  F   UNL A   1      45.081  33.308  29.122  1.00  0.00    -0.206 F 
ATOM     96  C   UNL A   1      45.730  34.785  32.365  1.00  0.00     0.006 A 
ENDBRANCH  72  89
ENDBRANCH  46  47
ENDBRANCH  38  41
ENDBRANCH  36  37
ENDBRANCH  35  36
ENDBRANCH  34  35
ENDBRANCH   1  34
TORSDOF 20
ENDMDL
MODEL 3
REMARK VINA RESULT:     -11.9      2.587      5.734
REMARK SMILES NC(=O)CC[C@H](C(=O)NCCCCCCNC(=O)c1ccc(-c2c3nc(c(-c4c(F)cccc4F)c4ccc([nH]4)c(-c4c(F)cccc4F)c4nc(c(-c5c(F)cccc5F)c5ccc2[nH]5)C=C4)C=C3)cc1)N1C(=O)/C(=C/c2ccc(O)c(O)c2)SC1=S
REMARK SMILES IDX 12 1 11 2 10 3 9 4 7 5 8 6 6 8 5 9 4 10 2 11 1 12 3 15 73 16
REMARK SMILES IDX 74 17 87 18 75 19 76 20 86 21 88 22 77 23 78 24 79 25 85 26
REMARK SMILES IDX 80 27 83 28 81 29 84 30 82 32 13 34 14 35 15 36 16 37 17 38
REMARK SMILES IDX 18 40 19 41 20 42 72 43 21 44 71 45 22 46 23 47 24 48 65 49
REMARK SMILES IDX 25 50 70 51 64 52 66 53 26 54 69 55 63 56 62 57 27 59 53 60
REMARK SMILES IDX 36 61 52 62 37 63 40 64 51 65 67 66 38 67 39 68 50 70 68 71
REMARK SMILES IDX 41 72 28 73 29 74 34 75 30 76 31 77 33 78 35 79 32 80 54 81
REMARK SMILES IDX 55 82 60 83 56 84 57 85 59 86 61 87 58 88 42 89 43 90 48 91
REMARK SMILES IDX 44 92 45 93 47 94 49 95 46 96
REMARK H PARENT 9 7 1 13 1 14 84 31 82 33 16 39 66 58 40 69
REMARK Flexibility Score: inf
ROOT
ATOM      1  C   UNL A   1      31.775  29.634  26.889  1.00  0.00     0.002 C 
ENDROOT
BRANCH   1   2
ATOM      2  C   UNL A   1      32.656  28.515  26.337  1.00  0.00     0.021 C 
BRANCH   2   3
ATOM      3  C   UNL A   1      32.177  27.089  26.569  1.00  0.00     0.116 C 
BRANCH   3   4
ATOM      4  N   UNL A   1      33.077  26.064  26.101  1.00  0.00    -0.354 N 
ATOM      5  C   UNL A   1      33.000  25.268  25.002  1.00  0.00     0.243 C 
ATOM      6  O   UNL A   1      33.882  24.406  24.891  1.00  0.00    -0.273 OA
ATOM      7  H   UNL A   1      33.869  25.918  26.666  1.00  0.00     0.163 HD
BRANCH   5   8
ATOM      8  C   UNL A   1      31.807  25.263  23.994  1.00  0.00     0.181 C 
BRANCH   8   9
ATOM      9  C   UNL A   1      30.728  24.295  24.564  1.00  0.00     0.045 C 
BRANCH   9  10
ATOM     10  C   UNL A   1      30.998  23.041  25.396  1.00  0.00     0.102 C 
BRANCH  10  11
ATOM     11  C   UNL A   1      30.645  22.973  26.863  1.00  0.00     0.217 C 
ATOM     12  N   UNL A   1      29.411  22.535  27.212  1.00  0.00    -0.370 N 
ATOM     13  H   UNL A   1      29.157  22.482  28.161  1.00  0.00     0.159 HD
ATOM     14  H   UNL A   1      28.768  22.270  26.515  1.00  0.00     0.159 HD
ATOM     15  O   UNL A   1      31.451  23.259  27.744  1.00  0.00    -0.275 OA
ENDBRANCH  10  11
ENDBRANCH   9  10
ENDBRANCH   8   9
BRANCH   8  16
ATOM     16  N   UNL A   1      31.451  26.568  23.410  1.00  0.00    -0.280 N 
ATOM     17  C   UNL A   1      30.216  27.158  23.577  1.00  0.00     0.266 C 
ATOM     18  C   UNL A   1      32.380  27.335  22.718  1.00  0.00     0.149 C 
ATOM     19  O   UNL A   1      29.332  26.785  24.331  1.00  0.00    -0.268 OA
ATOM     20  C   UNL A   1      30.118  28.423  22.801  1.00  0.00     0.081 C 
ATOM     21  S   UNL A   1      31.667  28.866  22.234  1.00  0.00    -0.054 SA
ATOM     22  S   UNL A   1      33.972  26.983  22.356  1.00  0.00    -0.052 S 
ATOM     23  C   UNL A   1      28.943  29.059  22.697  1.00  0.00     0.029 C 
BRANCH  23  24
ATOM     24  C   UNL A   1      28.624  30.400  22.174  1.00  0.00    -0.020 A 
ATOM     25  C   UNL A   1      28.094  30.456  20.871  1.00  0.00     0.012 A 
ATOM     26  C   UNL A   1      28.788  31.598  22.883  1.00  0.00     0.058 A 
ATOM     27  C   UNL A   1      27.662  31.660  20.316  1.00  0.00     0.051 A 
ATOM     28  C   UNL A   1      28.328  32.795  22.335  1.00  0.00     0.157 A 
ATOM     29  C   UNL A   1      27.760  32.819  21.066  1.00  0.00     0.157 A 
BRANCH  28  30
ATOM     30  O   UNL A   1      28.398  33.975  23.023  1.00  0.00    -0.504 OA
ATOM     31  H   UNL A   1      27.689  34.238  23.577  1.00  0.00     0.293 HD
ENDBRANCH  28  30
BRANCH  29  32
ATOM     32  O   UNL A   1      27.278  33.985  20.548  1.00  0.00    -0.504 OA
ATOM     33  H   UNL A   1      26.360  34.084  20.395  1.00  0.00     0.293 HD
ENDBRANCH  29  32
ENDBRANCH  23  24
ENDBRANCH   8  16
ENDBRANCH   5   8
ENDBRANCH   3   4
ENDBRANCH   2   3
ENDBRANCH   1   2
BRANCH   1  34
ATOM     34  C   UNL A   1      31.465  30.800  25.949  1.00  0.00     0.002 C 
BRANCH  34  35
ATOM     35  C   UNL A   1      31.280  32.177  26.586  1.00  0.00     0.021 C 
BRANCH  35  36
ATOM     36  C   UNL A   1      32.524  32.824  27.186  1.00  0.00     0.116 C 
BRANCH  36  37
ATOM     37  N   UNL A   1      32.315  34.191  27.623  1.00  0.00    -0.352 N 
ATOM     38  C   UNL A   1      33.013  34.925  28.550  1.00  0.00     0.251 C 
ATOM     39  H   UNL A   1      31.564  34.661  27.194  1.00  0.00     0.163 HD
ATOM     40  O   UNL A   1      32.639  36.054  28.850  1.00  0.00    -0.269 OA
BRANCH  38  41
ATOM     41  C   UNL A   1      34.195  34.341  29.221  1.00  0.00     0.039 A 
ATOM     42  C   UNL A   1      34.014  33.702  30.450  1.00  0.00     0.014 A 
ATOM     43  C   UNL A   1      35.470  34.415  28.650  1.00  0.00     0.014 A 
ATOM     44  C   UNL A   1      35.098  33.083  31.077  1.00  0.00     0.010 A 
ATOM     45  C   UNL A   1      36.534  33.738  29.240  1.00  0.00     0.010 A 
ATOM     46  C   UNL A   1      36.359  33.068  30.460  1.00  0.00    -0.014 A 
BRANCH  46  47
ATOM     47  C   UNL A   1      37.503  32.355  31.082  1.00  0.00     0.031 A 
ATOM     48  C   UNL A   1      38.029  32.788  32.421  1.00  0.00     0.074 A 
ATOM     49  C   UNL A   1      38.105  31.352  30.413  1.00  0.00     0.049 A 
ATOM     50  N   UNL A   1      39.046  32.322  33.101  1.00  0.00    -0.248 NA
ATOM     51  C   UNL A   1      37.335  33.909  33.072  1.00  0.00     0.031 C 
ATOM     52  C   UNL A   1      37.719  30.870  29.085  1.00  0.00     0.029 A 
ATOM     53  N   UNL A   1      39.175  30.564  30.754  1.00  0.00    -0.354 N 
ATOM     54  C   UNL A   1      39.122  33.100  34.249  1.00  0.00     0.074 A 
ATOM     55  C   UNL A   1      38.082  34.102  34.148  1.00  0.00     0.031 C 
ATOM     56  C   UNL A   1      38.526  29.856  28.734  1.00  0.00     0.029 A 
ATOM     57  C   UNL A   1      39.508  29.640  29.792  1.00  0.00     0.049 A 
ATOM     58  H   UNL A   1      39.658  30.651  31.607  1.00  0.00     0.167 HD
ATOM     59  C   UNL A   1      39.966  32.979  35.300  1.00  0.00     0.037 A 
ATOM     60  C   UNL A   1      40.497  28.727  29.765  1.00  0.00     0.037 A 
ATOM     61  C   UNL A   1      40.988  31.969  35.404  1.00  0.00     0.049 A 
ATOM     62  C   UNL A   1      41.425  28.615  30.942  1.00  0.00     0.074 A 
ATOM     63  C   UNL A   1      41.854  31.724  36.455  1.00  0.00     0.029 A 
ATOM     64  N   UNL A   1      41.286  31.043  34.415  1.00  0.00    -0.354 N 
ATOM     65  N   UNL A   1      41.437  29.307  32.055  1.00  0.00    -0.248 NA
ATOM     66  C   UNL A   1      42.471  27.586  30.862  1.00  0.00     0.031 C 
ATOM     67  C   UNL A   1      42.706  30.678  36.084  1.00  0.00     0.029 A 
ATOM     68  C   UNL A   1      42.337  30.238  34.822  1.00  0.00     0.049 A 
ATOM     69  H   UNL A   1      40.818  30.968  33.552  1.00  0.00     0.167 HD
ATOM     70  C   UNL A   1      42.474  28.785  32.816  1.00  0.00     0.074 A 
ATOM     71  C   UNL A   1      43.056  27.706  32.045  1.00  0.00     0.031 C 
ATOM     72  C   UNL A   1      42.904  29.165  34.046  1.00  0.00     0.037 A 
BRANCH  59  73
ATOM     73  C   UNL A   1      39.818  33.965  36.422  1.00  0.00     0.057 A 
ATOM     74  C   UNL A   1      39.055  33.680  37.562  1.00  0.00     0.134 A 
ATOM     75  C   UNL A   1      40.461  35.208  36.373  1.00  0.00     0.134 A 
ATOM     76  F   UNL A   1      38.403  32.512  37.669  1.00  0.00    -0.206 F 
ATOM     77  C   UNL A   1      38.911  34.606  38.598  1.00  0.00     0.040 A 
ATOM     78  C   UNL A   1      40.349  36.131  37.415  1.00  0.00     0.040 A 
ATOM     79  F   UNL A   1      41.214  35.546  35.315  1.00  0.00    -0.206 F 
ATOM     80  C   UNL A   1      39.564  35.834  38.528  1.00  0.00     0.006 A 
ENDBRANCH  59  73
BRANCH  60  81
ATOM     81  C   UNL A   1      40.640  27.828  28.593  1.00  0.00     0.057 A 
ATOM     82  C   UNL A   1      39.945  26.614  28.528  1.00  0.00     0.134 A 
ATOM     83  C   UNL A   1      41.464  28.158  27.511  1.00  0.00     0.134 A 
ATOM     84  F   UNL A   1      39.152  26.235  29.540  1.00  0.00    -0.206 F 
ATOM     85  C   UNL A   1      40.075  25.755  27.436  1.00  0.00     0.040 A 
ATOM     86  C   UNL A   1      41.585  27.320  26.402  1.00  0.00     0.040 A 
ATOM     87  F   UNL A   1      42.150  29.311  27.508  1.00  0.00    -0.206 F 
ATOM     88  C   UNL A   1      40.894  26.111  26.365  1.00  0.00     0.006 A 
ENDBRANCH  60  81
BRANCH  72  89
ATOM     89  C   UNL A   1      44.039  28.388  34.645  1.00  0.00     0.057 A 
ATOM     90  C   UNL A   1      45.376  28.754  34.443  1.00  0.00     0.134 A 
ATOM     91  C   UNL A   1      43.788  27.283  35.469  1.00  0.00     0.134 A 
ATOM     92  F   UNL A   1      45.685  29.794  33.654  1.00  0.00    -0.206 F 
ATOM     93  C   UNL A   1      46.424  28.034  35.021  1.00  0.00     0.040 A 
ATOM     94  C   UNL A   1      44.826  26.572  36.074  1.00  0.00     0.040 A 
ATOM     95  F   UNL A   1      42.530  26.885  35.711  1.00  0.00    -0.206 F 
ATOM     96  C   UNL A   1      46.149  26.944  35.845  1.00  0.00     0.006 A 
ENDBRANCH  72  89
ENDBRANCH  46  47
ENDBRANCH  38  41
ENDBRANCH  36  37
ENDBRANCH  35  36
ENDBRANCH  34  35
ENDBRANCH   1  34
TORSDOF 20
ENDMDL
