MODEL 1
REMARK VINA RESULT:     -12.3      0.000      0.000
REMARK SMILES CS(=O)(=O)c1ccc(/C=C(/C(=O)NCCCCCCNC(=O)c2ccc(-c3c4nc(c(-c5c(F)cccc5F)c5ccc([nH]5)c(-c5c(F)cccc5F)c5nc(c(-c6c(F)cccc6F)c6ccc3[nH]6)C=C5)C=C4)cc2)c2ccc(O)cc2)cc1
REMARK SMILES IDX 16 1 15 2 14 3 13 4 11 5 12 6 10 8 9 9 8 10 5 11 6 12 85 13
REMARK SMILES IDX 7 14 84 15 2 16 1 17 3 18 4 19 77 20 78 21 83 22 79 23 82 24
REMARK SMILES IDX 80 25 81 26 17 28 18 29 19 30 20 31 21 32 22 34 23 35 24 36
REMARK SMILES IDX 76 37 25 38 75 39 26 40 27 41 28 42 69 43 29 44 74 45 68 46
REMARK SMILES IDX 70 47 30 48 73 49 67 50 66 51 31 53 57 54 40 55 56 56 41 57
REMARK SMILES IDX 44 58 55 59 71 60 42 61 43 62 54 64 72 65 45 66 32 67 33 68
REMARK SMILES IDX 38 69 34 70 35 71 37 72 39 73 36 74 58 75 59 76 64 77 60 78
REMARK SMILES IDX 61 79 63 80 65 81 62 82 46 83 47 84 52 85 48 86 49 87 51 88
REMARK SMILES IDX 53 89 50 90
REMARK H PARENT 13 7 81 27 20 33 70 52 44 63
REMARK Flexibility Score: inf
ROOT
ATOM      1  C   UNL A   1      36.756  22.283  24.696  1.00  0.00     0.002 C 
ENDROOT
BRANCH   1   2
ATOM      2  C   UNL A   1      35.977  22.895  23.519  1.00  0.00     0.021 C 
BRANCH   2   3
ATOM      3  C   UNL A   1      34.995  23.994  23.937  1.00  0.00     0.116 C 
BRANCH   3   4
ATOM      4  N   UNL A   1      34.144  23.514  25.008  1.00  0.00    -0.352 N 
ATOM      5  C   UNL A   1      33.056  24.011  25.652  1.00  0.00     0.251 C 
ATOM      6  O   UNL A   1      32.621  23.330  26.585  1.00  0.00    -0.269 OA
ATOM      7  H   UNL A   1      34.416  22.631  25.345  1.00  0.00     0.163 HD
BRANCH   5   8
ATOM      8  C   UNL A   1      32.331  25.267  25.228  1.00  0.00     0.047 C 
ATOM      9  C   UNL A   1      31.633  25.353  24.072  1.00  0.00     0.022 C 
BRANCH   9  10
ATOM     10  C   UNL A   1      30.791  26.470  23.588  1.00  0.00    -0.025 A 
ATOM     11  C   UNL A   1      29.100  28.589  22.860  1.00  0.00     0.067 A 
ATOM     12  C   UNL A   1      30.451  28.628  22.511  1.00  0.00     0.021 A 
ATOM     13  C   UNL A   1      28.571  27.479  23.519  1.00  0.00     0.021 A 
ATOM     14  C   UNL A   1      31.285  27.561  22.861  1.00  0.00     0.009 A 
ATOM     15  C   UNL A   1      29.419  26.427  23.881  1.00  0.00     0.009 A 
BRANCH  11  16
ATOM     16  S   UNL A   1      28.050  29.959  22.436  1.00  0.00     0.175 S 
ATOM     17  C   UNL A   1      28.937  31.378  23.025  1.00  0.00     0.163 C 
ATOM     18  O   UNL A   1      26.839  29.846  23.222  1.00  0.00    -0.224 OA
ATOM     19  O   UNL A   1      28.000  30.020  20.986  1.00  0.00    -0.224 OA
ENDBRANCH  11  16
ENDBRANCH   9  10
BRANCH   8  20
ATOM     20  C   UNL A   1      32.571  26.486  26.042  1.00  0.00    -0.013 A 
ATOM     21  C   UNL A   1      33.772  27.193  25.850  1.00  0.00     0.013 A 
ATOM     22  C   UNL A   1      31.604  27.012  26.909  1.00  0.00     0.013 A 
ATOM     23  C   UNL A   1      33.980  28.424  26.467  1.00  0.00     0.047 A 
ATOM     24  C   UNL A   1      31.810  28.252  27.524  1.00  0.00     0.047 A 
ATOM     25  C   UNL A   1      32.989  28.954  27.282  1.00  0.00     0.115 A 
BRANCH  25  26
ATOM     26  O   UNL A   1      33.208  30.189  27.815  1.00  0.00    -0.508 OA
ATOM     27  H   UNL A   1      33.980  30.668  27.585  1.00  0.00     0.293 HD
ENDBRANCH  25  26
ENDBRANCH   8  20
ENDBRANCH   5   8
ENDBRANCH   3   4
ENDBRANCH   2   3
ENDBRANCH   1   2
BRANCH   1  28
ATOM     28  C   UNL A   1      36.496  20.792  24.947  1.00  0.00     0.002 C 
BRANCH  28  29
ATOM     29  C   UNL A   1      37.733  19.894  24.874  1.00  0.00     0.021 C 
BRANCH  29  30
ATOM     30  C   UNL A   1      38.913  20.364  25.720  1.00  0.00     0.116 C 
BRANCH  30  31
ATOM     31  N   UNL A   1      39.961  19.360  25.800  1.00  0.00    -0.352 N 
ATOM     32  C   UNL A   1      41.296  19.517  26.083  1.00  0.00     0.251 C 
ATOM     33  H   UNL A   1      39.673  18.436  25.628  1.00  0.00     0.163 HD
ATOM     34  O   UNL A   1      42.077  18.585  25.917  1.00  0.00    -0.269 OA
BRANCH  32  35
ATOM     35  C   UNL A   1      41.800  20.819  26.571  1.00  0.00     0.039 A 
ATOM     36  C   UNL A   1      42.104  21.817  25.641  1.00  0.00     0.014 A 
ATOM     37  C   UNL A   1      41.992  21.047  27.937  1.00  0.00     0.014 A 
ATOM     38  C   UNL A   1      42.544  23.067  26.085  1.00  0.00     0.010 A 
ATOM     39  C   UNL A   1      42.375  22.310  28.382  1.00  0.00     0.010 A 
ATOM     40  C   UNL A   1      42.655  23.331  27.460  1.00  0.00    -0.014 A 
BRANCH  40  41
ATOM     41  C   UNL A   1      43.062  24.670  27.953  1.00  0.00     0.031 A 
ATOM     42  C   UNL A   1      42.023  25.712  28.256  1.00  0.00     0.074 A 
ATOM     43  C   UNL A   1      44.370  24.969  28.063  1.00  0.00     0.049 A 
ATOM     44  N   UNL A   1      42.184  26.960  28.619  1.00  0.00    -0.248 NA
ATOM     45  C   UNL A   1      40.616  25.306  28.109  1.00  0.00     0.031 C 
ATOM     46  C   UNL A   1      45.475  24.059  27.760  1.00  0.00     0.029 A 
ATOM     47  N   UNL A   1      44.992  26.130  28.448  1.00  0.00    -0.354 N 
ATOM     48  C   UNL A   1      40.906  27.490  28.727  1.00  0.00     0.074 A 
ATOM     49  C   UNL A   1      39.980  26.443  28.352  1.00  0.00     0.031 C 
ATOM     50  C   UNL A   1      46.638  24.689  27.986  1.00  0.00     0.029 A 
ATOM     51  C   UNL A   1      46.362  26.057  28.416  1.00  0.00     0.049 A 
ATOM     52  H   UNL A   1      44.502  26.939  28.721  1.00  0.00     0.167 HD
ATOM     53  C   UNL A   1      40.535  28.731  29.122  1.00  0.00     0.037 A 
ATOM     54  C   UNL A   1      47.292  26.989  28.697  1.00  0.00     0.037 A 
ATOM     55  C   UNL A   1      41.453  29.764  29.522  1.00  0.00     0.049 A 
ATOM     56  C   UNL A   1      46.856  28.359  29.132  1.00  0.00     0.074 A 
ATOM     57  C   UNL A   1      41.172  31.034  29.998  1.00  0.00     0.029 A 
ATOM     58  N   UNL A   1      42.835  29.646  29.492  1.00  0.00    -0.354 N 
ATOM     59  N   UNL A   1      45.641  28.828  29.287  1.00  0.00    -0.248 NA
ATOM     60  C   UNL A   1      47.919  29.327  29.435  1.00  0.00     0.031 C 
ATOM     61  C   UNL A   1      42.384  31.695  30.225  1.00  0.00     0.029 A 
ATOM     62  C   UNL A   1      43.419  30.826  29.923  1.00  0.00     0.049 A 
ATOM     63  H   UNL A   1      43.327  28.843  29.206  1.00  0.00     0.167 HD
ATOM     64  C   UNL A   1      45.793  30.137  29.725  1.00  0.00     0.074 A 
ATOM     65  C   UNL A   1      47.217  30.383  29.823  1.00  0.00     0.031 C 
ATOM     66  C   UNL A   1      44.838  31.053  30.018  1.00  0.00     0.037 A 
BRANCH  53  67
ATOM     67  C   UNL A   1      39.067  29.037  29.143  1.00  0.00     0.057 A 
ATOM     68  C   UNL A   1      38.314  28.954  30.322  1.00  0.00     0.134 A 
ATOM     69  C   UNL A   1      38.403  29.445  27.979  1.00  0.00     0.134 A 
ATOM     70  F   UNL A   1      38.889  28.556  31.468  1.00  0.00    -0.206 F 
ATOM     71  C   UNL A   1      36.949  29.241  30.338  1.00  0.00     0.040 A 
ATOM     72  C   UNL A   1      37.042  29.758  27.988  1.00  0.00     0.040 A 
ATOM     73  F   UNL A   1      39.066  29.550  26.818  1.00  0.00    -0.206 F 
ATOM     74  C   UNL A   1      36.311  29.650  29.170  1.00  0.00     0.006 A 
ENDBRANCH  53  67
BRANCH  54  75
ATOM     75  C   UNL A   1      48.732  26.650  28.596  1.00  0.00     0.057 A 
ATOM     76  C   UNL A   1      49.432  26.841  27.399  1.00  0.00     0.134 A 
ATOM     77  C   UNL A   1      49.441  26.128  29.683  1.00  0.00     0.134 A 
ATOM     78  F   UNL A   1      48.800  27.320  26.317  1.00  0.00    -0.206 F 
ATOM     79  C   UNL A   1      50.784  26.514  27.283  1.00  0.00     0.040 A 
ATOM     80  C   UNL A   1      50.798  25.816  29.588  1.00  0.00     0.040 A 
ATOM     81  F   UNL A   1      48.826  25.929  30.859  1.00  0.00    -0.206 F 
ATOM     82  C   UNL A   1      51.472  26.004  28.382  1.00  0.00     0.006 A 
ENDBRANCH  54  75
BRANCH  66  83
ATOM     83  C   UNL A   1      45.304  32.396  30.495  1.00  0.00     0.057 A 
ATOM     84  C   UNL A   1      45.539  32.653  31.851  1.00  0.00     0.134 A 
ATOM     85  C   UNL A   1      45.550  33.431  29.585  1.00  0.00     0.134 A 
ATOM     86  F   UNL A   1      45.307  31.707  32.773  1.00  0.00    -0.206 F 
ATOM     87  C   UNL A   1      45.987  33.902  32.287  1.00  0.00     0.040 A 
ATOM     88  C   UNL A   1      46.018  34.675  30.006  1.00  0.00     0.040 A 
ATOM     89  F   UNL A   1      45.349  33.245  28.271  1.00  0.00    -0.206 F 
ATOM     90  C   UNL A   1      46.234  34.915  31.362  1.00  0.00     0.006 A 
ENDBRANCH  66  83
ENDBRANCH  40  41
ENDBRANCH  32  35
ENDBRANCH  30  31
ENDBRANCH  29  30
ENDBRANCH  28  29
ENDBRANCH   1  28
TORSDOF 17
ENDMDL
MODEL 2
REMARK VINA RESULT:     -11.9      4.414      9.588
REMARK SMILES CS(=O)(=O)c1ccc(/C=C(/C(=O)NCCCCCCNC(=O)c2ccc(-c3c4nc(c(-c5c(F)cccc5F)c5ccc([nH]5)c(-c5c(F)cccc5F)c5nc(c(-c6c(F)cccc6F)c6ccc3[nH]6)C=C5)C=C4)cc2)c2ccc(O)cc2)cc1
REMARK SMILES IDX 16 1 15 2 14 3 13 4 11 5 12 6 10 8 9 9 8 10 5 11 6 12 85 13
REMARK SMILES IDX 7 14 84 15 2 16 1 17 3 18 4 19 77 20 78 21 83 22 79 23 82 24
REMARK SMILES IDX 80 25 81 26 17 28 18 29 19 30 20 31 21 32 22 34 23 35 24 36
REMARK SMILES IDX 76 37 25 38 75 39 26 40 27 41 28 42 69 43 29 44 74 45 68 46
REMARK SMILES IDX 70 47 30 48 73 49 67 50 66 51 31 53 57 54 40 55 56 56 41 57
REMARK SMILES IDX 44 58 55 59 71 60 42 61 43 62 54 64 72 65 45 66 32 67 33 68
REMARK SMILES IDX 38 69 34 70 35 71 37 72 39 73 36 74 58 75 59 76 64 77 60 78
REMARK SMILES IDX 61 79 63 80 65 81 62 82 46 83 47 84 52 85 48 86 49 87 51 88
REMARK SMILES IDX 53 89 50 90
REMARK H PARENT 13 7 81 27 20 33 70 52 44 63
REMARK Flexibility Score: inf
ROOT
ATOM      1  C   UNL A   1      31.911  28.941  26.794  1.00  0.00     0.002 C 
ENDROOT
BRANCH   1   2
ATOM      2  C   UNL A   1      31.391  27.574  26.317  1.00  0.00     0.021 C 
BRANCH   2   3
ATOM      3  C   UNL A   1      32.502  26.602  25.909  1.00  0.00     0.116 C 
BRANCH   3   4
ATOM      4  N   UNL A   1      32.741  26.697  24.482  1.00  0.00    -0.352 N 
ATOM      5  C   UNL A   1      33.193  25.835  23.535  1.00  0.00     0.251 C 
ATOM      6  O   UNL A   1      33.332  26.302  22.401  1.00  0.00    -0.269 OA
ATOM      7  H   UNL A   1      32.528  27.587  24.118  1.00  0.00     0.163 HD
BRANCH   5   8
ATOM      8  C   UNL A   1      33.436  24.366  23.786  1.00  0.00     0.047 C 
ATOM      9  C   UNL A   1      32.430  23.466  23.891  1.00  0.00     0.022 C 
BRANCH   9  10
ATOM     10  C   UNL A   1      32.523  21.995  24.022  1.00  0.00    -0.025 A 
ATOM     11  C   UNL A   1      32.789  19.202  24.079  1.00  0.00     0.067 A 
ATOM     12  C   UNL A   1      33.090  19.950  25.218  1.00  0.00     0.021 A 
ATOM     13  C   UNL A   1      32.303  19.825  22.930  1.00  0.00     0.021 A 
ATOM     14  C   UNL A   1      32.939  21.341  25.189  1.00  0.00     0.009 A 
ATOM     15  C   UNL A   1      32.174  21.217  22.906  1.00  0.00     0.009 A 
BRANCH  11  16
ATOM     16  S   UNL A   1      33.008  17.438  24.113  1.00  0.00     0.175 S 
ATOM     17  C   UNL A   1      34.692  17.224  24.626  1.00  0.00     0.163 C 
ATOM     18  O   UNL A   1      32.903  16.955  22.751  1.00  0.00    -0.224 OA
ATOM     19  O   UNL A   1      32.142  16.924  25.159  1.00  0.00    -0.224 OA
ENDBRANCH  11  16
ENDBRANCH   9  10
BRANCH   8  20
ATOM     20  C   UNL A   1      34.828  23.961  24.108  1.00  0.00    -0.013 A 
ATOM     21  C   UNL A   1      35.314  24.210  25.404  1.00  0.00     0.013 A 
ATOM     22  C   UNL A   1      35.631  23.250  23.205  1.00  0.00     0.013 A 
ATOM     23  C   UNL A   1      36.551  23.713  25.809  1.00  0.00     0.047 A 
ATOM     24  C   UNL A   1      36.871  22.745  23.614  1.00  0.00     0.047 A 
ATOM     25  C   UNL A   1      37.309  22.966  24.919  1.00  0.00     0.115 A 
BRANCH  25  26
ATOM     26  O   UNL A   1      38.483  22.446  25.376  1.00  0.00    -0.508 OA
ATOM     27  H   UNL A   1      38.480  21.841  26.092  1.00  0.00     0.293 HD
ENDBRANCH  25  26
ENDBRANCH   8  20
ENDBRANCH   5   8
ENDBRANCH   3   4
ENDBRANCH   2   3
ENDBRANCH   1   2
BRANCH   1  28
ATOM     28  C   UNL A   1      31.660  30.109  25.831  1.00  0.00     0.002 C 
BRANCH  28  29
ATOM     29  C   UNL A   1      31.405  31.461  26.501  1.00  0.00     0.021 C 
BRANCH  29  30
ATOM     30  C   UNL A   1      32.659  32.167  27.010  1.00  0.00     0.116 C 
BRANCH  30  31
ATOM     31  N   UNL A   1      32.385  33.534  27.423  1.00  0.00    -0.352 N 
ATOM     32  C   UNL A   1      33.014  34.297  28.376  1.00  0.00     0.251 C 
ATOM     33  H   UNL A   1      31.643  33.976  26.952  1.00  0.00     0.163 HD
ATOM     34  O   UNL A   1      32.528  35.366  28.732  1.00  0.00    -0.269 OA
BRANCH  32  35
ATOM     35  C   UNL A   1      34.273  33.822  28.990  1.00  0.00     0.039 A 
ATOM     36  C   UNL A   1      34.206  33.007  30.124  1.00  0.00     0.014 A 
ATOM     37  C   UNL A   1      35.513  34.195  28.463  1.00  0.00     0.014 A 
ATOM     38  C   UNL A   1      35.383  32.516  30.694  1.00  0.00     0.010 A 
ATOM     39  C   UNL A   1      36.682  33.660  28.999  1.00  0.00     0.010 A 
ATOM     40  C   UNL A   1      36.627  32.816  30.119  1.00  0.00    -0.014 A 
BRANCH  40  41
ATOM     41  C   UNL A   1      37.885  32.255  30.674  1.00  0.00     0.031 A 
ATOM     42  C   UNL A   1      38.484  31.012  30.082  1.00  0.00     0.074 A 
ATOM     43  C   UNL A   1      38.447  32.827  31.755  1.00  0.00     0.049 A 
ATOM     44  N   UNL A   1      39.529  30.329  30.476  1.00  0.00    -0.248 NA
ATOM     45  C   UNL A   1      37.807  30.448  28.903  1.00  0.00     0.031 C 
ATOM     46  C   UNL A   1      37.940  34.013  32.446  1.00  0.00     0.029 A 
ATOM     47  N   UNL A   1      39.567  32.480  32.469  1.00  0.00    -0.354 N 
ATOM     48  C   UNL A   1      39.625  29.249  29.609  1.00  0.00     0.074 A 
ATOM     49  C   UNL A   1      38.509  29.344  28.692  1.00  0.00     0.031 C 
ATOM     50  C   UNL A   1      38.752  34.303  33.475  1.00  0.00     0.029 A 
ATOM     51  C   UNL A   1      39.817  33.307  33.535  1.00  0.00     0.049 A 
ATOM     52  H   UNL A   1      40.135  31.710  32.239  1.00  0.00     0.167 HD
ATOM     53  C   UNL A   1      40.567  28.278  29.567  1.00  0.00     0.037 A 
ATOM     54  C   UNL A   1      40.794  33.264  34.462  1.00  0.00     0.037 A 
ATOM     55  C   UNL A   1      41.692  28.199  30.460  1.00  0.00     0.049 A 
ATOM     56  C   UNL A   1      41.827  32.176  34.394  1.00  0.00     0.074 A 
ATOM     57  C   UNL A   1      42.735  27.288  30.458  1.00  0.00     0.029 A 
ATOM     58  N   UNL A   1      41.921  29.066  31.518  1.00  0.00    -0.354 N 
ATOM     59  N   UNL A   1      41.938  31.195  33.532  1.00  0.00    -0.248 NA
ATOM     60  C   UNL A   1      42.873  32.191  35.427  1.00  0.00     0.031 C 
ATOM     61  C   UNL A   1      43.578  27.585  31.535  1.00  0.00     0.029 A 
ATOM     62  C   UNL A   1      43.078  28.700  32.186  1.00  0.00     0.049 A 
ATOM     63  H   UNL A   1      41.346  29.828  31.759  1.00  0.00     0.167 HD
ATOM     64  C   UNL A   1      43.075  30.489  33.903  1.00  0.00     0.074 A 
ATOM     65  C   UNL A   1      43.625  31.162  35.061  1.00  0.00     0.031 C 
ATOM     66  C   UNL A   1      43.613  29.383  33.336  1.00  0.00     0.037 A 
BRANCH  53  67
ATOM     67  C   UNL A   1      40.420  27.221  28.512  1.00  0.00     0.057 A 
ATOM     68  C   UNL A   1      39.578  26.115  28.690  1.00  0.00     0.134 A 
ATOM     69  C   UNL A   1      41.106  27.323  27.296  1.00  0.00     0.134 A 
ATOM     70  F   UNL A   1      38.903  25.953  29.839  1.00  0.00    -0.206 F 
ATOM     71  C   UNL A   1      39.443  25.135  27.706  1.00  0.00     0.040 A 
ATOM     72  C   UNL A   1      40.961  26.361  26.294  1.00  0.00     0.040 A 
ATOM     73  F   UNL A   1      41.924  28.359  27.060  1.00  0.00    -0.206 F 
ATOM     74  C   UNL A   1      40.131  25.260  26.501  1.00  0.00     0.006 A 
ENDBRANCH  53  67
BRANCH  54  75
ATOM     75  C   UNL A   1      40.852  34.299  35.522  1.00  0.00     0.057 A 
ATOM     76  C   UNL A   1      41.587  35.476  35.336  1.00  0.00     0.134 A 
ATOM     77  C   UNL A   1      40.182  34.140  36.740  1.00  0.00     0.134 A 
ATOM     78  F   UNL A   1      42.266  35.675  34.196  1.00  0.00    -0.206 F 
ATOM     79  C   UNL A   1      41.663  36.453  36.329  1.00  0.00     0.040 A 
ATOM     80  C   UNL A   1      40.233  35.119  37.734  1.00  0.00     0.040 A 
ATOM     81  F   UNL A   1      39.456  33.036  36.974  1.00  0.00    -0.206 F 
ATOM     82  C   UNL A   1      40.981  36.277  37.531  1.00  0.00     0.006 A 
ENDBRANCH  54  75
BRANCH  66  83
ATOM     83  C   UNL A   1      44.873  28.847  33.947  1.00  0.00     0.057 A 
ATOM     84  C   UNL A   1      46.135  29.301  33.545  1.00  0.00     0.134 A 
ATOM     85  C   UNL A   1      44.821  27.891  34.968  1.00  0.00     0.134 A 
ATOM     86  F   UNL A   1      46.252  30.204  32.561  1.00  0.00    -0.206 F 
ATOM     87  C   UNL A   1      47.305  28.808  34.129  1.00  0.00     0.040 A 
ATOM     88  C   UNL A   1      45.981  27.408  35.574  1.00  0.00     0.040 A 
ATOM     89  F   UNL A   1      43.641  27.420  35.401  1.00  0.00    -0.206 F 
ATOM     90  C   UNL A   1      47.228  27.864  35.151  1.00  0.00     0.006 A 
ENDBRANCH  66  83
ENDBRANCH  40  41
ENDBRANCH  32  35
ENDBRANCH  30  31
ENDBRANCH  29  30
ENDBRANCH  28  29
ENDBRANCH   1  28
TORSDOF 17
ENDMDL
MODEL 3
REMARK VINA RESULT:     -11.9      4.284      9.129
REMARK SMILES CS(=O)(=O)c1ccc(/C=C(/C(=O)NCCCCCCNC(=O)c2ccc(-c3c4nc(c(-c5c(F)cccc5F)c5ccc([nH]5)c(-c5c(F)cccc5F)c5nc(c(-c6c(F)cccc6F)c6ccc3[nH]6)C=C5)C=C4)cc2)c2ccc(O)cc2)cc1
REMARK SMILES IDX 16 1 15 2 14 3 13 4 11 5 12 6 10 8 9 9 8 10 5 11 6 12 85 13
REMARK SMILES IDX 7 14 84 15 2 16 1 17 3 18 4 19 77 20 78 21 83 22 79 23 82 24
REMARK SMILES IDX 80 25 81 26 17 28 18 29 19 30 20 31 21 32 22 34 23 35 24 36
REMARK SMILES IDX 76 37 25 38 75 39 26 40 27 41 28 42 69 43 29 44 74 45 68 46
REMARK SMILES IDX 70 47 30 48 73 49 67 50 66 51 31 53 57 54 40 55 56 56 41 57
REMARK SMILES IDX 44 58 55 59 71 60 42 61 43 62 54 64 72 65 45 66 32 67 33 68
REMARK SMILES IDX 38 69 34 70 35 71 37 72 39 73 36 74 58 75 59 76 64 77 60 78
REMARK SMILES IDX 61 79 63 80 65 81 62 82 46 83 47 84 52 85 48 86 49 87 51 88
REMARK SMILES IDX 53 89 50 90
REMARK H PARENT 13 7 81 27 20 33 70 52 44 63
REMARK Flexibility Score: inf
ROOT
ATOM      1  C   UNL A   1      31.787  29.126  26.822  1.00  0.00     0.002 C 
ENDROOT
BRANCH   1   2
ATOM      2  C   UNL A   1      33.035  28.290  26.490  1.00  0.00     0.021 C 
BRANCH   2   3
ATOM      3  C   UNL A   1      32.720  26.956  25.808  1.00  0.00     0.116 C 
BRANCH   3   4
ATOM      4  N   UNL A   1      32.998  27.049  24.388  1.00  0.00    -0.352 N 
ATOM      5  C   UNL A   1      33.410  26.167  23.441  1.00  0.00     0.251 C 
ATOM      6  O   UNL A   1      33.607  26.634  22.316  1.00  0.00    -0.269 OA
ATOM      7  H   UNL A   1      32.856  27.955  24.030  1.00  0.00     0.163 HD
BRANCH   5   8
ATOM      8  C   UNL A   1      33.543  24.681  23.680  1.00  0.00     0.047 C 
ATOM      9  C   UNL A   1      32.474  23.854  23.752  1.00  0.00     0.022 C 
BRANCH   9  10
ATOM     10  C   UNL A   1      32.461  22.378  23.869  1.00  0.00    -0.025 A 
ATOM     11  C   UNL A   1      32.541  19.573  23.904  1.00  0.00     0.067 A 
ATOM     12  C   UNL A   1      32.792  20.289  25.075  1.00  0.00     0.021 A 
ATOM     13  C   UNL A   1      32.195  20.238  22.728  1.00  0.00     0.021 A 
ATOM     14  C   UNL A   1      32.734  21.687  25.056  1.00  0.00     0.009 A 
ATOM     15  C   UNL A   1      32.159  21.637  22.715  1.00  0.00     0.009 A 
BRANCH  11  16
ATOM     16  S   UNL A   1      32.642  17.799  23.929  1.00  0.00     0.175 S 
ATOM     17  C   UNL A   1      34.324  17.471  24.388  1.00  0.00     0.163 C 
ATOM     18  O   UNL A   1      32.462  17.328  22.571  1.00  0.00    -0.224 OA
ATOM     19  O   UNL A   1      31.778  17.341  25.002  1.00  0.00    -0.224 OA
ENDBRANCH  11  16
ENDBRANCH   9  10
BRANCH   8  20
ATOM     20  C   UNL A   1      34.896  24.177  24.029  1.00  0.00    -0.013 A 
ATOM     21  C   UNL A   1      35.388  24.421  25.323  1.00  0.00     0.013 A 
ATOM     22  C   UNL A   1      35.648  23.380  23.154  1.00  0.00     0.013 A 
ATOM     23  C   UNL A   1      36.578  23.839  25.754  1.00  0.00     0.047 A 
ATOM     24  C   UNL A   1      36.840  22.789  23.590  1.00  0.00     0.047 A 
ATOM     25  C   UNL A   1      37.283  23.010  24.892  1.00  0.00     0.115 A 
BRANCH  25  26
ATOM     26  O   UNL A   1      38.407  22.411  25.376  1.00  0.00    -0.508 OA
ATOM     27  H   UNL A   1      38.859  21.775  24.857  1.00  0.00     0.293 HD
ENDBRANCH  25  26
ENDBRANCH   8  20
ENDBRANCH   5   8
ENDBRANCH   3   4
ENDBRANCH   2   3
ENDBRANCH   1   2
BRANCH   1  28
ATOM     28  C   UNL A   1      31.427  30.202  25.789  1.00  0.00     0.002 C 
BRANCH  28  29
ATOM     29  C   UNL A   1      31.271  31.617  26.351  1.00  0.00     0.021 C 
BRANCH  29  30
ATOM     30  C   UNL A   1      32.543  32.208  26.951  1.00  0.00     0.116 C 
BRANCH  30  31
ATOM     31  N   UNL A   1      32.349  33.576  27.403  1.00  0.00    -0.352 N 
ATOM     32  C   UNL A   1      33.029  34.279  28.367  1.00  0.00     0.251 C 
ATOM     33  H   UNL A   1      31.626  34.069  26.953  1.00  0.00     0.163 HD
ATOM     34  O   UNL A   1      32.605  35.363  28.757  1.00  0.00    -0.269 OA
BRANCH  32  35
ATOM     35  C   UNL A   1      34.267  33.721  28.952  1.00  0.00     0.039 A 
ATOM     36  C   UNL A   1      34.175  32.931  30.101  1.00  0.00     0.014 A 
ATOM     37  C   UNL A   1      35.515  33.994  28.383  1.00  0.00     0.014 A 
ATOM     38  C   UNL A   1      35.329  32.363  30.646  1.00  0.00     0.010 A 
ATOM     39  C   UNL A   1      36.658  33.381  28.893  1.00  0.00     0.010 A 
ATOM     40  C   UNL A   1      36.575  32.561  30.029  1.00  0.00    -0.014 A 
BRANCH  40  41
ATOM     41  C   UNL A   1      37.803  31.917  30.557  1.00  0.00     0.031 A 
ATOM     42  C   UNL A   1      38.530  32.517  31.726  1.00  0.00     0.074 A 
ATOM     43  C   UNL A   1      38.302  30.830  29.938  1.00  0.00     0.049 A 
ATOM     44  N   UNL A   1      39.658  32.148  32.279  1.00  0.00    -0.248 NA
ATOM     45  C   UNL A   1      37.920  33.706  32.344  1.00  0.00     0.031 C 
ATOM     46  C   UNL A   1      37.713  30.176  28.769  1.00  0.00     0.029 A 
ATOM     47  N   UNL A   1      39.427  30.089  30.202  1.00  0.00    -0.354 N 
ATOM     48  C   UNL A   1      39.901  33.063  33.293  1.00  0.00     0.074 A 
ATOM     49  C   UNL A   1      38.825  34.031  33.255  1.00  0.00     0.031 C 
ATOM     50  C   UNL A   1      38.472  29.124  28.426  1.00  0.00     0.029 A 
ATOM     51  C   UNL A   1      39.617  29.049  29.327  1.00  0.00     0.049 A 
ATOM     52  H   UNL A   1      40.040  30.287  30.946  1.00  0.00     0.167 HD
ATOM     53  C   UNL A   1      40.917  33.085  34.188  1.00  0.00     0.037 A 
ATOM     54  C   UNL A   1      40.607  28.138  29.257  1.00  0.00     0.037 A 
ATOM     55  C   UNL A   1      41.971  32.108  34.243  1.00  0.00     0.049 A 
ATOM     56  C   UNL A   1      41.724  28.184  30.261  1.00  0.00     0.074 A 
ATOM     57  C   UNL A   1      43.011  32.009  35.152  1.00  0.00     0.029 A 
ATOM     58  N   UNL A   1      42.121  31.057  33.350  1.00  0.00    -0.354 N 
ATOM     59  N   UNL A   1      41.909  29.022  31.253  1.00  0.00    -0.248 NA
ATOM     60  C   UNL A   1      42.767  27.156  30.138  1.00  0.00     0.031 C 
ATOM     61  C   UNL A   1      43.808  30.918  34.789  1.00  0.00     0.029 A 
ATOM     62  C   UNL A   1      43.245  30.317  33.675  1.00  0.00     0.049 A 
ATOM     63  H   UNL A   1      41.517  30.866  32.596  1.00  0.00     0.167 HD
ATOM     64  C   UNL A   1      43.076  28.611  31.884  1.00  0.00     0.074 A 
ATOM     65  C   UNL A   1      43.548  27.442  31.171  1.00  0.00     0.031 C 
ATOM     66  C   UNL A   1      43.700  29.155  32.957  1.00  0.00     0.037 A 
BRANCH  53  67
ATOM     67  C   UNL A   1      40.932  34.206  35.184  1.00  0.00     0.057 A 
ATOM     68  C   UNL A   1      40.323  34.083  36.440  1.00  0.00     0.134 A 
ATOM     69  C   UNL A   1      41.586  35.411  34.898  1.00  0.00     0.134 A 
ATOM     70  F   UNL A   1      39.669  32.959  36.770  1.00  0.00    -0.206 F 
ATOM     71  C   UNL A   1      40.341  35.128  37.365  1.00  0.00     0.040 A 
ATOM     72  C   UNL A   1      41.631  36.454  35.825  1.00  0.00     0.040 A 
ATOM     73  F   UNL A   1      42.194  35.592  33.716  1.00  0.00    -0.206 F 
ATOM     74  C   UNL A   1      41.002  36.315  37.061  1.00  0.00     0.006 A 
ENDBRANCH  53  67
BRANCH  54  75
ATOM     75  C   UNL A   1      40.574  27.091  28.209  1.00  0.00     0.057 A 
ATOM     76  C   UNL A   1      41.302  27.240  27.022  1.00  0.00     0.134 A 
ATOM     77  C   UNL A   1      39.820  25.922  28.363  1.00  0.00     0.134 A 
ATOM     78  F   UNL A   1      42.028  28.347  26.811  1.00  0.00    -0.206 F 
ATOM     79  C   UNL A   1      41.271  26.269  26.020  1.00  0.00     0.040 A 
ATOM     80  C   UNL A   1      39.795  24.935  27.377  1.00  0.00     0.040 A 
ATOM     81  F   UNL A   1      39.107  25.719  29.481  1.00  0.00    -0.206 F 
ATOM     82  C   UNL A   1      40.519  25.110  26.199  1.00  0.00     0.006 A 
ENDBRANCH  54  75
BRANCH  66  83
ATOM     83  C   UNL A   1      44.947  28.475  33.438  1.00  0.00     0.057 A 
ATOM     84  C   UNL A   1      46.216  28.883  33.014  1.00  0.00     0.134 A 
ATOM     85  C   UNL A   1      44.876  27.423  34.359  1.00  0.00     0.134 A 
ATOM     86  F   UNL A   1      46.349  29.875  32.120  1.00  0.00    -0.206 F 
ATOM     87  C   UNL A   1      47.375  28.256  33.477  1.00  0.00     0.040 A 
ATOM     88  C   UNL A   1      46.027  26.804  34.847  1.00  0.00     0.040 A 
ATOM     89  F   UNL A   1      43.688  26.989  34.809  1.00  0.00    -0.206 F 
ATOM     90  C   UNL A   1      47.281  27.217  34.402  1.00  0.00     0.006 A 
ENDBRANCH  66  83
ENDBRANCH  40  41
ENDBRANCH  32  35
ENDBRANCH  30  31
ENDBRANCH  29  30
ENDBRANCH  28  29
ENDBRANCH   1  28
TORSDOF 17
ENDMDL
