MODEL 1
REMARK VINA RESULT:     -12.0      0.000      0.000
REMARK SMILES CCc1ccc([C@H](C)[N@@H+]2[C@@H](C(=O)NCCCCCCNC(=O)c3ccc(-c4c5nc(c(-c6c(F)cccc6F)c6ccc([nH]6)c(-c6c(F)cccc6F)c6nc(c(-c7c(F)cccc7F)c7ccc4[nH]7)C=C6)C=C5)cc3)C[C@H]3CCCC[C@H]32)s1
REMARK SMILES IDX 16 1 15 2 14 3 13 4 11 5 12 6 10 8 9 9 83 10 77 12 78 13
REMARK SMILES IDX 82 14 79 15 81 16 80 17 7 18 8 19 6 20 3 21 4 22 84 23 5 24
REMARK SMILES IDX 2 25 1 26 17 27 18 28 19 29 20 30 21 31 22 33 23 34 24 35
REMARK SMILES IDX 76 36 25 37 75 38 26 39 27 40 28 41 69 42 29 43 74 44 68 45
REMARK SMILES IDX 70 46 30 47 73 48 67 49 66 50 31 52 57 53 40 54 56 55 41 56
REMARK SMILES IDX 44 57 55 58 71 59 42 60 43 61 54 63 72 64 45 65 32 66 33 67
REMARK SMILES IDX 38 68 34 69 35 70 37 71 39 72 36 73 58 74 59 75 64 76 60 77
REMARK SMILES IDX 61 78 63 79 65 80 62 81 46 82 47 83 52 84 48 85 49 86 51 87
REMARK SMILES IDX 53 88 50 89
REMARK H PARENT 13 7 9 11 20 32 70 51 44 62
REMARK Flexibility Score: inf
ROOT
ATOM      1  C   UNL A   1      32.526  29.960  27.231  1.00  0.00     0.002 C 
ENDROOT
BRANCH   1   2
ATOM      2  C   UNL A   1      32.174  28.514  27.580  1.00  0.00     0.021 C 
BRANCH   2   3
ATOM      3  C   UNL A   1      31.403  27.751  26.508  1.00  0.00     0.116 C 
BRANCH   3   4
ATOM      4  N   UNL A   1      31.125  26.377  26.875  1.00  0.00    -0.351 N 
ATOM      5  C   UNL A   1      31.734  25.232  26.412  1.00  0.00     0.278 C 
ATOM      6  O   UNL A   1      31.370  24.158  26.889  1.00  0.00    -0.268 OA
ATOM      7  H   UNL A   1      30.410  26.244  27.538  1.00  0.00     0.163 HD
BRANCH   5   8
ATOM      8  C   UNL A   1      32.792  25.387  25.296  1.00  0.00     0.275 C 
ATOM      9  N   UNL A   1      32.237  25.102  23.940  1.00  0.00    -0.315 N 
ATOM     10  C   UNL A   1      32.836  23.832  23.486  1.00  0.00     0.188 C 
ATOM     11  H   UNL A   1      31.226  24.967  23.956  1.00  0.00     0.349 HD
ATOM     12  C   UNL A   1      33.978  24.430  25.491  1.00  0.00     0.085 C 
ATOM     13  C   UNL A   1      34.224  23.819  24.120  1.00  0.00     0.054 C 
ATOM     14  C   UNL A   1      31.964  22.651  23.966  1.00  0.00     0.065 C 
ATOM     15  C   UNL A   1      34.907  22.454  24.141  1.00  0.00     0.010 C 
ATOM     16  C   UNL A   1      32.686  21.309  23.868  1.00  0.00     0.006 C 
ATOM     17  C   UNL A   1      34.004  21.329  24.633  1.00  0.00     0.001 C 
BRANCH   9  18
ATOM     18  C   UNL A   1      32.362  26.267  23.026  1.00  0.00     0.223 C 
ATOM     19  C   UNL A   1      32.763  25.949  21.568  1.00  0.00     0.082 C 
BRANCH  18  20
ATOM     20  C   UNL A   1      31.165  27.218  23.115  1.00  0.00     0.062 A 
ATOM     21  C   UNL A   1      29.700  29.238  23.245  1.00  0.00     0.005 A 
ATOM     22  C   UNL A   1      29.015  28.066  23.502  1.00  0.00     0.016 A 
ATOM     23  S   UNL A   1      31.335  28.913  22.894  1.00  0.00    -0.139 S 
ATOM     24  C   UNL A   1      29.851  26.910  23.425  1.00  0.00     0.022 A 
BRANCH  21  25
ATOM     25  C   UNL A   1      29.167  30.646  23.306  1.00  0.00     0.043 C 
ATOM     26  C   UNL A   1      27.653  30.771  23.422  1.00  0.00     0.010 C 
ENDBRANCH  21  25
ENDBRANCH  18  20
ENDBRANCH   9  18
ENDBRANCH   5   8
ENDBRANCH   3   4
ENDBRANCH   2   3
ENDBRANCH   1   2
BRANCH   1  27
ATOM     27  C   UNL A   1      31.540  30.684  26.312  1.00  0.00     0.002 C 
BRANCH  27  28
ATOM     28  C   UNL A   1      31.404  32.194  26.522  1.00  0.00     0.021 C 
BRANCH  28  29
ATOM     29  C   UNL A   1      32.664  32.918  26.989  1.00  0.00     0.116 C 
BRANCH  29  30
ATOM     30  N   UNL A   1      32.385  34.192  27.626  1.00  0.00    -0.352 N 
ATOM     31  C   UNL A   1      33.001  34.795  28.690  1.00  0.00     0.251 C 
ATOM     32  H   UNL A   1      31.638  34.700  27.233  1.00  0.00     0.163 HD
ATOM     33  O   UNL A   1      32.531  35.836  29.154  1.00  0.00    -0.269 OA
BRANCH  31  34
ATOM     34  C   UNL A   1      34.205  34.201  29.313  1.00  0.00     0.039 A 
ATOM     35  C   UNL A   1      34.027  33.247  30.319  1.00  0.00     0.014 A 
ATOM     36  C   UNL A   1      35.498  34.589  28.944  1.00  0.00     0.014 A 
ATOM     37  C   UNL A   1      35.137  32.648  30.916  1.00  0.00     0.010 A 
ATOM     38  C   UNL A   1      36.605  33.942  29.494  1.00  0.00     0.010 A 
ATOM     39  C   UNL A   1      36.437  32.967  30.488  1.00  0.00    -0.014 A 
BRANCH  39  40
ATOM     40  C   UNL A   1      37.613  32.270  31.071  1.00  0.00     0.031 A 
ATOM     41  C   UNL A   1      38.097  32.600  32.456  1.00  0.00     0.074 A 
ATOM     42  C   UNL A   1      38.265  31.351  30.333  1.00  0.00     0.049 A 
ATOM     43  N   UNL A   1      39.086  32.071  33.131  1.00  0.00    -0.248 NA
ATOM     44  C   UNL A   1      37.396  33.680  33.166  1.00  0.00     0.031 C 
ATOM     45  C   UNL A   1      37.936  30.986  28.954  1.00  0.00     0.029 A 
ATOM     46  N   UNL A   1      39.338  30.553  30.642  1.00  0.00    -0.354 N 
ATOM     47  C   UNL A   1      39.129  32.755  34.340  1.00  0.00     0.074 A 
ATOM     48  C   UNL A   1      38.102  33.773  34.283  1.00  0.00     0.031 C 
ATOM     49  C   UNL A   1      38.765  30.011  28.548  1.00  0.00     0.029 A 
ATOM     50  C   UNL A   1      39.697  29.699  29.627  1.00  0.00     0.049 A 
ATOM     51  H   UNL A   1      39.805  30.589  31.506  1.00  0.00     0.167 HD
ATOM     52  C   UNL A   1      39.934  32.539  35.409  1.00  0.00     0.037 A 
ATOM     53  C   UNL A   1      40.661  28.761  29.575  1.00  0.00     0.037 A 
ATOM     54  C   UNL A   1      40.942  31.513  35.474  1.00  0.00     0.049 A 
ATOM     55  C   UNL A   1      41.518  28.519  30.786  1.00  0.00     0.074 A 
ATOM     56  C   UNL A   1      41.771  31.182  36.532  1.00  0.00     0.029 A 
ATOM     57  N   UNL A   1      41.258  30.650  34.435  1.00  0.00    -0.354 N 
ATOM     58  N   UNL A   1      41.497  29.124  31.948  1.00  0.00    -0.248 NA
ATOM     59  C   UNL A   1      42.521  27.451  30.681  1.00  0.00     0.031 C 
ATOM     60  C   UNL A   1      42.612  30.140  36.122  1.00  0.00     0.029 A 
ATOM     61  C   UNL A   1      42.277  29.795  34.823  1.00  0.00     0.049 A 
ATOM     62  H   UNL A   1      40.822  30.645  33.552  1.00  0.00     0.167 HD
ATOM     63  C   UNL A   1      42.462  28.494  32.722  1.00  0.00     0.074 A 
ATOM     64  C   UNL A   1      43.038  27.448  31.901  1.00  0.00     0.031 C 
ATOM     65  C   UNL A   1      42.839  28.758  33.997  1.00  0.00     0.037 A 
BRANCH  52  66
ATOM     66  C   UNL A   1      39.749  33.431  36.602  1.00  0.00     0.057 A 
ATOM     67  C   UNL A   1      40.442  34.643  36.729  1.00  0.00     0.134 A 
ATOM     68  C   UNL A   1      38.846  33.096  37.618  1.00  0.00     0.134 A 
ATOM     69  F   UNL A   1      41.330  35.019  35.797  1.00  0.00    -0.206 F 
ATOM     70  C   UNL A   1      40.262  35.476  37.836  1.00  0.00     0.040 A 
ATOM     71  C   UNL A   1      38.638  33.932  38.717  1.00  0.00     0.040 A 
ATOM     72  F   UNL A   1      38.145  31.953  37.557  1.00  0.00    -0.206 F 
ATOM     73  C   UNL A   1      39.352  35.123  38.830  1.00  0.00     0.006 A 
ENDBRANCH  52  66
BRANCH  53  74
ATOM     74  C   UNL A   1      40.834  27.943  28.349  1.00  0.00     0.057 A 
ATOM     75  C   UNL A   1      41.674  28.367  27.313  1.00  0.00     0.134 A 
ATOM     76  C   UNL A   1      40.163  26.727  28.182  1.00  0.00     0.134 A 
ATOM     77  F   UNL A   1      42.329  29.533  27.409  1.00  0.00    -0.206 F 
ATOM     78  C   UNL A   1      41.826  27.620  26.144  1.00  0.00     0.040 A 
ATOM     79  C   UNL A   1      40.324  25.957  27.028  1.00  0.00     0.040 A 
ATOM     80  F   UNL A   1      39.351  26.262  29.143  1.00  0.00    -0.206 F 
ATOM     81  C   UNL A   1      41.154  26.408  26.002  1.00  0.00     0.006 A 
ENDBRANCH  53  74
BRANCH  65  82
ATOM     82  C   UNL A   1      43.902  27.878  34.587  1.00  0.00     0.057 A 
ATOM     83  C   UNL A   1      43.594  26.671  35.228  1.00  0.00     0.134 A 
ATOM     84  C   UNL A   1      45.252  28.241  34.506  1.00  0.00     0.134 A 
ATOM     85  F   UNL A   1      42.318  26.272  35.349  1.00  0.00    -0.206 F 
ATOM     86  C   UNL A   1      44.587  25.873  35.796  1.00  0.00     0.040 A 
ATOM     87  C   UNL A   1      46.257  27.439  35.048  1.00  0.00     0.040 A 
ATOM     88  F   UNL A   1      45.617  29.380  33.898  1.00  0.00    -0.206 F 
ATOM     89  C   UNL A   1      45.925  26.255  35.704  1.00  0.00     0.006 A 
ENDBRANCH  65  82
ENDBRANCH  39  40
ENDBRANCH  31  34
ENDBRANCH  29  30
ENDBRANCH  28  29
ENDBRANCH  27  28
ENDBRANCH   1  27
TORSDOF 16
ENDMDL
MODEL 2
REMARK VINA RESULT:     -11.8      4.656      9.812
REMARK SMILES CCc1ccc([C@H](C)[N@@H+]2[C@@H](C(=O)NCCCCCCNC(=O)c3ccc(-c4c5nc(c(-c6c(F)cccc6F)c6ccc([nH]6)c(-c6c(F)cccc6F)c6nc(c(-c7c(F)cccc7F)c7ccc4[nH]7)C=C6)C=C5)cc3)C[C@H]3CCCC[C@H]32)s1
REMARK SMILES IDX 16 1 15 2 14 3 13 4 11 5 12 6 10 8 9 9 83 10 77 12 78 13
REMARK SMILES IDX 82 14 79 15 81 16 80 17 7 18 8 19 6 20 3 21 4 22 84 23 5 24
REMARK SMILES IDX 2 25 1 26 17 27 18 28 19 29 20 30 21 31 22 33 23 34 24 35
REMARK SMILES IDX 76 36 25 37 75 38 26 39 27 40 28 41 69 42 29 43 74 44 68 45
REMARK SMILES IDX 70 46 30 47 73 48 67 49 66 50 31 52 57 53 40 54 56 55 41 56
REMARK SMILES IDX 44 57 55 58 71 59 42 60 43 61 54 63 72 64 45 65 32 66 33 67
REMARK SMILES IDX 38 68 34 69 35 70 37 71 39 72 36 73 58 74 59 75 64 76 60 77
REMARK SMILES IDX 61 78 63 79 65 80 62 81 46 82 47 83 52 84 48 85 49 86 51 87
REMARK SMILES IDX 53 88 50 89
REMARK H PARENT 13 7 9 11 20 32 70 51 44 62
REMARK Flexibility Score: inf
ROOT
ATOM      1  C   UNL A   1      36.838  21.840  24.241  1.00  0.00     0.002 C 
ENDROOT
BRANCH   1   2
ATOM      2  C   UNL A   1      37.061  23.086  25.099  1.00  0.00     0.021 C 
BRANCH   2   3
ATOM      3  C   UNL A   1      35.801  23.861  25.467  1.00  0.00     0.116 C 
BRANCH   3   4
ATOM      4  N   UNL A   1      35.148  24.465  24.323  1.00  0.00    -0.351 N 
ATOM      5  C   UNL A   1      34.042  25.284  24.308  1.00  0.00     0.278 C 
ATOM      6  O   UNL A   1      33.671  25.725  23.221  1.00  0.00    -0.268 OA
ATOM      7  H   UNL A   1      35.544  24.263  23.445  1.00  0.00     0.163 HD
BRANCH   5   8
ATOM      8  C   UNL A   1      33.327  25.545  25.654  1.00  0.00     0.275 C 
ATOM      9  N   UNL A   1      31.865  25.252  25.590  1.00  0.00    -0.315 N 
ATOM     10  C   UNL A   1      31.161  26.547  25.667  1.00  0.00     0.188 C 
ATOM     11  H   UNL A   1      31.595  24.817  24.707  1.00  0.00     0.349 HD
ATOM     12  C   UNL A   1      33.459  27.009  26.101  1.00  0.00     0.085 C 
ATOM     13  C   UNL A   1      32.061  27.417  26.540  1.00  0.00     0.054 C 
ATOM     14  C   UNL A   1      30.992  27.126  24.245  1.00  0.00     0.065 C 
ATOM     15  C   UNL A   1      31.777  28.915  26.461  1.00  0.00     0.010 C 
ATOM     16  C   UNL A   1      30.616  28.607  24.254  1.00  0.00     0.006 C 
ATOM     17  C   UNL A   1      31.631  29.432  25.036  1.00  0.00     0.001 C 
BRANCH   9  18
ATOM     18  C   UNL A   1      31.458  24.209  26.566  1.00  0.00     0.223 C 
ATOM     19  C   UNL A   1      29.939  23.959  26.703  1.00  0.00     0.082 C 
BRANCH  18  20
ATOM     20  C   UNL A   1      32.258  22.912  26.413  1.00  0.00     0.062 A 
ATOM     21  C   UNL A   1      33.139  20.703  25.646  1.00  0.00     0.005 A 
ATOM     22  C   UNL A   1      33.643  21.079  26.876  1.00  0.00     0.016 A 
ATOM     23  S   UNL A   1      32.088  21.898  25.037  1.00  0.00    -0.139 S 
ATOM     24  C   UNL A   1      33.142  22.344  27.314  1.00  0.00     0.022 A 
BRANCH  21  25
ATOM     25  C   UNL A   1      33.384  19.413  24.908  1.00  0.00     0.043 C 
ATOM     26  C   UNL A   1      32.607  18.206  25.419  1.00  0.00     0.010 C 
ENDBRANCH  21  25
ENDBRANCH  18  20
ENDBRANCH   9  18
ENDBRANCH   5   8
ENDBRANCH   3   4
ENDBRANCH   2   3
ENDBRANCH   1   2
BRANCH   1  27
ATOM     27  C   UNL A   1      36.749  20.515  25.001  1.00  0.00     0.002 C 
BRANCH  27  28
ATOM     28  C   UNL A   1      38.001  19.634  24.973  1.00  0.00     0.021 C 
BRANCH  28  29
ATOM     29  C   UNL A   1      39.130  20.050  25.912  1.00  0.00     0.116 C 
BRANCH  29  30
ATOM     30  N   UNL A   1      40.305  19.206  25.797  1.00  0.00    -0.352 N 
ATOM     31  C   UNL A   1      41.624  19.503  26.020  1.00  0.00     0.251 C 
ATOM     32  H   UNL A   1      40.127  18.280  25.515  1.00  0.00     0.163 HD
ATOM     33  O   UNL A   1      42.488  18.666  25.750  1.00  0.00    -0.269 OA
BRANCH  31  34
ATOM     34  C   UNL A   1      42.031  20.823  26.551  1.00  0.00     0.039 A 
ATOM     35  C   UNL A   1      42.363  21.829  25.640  1.00  0.00     0.014 A 
ATOM     36  C   UNL A   1      42.119  21.073  27.925  1.00  0.00     0.014 A 
ATOM     37  C   UNL A   1      42.731  23.094  26.101  1.00  0.00     0.010 A 
ATOM     38  C   UNL A   1      42.423  22.356  28.383  1.00  0.00     0.010 A 
ATOM     39  C   UNL A   1      42.736  23.379  27.476  1.00  0.00    -0.014 A 
BRANCH  39  40
ATOM     40  C   UNL A   1      43.052  24.748  27.960  1.00  0.00     0.031 A 
ATOM     41  C   UNL A   1      44.476  25.183  28.167  1.00  0.00     0.074 A 
ATOM     42  C   UNL A   1      42.044  25.596  28.239  1.00  0.00     0.049 A 
ATOM     43  N   UNL A   1      44.934  26.347  28.554  1.00  0.00    -0.248 NA
ATOM     44  C   UNL A   1      45.520  24.174  27.934  1.00  0.00     0.031 C 
ATOM     45  C   UNL A   1      40.618  25.277  28.141  1.00  0.00     0.029 A 
ATOM     46  N   UNL A   1      42.063  26.903  28.657  1.00  0.00    -0.354 N 
ATOM     47  C   UNL A   1      46.316  26.209  28.615  1.00  0.00     0.074 A 
ATOM     48  C   UNL A   1      46.616  24.834  28.279  1.00  0.00     0.031 C 
ATOM     49  C   UNL A   1      39.901  26.367  28.454  1.00  0.00     0.029 A 
ATOM     50  C   UNL A   1      40.812  27.454  28.797  1.00  0.00     0.049 A 
ATOM     51  H   UNL A   1      42.893  27.398  28.840  1.00  0.00     0.167 HD
ATOM     52  C   UNL A   1      47.250  27.148  28.902  1.00  0.00     0.037 A 
ATOM     53  C   UNL A   1      40.441  28.699  29.149  1.00  0.00     0.037 A 
ATOM     54  C   UNL A   1      46.953  28.522  29.217  1.00  0.00     0.049 A 
ATOM     55  C   UNL A   1      41.497  29.730  29.430  1.00  0.00     0.074 A 
ATOM     56  C   UNL A   1      47.832  29.560  29.470  1.00  0.00     0.029 A 
ATOM     57  N   UNL A   1      45.675  29.048  29.323  1.00  0.00    -0.354 N 
ATOM     58  N   UNL A   1      42.802  29.604  29.410  1.00  0.00    -0.248 NA
ATOM     59  C   UNL A   1      41.027  31.082  29.764  1.00  0.00     0.031 C 
ATOM     60  C   UNL A   1      47.086  30.708  29.762  1.00  0.00     0.029 A 
ATOM     61  C   UNL A   1      45.741  30.394  29.648  1.00  0.00     0.049 A 
ATOM     62  H   UNL A   1      44.841  28.541  29.185  1.00  0.00     0.167 HD
ATOM     63  C   UNL A   1      43.309  30.864  29.703  1.00  0.00     0.074 A 
ATOM     64  C   UNL A   1      42.171  31.742  29.877  1.00  0.00     0.031 C 
ATOM     65  C   UNL A   1      44.601  31.257  29.817  1.00  0.00     0.037 A 
BRANCH  52  66
ATOM     66  C   UNL A   1      48.689  26.719  28.881  1.00  0.00     0.057 A 
ATOM     67  C   UNL A   1      49.480  26.857  27.733  1.00  0.00     0.134 A 
ATOM     68  C   UNL A   1      49.300  26.194  30.025  1.00  0.00     0.134 A 
ATOM     69  F   UNL A   1      48.955  27.342  26.598  1.00  0.00    -0.206 F 
ATOM     70  C   UNL A   1      50.821  26.465  27.717  1.00  0.00     0.040 A 
ATOM     71  C   UNL A   1      50.646  25.823  30.030  1.00  0.00     0.040 A 
ATOM     72  F   UNL A   1      48.601  26.040  31.161  1.00  0.00    -0.206 F 
ATOM     73  C   UNL A   1      51.408  25.953  28.872  1.00  0.00     0.006 A 
ENDBRANCH  52  66
BRANCH  53  74
ATOM     74  C   UNL A   1      39.001  29.054  29.206  1.00  0.00     0.057 A 
ATOM     75  C   UNL A   1      38.290  28.990  30.410  1.00  0.00     0.134 A 
ATOM     76  C   UNL A   1      38.303  29.460  28.063  1.00  0.00     0.134 A 
ATOM     77  F   UNL A   1      38.902  28.591  31.534  1.00  0.00    -0.206 F 
ATOM     78  C   UNL A   1      36.931  29.297  30.473  1.00  0.00     0.040 A 
ATOM     79  C   UNL A   1      36.949  29.794  28.116  1.00  0.00     0.040 A 
ATOM     80  F   UNL A   1      38.931  29.550  26.882  1.00  0.00    -0.206 F 
ATOM     81  C   UNL A   1      36.257  29.706  29.323  1.00  0.00     0.006 A 
ENDBRANCH  53  74
BRANCH  65  82
ATOM     82  C   UNL A   1      44.846  32.706  30.114  1.00  0.00     0.057 A 
ATOM     83  C   UNL A   1      44.975  33.183  31.426  1.00  0.00     0.134 A 
ATOM     84  C   UNL A   1      44.960  33.637  29.074  1.00  0.00     0.134 A 
ATOM     85  F   UNL A   1      44.863  32.344  32.468  1.00  0.00    -0.206 F 
ATOM     86  C   UNL A   1      45.175  34.538  31.693  1.00  0.00     0.040 A 
ATOM     87  C   UNL A   1      45.186  34.991  29.327  1.00  0.00     0.040 A 
ATOM     88  F   UNL A   1      44.854  33.247  27.795  1.00  0.00    -0.206 F 
ATOM     89  C   UNL A   1      45.284  35.446  30.641  1.00  0.00     0.006 A 
ENDBRANCH  65  82
ENDBRANCH  39  40
ENDBRANCH  31  34
ENDBRANCH  29  30
ENDBRANCH  28  29
ENDBRANCH  27  28
ENDBRANCH   1  27
TORSDOF 16
ENDMDL
MODEL 3
REMARK VINA RESULT:     -11.8      5.119     10.497
REMARK SMILES CCc1ccc([C@H](C)[N@@H+]2[C@@H](C(=O)NCCCCCCNC(=O)c3ccc(-c4c5nc(c(-c6c(F)cccc6F)c6ccc([nH]6)c(-c6c(F)cccc6F)c6nc(c(-c7c(F)cccc7F)c7ccc4[nH]7)C=C6)C=C5)cc3)C[C@H]3CCCC[C@H]32)s1
REMARK SMILES IDX 16 1 15 2 14 3 13 4 11 5 12 6 10 8 9 9 83 10 77 12 78 13
REMARK SMILES IDX 82 14 79 15 81 16 80 17 7 18 8 19 6 20 3 21 4 22 84 23 5 24
REMARK SMILES IDX 2 25 1 26 17 27 18 28 19 29 20 30 21 31 22 33 23 34 24 35
REMARK SMILES IDX 76 36 25 37 75 38 26 39 27 40 28 41 69 42 29 43 74 44 68 45
REMARK SMILES IDX 70 46 30 47 73 48 67 49 66 50 31 52 57 53 40 54 56 55 41 56
REMARK SMILES IDX 44 57 55 58 71 59 42 60 43 61 54 63 72 64 45 65 32 66 33 67
REMARK SMILES IDX 38 68 34 69 35 70 37 71 39 72 36 73 58 74 59 75 64 76 60 77
REMARK SMILES IDX 61 78 63 79 65 80 62 81 46 82 47 83 52 84 48 85 49 86 51 87
REMARK SMILES IDX 53 88 50 89
REMARK H PARENT 13 7 9 11 20 32 70 51 44 62
REMARK Flexibility Score: inf
ROOT
ATOM      1  C   UNL A   1      37.579  21.871  24.997  1.00  0.00     0.002 C 
ENDROOT
BRANCH   1   2
ATOM      2  C   UNL A   1      36.771  22.988  24.335  1.00  0.00     0.021 C 
BRANCH   2   3
ATOM      3  C   UNL A   1      35.433  22.564  23.739  1.00  0.00     0.116 C 
BRANCH   3   4
ATOM      4  N   UNL A   1      34.870  23.552  22.841  1.00  0.00    -0.351 N 
ATOM      5  C   UNL A   1      33.991  24.569  23.136  1.00  0.00     0.278 C 
ATOM      6  O   UNL A   1      33.667  25.328  22.224  1.00  0.00    -0.268 OA
ATOM      7  H   UNL A   1      35.152  23.488  21.900  1.00  0.00     0.163 HD
BRANCH   5   8
ATOM      8  C   UNL A   1      33.444  24.644  24.581  1.00  0.00     0.275 C 
ATOM      9  N   UNL A   1      32.074  24.066  24.703  1.00  0.00    -0.315 N 
ATOM     10  C   UNL A   1      31.151  25.191  24.950  1.00  0.00     0.188 C 
ATOM     11  H   UNL A   1      31.768  23.610  23.843  1.00  0.00     0.349 HD
ATOM     12  C   UNL A   1      33.353  26.092  25.086  1.00  0.00     0.085 C 
ATOM     13  C   UNL A   1      31.982  26.199  25.737  1.00  0.00     0.054 C 
ATOM     14  C   UNL A   1      30.665  25.762  23.599  1.00  0.00     0.065 C 
ATOM     15  C   UNL A   1      31.404  27.611  25.782  1.00  0.00     0.010 C 
ATOM     16  C   UNL A   1      30.014  27.137  23.743  1.00  0.00     0.006 C 
ATOM     17  C   UNL A   1      30.952  28.128  24.422  1.00  0.00     0.001 C 
BRANCH   9  18
ATOM     18  C   UNL A   1      32.025  22.936  25.666  1.00  0.00     0.223 C 
ATOM     19  C   UNL A   1      30.769  22.857  26.562  1.00  0.00     0.082 C 
BRANCH  18  20
ATOM     20  C   UNL A   1      32.373  21.592  25.019  1.00  0.00     0.062 A 
ATOM     21  C   UNL A   1      33.330  19.341  24.511  1.00  0.00     0.005 A 
ATOM     22  C   UNL A   1      32.654  19.886  23.437  1.00  0.00     0.016 A 
ATOM     23  S   UNL A   1      33.266  20.386  25.855  1.00  0.00    -0.139 S 
ATOM     24  C   UNL A   1      32.104  21.172  23.727  1.00  0.00     0.022 A 
BRANCH  21  25
ATOM     25  C   UNL A   1      34.094  18.042  24.554  1.00  0.00     0.043 C 
ATOM     26  C   UNL A   1      33.910  17.132  23.346  1.00  0.00     0.010 C 
ENDBRANCH  21  25
ENDBRANCH  18  20
ENDBRANCH   9  18
ENDBRANCH   5   8
ENDBRANCH   3   4
ENDBRANCH   2   3
ENDBRANCH   1   2
BRANCH   1  27
ATOM     27  C   UNL A   1      37.138  20.443  24.666  1.00  0.00     0.002 C 
BRANCH  27  28
ATOM     28  C   UNL A   1      38.137  19.333  25.001  1.00  0.00     0.021 C 
BRANCH  28  29
ATOM     29  C   UNL A   1      39.285  19.727  25.927  1.00  0.00     0.116 C 
BRANCH  29  30
ATOM     30  N   UNL A   1      40.421  18.828  25.838  1.00  0.00    -0.352 N 
ATOM     31  C   UNL A   1      41.759  19.087  25.981  1.00  0.00     0.251 C 
ATOM     32  H   UNL A   1      40.196  17.889  25.645  1.00  0.00     0.163 HD
ATOM     33  O   UNL A   1      42.578  18.195  25.750  1.00  0.00    -0.269 OA
BRANCH  31  34
ATOM     34  C   UNL A   1      42.239  20.429  26.379  1.00  0.00     0.039 A 
ATOM     35  C   UNL A   1      42.681  21.297  25.377  1.00  0.00     0.014 A 
ATOM     36  C   UNL A   1      42.287  20.831  27.718  1.00  0.00     0.014 A 
ATOM     37  C   UNL A   1      43.121  22.580  25.709  1.00  0.00     0.010 A 
ATOM     38  C   UNL A   1      42.665  22.136  28.042  1.00  0.00     0.010 A 
ATOM     39  C   UNL A   1      43.089  23.022  27.042  1.00  0.00    -0.014 A 
BRANCH  39  40
ATOM     40  C   UNL A   1      43.484  24.414  27.382  1.00  0.00     0.031 A 
ATOM     41  C   UNL A   1      44.917  24.856  27.279  1.00  0.00     0.074 A 
ATOM     42  C   UNL A   1      42.544  25.277  27.813  1.00  0.00     0.049 A 
ATOM     43  N   UNL A   1      45.434  26.037  27.507  1.00  0.00    -0.248 NA
ATOM     44  C   UNL A   1      45.902  23.834  26.894  1.00  0.00     0.031 C 
ATOM     45  C   UNL A   1      41.130  24.956  28.018  1.00  0.00     0.029 A 
ATOM     46  N   UNL A   1      42.636  26.604  28.152  1.00  0.00    -0.354 N 
ATOM     47  C   UNL A   1      46.801  25.900  27.299  1.00  0.00     0.074 A 
ATOM     48  C   UNL A   1      47.040  24.508  26.979  1.00  0.00     0.031 C 
ATOM     49  C   UNL A   1      40.481  26.063  28.412  1.00  0.00     0.029 A 
ATOM     50  C   UNL A   1      41.433  27.164  28.510  1.00  0.00     0.049 A 
ATOM     51  H   UNL A   1      43.482  27.106  28.140  1.00  0.00     0.167 HD
ATOM     52  C   UNL A   1      47.766  26.850  27.345  1.00  0.00     0.037 A 
ATOM     53  C   UNL A   1      41.130  28.426  28.865  1.00  0.00     0.037 A 
ATOM     54  C   UNL A   1      47.526  28.239  27.643  1.00  0.00     0.049 A 
ATOM     55  C   UNL A   1      42.212  29.469  28.876  1.00  0.00     0.074 A 
ATOM     56  C   UNL A   1      48.430  29.287  27.661  1.00  0.00     0.029 A 
ATOM     57  N   UNL A   1      46.291  28.773  27.974  1.00  0.00    -0.354 N 
ATOM     58  N   UNL A   1      43.488  29.339  28.603  1.00  0.00    -0.248 NA
ATOM     59  C   UNL A   1      41.807  30.837  29.228  1.00  0.00     0.031 C 
ATOM     60  C   UNL A   1      47.747  30.450  28.037  1.00  0.00     0.029 A 
ATOM     61  C   UNL A   1      46.409  30.133  28.210  1.00  0.00     0.049 A 
ATOM     62  H   UNL A   1      45.450  28.262  28.031  1.00  0.00     0.167 HD
ATOM     63  C   UNL A   1      44.033  30.611  28.724  1.00  0.00     0.074 A 
ATOM     64  C   UNL A   1      42.945  31.499  29.077  1.00  0.00     0.031 C 
ATOM     65  C   UNL A   1      45.319  31.006  28.558  1.00  0.00     0.037 A 
BRANCH  52  66
ATOM     66  C   UNL A   1      49.175  26.417  27.059  1.00  0.00     0.057 A 
ATOM     67  C   UNL A   1      50.034  25.989  28.080  1.00  0.00     0.134 A 
ATOM     68  C   UNL A   1      49.668  26.393  25.749  1.00  0.00     0.134 A 
ATOM     69  F   UNL A   1      49.629  25.997  29.359  1.00  0.00    -0.206 F 
ATOM     70  C   UNL A   1      51.342  25.578  27.811  1.00  0.00     0.040 A 
ATOM     71  C   UNL A   1      50.965  25.961  25.464  1.00  0.00     0.040 A 
ATOM     72  F   UNL A   1      48.896  26.784  24.723  1.00  0.00    -0.206 F 
ATOM     73  C   UNL A   1      51.807  25.557  26.498  1.00  0.00     0.006 A 
ENDBRANCH  52  66
BRANCH  53  74
ATOM     74  C   UNL A   1      39.727  28.787  29.189  1.00  0.00     0.057 A 
ATOM     75  C   UNL A   1      38.853  29.245  28.196  1.00  0.00     0.134 A 
ATOM     76  C   UNL A   1      39.231  28.689  30.493  1.00  0.00     0.134 A 
ATOM     77  F   UNL A   1      39.278  29.376  26.931  1.00  0.00    -0.206 F 
ATOM     78  C   UNL A   1      37.540  29.611  28.491  1.00  0.00     0.040 A 
ATOM     79  C   UNL A   1      37.912  29.030  30.799  1.00  0.00     0.040 A 
ATOM     80  F   UNL A   1      40.017  28.249  31.487  1.00  0.00    -0.206 F 
ATOM     81  C   UNL A   1      37.064  29.499  29.797  1.00  0.00     0.006 A 
ENDBRANCH  53  74
BRANCH  65  82
ATOM     82  C   UNL A   1      45.606  32.469  28.727  1.00  0.00     0.057 A 
ATOM     83  C   UNL A   1      45.518  33.370  27.657  1.00  0.00     0.134 A 
ATOM     84  C   UNL A   1      45.969  32.984  29.978  1.00  0.00     0.134 A 
ATOM     85  F   UNL A   1      45.187  32.938  26.430  1.00  0.00    -0.206 F 
ATOM     86  C   UNL A   1      45.813  34.724  27.818  1.00  0.00     0.040 A 
ATOM     87  C   UNL A   1      46.241  34.341  30.158  1.00  0.00     0.040 A 
ATOM     88  F   UNL A   1      46.063  32.177  31.046  1.00  0.00    -0.206 F 
ATOM     89  C   UNL A   1      46.173  35.213  29.073  1.00  0.00     0.006 A 
ENDBRANCH  65  82
ENDBRANCH  39  40
ENDBRANCH  31  34
ENDBRANCH  29  30
ENDBRANCH  28  29
ENDBRANCH  27  28
ENDBRANCH   1  27
TORSDOF 16
ENDMDL
