MODEL 1
REMARK VINA RESULT:     -11.8      0.000      0.000
REMARK SMILES CC[C@H](c1ccc(OC)cc1)[N@H+]1CC[C@H](C(=O)NCCCCCCNC(=O)c2ccc(-c3c4nc(c(-c5c(F)cccc5F)c5ccc([nH]5)c(-c5c(F)cccc5F)c5nc(c(-c6c(F)cccc6F)c6ccc3[nH]6)C=C5)C=C4)cc2)[C@@H]1C
REMARK SMILES IDX 21 1 20 2 19 3 18 4 16 5 17 6 15 8 12 9 13 10 82 11 14 13
REMARK SMILES IDX 83 14 3 15 2 16 1 17 4 18 5 19 11 20 6 21 10 22 7 23 8 24
REMARK SMILES IDX 9 25 22 26 23 27 24 28 25 29 26 30 27 32 28 33 29 34 81 35
REMARK SMILES IDX 30 36 80 37 31 38 32 39 33 40 74 41 34 42 79 43 73 44 75 45
REMARK SMILES IDX 35 46 78 47 72 48 71 49 36 51 62 52 45 53 61 54 46 55 49 56
REMARK SMILES IDX 60 57 76 58 47 59 48 60 59 62 77 63 50 64 37 65 38 66 43 67
REMARK SMILES IDX 39 68 40 69 42 70 44 71 41 72 63 73 64 74 69 75 65 76 66 77
REMARK SMILES IDX 68 78 70 79 67 80 51 81 52 82 57 83 53 84 54 85 56 86 58 87
REMARK SMILES IDX 55 88
REMARK H PARENT 18 7 12 12 25 31 75 50 49 61
REMARK Flexibility Score: inf
ROOT
ATOM      1  C   UNL A   1      33.031  30.054  26.628  1.00  0.00     0.002 C 
ENDROOT
BRANCH   1   2
ATOM      2  C   UNL A   1      33.627  28.994  25.694  1.00  0.00     0.021 C 
BRANCH   2   3
ATOM      3  C   UNL A   1      33.492  27.556  26.181  1.00  0.00     0.116 C 
BRANCH   3   4
ATOM      4  N   UNL A   1      32.120  27.200  26.478  1.00  0.00    -0.356 N 
ATOM      5  C   UNL A   1      31.494  25.993  26.386  1.00  0.00     0.229 C 
ATOM      6  O   UNL A   1      30.295  25.978  26.657  1.00  0.00    -0.275 OA
ATOM      7  H   UNL A   1      31.554  27.942  26.793  1.00  0.00     0.163 HD
BRANCH   5   8
ATOM      8  C   UNL A   1      32.275  24.785  25.877  1.00  0.00     0.142 C 
ATOM      9  N   UNL A   1      32.085  22.827  24.509  1.00  0.00    -0.326 N 
ATOM     10  C   UNL A   1      31.489  22.504  25.797  1.00  0.00     0.264 C 
ATOM     11  C   UNL A   1      31.996  24.308  24.429  1.00  0.00     0.194 C 
ATOM     12  H   UNL A   1      31.573  22.402  23.737  1.00  0.00     0.348 HD
ATOM     13  C   UNL A   1      32.106  23.519  26.732  1.00  0.00     0.081 C 
ATOM     14  C   UNL A   1      30.624  24.654  23.827  1.00  0.00     0.076 C 
BRANCH   9  15
ATOM     15  C   UNL A   1      33.359  22.147  24.133  1.00  0.00     0.215 C 
BRANCH  15  16
ATOM     16  C   UNL A   1      34.346  22.793  23.097  1.00  0.00     0.067 C 
ATOM     17  C   UNL A   1      35.771  23.109  23.528  1.00  0.00     0.010 C 
ENDBRANCH  15  16
BRANCH  15  18
ATOM     18  C   UNL A   1      33.304  20.619  24.079  1.00  0.00     0.010 A 
ATOM     19  C   UNL A   1      34.255  19.819  24.730  1.00  0.00     0.014 A 
ATOM     20  C   UNL A   1      32.335  19.976  23.292  1.00  0.00     0.014 A 
ATOM     21  C   UNL A   1      34.260  18.433  24.574  1.00  0.00     0.047 A 
ATOM     22  C   UNL A   1      32.332  18.583  23.146  1.00  0.00     0.047 A 
ATOM     23  C   UNL A   1      33.301  17.808  23.780  1.00  0.00     0.118 A 
BRANCH  23  24
ATOM     24  O   UNL A   1      33.434  16.450  23.694  1.00  0.00    -0.497 OA
ATOM     25  C   UNL A   1      33.122  15.706  24.864  1.00  0.00     0.278 C 
ENDBRANCH  23  24
ENDBRANCH  15  18
ENDBRANCH   9  15
ENDBRANCH   5   8
ENDBRANCH   3   4
ENDBRANCH   2   3
ENDBRANCH   1   2
BRANCH   1  26
ATOM     26  C   UNL A   1      31.694  30.657  26.187  1.00  0.00     0.002 C 
BRANCH  26  27
ATOM     27  C   UNL A   1      31.425  32.084  26.665  1.00  0.00     0.021 C 
BRANCH  27  28
ATOM     28  C   UNL A   1      32.616  32.787  27.303  1.00  0.00     0.116 C 
BRANCH  28  29
ATOM     29  N   UNL A   1      32.343  34.176  27.627  1.00  0.00    -0.352 N 
ATOM     30  C   UNL A   1      32.959  34.988  28.544  1.00  0.00     0.251 C 
ATOM     31  H   UNL A   1      31.613  34.594  27.115  1.00  0.00     0.163 HD
ATOM     32  O   UNL A   1      32.509  36.105  28.787  1.00  0.00    -0.269 OA
BRANCH  30  33
ATOM     33  C   UNL A   1      34.152  34.500  29.266  1.00  0.00     0.039 A 
ATOM     34  C   UNL A   1      33.985  33.932  30.530  1.00  0.00     0.014 A 
ATOM     35  C   UNL A   1      35.425  34.592  28.695  1.00  0.00     0.014 A 
ATOM     36  C   UNL A   1      35.088  33.401  31.198  1.00  0.00     0.010 A 
ATOM     37  C   UNL A   1      36.509  33.991  29.327  1.00  0.00     0.010 A 
ATOM     38  C   UNL A   1      36.353  33.396  30.588  1.00  0.00    -0.014 A 
BRANCH  38  39
ATOM     39  C   UNL A   1      37.522  32.770  31.254  1.00  0.00     0.031 A 
ATOM     40  C   UNL A   1      38.191  31.572  30.642  1.00  0.00     0.074 A 
ATOM     41  C   UNL A   1      37.938  33.242  32.445  1.00  0.00     0.049 A 
ATOM     42  N   UNL A   1      39.187  30.857  31.101  1.00  0.00    -0.248 NA
ATOM     43  C   UNL A   1      37.651  31.095  29.360  1.00  0.00     0.031 C 
ATOM     44  C   UNL A   1      37.333  34.361  33.170  1.00  0.00     0.029 A 
ATOM     45  N   UNL A   1      38.959  32.829  33.264  1.00  0.00    -0.354 N 
ATOM     46  C   UNL A   1      39.379  29.839  30.176  1.00  0.00     0.074 A 
ATOM     47  C   UNL A   1      38.363  29.996  29.159  1.00  0.00     0.031 C 
ATOM     48  C   UNL A   1      38.005  34.557  34.315  1.00  0.00     0.029 A 
ATOM     49  C   UNL A   1      39.060  33.555  34.425  1.00  0.00     0.049 A 
ATOM     50  H   UNL A   1      39.561  32.083  33.040  1.00  0.00     0.167 HD
ATOM     51  C   UNL A   1      40.328  28.873  30.165  1.00  0.00     0.037 A 
ATOM     52  C   UNL A   1      39.903  33.423  35.467  1.00  0.00     0.037 A 
ATOM     53  C   UNL A   1      41.351  28.736  31.169  1.00  0.00     0.049 A 
ATOM     54  C   UNL A   1      40.954  32.350  35.430  1.00  0.00     0.074 A 
ATOM     55  C   UNL A   1      42.407  27.843  31.207  1.00  0.00     0.029 A 
ATOM     56  N   UNL A   1      41.439  29.508  32.318  1.00  0.00    -0.354 N 
ATOM     57  N   UNL A   1      41.180  31.447  34.506  1.00  0.00    -0.248 NA
ATOM     58  C   UNL A   1      41.873  32.281  36.575  1.00  0.00     0.031 C 
ATOM     59  C   UNL A   1      43.098  28.035  32.408  1.00  0.00     0.029 A 
ATOM     60  C   UNL A   1      42.511  29.089  33.089  1.00  0.00     0.049 A 
ATOM     61  H   UNL A   1      40.829  30.245  32.552  1.00  0.00     0.167 HD
ATOM     62  C   UNL A   1      42.280  30.720  34.945  1.00  0.00     0.074 A 
ATOM     63  C   UNL A   1      42.683  31.298  36.210  1.00  0.00     0.031 C 
ATOM     64  C   UNL A   1      42.900  29.670  34.350  1.00  0.00     0.037 A 
BRANCH  51  65
ATOM     65  C   UNL A   1      40.294  27.881  29.037  1.00  0.00     0.057 A 
ATOM     66  C   UNL A   1      41.019  28.075  27.853  1.00  0.00     0.134 A 
ATOM     67  C   UNL A   1      39.542  26.705  29.145  1.00  0.00     0.134 A 
ATOM     68  F   UNL A   1      41.753  29.185  27.677  1.00  0.00    -0.206 F 
ATOM     69  C   UNL A   1      40.968  27.154  26.805  1.00  0.00     0.040 A 
ATOM     70  C   UNL A   1      39.507  25.761  28.118  1.00  0.00     0.040 A 
ATOM     71  F   UNL A   1      38.829  26.451  30.254  1.00  0.00    -0.206 F 
ATOM     72  C   UNL A   1      40.215  25.989  26.939  1.00  0.00     0.006 A 
ENDBRANCH  51  65
BRANCH  52  73
ATOM     73  C   UNL A   1      39.790  34.344  36.626  1.00  0.00     0.057 A 
ATOM     74  C   UNL A   1      39.106  33.971  37.788  1.00  0.00     0.134 A 
ATOM     75  C   UNL A   1      40.379  35.615  36.604  1.00  0.00     0.134 A 
ATOM     76  F   UNL A   1      38.507  32.773  37.862  1.00  0.00    -0.206 F 
ATOM     77  C   UNL A   1      38.998  34.831  38.882  1.00  0.00     0.040 A 
ATOM     78  C   UNL A   1      40.302  36.475  37.701  1.00  0.00     0.040 A 
ATOM     79  F   UNL A   1      41.058  36.030  35.524  1.00  0.00    -0.206 F 
ATOM     80  C   UNL A   1      39.604  36.086  38.842  1.00  0.00     0.006 A 
ENDBRANCH  52  73
BRANCH  64  81
ATOM     81  C   UNL A   1      44.097  29.094  35.049  1.00  0.00     0.057 A 
ATOM     82  C   UNL A   1      45.391  29.581  34.828  1.00  0.00     0.134 A 
ATOM     83  C   UNL A   1      43.946  28.064  35.987  1.00  0.00     0.134 A 
ATOM     84  F   UNL A   1      45.607  30.558  33.934  1.00  0.00    -0.206 F 
ATOM     85  C   UNL A   1      46.495  29.049  35.497  1.00  0.00     0.040 A 
ATOM     86  C   UNL A   1      45.037  27.545  36.685  1.00  0.00     0.040 A 
ATOM     87  F   UNL A   1      42.733  27.557  36.253  1.00  0.00    -0.206 F 
ATOM     88  C   UNL A   1      46.318  28.033  36.435  1.00  0.00     0.006 A 
ENDBRANCH  64  81
ENDBRANCH  38  39
ENDBRANCH  30  33
ENDBRANCH  28  29
ENDBRANCH  27  28
ENDBRANCH  26  27
ENDBRANCH   1  26
TORSDOF 17
ENDMDL
MODEL 2
REMARK VINA RESULT:     -11.5      4.382      9.890
REMARK SMILES CC[C@H](c1ccc(OC)cc1)[N@H+]1CC[C@H](C(=O)NCCCCCCNC(=O)c2ccc(-c3c4nc(c(-c5c(F)cccc5F)c5ccc([nH]5)c(-c5c(F)cccc5F)c5nc(c(-c6c(F)cccc6F)c6ccc3[nH]6)C=C5)C=C4)cc2)[C@@H]1C
REMARK SMILES IDX 21 1 20 2 19 3 18 4 16 5 17 6 15 8 12 9 13 10 82 11 14 13
REMARK SMILES IDX 83 14 3 15 2 16 1 17 4 18 5 19 11 20 6 21 10 22 7 23 8 24
REMARK SMILES IDX 9 25 22 26 23 27 24 28 25 29 26 30 27 32 28 33 29 34 81 35
REMARK SMILES IDX 30 36 80 37 31 38 32 39 33 40 74 41 34 42 79 43 73 44 75 45
REMARK SMILES IDX 35 46 78 47 72 48 71 49 36 51 62 52 45 53 61 54 46 55 49 56
REMARK SMILES IDX 60 57 76 58 47 59 48 60 59 62 77 63 50 64 37 65 38 66 43 67
REMARK SMILES IDX 39 68 40 69 42 70 44 71 41 72 63 73 64 74 69 75 65 76 66 77
REMARK SMILES IDX 68 78 70 79 67 80 51 81 52 82 57 83 53 84 54 85 56 86 58 87
REMARK SMILES IDX 55 88
REMARK H PARENT 18 7 12 12 25 31 75 50 49 61
REMARK Flexibility Score: inf
ROOT
ATOM      1  C   UNL A   1      35.037  20.637  24.976  1.00  0.00     0.002 C 
ENDROOT
BRANCH   1   2
ATOM      2  C   UNL A   1      33.706  19.918  24.726  1.00  0.00     0.021 C 
BRANCH   2   3
ATOM      3  C   UNL A   1      32.461  20.753  25.001  1.00  0.00     0.116 C 
BRANCH   3   4
ATOM      4  N   UNL A   1      32.493  21.378  26.307  1.00  0.00    -0.356 N 
ATOM      5  C   UNL A   1      32.067  22.615  26.691  1.00  0.00     0.229 C 
ATOM      6  O   UNL A   1      32.258  22.917  27.867  1.00  0.00    -0.275 OA
ATOM      7  H   UNL A   1      32.881  20.827  27.025  1.00  0.00     0.163 HD
BRANCH   5   8
ATOM      8  C   UNL A   1      31.480  23.559  25.647  1.00  0.00     0.142 C 
ATOM      9  N   UNL A   1      31.626  25.794  24.795  1.00  0.00    -0.326 N 
ATOM     10  C   UNL A   1      30.817  25.852  26.003  1.00  0.00     0.264 C 
ATOM     11  C   UNL A   1      32.443  24.564  24.965  1.00  0.00     0.194 C 
ATOM     12  H   UNL A   1      32.233  26.608  24.706  1.00  0.00     0.348 HD
ATOM     13  C   UNL A   1      30.326  24.432  26.164  1.00  0.00     0.081 C 
ATOM     14  C   UNL A   1      33.712  24.958  25.738  1.00  0.00     0.076 C 
BRANCH   9  15
ATOM     15  C   UNL A   1      30.959  26.057  23.487  1.00  0.00     0.215 C 
BRANCH  15  16
ATOM     16  C   UNL A   1      31.697  25.777  22.130  1.00  0.00     0.067 C 
ATOM     17  C   UNL A   1      33.014  26.485  21.842  1.00  0.00     0.010 C 
ENDBRANCH  15  16
BRANCH  15  18
ATOM     18  C   UNL A   1      30.020  27.265  23.453  1.00  0.00     0.010 A 
ATOM     19  C   UNL A   1      28.624  27.121  23.475  1.00  0.00     0.014 A 
ATOM     20  C   UNL A   1      30.543  28.560  23.309  1.00  0.00     0.014 A 
ATOM     21  C   UNL A   1      27.783  28.223  23.325  1.00  0.00     0.047 A 
ATOM     22  C   UNL A   1      29.697  29.668  23.172  1.00  0.00     0.047 A 
ATOM     23  C   UNL A   1      28.314  29.502  23.171  1.00  0.00     0.118 A 
BRANCH  23  24
ATOM     24  O   UNL A   1      27.381  30.487  23.010  1.00  0.00    -0.497 OA
ATOM     25  C   UNL A   1      27.859  31.749  22.566  1.00  0.00     0.278 C 
ENDBRANCH  23  24
ENDBRANCH  15  18
ENDBRANCH   9  15
ENDBRANCH   5   8
ENDBRANCH   3   4
ENDBRANCH   2   3
ENDBRANCH   1   2
BRANCH   1  26
ATOM     26  C   UNL A   1      36.289  19.756  24.949  1.00  0.00     0.002 C 
BRANCH  26  27
ATOM     27  C   UNL A   1      37.592  20.471  24.593  1.00  0.00     0.021 C 
BRANCH  27  28
ATOM     28  C   UNL A   1      38.593  20.595  25.734  1.00  0.00     0.116 C 
BRANCH  28  29
ATOM     29  N   UNL A   1      39.631  19.579  25.686  1.00  0.00    -0.352 N 
ATOM     30  C   UNL A   1      40.961  19.686  25.998  1.00  0.00     0.251 C 
ATOM     31  H   UNL A   1      39.336  18.688  25.387  1.00  0.00     0.163 HD
ATOM     32  O   UNL A   1      41.730  18.756  25.768  1.00  0.00    -0.269 OA
BRANCH  30  33
ATOM     33  C   UNL A   1      41.476  20.941  26.582  1.00  0.00     0.039 A 
ATOM     34  C   UNL A   1      41.994  21.916  25.728  1.00  0.00     0.014 A 
ATOM     35  C   UNL A   1      41.436  21.160  27.962  1.00  0.00     0.014 A 
ATOM     36  C   UNL A   1      42.419  23.137  26.253  1.00  0.00     0.010 A 
ATOM     37  C   UNL A   1      41.785  22.406  28.473  1.00  0.00     0.010 A 
ATOM     38  C   UNL A   1      42.287  23.404  27.625  1.00  0.00    -0.014 A 
BRANCH  38  39
ATOM     39  C   UNL A   1      42.666  24.723  28.188  1.00  0.00     0.031 A 
ATOM     40  C   UNL A   1      41.623  25.783  28.407  1.00  0.00     0.074 A 
ATOM     41  C   UNL A   1      43.962  24.990  28.439  1.00  0.00     0.049 A 
ATOM     42  N   UNL A   1      41.769  27.011  28.837  1.00  0.00    -0.248 NA
ATOM     43  C   UNL A   1      40.236  25.425  28.070  1.00  0.00     0.031 C 
ATOM     44  C   UNL A   1      45.076  24.066  28.212  1.00  0.00     0.029 A 
ATOM     45  N   UNL A   1      44.566  26.122  28.926  1.00  0.00    -0.354 N 
ATOM     46  C   UNL A   1      40.500  27.575  28.804  1.00  0.00     0.074 A 
ATOM     47  C   UNL A   1      39.607  26.575  28.262  1.00  0.00     0.031 C 
ATOM     48  C   UNL A   1      46.222  24.661  28.576  1.00  0.00     0.029 A 
ATOM     49  C   UNL A   1      45.931  26.019  29.023  1.00  0.00     0.049 A 
ATOM     50  H   UNL A   1      44.066  26.932  29.181  1.00  0.00     0.167 HD
ATOM     51  C   UNL A   1      40.112  28.809  29.207  1.00  0.00     0.037 A 
ATOM     52  C   UNL A   1      46.849  26.921  29.419  1.00  0.00     0.037 A 
ATOM     53  C   UNL A   1      41.003  29.791  29.767  1.00  0.00     0.049 A 
ATOM     54  C   UNL A   1      46.395  28.281  29.872  1.00  0.00     0.074 A 
ATOM     55  C   UNL A   1      40.696  31.038  30.281  1.00  0.00     0.029 A 
ATOM     56  N   UNL A   1      42.378  29.641  29.875  1.00  0.00    -0.354 N 
ATOM     57  N   UNL A   1      45.181  28.773  29.918  1.00  0.00    -0.248 NA
ATOM     58  C   UNL A   1      47.437  29.208  30.334  1.00  0.00     0.031 C 
ATOM     59  C   UNL A   1      41.892  31.666  30.646  1.00  0.00     0.029 A 
ATOM     60  C   UNL A   1      42.938  30.787  30.417  1.00  0.00     0.049 A 
ATOM     61  H   UNL A   1      42.882  28.839  29.607  1.00  0.00     0.167 HD
ATOM     62  C   UNL A   1      45.308  30.055  30.437  1.00  0.00     0.074 A 
ATOM     63  C   UNL A   1      46.717  30.258  30.703  1.00  0.00     0.031 C 
ATOM     64  C   UNL A   1      44.344  30.979  30.673  1.00  0.00     0.037 A 
BRANCH  51  65
ATOM     65  C   UNL A   1      38.662  29.166  29.044  1.00  0.00     0.057 A 
ATOM     66  C   UNL A   1      37.751  29.086  30.107  1.00  0.00     0.134 A 
ATOM     67  C   UNL A   1      38.174  29.617  27.811  1.00  0.00     0.134 A 
ATOM     68  F   UNL A   1      38.149  28.652  31.313  1.00  0.00    -0.206 F 
ATOM     69  C   UNL A   1      36.403  29.406  29.940  1.00  0.00     0.040 A 
ATOM     70  C   UNL A   1      36.835  29.970  27.640  1.00  0.00     0.040 A 
ATOM     71  F   UNL A   1      38.991  29.725  26.753  1.00  0.00    -0.206 F 
ATOM     72  C   UNL A   1      35.942  29.856  28.704  1.00  0.00     0.006 A 
ENDBRANCH  51  65
BRANCH  52  73
ATOM     73  C   UNL A   1      48.288  26.556  29.418  1.00  0.00     0.057 A 
ATOM     74  C   UNL A   1      48.862  25.857  30.486  1.00  0.00     0.134 A 
ATOM     75  C   UNL A   1      49.122  26.884  28.340  1.00  0.00     0.134 A 
ATOM     76  F   UNL A   1      48.119  25.529  31.554  1.00  0.00    -0.206 F 
ATOM     77  C   UNL A   1      50.213  25.508  30.491  1.00  0.00     0.040 A 
ATOM     78  C   UNL A   1      50.468  26.518  28.320  1.00  0.00     0.040 A 
ATOM     79  F   UNL A   1      48.631  27.545  27.281  1.00  0.00    -0.206 F 
ATOM     80  C   UNL A   1      51.019  25.834  29.401  1.00  0.00     0.006 A 
ENDBRANCH  52  73
BRANCH  64  81
ATOM     81  C   UNL A   1      44.776  32.286  31.273  1.00  0.00     0.057 A 
ATOM     82  C   UNL A   1      44.868  32.472  32.658  1.00  0.00     0.134 A 
ATOM     83  C   UNL A   1      45.144  33.359  30.451  1.00  0.00     0.134 A 
ATOM     84  F   UNL A   1      44.518  31.489  33.502  1.00  0.00    -0.206 F 
ATOM     85  C   UNL A   1      45.288  33.686  33.204  1.00  0.00     0.040 A 
ATOM     86  C   UNL A   1      45.595  34.567  30.984  1.00  0.00     0.040 A 
ATOM     87  F   UNL A   1      45.089  33.245  29.116  1.00  0.00    -0.206 F 
ATOM     88  C   UNL A   1      45.662  34.735  32.366  1.00  0.00     0.006 A 
ENDBRANCH  64  81
ENDBRANCH  38  39
ENDBRANCH  30  33
ENDBRANCH  28  29
ENDBRANCH  27  28
ENDBRANCH  26  27
ENDBRANCH   1  26
TORSDOF 17
ENDMDL
MODEL 3
REMARK VINA RESULT:     -11.3      1.588      6.418
REMARK SMILES CC[C@H](c1ccc(OC)cc1)[N@H+]1CC[C@H](C(=O)NCCCCCCNC(=O)c2ccc(-c3c4nc(c(-c5c(F)cccc5F)c5ccc([nH]5)c(-c5c(F)cccc5F)c5nc(c(-c6c(F)cccc6F)c6ccc3[nH]6)C=C5)C=C4)cc2)[C@@H]1C
REMARK SMILES IDX 21 1 20 2 19 3 18 4 16 5 17 6 15 8 12 9 13 10 82 11 14 13
REMARK SMILES IDX 83 14 3 15 2 16 1 17 4 18 5 19 11 20 6 21 10 22 7 23 8 24
REMARK SMILES IDX 9 25 22 26 23 27 24 28 25 29 26 30 27 32 28 33 29 34 81 35
REMARK SMILES IDX 30 36 80 37 31 38 32 39 33 40 74 41 34 42 79 43 73 44 75 45
REMARK SMILES IDX 35 46 78 47 72 48 71 49 36 51 62 52 45 53 61 54 46 55 49 56
REMARK SMILES IDX 60 57 76 58 47 59 48 60 59 62 77 63 50 64 37 65 38 66 43 67
REMARK SMILES IDX 39 68 40 69 42 70 44 71 41 72 63 73 64 74 69 75 65 76 66 77
REMARK SMILES IDX 68 78 70 79 67 80 51 81 52 82 57 83 53 84 54 85 56 86 58 87
REMARK SMILES IDX 55 88
REMARK H PARENT 18 7 12 12 25 31 75 50 49 61
REMARK Flexibility Score: inf
ROOT
ATOM      1  C   UNL A   1      32.074  29.728  25.262  1.00  0.00     0.002 C 
ENDROOT
BRANCH   1   2
ATOM      2  C   UNL A   1      31.034  28.801  24.621  1.00  0.00     0.021 C 
BRANCH   2   3
ATOM      3  C   UNL A   1      31.056  28.765  23.098  1.00  0.00     0.116 C 
BRANCH   3   4
ATOM      4  N   UNL A   1      32.401  28.684  22.566  1.00  0.00    -0.356 N 
ATOM      5  C   UNL A   1      33.182  27.591  22.333  1.00  0.00     0.229 C 
ATOM      6  O   UNL A   1      34.317  27.811  21.917  1.00  0.00    -0.275 OA
ATOM      7  H   UNL A   1      32.814  29.550  22.340  1.00  0.00     0.163 HD
BRANCH   5   8
ATOM      8  C   UNL A   1      32.646  26.205  22.680  1.00  0.00     0.142 C 
ATOM      9  N   UNL A   1      33.097  24.261  24.004  1.00  0.00    -0.326 N 
ATOM     10  C   UNL A   1      33.934  24.169  22.816  1.00  0.00     0.264 C 
ATOM     11  C   UNL A   1      32.818  25.714  24.139  1.00  0.00     0.194 C 
ATOM     12  H   UNL A   1      33.579  23.917  24.835  1.00  0.00     0.348 HD
ATOM     13  C   UNL A   1      33.235  25.071  21.826  1.00  0.00     0.081 C 
ATOM     14  C   UNL A   1      33.965  26.328  24.958  1.00  0.00     0.076 C 
BRANCH   9  15
ATOM     15  C   UNL A   1      31.983  23.282  24.158  1.00  0.00     0.215 C 
BRANCH  15  16
ATOM     16  C   UNL A   1      30.876  23.480  25.255  1.00  0.00     0.067 C 
ATOM     17  C   UNL A   1      31.295  23.675  26.705  1.00  0.00     0.010 C 
ENDBRANCH  15  16
BRANCH  15  18
ATOM     18  C   UNL A   1      32.342  21.820  23.886  1.00  0.00     0.010 A 
ATOM     19  C   UNL A   1      31.918  21.155  22.725  1.00  0.00     0.014 A 
ATOM     20  C   UNL A   1      33.041  21.075  24.849  1.00  0.00     0.014 A 
ATOM     21  C   UNL A   1      32.153  19.792  22.548  1.00  0.00     0.047 A 
ATOM     22  C   UNL A   1      33.289  19.709  24.664  1.00  0.00     0.047 A 
ATOM     23  C   UNL A   1      32.838  19.061  23.516  1.00  0.00     0.118 A 
BRANCH  23  24
ATOM     24  O   UNL A   1      32.980  17.732  23.228  1.00  0.00    -0.497 OA
ATOM     25  C   UNL A   1      34.133  17.088  23.753  1.00  0.00     0.278 C 
ENDBRANCH  23  24
ENDBRANCH  15  18
ENDBRANCH   9  15
ENDBRANCH   5   8
ENDBRANCH   3   4
ENDBRANCH   2   3
ENDBRANCH   1   2
BRANCH   1  26
ATOM     26  C   UNL A   1      31.771  30.185  26.692  1.00  0.00     0.002 C 
BRANCH  26  27
ATOM     27  C   UNL A   1      31.522  31.683  26.868  1.00  0.00     0.021 C 
BRANCH  27  28
ATOM     28  C   UNL A   1      32.775  32.548  26.882  1.00  0.00     0.116 C 
BRANCH  28  29
ATOM     29  N   UNL A   1      32.530  33.885  27.393  1.00  0.00    -0.352 N 
ATOM     30  C   UNL A   1      33.134  34.536  28.438  1.00  0.00     0.251 C 
ATOM     31  H   UNL A   1      31.833  34.397  26.923  1.00  0.00     0.163 HD
ATOM     32  O   UNL A   1      32.707  35.621  28.824  1.00  0.00    -0.269 OA
BRANCH  30  33
ATOM     33  C   UNL A   1      34.283  33.909  29.123  1.00  0.00     0.039 A 
ATOM     34  C   UNL A   1      34.036  32.992  30.145  1.00  0.00     0.014 A 
ATOM     35  C   UNL A   1      35.595  34.216  28.750  1.00  0.00     0.014 A 
ATOM     36  C   UNL A   1      35.105  32.335  30.756  1.00  0.00     0.010 A 
ATOM     37  C   UNL A   1      36.653  33.503  29.304  1.00  0.00     0.010 A 
ATOM     38  C   UNL A   1      36.420  32.561  30.317  1.00  0.00    -0.014 A 
BRANCH  38  39
ATOM     39  C   UNL A   1      37.561  31.818  30.906  1.00  0.00     0.031 A 
ATOM     40  C   UNL A   1      38.050  32.151  32.287  1.00  0.00     0.074 A 
ATOM     41  C   UNL A   1      38.199  30.888  30.170  1.00  0.00     0.049 A 
ATOM     42  N   UNL A   1      39.064  31.652  32.948  1.00  0.00    -0.248 NA
ATOM     43  C   UNL A   1      37.323  33.206  33.010  1.00  0.00     0.031 C 
ATOM     44  C   UNL A   1      37.857  30.517  28.795  1.00  0.00     0.029 A 
ATOM     45  N   UNL A   1      39.279  30.096  30.468  1.00  0.00    -0.354 N 
ATOM     46  C   UNL A   1      39.106  32.343  34.152  1.00  0.00     0.074 A 
ATOM     47  C   UNL A   1      38.052  33.332  34.108  1.00  0.00     0.031 C 
ATOM     48  C   UNL A   1      38.698  29.559  28.377  1.00  0.00     0.029 A 
ATOM     49  C   UNL A   1      39.661  29.275  29.436  1.00  0.00     0.049 A 
ATOM     50  H   UNL A   1      39.737  30.115  31.339  1.00  0.00     0.167 HD
ATOM     51  C   UNL A   1      39.937  32.157  35.206  1.00  0.00     0.037 A 
ATOM     52  C   UNL A   1      40.680  28.399  29.348  1.00  0.00     0.037 A 
ATOM     53  C   UNL A   1      40.969  31.154  35.252  1.00  0.00     0.049 A 
ATOM     54  C   UNL A   1      41.583  28.201  30.532  1.00  0.00     0.074 A 
ATOM     55  C   UNL A   1      41.808  30.830  36.302  1.00  0.00     0.029 A 
ATOM     56  N   UNL A   1      41.309  30.321  34.196  1.00  0.00    -0.354 N 
ATOM     57  N   UNL A   1      41.558  28.801  31.699  1.00  0.00    -0.248 NA
ATOM     58  C   UNL A   1      42.650  27.201  30.394  1.00  0.00     0.031 C 
ATOM     59  C   UNL A   1      42.696  29.842  35.863  1.00  0.00     0.029 A 
ATOM     60  C   UNL A   1      42.370  29.506  34.559  1.00  0.00     0.049 A 
ATOM     61  H   UNL A   1      40.864  30.310  33.318  1.00  0.00     0.167 HD
ATOM     62  C   UNL A   1      42.587  28.234  32.440  1.00  0.00     0.074 A 
ATOM     63  C   UNL A   1      43.206  27.233  31.596  1.00  0.00     0.031 C 
ATOM     64  C   UNL A   1      42.981  28.516  33.707  1.00  0.00     0.037 A 
BRANCH  51  65
ATOM     65  C   UNL A   1      39.767  33.066  36.391  1.00  0.00     0.057 A 
ATOM     66  C   UNL A   1      40.490  34.259  36.523  1.00  0.00     0.134 A 
ATOM     67  C   UNL A   1      38.852  32.752  37.403  1.00  0.00     0.134 A 
ATOM     68  F   UNL A   1      41.391  34.616  35.595  1.00  0.00    -0.206 F 
ATOM     69  C   UNL A   1      40.335  35.089  37.635  1.00  0.00     0.040 A 
ATOM     70  C   UNL A   1      38.665  33.589  38.505  1.00  0.00     0.040 A 
ATOM     71  F   UNL A   1      38.121  31.629  37.338  1.00  0.00    -0.206 F 
ATOM     72  C   UNL A   1      39.415  34.757  38.627  1.00  0.00     0.006 A 
ENDBRANCH  51  65
BRANCH  52  73
ATOM     73  C   UNL A   1      40.886  27.634  28.092  1.00  0.00     0.057 A 
ATOM     74  C   UNL A   1      41.693  28.131  27.062  1.00  0.00     0.134 A 
ATOM     75  C   UNL A   1      40.293  26.380  27.899  1.00  0.00     0.134 A 
ATOM     76  F   UNL A   1      42.274  29.333  27.182  1.00  0.00    -0.206 F 
ATOM     77  C   UNL A   1      41.893  27.417  25.880  1.00  0.00     0.040 A 
ATOM     78  C   UNL A   1      40.506  25.643  26.733  1.00  0.00     0.040 A 
ATOM     79  F   UNL A   1      39.517  25.842  28.852  1.00  0.00    -0.206 F 
ATOM     80  C   UNL A   1      41.303  26.164  25.716  1.00  0.00     0.006 A 
ENDBRANCH  52  73
BRANCH  64  81
ATOM     81  C   UNL A   1      44.119  27.715  34.269  1.00  0.00     0.057 A 
ATOM     82  C   UNL A   1      45.442  28.172  34.226  1.00  0.00     0.134 A 
ATOM     83  C   UNL A   1      43.881  26.486  34.899  1.00  0.00     0.134 A 
ATOM     84  F   UNL A   1      45.740  29.335  33.627  1.00  0.00    -0.206 F 
ATOM     85  C   UNL A   1      46.489  27.427  34.769  1.00  0.00     0.040 A 
ATOM     86  C   UNL A   1      44.916  25.745  35.472  1.00  0.00     0.040 A 
ATOM     87  F   UNL A   1      42.636  25.993  34.983  1.00  0.00    -0.206 F 
ATOM     88  C   UNL A   1      46.226  26.213  35.402  1.00  0.00     0.006 A 
ENDBRANCH  64  81
ENDBRANCH  38  39
ENDBRANCH  30  33
ENDBRANCH  28  29
ENDBRANCH  27  28
ENDBRANCH  26  27
ENDBRANCH   1  26
TORSDOF 17
ENDMDL
