MODEL 1
REMARK VINA RESULT:     -10.8      0.000      0.000
REMARK SMILES CCCN(C(=O)Cc1c(C(=O)NCCCCCCNC(=O)c2ccc(-c3c4nc(c(-c5c(F)cccc5F)c5ccc([nH]5)c(-c5c(F)cccc5F)c5nc(c(-c6c(F)cccc6F)c6ccc3[nH]6)C=C5)C=C4)cc2)c(C)cn1CC)c1cccc(Cl)c1
REMARK SMILES IDX 14 1 13 2 12 3 10 4 11 5 9 7 8 8 79 9 76 10 78 11 77 12 7 13
REMARK SMILES IDX 5 14 6 15 4 16 3 17 2 18 1 19 82 20 83 21 88 22 84 23 86 24
REMARK SMILES IDX 85 25 87 26 80 27 81 28 15 29 16 30 17 31 18 32 19 33 20 34
REMARK SMILES IDX 21 36 22 37 23 38 75 39 24 40 74 41 25 42 26 43 27 44 68 45
REMARK SMILES IDX 28 46 73 47 67 48 69 49 29 50 72 51 66 52 65 53 30 55 56 56
REMARK SMILES IDX 39 57 55 58 40 59 43 60 54 61 70 62 41 63 42 64 53 66 71 67
REMARK SMILES IDX 44 68 31 69 32 70 37 71 33 72 34 73 36 74 38 75 35 76 57 77
REMARK SMILES IDX 58 78 63 79 59 80 60 81 62 82 64 83 61 84 45 85 46 86 51 87
REMARK SMILES IDX 47 88 48 89 50 90 52 91 49 92
REMARK H PARENT 12 6 19 35 69 54 43 65
REMARK Flexibility Score: inf
ROOT
ATOM      1  C   UNL A   1      33.030  27.689  26.880  1.00  0.00     0.021 C 
ENDROOT
BRANCH   1   2
ATOM      2  C   UNL A   1      31.546  27.439  27.101  1.00  0.00     0.116 C 
BRANCH   2   3
ATOM      3  N   UNL A   1      31.062  26.106  26.882  1.00  0.00    -0.352 N 
ATOM      4  C   UNL A   1      31.022  25.372  25.717  1.00  0.00     0.253 C 
ATOM      5  O   UNL A   1      30.718  24.184  25.852  1.00  0.00    -0.269 OA
ATOM      6  H   UNL A   1      30.706  25.650  27.679  1.00  0.00     0.163 HD
BRANCH   4   7
ATOM      7  C   UNL A   1      31.225  25.962  24.370  1.00  0.00     0.064 A 
ATOM      8  C   UNL A   1      32.495  25.956  23.746  1.00  0.00     0.040 A 
ATOM      9  N   UNL A   1      32.415  26.727  22.607  1.00  0.00    -0.350 N 
ATOM     10  C   UNL A   1      30.345  26.665  23.454  1.00  0.00    -0.020 A 
ATOM     11  C   UNL A   1      31.111  27.049  22.374  1.00  0.00     0.090 A 
ATOM     12  C   UNL A   1      28.903  27.031  23.529  1.00  0.00     0.047 C 
BRANCH   8  13
ATOM     13  C   UNL A   1      33.795  25.324  24.200  1.00  0.00     0.155 C 
BRANCH  13  14
ATOM     14  C   UNL A   1      34.004  23.918  23.635  1.00  0.00     0.232 C 
ATOM     15  O   UNL A   1      34.009  23.769  22.406  1.00  0.00    -0.274 OA
BRANCH  14  16
ATOM     16  N   UNL A   1      34.180  22.847  24.517  1.00  0.00    -0.312 N 
BRANCH  16  17
ATOM     17  C   UNL A   1      33.089  22.146  25.223  1.00  0.00     0.125 C 
BRANCH  17  18
ATOM     18  C   UNL A   1      32.162  21.330  24.318  1.00  0.00     0.019 C 
ATOM     19  C   UNL A   1      32.690  19.923  24.057  1.00  0.00     0.006 C 
ENDBRANCH  17  18
ENDBRANCH  16  17
BRANCH  16  20
ATOM     20  C   UNL A   1      35.492  22.554  24.994  1.00  0.00     0.045 A 
ATOM     21  C   UNL A   1      36.100  21.340  24.660  1.00  0.00     0.026 A 
ATOM     22  C   UNL A   1      36.225  23.520  25.688  1.00  0.00     0.046 A 
ATOM     23  C   UNL A   1      37.452  21.130  24.945  1.00  0.00     0.004 A 
ATOM     24  C   UNL A   1      37.574  23.311  25.962  1.00  0.00     0.043 A 
ATOM     25  C   UNL A   1      38.195  22.126  25.580  1.00  0.00     0.020 A 
ATOM     26  Cl  UNL A   1      38.482  24.552  26.735  1.00  0.00    -0.084 Cl
ENDBRANCH  16  20
ENDBRANCH  14  16
ENDBRANCH  13  14
ENDBRANCH   8  13
BRANCH   9  27
ATOM     27  C   UNL A   1      33.493  27.214  21.757  1.00  0.00     0.118 C 
ATOM     28  C   UNL A   1      34.191  28.437  22.332  1.00  0.00     0.027 C 
ENDBRANCH   9  27
ENDBRANCH   4   7
ENDBRANCH   2   3
ENDBRANCH   1   2
BRANCH   1  29
ATOM     29  C   UNL A   1      33.443  28.797  25.919  1.00  0.00     0.002 C 
BRANCH  29  30
ATOM     30  C   UNL A   1      34.317  29.932  26.462  1.00  0.00     0.002 C 
BRANCH  30  31
ATOM     31  C   UNL A   1      33.795  30.748  27.651  1.00  0.00     0.021 C 
BRANCH  31  32
ATOM     32  C   UNL A   1      34.543  32.040  27.931  1.00  0.00     0.116 C 
BRANCH  32  33
ATOM     33  N   UNL A   1      34.439  32.485  29.319  1.00  0.00    -0.352 N 
ATOM     34  C   UNL A   1      35.183  32.068  30.411  1.00  0.00     0.251 C 
ATOM     35  H   UNL A   1      33.753  33.167  29.501  1.00  0.00     0.163 HD
ATOM     36  O   UNL A   1      34.784  32.233  31.549  1.00  0.00    -0.269 OA
BRANCH  34  37
ATOM     37  C   UNL A   1      36.485  31.421  30.164  1.00  0.00     0.039 A 
ATOM     38  C   UNL A   1      37.636  32.162  29.883  1.00  0.00     0.014 A 
ATOM     39  C   UNL A   1      36.534  30.035  30.248  1.00  0.00     0.014 A 
ATOM     40  C   UNL A   1      38.849  31.488  29.758  1.00  0.00     0.010 A 
ATOM     41  C   UNL A   1      37.743  29.405  30.332  1.00  0.00     0.010 A 
ATOM     42  C   UNL A   1      38.892  30.107  30.000  1.00  0.00    -0.014 A 
BRANCH  42  43
ATOM     43  C   UNL A   1      40.146  29.369  29.987  1.00  0.00     0.031 A 
ATOM     44  C   UNL A   1      40.765  29.170  31.324  1.00  0.00     0.074 A 
ATOM     45  C   UNL A   1      40.584  28.711  28.891  1.00  0.00     0.049 A 
ATOM     46  N   UNL A   1      41.869  29.673  31.764  1.00  0.00    -0.248 NA
ATOM     47  C   UNL A   1      39.997  28.435  32.343  1.00  0.00     0.031 C 
ATOM     48  C   UNL A   1      39.914  28.531  27.595  1.00  0.00     0.029 A 
ATOM     49  N   UNL A   1      41.701  27.954  28.747  1.00  0.00    -0.354 N 
ATOM     50  C   UNL A   1      42.048  29.144  33.040  1.00  0.00     0.074 A 
ATOM     51  C   UNL A   1      40.787  28.557  33.411  1.00  0.00     0.031 C 
ATOM     52  C   UNL A   1      40.512  27.534  26.907  1.00  0.00     0.029 A 
ATOM     53  C   UNL A   1      41.706  27.135  27.625  1.00  0.00     0.049 A 
ATOM     54  H   UNL A   1      42.449  27.983  29.387  1.00  0.00     0.167 HD
ATOM     55  C   UNL A   1      43.294  29.014  33.575  1.00  0.00     0.037 A 
ATOM     56  C   UNL A   1      42.617  26.174  27.336  1.00  0.00     0.037 A 
ATOM     57  C   UNL A   1      44.254  29.815  32.853  1.00  0.00     0.049 A 
ATOM     58  C   UNL A   1      43.830  26.468  28.143  1.00  0.00     0.074 A 
ATOM     59  C   UNL A   1      44.364  31.161  32.555  1.00  0.00     0.029 A 
ATOM     60  N   UNL A   1      45.092  29.176  31.971  1.00  0.00    -0.354 N 
ATOM     61  N   UNL A   1      44.586  27.516  27.957  1.00  0.00    -0.248 NA
ATOM     62  C   UNL A   1      43.915  25.865  29.465  1.00  0.00     0.031 C 
ATOM     63  C   UNL A   1      44.832  31.199  31.207  1.00  0.00     0.029 A 
ATOM     64  C   UNL A   1      45.057  29.884  30.797  1.00  0.00     0.049 A 
ATOM     65  H   UNL A   1      45.618  28.363  32.148  1.00  0.00     0.167 HD
ATOM     66  C   UNL A   1      44.900  27.959  29.234  1.00  0.00     0.074 A 
ATOM     67  C   UNL A   1      44.518  26.861  30.122  1.00  0.00     0.031 C 
ATOM     68  C   UNL A   1      45.159  29.277  29.490  1.00  0.00     0.037 A 
BRANCH  55  69
ATOM     69  C   UNL A   1      43.721  27.882  34.481  1.00  0.00     0.057 A 
ATOM     70  C   UNL A   1      44.260  28.189  35.745  1.00  0.00     0.134 A 
ATOM     71  C   UNL A   1      43.908  26.549  34.062  1.00  0.00     0.134 A 
ATOM     72  F   UNL A   1      44.154  29.424  36.258  1.00  0.00    -0.206 F 
ATOM     73  C   UNL A   1      45.006  27.266  36.489  1.00  0.00     0.040 A 
ATOM     74  C   UNL A   1      44.605  25.606  34.821  1.00  0.00     0.040 A 
ATOM     75  F   UNL A   1      43.521  26.109  32.860  1.00  0.00    -0.206 F 
ATOM     76  C   UNL A   1      45.189  25.972  36.022  1.00  0.00     0.006 A 
ENDBRANCH  55  69
BRANCH  56  77
ATOM     77  C   UNL A   1      42.387  24.866  26.680  1.00  0.00     0.057 A 
ATOM     78  C   UNL A   1      43.046  24.524  25.491  1.00  0.00     0.134 A 
ATOM     79  C   UNL A   1      41.727  23.813  27.343  1.00  0.00     0.134 A 
ATOM     80  F   UNL A   1      43.738  25.448  24.809  1.00  0.00    -0.206 F 
ATOM     81  C   UNL A   1      43.069  23.210  25.002  1.00  0.00     0.040 A 
ATOM     82  C   UNL A   1      41.736  22.499  26.862  1.00  0.00     0.040 A 
ATOM     83  F   UNL A   1      41.127  24.007  28.526  1.00  0.00    -0.206 F 
ATOM     84  C   UNL A   1      42.422  22.191  25.694  1.00  0.00     0.006 A 
ENDBRANCH  56  77
BRANCH  68  85
ATOM     85  C   UNL A   1      45.320  30.215  28.323  1.00  0.00     0.057 A 
ATOM     86  C   UNL A   1      44.279  30.986  27.780  1.00  0.00     0.134 A 
ATOM     87  C   UNL A   1      46.607  30.477  27.846  1.00  0.00     0.134 A 
ATOM     88  F   UNL A   1      43.026  30.884  28.237  1.00  0.00    -0.206 F 
ATOM     89  C   UNL A   1      44.507  31.944  26.786  1.00  0.00     0.040 A 
ATOM     90  C   UNL A   1      46.854  31.454  26.878  1.00  0.00     0.040 A 
ATOM     91  F   UNL A   1      47.663  29.822  28.356  1.00  0.00    -0.206 F 
ATOM     92  C   UNL A   1      45.801  32.187  26.338  1.00  0.00     0.006 A 
ENDBRANCH  68  85
ENDBRANCH  42  43
ENDBRANCH  34  37
ENDBRANCH  32  33
ENDBRANCH  31  32
ENDBRANCH  30  31
ENDBRANCH  29  30
ENDBRANCH   1  29
TORSDOF 20
ENDMDL
MODEL 2
REMARK VINA RESULT:     -10.7      1.279      2.587
REMARK SMILES CCCN(C(=O)Cc1c(C(=O)NCCCCCCNC(=O)c2ccc(-c3c4nc(c(-c5c(F)cccc5F)c5ccc([nH]5)c(-c5c(F)cccc5F)c5nc(c(-c6c(F)cccc6F)c6ccc3[nH]6)C=C5)C=C4)cc2)c(C)cn1CC)c1cccc(Cl)c1
REMARK SMILES IDX 14 1 13 2 12 3 10 4 11 5 9 7 8 8 79 9 76 10 78 11 77 12 7 13
REMARK SMILES IDX 5 14 6 15 4 16 3 17 2 18 1 19 82 20 83 21 88 22 84 23 86 24
REMARK SMILES IDX 85 25 87 26 80 27 81 28 15 29 16 30 17 31 18 32 19 33 20 34
REMARK SMILES IDX 21 36 22 37 23 38 75 39 24 40 74 41 25 42 26 43 27 44 68 45
REMARK SMILES IDX 28 46 73 47 67 48 69 49 29 50 72 51 66 52 65 53 30 55 56 56
REMARK SMILES IDX 39 57 55 58 40 59 43 60 54 61 70 62 41 63 42 64 53 66 71 67
REMARK SMILES IDX 44 68 31 69 32 70 37 71 33 72 34 73 36 74 38 75 35 76 57 77
REMARK SMILES IDX 58 78 63 79 59 80 60 81 62 82 64 83 61 84 45 85 46 86 51 87
REMARK SMILES IDX 47 88 48 89 50 90 52 91 49 92
REMARK H PARENT 12 6 19 35 69 54 43 65
REMARK Flexibility Score: inf
ROOT
ATOM      1  C   UNL A   1      33.580  29.016  24.530  1.00  0.00     0.021 C 
ENDROOT
BRANCH   1   2
ATOM      2  C   UNL A   1      32.495  29.127  23.470  1.00  0.00     0.116 C 
BRANCH   2   3
ATOM      3  N   UNL A   1      32.458  28.113  22.455  1.00  0.00    -0.352 N 
ATOM      4  C   UNL A   1      31.876  26.865  22.488  1.00  0.00     0.253 C 
ATOM      5  O   UNL A   1      31.843  26.269  21.408  1.00  0.00    -0.269 OA
ATOM      6  H   UNL A   1      32.916  28.343  21.613  1.00  0.00     0.163 HD
BRANCH   4   7
ATOM      7  C   UNL A   1      31.406  26.214  23.736  1.00  0.00     0.064 A 
ATOM      8  C   UNL A   1      32.304  25.548  24.603  1.00  0.00     0.040 A 
ATOM      9  N   UNL A   1      31.563  24.893  25.564  1.00  0.00    -0.350 N 
ATOM     10  C   UNL A   1      30.091  26.034  24.325  1.00  0.00    -0.020 A 
ATOM     11  C   UNL A   1      30.260  25.279  25.466  1.00  0.00     0.090 A 
ATOM     12  C   UNL A   1      28.731  26.464  23.894  1.00  0.00     0.047 C 
BRANCH   8  13
ATOM     13  C   UNL A   1      33.813  25.436  24.536  1.00  0.00     0.155 C 
BRANCH  13  14
ATOM     14  C   UNL A   1      34.288  24.336  23.584  1.00  0.00     0.232 C 
ATOM     15  O   UNL A   1      34.369  24.593  22.376  1.00  0.00    -0.274 OA
BRANCH  14  16
ATOM     16  N   UNL A   1      34.611  23.078  24.103  1.00  0.00    -0.312 N 
BRANCH  16  17
ATOM     17  C   UNL A   1      35.941  22.690  24.612  1.00  0.00     0.125 C 
BRANCH  17  18
ATOM     18  C   UNL A   1      36.338  23.352  25.935  1.00  0.00     0.019 C 
ATOM     19  C   UNL A   1      37.844  23.554  26.060  1.00  0.00     0.006 C 
ENDBRANCH  17  18
ENDBRANCH  16  17
BRANCH  16  20
ATOM     20  C   UNL A   1      33.704  21.995  23.904  1.00  0.00     0.045 A 
ATOM     21  C   UNL A   1      32.748  22.063  22.886  1.00  0.00     0.026 A 
ATOM     22  C   UNL A   1      33.844  20.812  24.635  1.00  0.00     0.046 A 
ATOM     23  C   UNL A   1      31.998  20.933  22.550  1.00  0.00     0.004 A 
ATOM     24  C   UNL A   1      33.101  19.686  24.290  1.00  0.00     0.043 A 
ATOM     25  C   UNL A   1      32.190  19.736  23.240  1.00  0.00     0.020 A 
ATOM     26  Cl  UNL A   1      33.355  18.211  25.143  1.00  0.00    -0.084 Cl
ENDBRANCH  16  20
ENDBRANCH  14  16
ENDBRANCH  13  14
ENDBRANCH   8  13
BRANCH   9  27
ATOM     27  C   UNL A   1      32.002  23.896  26.531  1.00  0.00     0.118 C 
ATOM     28  C   UNL A   1      31.215  22.598  26.439  1.00  0.00     0.027 C 
ENDBRANCH   9  27
ENDBRANCH   4   7
ENDBRANCH   2   3
ENDBRANCH   1   2
BRANCH   1  29
ATOM     29  C   UNL A   1      33.158  28.771  25.975  1.00  0.00     0.002 C 
BRANCH  29  30
ATOM     30  C   UNL A   1      33.833  29.601  27.071  1.00  0.00     0.002 C 
BRANCH  30  31
ATOM     31  C   UNL A   1      33.318  31.022  27.330  1.00  0.00     0.021 C 
BRANCH  31  32
ATOM     32  C   UNL A   1      34.382  32.044  27.692  1.00  0.00     0.116 C 
BRANCH  32  33
ATOM     33  N   UNL A   1      34.254  32.562  29.052  1.00  0.00    -0.352 N 
ATOM     34  C   UNL A   1      34.995  32.221  30.173  1.00  0.00     0.251 C 
ATOM     35  H   UNL A   1      33.552  33.238  29.190  1.00  0.00     0.163 HD
ATOM     36  O   UNL A   1      34.580  32.440  31.296  1.00  0.00    -0.269 OA
BRANCH  34  37
ATOM     37  C   UNL A   1      36.312  31.590  29.975  1.00  0.00     0.039 A 
ATOM     38  C   UNL A   1      37.480  32.345  29.835  1.00  0.00     0.014 A 
ATOM     39  C   UNL A   1      36.358  30.201  29.958  1.00  0.00     0.014 A 
ATOM     40  C   UNL A   1      38.700  31.678  29.750  1.00  0.00     0.010 A 
ATOM     41  C   UNL A   1      37.558  29.561  30.083  1.00  0.00     0.010 A 
ATOM     42  C   UNL A   1      38.728  30.282  29.890  1.00  0.00    -0.014 A 
BRANCH  42  43
ATOM     43  C   UNL A   1      39.980  29.543  29.914  1.00  0.00     0.031 A 
ATOM     44  C   UNL A   1      40.537  29.306  31.272  1.00  0.00     0.074 A 
ATOM     45  C   UNL A   1      40.467  28.915  28.821  1.00  0.00     0.049 A 
ATOM     46  N   UNL A   1      41.620  29.794  31.776  1.00  0.00    -0.248 NA
ATOM     47  C   UNL A   1      39.722  28.544  32.234  1.00  0.00     0.031 C 
ATOM     48  C   UNL A   1      39.858  28.772  27.491  1.00  0.00     0.029 A 
ATOM     49  N   UNL A   1      41.590  28.160  28.708  1.00  0.00    -0.354 N 
ATOM     50  C   UNL A   1      41.740  29.230  33.043  1.00  0.00     0.074 A 
ATOM     51  C   UNL A   1      40.463  28.635  33.340  1.00  0.00     0.031 C 
ATOM     52  C   UNL A   1      40.486  27.793  26.804  1.00  0.00     0.029 A 
ATOM     53  C   UNL A   1      41.646  27.372  27.565  1.00  0.00     0.049 A 
ATOM     54  H   UNL A   1      42.308  28.170  29.382  1.00  0.00     0.167 HD
ATOM     55  C   UNL A   1      42.960  29.082  33.631  1.00  0.00     0.037 A 
ATOM     56  C   UNL A   1      42.568  26.418  27.292  1.00  0.00     0.037 A 
ATOM     57  C   UNL A   1      43.952  29.901  32.977  1.00  0.00     0.049 A 
ATOM     58  C   UNL A   1      43.743  26.687  28.161  1.00  0.00     0.074 A 
ATOM     59  C   UNL A   1      44.077  31.255  32.722  1.00  0.00     0.029 A 
ATOM     60  N   UNL A   1      44.829  29.286  32.116  1.00  0.00    -0.354 N 
ATOM     61  N   UNL A   1      44.507  27.739  28.039  1.00  0.00    -0.248 NA
ATOM     62  C   UNL A   1      43.767  26.047  29.469  1.00  0.00     0.031 C 
ATOM     63  C   UNL A   1      44.606  31.329  31.398  1.00  0.00     0.029 A 
ATOM     64  C   UNL A   1      44.849  30.026  30.962  1.00  0.00     0.049 A 
ATOM     65  H   UNL A   1      45.347  28.468  32.295  1.00  0.00     0.167 HD
ATOM     66  C   UNL A   1      44.763  28.145  29.341  1.00  0.00     0.074 A 
ATOM     67  C   UNL A   1      44.340  27.023  30.179  1.00  0.00     0.031 C 
ATOM     68  C   UNL A   1      45.011  29.455  29.644  1.00  0.00     0.037 A 
BRANCH  55  69
ATOM     69  C   UNL A   1      43.344  27.926  34.524  1.00  0.00     0.057 A 
ATOM     70  C   UNL A   1      43.795  28.195  35.830  1.00  0.00     0.134 A 
ATOM     71  C   UNL A   1      43.578  26.611  34.073  1.00  0.00     0.134 A 
ATOM     72  F   UNL A   1      43.637  29.410  36.377  1.00  0.00    -0.206 F 
ATOM     73  C   UNL A   1      44.505  27.256  36.590  1.00  0.00     0.040 A 
ATOM     74  C   UNL A   1      44.239  25.650  34.844  1.00  0.00     0.040 A 
ATOM     75  F   UNL A   1      43.277  26.208  32.834  1.00  0.00    -0.206 F 
ATOM     76  C   UNL A   1      44.738  25.982  36.092  1.00  0.00     0.006 A 
ENDBRANCH  55  69
BRANCH  56  77
ATOM     77  C   UNL A   1      42.367  25.128  26.590  1.00  0.00     0.057 A 
ATOM     78  C   UNL A   1      43.170  24.762  25.501  1.00  0.00     0.134 A 
ATOM     79  C   UNL A   1      41.568  24.107  27.136  1.00  0.00     0.134 A 
ATOM     80  F   UNL A   1      43.999  25.654  24.937  1.00  0.00    -0.206 F 
ATOM     81  C   UNL A   1      43.196  23.453  25.000  1.00  0.00     0.040 A 
ATOM     82  C   UNL A   1      41.579  22.798  26.642  1.00  0.00     0.040 A 
ATOM     83  F   UNL A   1      40.816  24.322  28.226  1.00  0.00    -0.206 F 
ATOM     84  C   UNL A   1      42.407  22.464  25.578  1.00  0.00     0.006 A 
ENDBRANCH  56  77
BRANCH  68  85
ATOM     85  C   UNL A   1      45.225  30.424  28.513  1.00  0.00     0.057 A 
ATOM     86  C   UNL A   1      46.439  30.579  27.824  1.00  0.00     0.134 A 
ATOM     87  C   UNL A   1      44.118  31.097  27.988  1.00  0.00     0.134 A 
ATOM     88  F   UNL A   1      47.534  29.901  28.184  1.00  0.00    -0.206 F 
ATOM     89  C   UNL A   1      46.551  31.392  26.691  1.00  0.00     0.040 A 
ATOM     90  C   UNL A   1      44.207  31.886  26.838  1.00  0.00     0.040 A 
ATOM     91  F   UNL A   1      42.909  30.955  28.555  1.00  0.00    -0.206 F 
ATOM     92  C   UNL A   1      45.429  32.043  26.189  1.00  0.00     0.006 A 
ENDBRANCH  68  85
ENDBRANCH  42  43
ENDBRANCH  34  37
ENDBRANCH  32  33
ENDBRANCH  31  32
ENDBRANCH  30  31
ENDBRANCH  29  30
ENDBRANCH   1  29
TORSDOF 20
ENDMDL
MODEL 3
REMARK VINA RESULT:     -10.7      0.898      2.043
REMARK SMILES CCCN(C(=O)Cc1c(C(=O)NCCCCCCNC(=O)c2ccc(-c3c4nc(c(-c5c(F)cccc5F)c5ccc([nH]5)c(-c5c(F)cccc5F)c5nc(c(-c6c(F)cccc6F)c6ccc3[nH]6)C=C5)C=C4)cc2)c(C)cn1CC)c1cccc(Cl)c1
REMARK SMILES IDX 14 1 13 2 12 3 10 4 11 5 9 7 8 8 79 9 76 10 78 11 77 12 7 13
REMARK SMILES IDX 5 14 6 15 4 16 3 17 2 18 1 19 82 20 83 21 88 22 84 23 86 24
REMARK SMILES IDX 85 25 87 26 80 27 81 28 15 29 16 30 17 31 18 32 19 33 20 34
REMARK SMILES IDX 21 36 22 37 23 38 75 39 24 40 74 41 25 42 26 43 27 44 68 45
REMARK SMILES IDX 28 46 73 47 67 48 69 49 29 50 72 51 66 52 65 53 30 55 56 56
REMARK SMILES IDX 39 57 55 58 40 59 43 60 54 61 70 62 41 63 42 64 53 66 71 67
REMARK SMILES IDX 44 68 31 69 32 70 37 71 33 72 34 73 36 74 38 75 35 76 57 77
REMARK SMILES IDX 58 78 63 79 59 80 60 81 62 82 64 83 61 84 45 85 46 86 51 87
REMARK SMILES IDX 47 88 48 89 50 90 52 91 49 92
REMARK H PARENT 12 6 19 35 69 54 43 65
REMARK Flexibility Score: inf
ROOT
ATOM      1  C   UNL A   1      33.791  28.883  24.032  1.00  0.00     0.021 C 
ENDROOT
BRANCH   1   2
ATOM      2  C   UNL A   1      33.406  28.741  22.567  1.00  0.00     0.116 C 
BRANCH   2   3
ATOM      3  N   UNL A   1      33.574  27.451  21.962  1.00  0.00    -0.352 N 
ATOM      4  C   UNL A   1      32.933  26.265  22.243  1.00  0.00     0.253 C 
ATOM      5  O   UNL A   1      33.146  25.348  21.446  1.00  0.00    -0.269 OA
ATOM      6  H   UNL A   1      34.245  27.407  21.243  1.00  0.00     0.163 HD
BRANCH   4   7
ATOM      7  C   UNL A   1      32.120  26.043  23.466  1.00  0.00     0.064 A 
ATOM      8  C   UNL A   1      32.569  25.193  24.505  1.00  0.00     0.040 A 
ATOM      9  N   UNL A   1      31.538  25.040  25.406  1.00  0.00    -0.350 N 
ATOM     10  C   UNL A   1      30.807  26.502  23.879  1.00  0.00    -0.020 A 
ATOM     11  C   UNL A   1      30.536  25.909  25.094  1.00  0.00     0.090 A 
ATOM     12  C   UNL A   1      29.802  27.388  23.226  1.00  0.00     0.047 C 
BRANCH   8  13
ATOM     13  C   UNL A   1      33.888  24.463  24.659  1.00  0.00     0.155 C 
BRANCH  13  14
ATOM     14  C   UNL A   1      33.831  23.018  24.160  1.00  0.00     0.232 C 
ATOM     15  O   UNL A   1      33.402  22.802  23.019  1.00  0.00    -0.274 OA
BRANCH  14  16
ATOM     16  N   UNL A   1      34.260  21.988  25.003  1.00  0.00    -0.312 N 
BRANCH  16  17
ATOM     17  C   UNL A   1      33.373  21.166  25.851  1.00  0.00     0.125 C 
BRANCH  17  18
ATOM     18  C   UNL A   1      32.495  20.173  25.086  1.00  0.00     0.019 C 
ATOM     19  C   UNL A   1      32.867  18.722  25.370  1.00  0.00     0.006 C 
ENDBRANCH  17  18
ENDBRANCH  16  17
BRANCH  16  20
ATOM     20  C   UNL A   1      35.651  21.864  25.290  1.00  0.00     0.045 A 
ATOM     21  C   UNL A   1      36.333  20.692  24.948  1.00  0.00     0.026 A 
ATOM     22  C   UNL A   1      36.368  22.952  25.795  1.00  0.00     0.046 A 
ATOM     23  C   UNL A   1      37.726  20.640  25.035  1.00  0.00     0.004 A 
ATOM     24  C   UNL A   1      37.758  22.899  25.870  1.00  0.00     0.043 A 
ATOM     25  C   UNL A   1      38.442  21.753  25.477  1.00  0.00     0.020 A 
ATOM     26  Cl  UNL A   1      38.630  24.283  26.407  1.00  0.00    -0.084 Cl
ENDBRANCH  16  20
ENDBRANCH  14  16
ENDBRANCH  13  14
ENDBRANCH   8  13
BRANCH   9  27
ATOM     27  C   UNL A   1      31.423  24.094  26.508  1.00  0.00     0.118 C 
ATOM     28  C   UNL A   1      30.376  23.020  26.258  1.00  0.00     0.027 C 
ENDBRANCH   9  27
ENDBRANCH   4   7
ENDBRANCH   2   3
ENDBRANCH   1   2
BRANCH   1  29
ATOM     29  C   UNL A   1      32.737  29.387  25.012  1.00  0.00     0.002 C 
BRANCH  29  30
ATOM     30  C   UNL A   1      32.631  28.691  26.373  1.00  0.00     0.002 C 
BRANCH  30  31
ATOM     31  C   UNL A   1      33.217  29.401  27.601  1.00  0.00     0.021 C 
BRANCH  31  32
ATOM     32  C   UNL A   1      34.376  30.340  27.316  1.00  0.00     0.116 C 
BRANCH  32  33
ATOM     33  N   UNL A   1      34.334  31.572  28.103  1.00  0.00    -0.352 N 
ATOM     34  C   UNL A   1      35.055  31.886  29.244  1.00  0.00     0.251 C 
ATOM     35  H   UNL A   1      33.715  32.267  27.781  1.00  0.00     0.163 HD
ATOM     36  O   UNL A   1      34.690  32.766  30.001  1.00  0.00    -0.269 OA
BRANCH  34  37
ATOM     37  C   UNL A   1      36.289  31.129  29.521  1.00  0.00     0.039 A 
ATOM     38  C   UNL A   1      36.269  29.761  29.808  1.00  0.00     0.014 A 
ATOM     39  C   UNL A   1      37.491  31.824  29.460  1.00  0.00     0.014 A 
ATOM     40  C   UNL A   1      37.482  29.093  29.962  1.00  0.00     0.010 A 
ATOM     41  C   UNL A   1      38.670  31.136  29.405  1.00  0.00     0.010 A 
ATOM     42  C   UNL A   1      38.679  29.790  29.742  1.00  0.00    -0.014 A 
BRANCH  42  43
ATOM     43  C   UNL A   1      39.970  29.122  29.786  1.00  0.00     0.031 A 
ATOM     44  C   UNL A   1      40.547  28.971  31.148  1.00  0.00     0.074 A 
ATOM     45  C   UNL A   1      40.485  28.477  28.716  1.00  0.00     0.049 A 
ATOM     46  N   UNL A   1      41.604  29.537  31.623  1.00  0.00    -0.248 NA
ATOM     47  C   UNL A   1      39.781  28.206  32.146  1.00  0.00     0.031 C 
ATOM     48  C   UNL A   1      39.876  28.247  27.398  1.00  0.00     0.029 A 
ATOM     49  N   UNL A   1      41.646  27.780  28.624  1.00  0.00    -0.354 N 
ATOM     50  C   UNL A   1      41.762  29.033  32.912  1.00  0.00     0.074 A 
ATOM     51  C   UNL A   1      40.522  28.381  33.242  1.00  0.00     0.031 C 
ATOM     52  C   UNL A   1      40.553  27.277  26.746  1.00  0.00     0.029 A 
ATOM     53  C   UNL A   1      41.739  26.951  27.513  1.00  0.00     0.049 A 
ATOM     54  H   UNL A   1      42.366  27.857  29.291  1.00  0.00     0.167 HD
ATOM     55  C   UNL A   1      42.992  28.975  33.495  1.00  0.00     0.037 A 
ATOM     56  C   UNL A   1      42.711  26.038  27.272  1.00  0.00     0.037 A 
ATOM     57  C   UNL A   1      43.934  29.820  32.801  1.00  0.00     0.049 A 
ATOM     58  C   UNL A   1      43.874  26.406  28.120  1.00  0.00     0.074 A 
ATOM     59  C   UNL A   1      43.983  31.167  32.490  1.00  0.00     0.029 A 
ATOM     60  N   UNL A   1      44.839  29.219  31.959  1.00  0.00    -0.354 N 
ATOM     61  N   UNL A   1      44.579  27.492  27.950  1.00  0.00    -0.248 NA
ATOM     62  C   UNL A   1      43.940  25.822  29.452  1.00  0.00     0.031 C 
ATOM     63  C   UNL A   1      44.500  31.216  31.160  1.00  0.00     0.029 A 
ATOM     64  C   UNL A   1      44.811  29.911  30.776  1.00  0.00     0.049 A 
ATOM     65  H   UNL A   1      45.401  28.438  32.167  1.00  0.00     0.167 HD
ATOM     66  C   UNL A   1      44.819  27.964  29.233  1.00  0.00     0.074 A 
ATOM     67  C   UNL A   1      44.463  26.856  30.118  1.00  0.00     0.031 C 
ATOM     68  C   UNL A   1      44.996  29.296  29.481  1.00  0.00     0.037 A 
BRANCH  55  69
ATOM     69  C   UNL A   1      43.444  27.879  34.431  1.00  0.00     0.057 A 
ATOM     70  C   UNL A   1      43.514  26.558  33.949  1.00  0.00     0.134 A 
ATOM     71  C   UNL A   1      43.518  28.005  35.834  1.00  0.00     0.134 A 
ATOM     72  F   UNL A   1      43.451  26.300  32.634  1.00  0.00    -0.206 F 
ATOM     73  C   UNL A   1      43.560  25.448  34.801  1.00  0.00     0.040 A 
ATOM     74  C   UNL A   1      43.618  26.906  36.690  1.00  0.00     0.040 A 
ATOM     75  F   UNL A   1      43.396  29.181  36.460  1.00  0.00    -0.206 F 
ATOM     76  C   UNL A   1      43.602  25.619  36.178  1.00  0.00     0.006 A 
ENDBRANCH  55  69
BRANCH  56  77
ATOM     77  C   UNL A   1      42.576  24.712  26.624  1.00  0.00     0.057 A 
ATOM     78  C   UNL A   1      43.303  24.391  25.469  1.00  0.00     0.134 A 
ATOM     79  C   UNL A   1      41.944  23.634  27.272  1.00  0.00     0.134 A 
ATOM     80  F   UNL A   1      43.976  25.343  24.805  1.00  0.00    -0.206 F 
ATOM     81  C   UNL A   1      43.415  23.076  24.999  1.00  0.00     0.040 A 
ATOM     82  C   UNL A   1      42.042  22.317  26.809  1.00  0.00     0.040 A 
ATOM     83  F   UNL A   1      41.283  23.810  28.425  1.00  0.00    -0.206 F 
ATOM     84  C   UNL A   1      42.792  22.032  25.676  1.00  0.00     0.006 A 
ENDBRANCH  56  77
BRANCH  68  85
ATOM     85  C   UNL A   1      45.151  30.229  28.309  1.00  0.00     0.057 A 
ATOM     86  C   UNL A   1      44.085  30.894  27.682  1.00  0.00     0.134 A 
ATOM     87  C   UNL A   1      46.440  30.603  27.915  1.00  0.00     0.134 A 
ATOM     88  F   UNL A   1      42.818  30.683  28.055  1.00  0.00    -0.206 F 
ATOM     89  C   UNL A   1      44.292  31.856  26.687  1.00  0.00     0.040 A 
ATOM     90  C   UNL A   1      46.662  31.586  26.947  1.00  0.00     0.040 A 
ATOM     91  F   UNL A   1      47.512  30.056  28.508  1.00  0.00    -0.206 F 
ATOM     92  C   UNL A   1      45.587  32.210  26.323  1.00  0.00     0.006 A 
ENDBRANCH  68  85
ENDBRANCH  42  43
ENDBRANCH  34  37
ENDBRANCH  32  33
ENDBRANCH  31  32
ENDBRANCH  30  31
ENDBRANCH  29  30
ENDBRANCH   1  29
TORSDOF 20
ENDMDL
