MODEL 1
REMARK VINA RESULT:      -9.8      0.000      0.000
REMARK SMILES O=C(NCCCCCCNC(=O)[C@@H]1CCC[N@@H+](Cc2cccc3ccccc23)C1)c1ccc(-c2c3nc(c(-c4c(F)cccc4F)c4ccc([nH]4)c(-c4c(F)cccc4F)c4nc(c(-c5c(F)cccc5F)c5ccc2[nH]5)C=C4)C=C3)cc1
REMARK SMILES IDX 6 1 5 2 4 3 3 4 1 5 2 6 30 8 31 9 83 10 32 11 82 12 33 13
REMARK SMILES IDX 34 14 35 15 76 16 36 17 81 18 75 19 77 20 37 21 80 22 74 23
REMARK SMILES IDX 73 24 38 26 64 27 47 28 63 29 48 30 51 31 62 32 78 33 49 34
REMARK SMILES IDX 50 35 61 37 79 38 52 39 39 40 40 41 45 42 41 43 42 44 44 45
REMARK SMILES IDX 46 46 43 47 65 48 66 49 71 50 67 51 68 52 70 53 72 54 69 55
REMARK SMILES IDX 53 56 54 57 59 58 55 59 56 60 58 61 60 62 57 63 7 64 8 65
REMARK SMILES IDX 9 66 10 67 11 68 12 70 13 71 14 72 29 73 15 74 17 75 16 76
REMARK SMILES IDX 18 78 19 79 20 80 28 81 21 82 23 83 27 84 22 85 24 86 26 87
REMARK SMILES IDX 25 88
REMARK H PARENT 3 7 77 25 51 36 10 69 17 77
REMARK Flexibility Score: inf
ROOT
ATOM      1  C   UNL A   1      45.685  21.308  25.228  1.00  0.00     0.002 C 
ENDROOT
BRANCH   1   2
ATOM      2  C   UNL A   1      44.896  20.163  24.590  1.00  0.00     0.021 C 
BRANCH   2   3
ATOM      3  C   UNL A   1      44.335  19.138  25.564  1.00  0.00     0.116 C 
BRANCH   3   4
ATOM      4  N   UNL A   1      42.912  18.912  25.379  1.00  0.00    -0.352 N 
ATOM      5  O   UNL A   1      40.703  19.216  25.717  1.00  0.00    -0.269 OA
ATOM      6  C   UNL A   1      41.847  19.647  25.834  1.00  0.00     0.251 C 
ATOM      7  H   UNL A   1      42.678  18.116  24.849  1.00  0.00     0.163 HD
BRANCH   6   8
ATOM      8  C   UNL A   1      42.078  20.955  26.483  1.00  0.00     0.039 A 
ATOM      9  C   UNL A   1      42.202  21.048  27.870  1.00  0.00     0.014 A 
ATOM     10  C   UNL A   1      42.195  22.102  25.691  1.00  0.00     0.014 A 
ATOM     11  C   UNL A   1      42.311  22.295  28.473  1.00  0.00     0.010 A 
ATOM     12  C   UNL A   1      42.399  23.347  26.293  1.00  0.00     0.010 A 
ATOM     13  C   UNL A   1      42.440  23.455  27.691  1.00  0.00    -0.014 A 
BRANCH  13  14
ATOM     14  C   UNL A   1      42.714  24.745  28.373  1.00  0.00     0.031 A 
ATOM     15  C   UNL A   1      44.089  25.103  28.858  1.00  0.00     0.074 A 
ATOM     16  C   UNL A   1      41.698  25.618  28.502  1.00  0.00     0.049 A 
ATOM     17  N   UNL A   1      44.497  26.214  29.418  1.00  0.00    -0.248 NA
ATOM     18  C   UNL A   1      45.143  24.088  28.704  1.00  0.00     0.031 C 
ATOM     19  C   UNL A   1      40.314  25.366  28.089  1.00  0.00     0.029 A 
ATOM     20  N   UNL A   1      41.668  26.901  28.987  1.00  0.00    -0.354 N 
ATOM     21  C   UNL A   1      45.847  26.032  29.690  1.00  0.00     0.074 A 
ATOM     22  C   UNL A   1      46.186  24.693  29.259  1.00  0.00     0.031 C 
ATOM     23  C   UNL A   1      39.586  26.474  28.284  1.00  0.00     0.029 A 
ATOM     24  C   UNL A   1      40.432  27.493  28.891  1.00  0.00     0.049 A 
ATOM     25  H   UNL A   1      42.456  27.353  29.367  1.00  0.00     0.167 HD
ATOM     26  C   UNL A   1      46.721  26.909  30.240  1.00  0.00     0.037 A 
ATOM     27  C   UNL A   1      40.019  28.717  29.262  1.00  0.00     0.037 A 
ATOM     28  C   UNL A   1      46.378  28.244  30.661  1.00  0.00     0.049 A 
ATOM     29  C   UNL A   1      41.011  29.660  29.877  1.00  0.00     0.074 A 
ATOM     30  C   UNL A   1      47.197  29.212  31.217  1.00  0.00     0.029 A 
ATOM     31  N   UNL A   1      45.109  28.799  30.574  1.00  0.00    -0.354 N 
ATOM     32  N   UNL A   1      42.290  29.481  30.102  1.00  0.00    -0.248 NA
ATOM     33  C   UNL A   1      40.502  30.972  30.294  1.00  0.00     0.031 C 
ATOM     34  C   UNL A   1      46.418  30.339  31.499  1.00  0.00     0.029 A 
ATOM     35  C   UNL A   1      45.121  30.090  31.080  1.00  0.00     0.049 A 
ATOM     36  H   UNL A   1      44.317  28.344  30.208  1.00  0.00     0.167 HD
ATOM     37  C   UNL A   1      42.739  30.657  30.681  1.00  0.00     0.074 A 
ATOM     38  C   UNL A   1      41.604  31.556  30.739  1.00  0.00     0.031 C 
ATOM     39  C   UNL A   1      43.979  30.965  31.135  1.00  0.00     0.037 A 
BRANCH  26  40
ATOM     40  C   UNL A   1      48.142  26.458  30.425  1.00  0.00     0.057 A 
ATOM     41  C   UNL A   1      48.554  25.777  31.578  1.00  0.00     0.134 A 
ATOM     42  C   UNL A   1      49.090  26.644  29.412  1.00  0.00     0.134 A 
ATOM     43  F   UNL A   1      47.697  25.575  32.591  1.00  0.00    -0.206 F 
ATOM     44  C   UNL A   1      49.861  25.304  31.719  1.00  0.00     0.040 A 
ATOM     45  C   UNL A   1      50.393  26.158  29.532  1.00  0.00     0.040 A 
ATOM     46  F   UNL A   1      48.760  27.282  28.279  1.00  0.00    -0.206 F 
ATOM     47  C   UNL A   1      50.782  25.487  30.689  1.00  0.00     0.006 A 
ENDBRANCH  26  40
BRANCH  27  48
ATOM     48  C   UNL A   1      38.601  29.110  29.077  1.00  0.00     0.057 A 
ATOM     49  C   UNL A   1      38.129  29.572  27.843  1.00  0.00     0.134 A 
ATOM     50  C   UNL A   1      37.683  29.036  30.133  1.00  0.00     0.134 A 
ATOM     51  F   UNL A   1      38.962  29.681  26.798  1.00  0.00    -0.206 F 
ATOM     52  C   UNL A   1      36.801  29.966  27.672  1.00  0.00     0.040 A 
ATOM     53  C   UNL A   1      36.347  29.397  29.967  1.00  0.00     0.040 A 
ATOM     54  F   UNL A   1      38.072  28.592  31.338  1.00  0.00    -0.206 F 
ATOM     55  C   UNL A   1      35.904  29.873  28.735  1.00  0.00     0.006 A 
ENDBRANCH  27  48
BRANCH  39  56
ATOM     56  C   UNL A   1      44.158  32.334  31.721  1.00  0.00     0.057 A 
ATOM     57  C   UNL A   1      43.937  32.585  33.081  1.00  0.00     0.134 A 
ATOM     58  C   UNL A   1      44.552  33.410  30.917  1.00  0.00     0.134 A 
ATOM     59  F   UNL A   1      43.541  31.599  33.900  1.00  0.00    -0.206 F 
ATOM     60  C   UNL A   1      44.071  33.868  33.614  1.00  0.00     0.040 A 
ATOM     61  C   UNL A   1      44.715  34.691  31.444  1.00  0.00     0.040 A 
ATOM     62  F   UNL A   1      44.786  33.233  29.607  1.00  0.00    -0.206 F 
ATOM     63  C   UNL A   1      44.464  34.924  32.795  1.00  0.00     0.006 A 
ENDBRANCH  39  56
ENDBRANCH  13  14
ENDBRANCH   6   8
ENDBRANCH   3   4
ENDBRANCH   2   3
ENDBRANCH   1   2
BRANCH   1  64
ATOM     64  C   UNL A   1      46.035  22.482  24.307  1.00  0.00     0.002 C 
BRANCH  64  65
ATOM     65  C   UNL A   1      45.588  23.862  24.785  1.00  0.00     0.021 C 
BRANCH  65  66
ATOM     66  C   UNL A   1      46.709  24.787  25.237  1.00  0.00     0.116 C 
BRANCH  66  67
ATOM     67  N   UNL A   1      46.671  26.092  24.635  1.00  0.00    -0.356 N 
ATOM     68  C   UNL A   1      45.843  27.135  24.900  1.00  0.00     0.228 C 
ATOM     69  H   UNL A   1      47.340  26.253  23.931  1.00  0.00     0.163 HD
ATOM     70  O   UNL A   1      46.064  28.187  24.288  1.00  0.00    -0.275 OA
BRANCH  68  71
ATOM     71  C   UNL A   1      44.639  27.051  25.846  1.00  0.00     0.133 C 
ATOM     72  C   UNL A   1      43.261  26.727  25.257  1.00  0.00     0.025 C 
ATOM     73  C   UNL A   1      44.631  28.190  26.863  1.00  0.00     0.276 C 
ATOM     74  C   UNL A   1      42.249  27.876  25.185  1.00  0.00     0.062 C 
ATOM     75  N   UNL A   1      43.861  29.353  26.419  1.00  0.00    -0.331 N 
ATOM     76  C   UNL A   1      42.452  29.002  26.205  1.00  0.00     0.262 C 
ATOM     77  H   UNL A   1      44.226  29.640  25.510  1.00  0.00     0.348 HD
BRANCH  75  78
ATOM     78  C   UNL A   1      44.060  30.535  27.291  1.00  0.00     0.299 C 
BRANCH  78  79
ATOM     79  C   UNL A   1      45.407  31.235  27.172  1.00  0.00     0.014 A 
ATOM     80  C   UNL A   1      46.518  30.623  27.783  1.00  0.00     0.010 A 
ATOM     81  C   UNL A   1      45.560  32.514  26.558  1.00  0.00    -0.010 A 
ATOM     82  C   UNL A   1      47.724  31.297  27.918  1.00  0.00     0.001 A 
ATOM     83  C   UNL A   1      46.800  33.188  26.707  1.00  0.00    -0.018 A 
ATOM     84  C   UNL A   1      44.557  33.172  25.803  1.00  0.00     0.009 A 
ATOM     85  C   UNL A   1      47.853  32.583  27.407  1.00  0.00     0.009 A 
ATOM     86  C   UNL A   1      46.982  34.467  26.155  1.00  0.00     0.009 A 
ATOM     87  C   UNL A   1      44.764  34.430  25.232  1.00  0.00     0.001 A 
ATOM     88  C   UNL A   1      45.974  35.083  25.419  1.00  0.00     0.001 A 
ENDBRANCH  78  79
ENDBRANCH  75  78
ENDBRANCH  68  71
ENDBRANCH  66  67
ENDBRANCH  65  66
ENDBRANCH  64  65
ENDBRANCH   1  64
TORSDOF 15
ENDMDL
MODEL 2
REMARK VINA RESULT:      -9.5      0.376      6.106
REMARK SMILES O=C(NCCCCCCNC(=O)[C@@H]1CCC[N@@H+](Cc2cccc3ccccc23)C1)c1ccc(-c2c3nc(c(-c4c(F)cccc4F)c4ccc([nH]4)c(-c4c(F)cccc4F)c4nc(c(-c5c(F)cccc5F)c5ccc2[nH]5)C=C4)C=C3)cc1
REMARK SMILES IDX 6 1 5 2 4 3 3 4 1 5 2 6 30 8 31 9 83 10 32 11 82 12 33 13
REMARK SMILES IDX 34 14 35 15 76 16 36 17 81 18 75 19 77 20 37 21 80 22 74 23
REMARK SMILES IDX 73 24 38 26 64 27 47 28 63 29 48 30 51 31 62 32 78 33 49 34
REMARK SMILES IDX 50 35 61 37 79 38 52 39 39 40 40 41 45 42 41 43 42 44 44 45
REMARK SMILES IDX 46 46 43 47 65 48 66 49 71 50 67 51 68 52 70 53 72 54 69 55
REMARK SMILES IDX 53 56 54 57 59 58 55 59 56 60 58 61 60 62 57 63 7 64 8 65
REMARK SMILES IDX 9 66 10 67 11 68 12 70 13 71 14 72 29 73 15 74 17 75 16 76
REMARK SMILES IDX 18 78 19 79 20 80 28 81 21 82 23 83 27 84 22 85 24 86 26 87
REMARK SMILES IDX 25 88
REMARK H PARENT 3 7 77 25 51 36 10 69 17 77
REMARK Flexibility Score: inf
ROOT
ATOM      1  C   UNL A   1      45.803  21.390  24.945  1.00  0.00     0.002 C 
ENDROOT
BRANCH   1   2
ATOM      2  C   UNL A   1      44.917  20.266  24.404  1.00  0.00     0.021 C 
BRANCH   2   3
ATOM      3  C   UNL A   1      44.439  19.259  25.438  1.00  0.00     0.116 C 
BRANCH   3   4
ATOM      4  N   UNL A   1      43.017  18.979  25.330  1.00  0.00    -0.352 N 
ATOM      5  O   UNL A   1      40.818  19.214  25.773  1.00  0.00    -0.269 OA
ATOM      6  C   UNL A   1      41.950  19.687  25.824  1.00  0.00     0.251 C 
ATOM      7  H   UNL A   1      42.786  18.164  24.828  1.00  0.00     0.163 HD
BRANCH   6   8
ATOM      8  C   UNL A   1      42.166  21.015  26.435  1.00  0.00     0.039 A 
ATOM      9  C   UNL A   1      42.347  21.143  27.813  1.00  0.00     0.014 A 
ATOM     10  C   UNL A   1      42.212  22.147  25.615  1.00  0.00     0.014 A 
ATOM     11  C   UNL A   1      42.441  22.405  28.384  1.00  0.00     0.010 A 
ATOM     12  C   UNL A   1      42.401  23.411  26.181  1.00  0.00     0.010 A 
ATOM     13  C   UNL A   1      42.498  23.551  27.573  1.00  0.00    -0.014 A 
BRANCH  13  14
ATOM     14  C   UNL A   1      42.760  24.864  28.216  1.00  0.00     0.031 A 
ATOM     15  C   UNL A   1      41.667  25.873  28.422  1.00  0.00     0.074 A 
ATOM     16  C   UNL A   1      44.007  25.111  28.660  1.00  0.00     0.049 A 
ATOM     17  N   UNL A   1      41.728  27.037  29.018  1.00  0.00    -0.248 NA
ATOM     18  C   UNL A   1      40.337  25.543  27.887  1.00  0.00     0.031 C 
ATOM     19  C   UNL A   1      45.153  24.212  28.493  1.00  0.00     0.029 A 
ATOM     20  N   UNL A   1      44.518  26.169  29.367  1.00  0.00    -0.354 N 
ATOM     21  C   UNL A   1      40.453  27.581  28.926  1.00  0.00     0.074 A 
ATOM     22  C   UNL A   1      39.644  26.633  28.191  1.00  0.00     0.031 C 
ATOM     23  C   UNL A   1      46.215  24.728  29.127  1.00  0.00     0.029 A 
ATOM     24  C   UNL A   1      45.845  26.018  29.692  1.00  0.00     0.049 A 
ATOM     25  H   UNL A   1      43.987  26.959  29.617  1.00  0.00     0.167 HD
ATOM     26  C   UNL A   1      40.003  28.760  29.419  1.00  0.00     0.037 A 
ATOM     27  C   UNL A   1      46.677  26.835  30.362  1.00  0.00     0.037 A 
ATOM     28  C   UNL A   1      40.814  29.696  30.156  1.00  0.00     0.049 A 
ATOM     29  C   UNL A   1      46.149  28.136  30.886  1.00  0.00     0.074 A 
ATOM     30  C   UNL A   1      40.445  30.911  30.709  1.00  0.00     0.029 A 
ATOM     31  N   UNL A   1      42.160  29.523  30.442  1.00  0.00    -0.354 N 
ATOM     32  N   UNL A   1      44.933  28.623  30.813  1.00  0.00    -0.248 NA
ATOM     33  C   UNL A   1      47.106  29.005  31.582  1.00  0.00     0.031 C 
ATOM     34  C   UNL A   1      41.575  31.489  31.298  1.00  0.00     0.029 A 
ATOM     35  C   UNL A   1      42.640  30.615  31.150  1.00  0.00     0.049 A 
ATOM     36  H   UNL A   1      42.698  28.740  30.181  1.00  0.00     0.167 HD
ATOM     37  C   UNL A   1      44.979  29.850  31.457  1.00  0.00     0.074 A 
ATOM     38  C   UNL A   1      46.333  30.017  31.946  1.00  0.00     0.031 C 
ATOM     39  C   UNL A   1      43.992  30.764  31.620  1.00  0.00     0.037 A 
BRANCH  26  40
ATOM     40  C   UNL A   1      38.563  29.115  29.180  1.00  0.00     0.057 A 
ATOM     41  C   UNL A   1      37.610  29.051  30.204  1.00  0.00     0.134 A 
ATOM     42  C   UNL A   1      38.141  29.593  27.934  1.00  0.00     0.134 A 
ATOM     43  F   UNL A   1      37.946  28.593  31.420  1.00  0.00    -0.206 F 
ATOM     44  C   UNL A   1      36.285  29.443  29.994  1.00  0.00     0.040 A 
ATOM     45  C   UNL A   1      36.826  30.006  27.717  1.00  0.00     0.040 A 
ATOM     46  F   UNL A   1      39.005  29.685  26.911  1.00  0.00    -0.206 F 
ATOM     47  C   UNL A   1      35.893  29.931  28.749  1.00  0.00     0.006 A 
ENDBRANCH  26  40
BRANCH  27  48
ATOM     48  C   UNL A   1      48.097  26.450  30.556  1.00  0.00     0.057 A 
ATOM     49  C   UNL A   1      48.506  25.719  31.677  1.00  0.00     0.134 A 
ATOM     50  C   UNL A   1      49.080  26.807  29.625  1.00  0.00     0.134 A 
ATOM     51  F   UNL A   1      47.614  25.361  32.613  1.00  0.00    -0.206 F 
ATOM     52  C   UNL A   1      49.844  25.376  31.876  1.00  0.00     0.040 A 
ATOM     53  C   UNL A   1      50.415  26.445  29.795  1.00  0.00     0.040 A 
ATOM     54  F   UNL A   1      48.750  27.500  28.524  1.00  0.00    -0.206 F 
ATOM     55  C   UNL A   1      50.803  25.735  30.929  1.00  0.00     0.006 A 
ENDBRANCH  27  48
BRANCH  39  56
ATOM     56  C   UNL A   1      44.352  32.014  32.367  1.00  0.00     0.057 A 
ATOM     57  C   UNL A   1      44.149  32.128  33.748  1.00  0.00     0.134 A 
ATOM     58  C   UNL A   1      44.903  33.114  31.698  1.00  0.00     0.134 A 
ATOM     59  F   UNL A   1      43.609  31.115  34.443  1.00  0.00    -0.206 F 
ATOM     60  C   UNL A   1      44.453  33.306  34.433  1.00  0.00     0.040 A 
ATOM     61  C   UNL A   1      45.235  34.287  32.376  1.00  0.00     0.040 A 
ATOM     62  F   UNL A   1      45.128  33.065  30.376  1.00  0.00    -0.206 F 
ATOM     63  C   UNL A   1      45.000  34.388  33.746  1.00  0.00     0.006 A 
ENDBRANCH  39  56
ENDBRANCH  13  14
ENDBRANCH   6   8
ENDBRANCH   3   4
ENDBRANCH   2   3
ENDBRANCH   1   2
BRANCH   1  64
ATOM     64  C   UNL A   1      45.880  22.660  24.091  1.00  0.00     0.002 C 
BRANCH  64  65
ATOM     65  C   UNL A   1      45.436  23.952  24.773  1.00  0.00     0.021 C 
BRANCH  65  66
ATOM     66  C   UNL A   1      46.563  24.852  25.256  1.00  0.00     0.116 C 
BRANCH  66  67
ATOM     67  N   UNL A   1      46.550  26.169  24.679  1.00  0.00    -0.356 N 
ATOM     68  C   UNL A   1      45.722  27.213  24.942  1.00  0.00     0.228 C 
ATOM     69  H   UNL A   1      47.240  26.339  23.998  1.00  0.00     0.163 HD
ATOM     70  O   UNL A   1      45.967  28.274  24.357  1.00  0.00    -0.275 OA
BRANCH  68  71
ATOM     71  C   UNL A   1      44.491  27.118  25.852  1.00  0.00     0.133 C 
ATOM     72  C   UNL A   1      43.120  26.872  25.212  1.00  0.00     0.025 C 
ATOM     73  C   UNL A   1      44.492  28.202  26.928  1.00  0.00     0.276 C 
ATOM     74  C   UNL A   1      42.147  28.056  25.177  1.00  0.00     0.062 C 
ATOM     75  N   UNL A   1      43.772  29.412  26.528  1.00  0.00    -0.331 N 
ATOM     76  C   UNL A   1      42.358  29.120  26.261  1.00  0.00     0.262 C 
ATOM     77  H   UNL A   1      44.170  29.734  25.646  1.00  0.00     0.348 HD
BRANCH  75  78
ATOM     78  C   UNL A   1      43.985  30.538  27.468  1.00  0.00     0.299 C 
BRANCH  78  79
ATOM     79  C   UNL A   1      45.350  31.211  27.406  1.00  0.00     0.014 A 
ATOM     80  C   UNL A   1      46.408  30.611  28.115  1.00  0.00     0.010 A 
ATOM     81  C   UNL A   1      45.566  32.459  26.748  1.00  0.00    -0.010 A 
ATOM     82  C   UNL A   1      47.615  31.272  28.299  1.00  0.00     0.001 A 
ATOM     83  C   UNL A   1      46.806  33.119  26.947  1.00  0.00    -0.018 A 
ATOM     84  C   UNL A   1      44.626  33.097  25.900  1.00  0.00     0.009 A 
ATOM     85  C   UNL A   1      47.800  32.530  27.740  1.00  0.00     0.009 A 
ATOM     86  C   UNL A   1      47.046  34.369  26.352  1.00  0.00     0.009 A 
ATOM     87  C   UNL A   1      44.893  34.325  25.288  1.00  0.00     0.001 A 
ATOM     88  C   UNL A   1      46.099  34.967  25.525  1.00  0.00     0.001 A 
ENDBRANCH  78  79
ENDBRANCH  75  78
ENDBRANCH  68  71
ENDBRANCH  66  67
ENDBRANCH  65  66
ENDBRANCH  64  65
ENDBRANCH   1  64
TORSDOF 15
ENDMDL
MODEL 3
REMARK VINA RESULT:      -9.2      5.775     11.891
REMARK SMILES O=C(NCCCCCCNC(=O)[C@@H]1CCC[N@@H+](Cc2cccc3ccccc23)C1)c1ccc(-c2c3nc(c(-c4c(F)cccc4F)c4ccc([nH]4)c(-c4c(F)cccc4F)c4nc(c(-c5c(F)cccc5F)c5ccc2[nH]5)C=C4)C=C3)cc1
REMARK SMILES IDX 6 1 5 2 4 3 3 4 1 5 2 6 30 8 31 9 83 10 32 11 82 12 33 13
REMARK SMILES IDX 34 14 35 15 76 16 36 17 81 18 75 19 77 20 37 21 80 22 74 23
REMARK SMILES IDX 73 24 38 26 64 27 47 28 63 29 48 30 51 31 62 32 78 33 49 34
REMARK SMILES IDX 50 35 61 37 79 38 52 39 39 40 40 41 45 42 41 43 42 44 44 45
REMARK SMILES IDX 46 46 43 47 65 48 66 49 71 50 67 51 68 52 70 53 72 54 69 55
REMARK SMILES IDX 53 56 54 57 59 58 55 59 56 60 58 61 60 62 57 63 7 64 8 65
REMARK SMILES IDX 9 66 10 67 11 68 12 70 13 71 14 72 29 73 15 74 17 75 16 76
REMARK SMILES IDX 18 78 19 79 20 80 28 81 21 82 23 83 27 84 22 85 24 86 26 87
REMARK SMILES IDX 25 88
REMARK H PARENT 3 7 77 25 51 36 10 69 17 77
REMARK Flexibility Score: inf
ROOT
ATOM      1  C   UNL A   1      31.601  30.699  26.156  1.00  0.00     0.002 C 
ENDROOT
BRANCH   1   2
ATOM      2  C   UNL A   1      31.435  32.166  26.557  1.00  0.00     0.021 C 
BRANCH   2   3
ATOM      3  C   UNL A   1      32.709  32.866  27.005  1.00  0.00     0.116 C 
BRANCH   3   4
ATOM      4  N   UNL A   1      32.449  34.150  27.634  1.00  0.00    -0.352 N 
ATOM      5  O   UNL A   1      32.606  35.757  29.209  1.00  0.00    -0.269 OA
ATOM      6  C   UNL A   1      33.065  34.731  28.714  1.00  0.00     0.251 C 
ATOM      7  H   UNL A   1      31.728  34.681  27.225  1.00  0.00     0.163 HD
BRANCH   6   8
ATOM      8  C   UNL A   1      34.276  34.112  29.294  1.00  0.00     0.039 A 
ATOM      9  C   UNL A   1      34.168  33.106  30.255  1.00  0.00     0.014 A 
ATOM     10  C   UNL A   1      35.536  34.527  28.852  1.00  0.00     0.014 A 
ATOM     11  C   UNL A   1      35.311  32.609  30.868  1.00  0.00     0.010 A 
ATOM     12  C   UNL A   1      36.689  33.959  29.403  1.00  0.00     0.010 A 
ATOM     13  C   UNL A   1      36.585  33.009  30.429  1.00  0.00    -0.014 A 
BRANCH  13  14
ATOM     14  C   UNL A   1      37.777  32.335  31.002  1.00  0.00     0.031 A 
ATOM     15  C   UNL A   1      38.284  32.663  32.376  1.00  0.00     0.074 A 
ATOM     16  C   UNL A   1      38.371  31.374  30.268  1.00  0.00     0.049 A 
ATOM     17  N   UNL A   1      39.277  32.119  33.035  1.00  0.00    -0.248 NA
ATOM     18  C   UNL A   1      37.600  33.741  33.107  1.00  0.00     0.031 C 
ATOM     19  C   UNL A   1      37.978  30.989  28.909  1.00  0.00     0.029 A 
ATOM     20  N   UNL A   1      39.407  30.526  30.565  1.00  0.00    -0.354 N 
ATOM     21  C   UNL A   1      39.343  32.790  34.250  1.00  0.00     0.074 A 
ATOM     22  C   UNL A   1      38.307  33.801  34.228  1.00  0.00     0.031 C 
ATOM     23  C   UNL A   1      38.721  29.947  28.513  1.00  0.00     0.029 A 
ATOM     24  C   UNL A   1      39.683  29.629  29.560  1.00  0.00     0.049 A 
ATOM     25  H   UNL A   1      39.903  30.556  31.414  1.00  0.00     0.167 HD
ATOM     26  C   UNL A   1      40.184  32.572  35.288  1.00  0.00     0.037 A 
ATOM     27  C   UNL A   1      40.616  28.664  29.484  1.00  0.00     0.037 A 
ATOM     28  C   UNL A   1      41.210  31.558  35.305  1.00  0.00     0.049 A 
ATOM     29  C   UNL A   1      41.539  28.456  30.648  1.00  0.00     0.074 A 
ATOM     30  C   UNL A   1      42.104  31.250  36.317  1.00  0.00     0.029 A 
ATOM     31  N   UNL A   1      41.478  30.687  34.259  1.00  0.00    -0.354 N 
ATOM     32  N   UNL A   1      41.569  29.081  31.800  1.00  0.00    -0.248 NA
ATOM     33  C   UNL A   1      42.560  27.411  30.500  1.00  0.00     0.031 C 
ATOM     34  C   UNL A   1      42.936  30.219  35.869  1.00  0.00     0.029 A 
ATOM     35  C   UNL A   1      42.533  29.853  34.595  1.00  0.00     0.049 A 
ATOM     36  H   UNL A   1      40.992  30.665  33.403  1.00  0.00     0.167 HD
ATOM     37  C   UNL A   1      42.606  28.503  32.515  1.00  0.00     0.074 A 
ATOM     38  C   UNL A   1      43.156  27.453  31.682  1.00  0.00     0.031 C 
ATOM     39  C   UNL A   1      43.071  28.820  33.748  1.00  0.00     0.037 A 
BRANCH  26  40
ATOM     40  C   UNL A   1      40.042  33.445  36.501  1.00  0.00     0.057 A 
ATOM     41  C   UNL A   1      40.749  34.648  36.629  1.00  0.00     0.134 A 
ATOM     42  C   UNL A   1      39.137  33.117  37.518  1.00  0.00     0.134 A 
ATOM     43  F   UNL A   1      41.639  35.017  35.695  1.00  0.00    -0.206 F 
ATOM     44  C   UNL A   1      40.566  35.489  37.730  1.00  0.00     0.040 A 
ATOM     45  C   UNL A   1      38.930  33.959  38.613  1.00  0.00     0.040 A 
ATOM     46  F   UNL A   1      38.423  31.983  37.455  1.00  0.00    -0.206 F 
ATOM     47  C   UNL A   1      39.647  35.149  38.721  1.00  0.00     0.006 A 
ENDBRANCH  26  40
BRANCH  27  48
ATOM     48  C   UNL A   1      40.731  27.839  28.256  1.00  0.00     0.057 A 
ATOM     49  C   UNL A   1      40.061  26.616  28.136  1.00  0.00     0.134 A 
ATOM     50  C   UNL A   1      41.518  28.253  27.175  1.00  0.00     0.134 A 
ATOM     51  F   UNL A   1      39.305  26.158  29.144  1.00  0.00    -0.206 F 
ATOM     52  C   UNL A   1      40.187  25.826  26.993  1.00  0.00     0.040 A 
ATOM     53  C   UNL A   1      41.628  27.488  26.014  1.00  0.00     0.040 A 
ATOM     54  F   UNL A   1      42.178  29.421  27.224  1.00  0.00    -0.206 F 
ATOM     55  C   UNL A   1      40.968  26.265  25.925  1.00  0.00     0.006 A 
ENDBRANCH  27  48
BRANCH  39  56
ATOM     56  C   UNL A   1      44.223  28.008  34.260  1.00  0.00     0.057 A 
ATOM     57  C   UNL A   1      45.551  28.401  34.049  1.00  0.00     0.134 A 
ATOM     58  C   UNL A   1      44.001  26.820  34.968  1.00  0.00     0.134 A 
ATOM     59  F   UNL A   1      45.828  29.520  33.363  1.00  0.00    -0.206 F 
ATOM     60  C   UNL A   1      46.619  27.623  34.496  1.00  0.00     0.040 A 
ATOM     61  C   UNL A   1      45.062  26.048  35.443  1.00  0.00     0.040 A 
ATOM     62  F   UNL A   1      42.752  26.392  35.209  1.00  0.00    -0.206 F 
ATOM     63  C   UNL A   1      46.375  26.444  35.199  1.00  0.00     0.006 A 
ENDBRANCH  39  56
ENDBRANCH  13  14
ENDBRANCH   6   8
ENDBRANCH   3   4
ENDBRANCH   2   3
ENDBRANCH   1   2
BRANCH   1  64
ATOM     64  C   UNL A   1      32.932  30.042  26.536  1.00  0.00     0.002 C 
BRANCH  64  65
ATOM     65  C   UNL A   1      32.833  28.684  27.227  1.00  0.00     0.021 C 
BRANCH  65  66
ATOM     66  C   UNL A   1      31.419  28.196  27.503  1.00  0.00     0.116 C 
BRANCH  66  67
ATOM     67  N   UNL A   1      31.180  26.835  27.105  1.00  0.00    -0.356 N 
ATOM     68  C   UNL A   1      31.469  26.222  25.929  1.00  0.00     0.228 C 
ATOM     69  H   UNL A   1      30.745  26.267  27.782  1.00  0.00     0.163 HD
ATOM     70  O   UNL A   1      31.225  25.012  25.861  1.00  0.00    -0.275 OA
BRANCH  68  71
ATOM     71  C   UNL A   1      32.006  26.955  24.693  1.00  0.00     0.133 C 
ATOM     72  C   UNL A   1      31.028  27.768  23.837  1.00  0.00     0.025 C 
ATOM     73  C   UNL A   1      32.967  26.085  23.887  1.00  0.00     0.276 C 
ATOM     74  C   UNL A   1      30.648  27.183  22.473  1.00  0.00     0.062 C 
ATOM     75  N   UNL A   1      32.306  25.330  22.821  1.00  0.00    -0.331 N 
ATOM     76  C   UNL A   1      31.676  26.232  21.849  1.00  0.00     0.262 C 
ATOM     77  H   UNL A   1      31.550  24.792  23.244  1.00  0.00     0.348 HD
BRANCH  75  78
ATOM     78  C   UNL A   1      33.193  24.312  22.209  1.00  0.00     0.299 C 
BRANCH  78  79
ATOM     79  C   UNL A   1      33.329  23.000  22.970  1.00  0.00     0.014 A 
ATOM     80  C   UNL A   1      32.168  22.223  23.146  1.00  0.00     0.010 A 
ATOM     81  C   UNL A   1      34.549  22.586  23.584  1.00  0.00    -0.010 A 
ATOM     82  C   UNL A   1      32.154  21.139  24.013  1.00  0.00     0.001 A 
ATOM     83  C   UNL A   1      34.516  21.476  24.466  1.00  0.00    -0.018 A 
ATOM     84  C   UNL A   1      35.807  23.207  23.378  1.00  0.00     0.009 A 
ATOM     85  C   UNL A   1      33.316  20.787  24.689  1.00  0.00     0.009 A 
ATOM     86  C   UNL A   1      35.685  21.060  25.125  1.00  0.00     0.009 A 
ATOM     87  C   UNL A   1      36.967  22.761  24.015  1.00  0.00     0.001 A 
ATOM     88  C   UNL A   1      36.904  21.694  24.898  1.00  0.00     0.001 A 
ENDBRANCH  78  79
ENDBRANCH  75  78
ENDBRANCH  68  71
ENDBRANCH  66  67
ENDBRANCH  65  66
ENDBRANCH  64  65
ENDBRANCH   1  64
TORSDOF 15
ENDMDL
