MODEL 1
REMARK VINA RESULT:     -11.8      0.000      0.000
REMARK SMILES CC(C)N1C(=O)C[C@@H]([N@@H+]2CC[C@H](C(=O)NCCCCCCNC(=O)c3ccc(-c4c5nc(c(-c6c(F)cccc6F)c6ccc([nH]6)c(-c6c(F)cccc6F)c6nc(c(-c7c(F)cccc7F)c7ccc4[nH]7)C=C6)C=C5)cc3)[C@@H]2C)C1=O
REMARK SMILES IDX 18 1 17 2 16 3 15 4 13 5 14 6 12 8 9 9 10 10 79 11 11 13
REMARK SMILES IDX 80 14 8 15 4 16 5 17 81 18 6 19 7 20 82 21 2 22 1 23 3 24
REMARK SMILES IDX 19 25 20 26 21 27 22 28 23 29 24 31 25 32 26 33 78 34 27 35
REMARK SMILES IDX 77 36 28 37 29 38 30 39 71 40 31 41 76 42 70 43 72 44 32 45
REMARK SMILES IDX 75 46 69 47 68 48 33 50 59 51 42 52 58 53 43 54 46 55 57 56
REMARK SMILES IDX 73 57 44 58 45 59 56 61 74 62 47 63 34 64 35 65 40 66 36 67
REMARK SMILES IDX 37 68 39 69 41 70 38 71 60 72 61 73 66 74 62 75 63 76 65 77
REMARK SMILES IDX 67 78 64 79 48 80 49 81 54 82 50 83 51 84 53 85 55 86 52 87
REMARK H PARENT 15 7 9 12 22 30 72 49 46 60
REMARK Flexibility Score: inf
ROOT
ATOM      1  C   UNL A   1      32.789  29.927  27.027  1.00  0.00     0.002 C 
ENDROOT
BRANCH   1   2
ATOM      2  C   UNL A   1      33.570  28.872  26.238  1.00  0.00     0.021 C 
BRANCH   2   3
ATOM      3  C   UNL A   1      33.255  27.428  26.619  1.00  0.00     0.116 C 
BRANCH   3   4
ATOM      4  N   UNL A   1      32.689  26.690  25.508  1.00  0.00    -0.356 N 
ATOM      5  C   UNL A   1      32.587  25.351  25.299  1.00  0.00     0.229 C 
ATOM      6  O   UNL A   1      32.024  24.971  24.271  1.00  0.00    -0.275 OA
ATOM      7  H   UNL A   1      32.317  27.250  24.787  1.00  0.00     0.163 HD
BRANCH   5   8
ATOM      8  C   UNL A   1      33.178  24.379  26.309  1.00  0.00     0.142 C 
ATOM      9  N   UNL A   1      33.488  22.122  25.535  1.00  0.00    -0.321 N 
ATOM     10  C   UNL A   1      32.090  22.281  25.937  1.00  0.00     0.264 C 
ATOM     11  C   UNL A   1      34.199  23.401  25.702  1.00  0.00     0.194 C 
ATOM     12  H   UNL A   1      33.962  21.486  26.177  1.00  0.00     0.349 HD
ATOM     13  C   UNL A   1      32.087  23.475  26.868  1.00  0.00     0.081 C 
ATOM     14  C   UNL A   1      35.035  23.959  24.549  1.00  0.00     0.076 C 
BRANCH   9  15
ATOM     15  C   UNL A   1      33.707  21.325  24.321  1.00  0.00     0.284 C 
ATOM     16  N   UNL A   1      33.692  18.967  24.330  1.00  0.00    -0.275 N 
ATOM     17  C   UNL A   1      32.575  19.327  23.633  1.00  0.00     0.236 C 
ATOM     18  C   UNL A   1      34.475  20.045  24.645  1.00  0.00     0.288 C 
ATOM     19  O   UNL A   1      31.782  18.582  23.080  1.00  0.00    -0.274 OA
ATOM     20  C   UNL A   1      32.462  20.818  23.600  1.00  0.00     0.176 C 
ATOM     21  O   UNL A   1      35.604  19.999  25.119  1.00  0.00    -0.267 OA
BRANCH  16  22
ATOM     22  C   UNL A   1      34.100  17.589  24.592  1.00  0.00     0.087 C 
ATOM     23  C   UNL A   1      33.154  16.884  25.567  1.00  0.00     0.031 C 
ATOM     24  C   UNL A   1      34.250  16.801  23.293  1.00  0.00     0.031 C 
ENDBRANCH  16  22
ENDBRANCH   9  15
ENDBRANCH   5   8
ENDBRANCH   3   4
ENDBRANCH   2   3
ENDBRANCH   1   2
BRANCH   1  25
ATOM     25  C   UNL A   1      31.718  30.678  26.231  1.00  0.00     0.002 C 
BRANCH  25  26
ATOM     26  C   UNL A   1      31.469  32.121  26.677  1.00  0.00     0.021 C 
BRANCH  26  27
ATOM     27  C   UNL A   1      32.676  32.813  27.299  1.00  0.00     0.116 C 
BRANCH  27  28
ATOM     28  N   UNL A   1      32.404  34.200  27.635  1.00  0.00    -0.352 N 
ATOM     29  C   UNL A   1      32.986  34.994  28.592  1.00  0.00     0.251 C 
ATOM     30  H   UNL A   1      31.700  34.633  27.099  1.00  0.00     0.163 HD
ATOM     31  O   UNL A   1      32.502  36.088  28.865  1.00  0.00    -0.269 OA
BRANCH  29  32
ATOM     32  C   UNL A   1      34.185  34.517  29.313  1.00  0.00     0.039 A 
ATOM     33  C   UNL A   1      34.030  33.959  30.583  1.00  0.00     0.014 A 
ATOM     34  C   UNL A   1      35.456  34.617  28.739  1.00  0.00     0.014 A 
ATOM     35  C   UNL A   1      35.141  33.441  31.251  1.00  0.00     0.010 A 
ATOM     36  C   UNL A   1      36.549  34.031  29.372  1.00  0.00     0.010 A 
ATOM     37  C   UNL A   1      36.404  33.436  30.635  1.00  0.00    -0.014 A 
BRANCH  37  38
ATOM     38  C   UNL A   1      37.575  32.800  31.290  1.00  0.00     0.031 A 
ATOM     39  C   UNL A   1      38.227  31.591  30.676  1.00  0.00     0.074 A 
ATOM     40  C   UNL A   1      38.015  33.278  32.471  1.00  0.00     0.049 A 
ATOM     41  N   UNL A   1      39.216  30.866  31.133  1.00  0.00    -0.248 NA
ATOM     42  C   UNL A   1      37.682  31.121  29.393  1.00  0.00     0.031 C 
ATOM     43  C   UNL A   1      37.438  34.415  33.192  1.00  0.00     0.029 A 
ATOM     44  N   UNL A   1      39.041  32.859  33.281  1.00  0.00    -0.354 N 
ATOM     45  C   UNL A   1      39.404  29.851  30.202  1.00  0.00     0.074 A 
ATOM     46  C   UNL A   1      38.394  30.023  29.182  1.00  0.00     0.031 C 
ATOM     47  C   UNL A   1      38.132  34.616  34.324  1.00  0.00     0.029 A 
ATOM     48  C   UNL A   1      39.172  33.599  34.433  1.00  0.00     0.049 A 
ATOM     49  H   UNL A   1      39.629  32.101  33.058  1.00  0.00     0.167 HD
ATOM     50  C   UNL A   1      40.347  28.880  30.189  1.00  0.00     0.037 A 
ATOM     51  C   UNL A   1      40.024  33.463  35.466  1.00  0.00     0.037 A 
ATOM     52  C   UNL A   1      41.364  28.725  31.196  1.00  0.00     0.049 A 
ATOM     53  C   UNL A   1      41.048  32.362  35.434  1.00  0.00     0.074 A 
ATOM     54  C   UNL A   1      42.401  27.809  31.237  1.00  0.00     0.029 A 
ATOM     55  N   UNL A   1      41.471  29.500  32.340  1.00  0.00    -0.354 N 
ATOM     56  N   UNL A   1      41.261  31.457  34.509  1.00  0.00    -0.248 NA
ATOM     57  C   UNL A   1      41.955  32.264  36.586  1.00  0.00     0.031 C 
ATOM     58  C   UNL A   1      43.100  27.992  32.433  1.00  0.00     0.029 A 
ATOM     59  C   UNL A   1      42.538  29.062  33.108  1.00  0.00     0.049 A 
ATOM     60  H   UNL A   1      40.876  30.250  32.573  1.00  0.00     0.167 HD
ATOM     61  C   UNL A   1      42.343  30.706  34.952  1.00  0.00     0.074 A 
ATOM     62  C   UNL A   1      42.754  31.272  36.220  1.00  0.00     0.031 C 
ATOM     63  C   UNL A   1      42.941  29.642  34.364  1.00  0.00     0.037 A 
BRANCH  50  64
ATOM     64  C   UNL A   1      40.329  27.903  29.048  1.00  0.00     0.057 A 
ATOM     65  C   UNL A   1      39.556  26.735  29.087  1.00  0.00     0.134 A 
ATOM     66  C   UNL A   1      41.041  28.165  27.872  1.00  0.00     0.134 A 
ATOM     67  F   UNL A   1      38.856  26.418  30.188  1.00  0.00    -0.206 F 
ATOM     68  C   UNL A   1      39.508  25.854  28.005  1.00  0.00     0.040 A 
ATOM     69  C   UNL A   1      40.979  27.307  26.772  1.00  0.00     0.040 A 
ATOM     70  F   UNL A   1      41.796  29.269  27.764  1.00  0.00    -0.206 F 
ATOM     71  C   UNL A   1      40.214  26.145  26.839  1.00  0.00     0.006 A 
ENDBRANCH  50  64
BRANCH  51  72
ATOM     72  C   UNL A   1      39.953  34.393  36.625  1.00  0.00     0.057 A 
ATOM     73  C   UNL A   1      39.191  34.082  37.757  1.00  0.00     0.134 A 
ATOM     74  C   UNL A   1      40.617  35.625  36.615  1.00  0.00     0.134 A 
ATOM     75  F   UNL A   1      38.516  32.924  37.821  1.00  0.00    -0.206 F 
ATOM     76  C   UNL A   1      39.064  34.976  38.822  1.00  0.00     0.040 A 
ATOM     77  C   UNL A   1      40.524  36.516  37.686  1.00  0.00     0.040 A 
ATOM     78  F   UNL A   1      41.371  35.981  35.564  1.00  0.00    -0.206 F 
ATOM     79  C   UNL A   1      39.735  36.196  38.789  1.00  0.00     0.006 A 
ENDBRANCH  51  72
BRANCH  63  80
ATOM     80  C   UNL A   1      44.129  29.046  35.063  1.00  0.00     0.057 A 
ATOM     81  C   UNL A   1      45.434  29.497  34.824  1.00  0.00     0.134 A 
ATOM     82  C   UNL A   1      43.961  28.034  36.017  1.00  0.00     0.134 A 
ATOM     83  F   UNL A   1      45.667  30.455  33.913  1.00  0.00    -0.206 F 
ATOM     84  C   UNL A   1      46.530  28.943  35.488  1.00  0.00     0.040 A 
ATOM     85  C   UNL A   1      45.045  27.496  36.710  1.00  0.00     0.040 A 
ATOM     86  F   UNL A   1      42.737  27.563  36.302  1.00  0.00    -0.206 F 
ATOM     87  C   UNL A   1      46.335  27.945  36.441  1.00  0.00     0.006 A 
ENDBRANCH  63  80
ENDBRANCH  37  38
ENDBRANCH  29  32
ENDBRANCH  27  28
ENDBRANCH  26  27
ENDBRANCH  25  26
ENDBRANCH   1  25
TORSDOF 15
ENDMDL
MODEL 2
REMARK VINA RESULT:     -11.7      4.367      9.728
REMARK SMILES CC(C)N1C(=O)C[C@@H]([N@@H+]2CC[C@H](C(=O)NCCCCCCNC(=O)c3ccc(-c4c5nc(c(-c6c(F)cccc6F)c6ccc([nH]6)c(-c6c(F)cccc6F)c6nc(c(-c7c(F)cccc7F)c7ccc4[nH]7)C=C6)C=C5)cc3)[C@@H]2C)C1=O
REMARK SMILES IDX 18 1 17 2 16 3 15 4 13 5 14 6 12 8 9 9 10 10 79 11 11 13
REMARK SMILES IDX 80 14 8 15 4 16 5 17 81 18 6 19 7 20 82 21 2 22 1 23 3 24
REMARK SMILES IDX 19 25 20 26 21 27 22 28 23 29 24 31 25 32 26 33 78 34 27 35
REMARK SMILES IDX 77 36 28 37 29 38 30 39 71 40 31 41 76 42 70 43 72 44 32 45
REMARK SMILES IDX 75 46 69 47 68 48 33 50 59 51 42 52 58 53 43 54 46 55 57 56
REMARK SMILES IDX 73 57 44 58 45 59 56 61 74 62 47 63 34 64 35 65 40 66 36 67
REMARK SMILES IDX 37 68 39 69 41 70 38 71 60 72 61 73 66 74 62 75 63 76 65 77
REMARK SMILES IDX 67 78 64 79 48 80 49 81 54 82 50 83 51 84 53 85 55 86 52 87
REMARK H PARENT 15 7 9 12 22 30 72 49 46 60
REMARK Flexibility Score: inf
ROOT
ATOM      1  C   UNL A   1      35.451  20.652  25.418  1.00  0.00     0.002 C 
ENDROOT
BRANCH   1   2
ATOM      2  C   UNL A   1      34.346  19.900  24.670  1.00  0.00     0.021 C 
BRANCH   2   3
ATOM      3  C   UNL A   1      32.935  20.421  24.924  1.00  0.00     0.116 C 
BRANCH   3   4
ATOM      4  N   UNL A   1      32.637  21.584  24.112  1.00  0.00    -0.356 N 
ATOM      5  C   UNL A   1      32.676  22.908  24.420  1.00  0.00     0.229 C 
ATOM      6  O   UNL A   1      32.403  23.713  23.528  1.00  0.00    -0.275 OA
ATOM      7  H   UNL A   1      32.363  21.384  23.187  1.00  0.00     0.163 HD
BRANCH   5   8
ATOM      8  C   UNL A   1      33.025  23.347  25.834  1.00  0.00     0.142 C 
ATOM      9  N   UNL A   1      32.320  25.564  26.448  1.00  0.00    -0.321 N 
ATOM     10  C   UNL A   1      33.572  25.672  25.697  1.00  0.00     0.264 C 
ATOM     11  C   UNL A   1      31.910  24.151  26.525  1.00  0.00     0.194 C 
ATOM     12  H   UNL A   1      32.474  25.834  27.419  1.00  0.00     0.349 HD
ATOM     13  C   UNL A   1      34.210  24.304  25.808  1.00  0.00     0.081 C 
ATOM     14  C   UNL A   1      30.483  23.754  26.143  1.00  0.00     0.076 C 
BRANCH   9  15
ATOM     15  C   UNL A   1      31.315  26.594  26.148  1.00  0.00     0.284 C 
ATOM     16  N   UNL A   1      31.775  28.900  26.306  1.00  0.00    -0.275 N 
ATOM     17  C   UNL A   1      31.614  28.661  24.973  1.00  0.00     0.236 C 
ATOM     18  C   UNL A   1      31.486  27.800  27.068  1.00  0.00     0.288 C 
ATOM     19  O   UNL A   1      31.639  29.483  24.071  1.00  0.00    -0.274 OA
ATOM     20  C   UNL A   1      31.356  27.205  24.751  1.00  0.00     0.176 C 
ATOM     21  O   UNL A   1      31.388  27.777  28.289  1.00  0.00    -0.267 OA
BRANCH  16  22
ATOM     22  C   UNL A   1      32.076  30.207  26.886  1.00  0.00     0.087 C 
ATOM     23  C   UNL A   1      33.574  30.516  26.864  1.00  0.00     0.031 C 
ATOM     24  C   UNL A   1      31.269  31.311  26.208  1.00  0.00     0.031 C 
ENDBRANCH  16  22
ENDBRANCH   9  15
ENDBRANCH   5   8
ENDBRANCH   3   4
ENDBRANCH   2   3
ENDBRANCH   1   2
BRANCH   1  25
ATOM     25  C   UNL A   1      36.747  20.865  24.631  1.00  0.00     0.002 C 
BRANCH  25  26
ATOM     26  C   UNL A   1      37.830  19.809  24.865  1.00  0.00     0.021 C 
BRANCH  26  27
ATOM     27  C   UNL A   1      38.995  20.274  25.729  1.00  0.00     0.116 C 
BRANCH  27  28
ATOM     28  N   UNL A   1      40.054  19.282  25.807  1.00  0.00    -0.352 N 
ATOM     29  C   UNL A   1      41.388  19.452  26.084  1.00  0.00     0.251 C 
ATOM     30  H   UNL A   1      39.775  18.353  25.634  1.00  0.00     0.163 HD
ATOM     31  O   UNL A   1      42.176  18.525  25.922  1.00  0.00    -0.269 OA
BRANCH  29  32
ATOM     32  C   UNL A   1      41.879  20.764  26.556  1.00  0.00     0.039 A 
ATOM     33  C   UNL A   1      42.340  21.688  25.616  1.00  0.00     0.014 A 
ATOM     34  C   UNL A   1      41.884  21.084  27.917  1.00  0.00     0.014 A 
ATOM     35  C   UNL A   1      42.744  22.957  26.035  1.00  0.00     0.010 A 
ATOM     36  C   UNL A   1      42.213  22.373  28.324  1.00  0.00     0.010 A 
ATOM     37  C   UNL A   1      42.646  23.325  27.388  1.00  0.00    -0.014 A 
BRANCH  37  38
ATOM     38  C   UNL A   1      42.977  24.702  27.834  1.00  0.00     0.031 A 
ATOM     39  C   UNL A   1      44.407  25.101  28.076  1.00  0.00     0.074 A 
ATOM     40  C   UNL A   1      41.982  25.577  28.080  1.00  0.00     0.049 A 
ATOM     41  N   UNL A   1      44.884  26.234  28.525  1.00  0.00    -0.248 NA
ATOM     42  C   UNL A   1      45.436  24.086  27.798  1.00  0.00     0.031 C 
ATOM     43  C   UNL A   1      40.552  25.298  27.930  1.00  0.00     0.029 A 
ATOM     44  N   UNL A   1      42.019  26.877  28.520  1.00  0.00    -0.354 N 
ATOM     45  C   UNL A   1      46.261  26.066  28.594  1.00  0.00     0.074 A 
ATOM     46  C   UNL A   1      46.540  24.705  28.191  1.00  0.00     0.031 C 
ATOM     47  C   UNL A   1      39.852  26.398  28.250  1.00  0.00     0.029 A 
ATOM     48  C   UNL A   1      40.776  27.445  28.670  1.00  0.00     0.049 A 
ATOM     49  H   UNL A   1      42.858  27.358  28.710  1.00  0.00     0.167 HD
ATOM     50  C   UNL A   1      47.207  26.970  28.940  1.00  0.00     0.037 A 
ATOM     51  C   UNL A   1      40.421  28.667  29.111  1.00  0.00     0.037 A 
ATOM     52  C   UNL A   1      46.926  28.331  29.321  1.00  0.00     0.049 A 
ATOM     53  C   UNL A   1      41.493  29.644  29.508  1.00  0.00     0.074 A 
ATOM     54  C   UNL A   1      47.823  29.339  29.629  1.00  0.00     0.029 A 
ATOM     55  N   UNL A   1      45.657  28.871  29.449  1.00  0.00    -0.354 N 
ATOM     56  N   UNL A   1      42.796  29.494  29.495  1.00  0.00    -0.248 NA
ATOM     57  C   UNL A   1      41.047  30.964  29.977  1.00  0.00     0.031 C 
ATOM     58  C   UNL A   1      47.095  30.473  30.000  1.00  0.00     0.029 A 
ATOM     59  C   UNL A   1      45.746  30.190  29.863  1.00  0.00     0.049 A 
ATOM     60  H   UNL A   1      44.816  28.389  29.275  1.00  0.00     0.167 HD
ATOM     61  C   UNL A   1      43.323  30.707  29.922  1.00  0.00     0.074 A 
ATOM     62  C   UNL A   1      42.201  31.587  30.169  1.00  0.00     0.031 C 
ATOM     63  C   UNL A   1      44.621  31.059  30.096  1.00  0.00     0.037 A 
BRANCH  50  64
ATOM     64  C   UNL A   1      48.641  26.524  28.924  1.00  0.00     0.057 A 
ATOM     65  C   UNL A   1      49.429  26.610  27.768  1.00  0.00     0.134 A 
ATOM     66  C   UNL A   1      49.260  26.065  30.093  1.00  0.00     0.134 A 
ATOM     67  F   UNL A   1      48.897  27.033  26.611  1.00  0.00    -0.206 F 
ATOM     68  C   UNL A   1      50.775  26.237  27.773  1.00  0.00     0.040 A 
ATOM     69  C   UNL A   1      50.612  25.715  30.117  1.00  0.00     0.040 A 
ATOM     70  F   UNL A   1      48.566  25.964  31.237  1.00  0.00    -0.206 F 
ATOM     71  C   UNL A   1      51.372  25.797  28.953  1.00  0.00     0.006 A 
ENDBRANCH  50  64
BRANCH  51  72
ATOM     72  C   UNL A   1      38.986  29.044  29.202  1.00  0.00     0.057 A 
ATOM     73  C   UNL A   1      38.261  28.857  30.386  1.00  0.00     0.134 A 
ATOM     74  C   UNL A   1      38.296  29.567  28.102  1.00  0.00     0.134 A 
ATOM     75  F   UNL A   1      38.861  28.342  31.470  1.00  0.00    -0.206 F 
ATOM     76  C   UNL A   1      36.897  29.145  30.463  1.00  0.00     0.040 A 
ATOM     77  C   UNL A   1      36.939  29.889  28.174  1.00  0.00     0.040 A 
ATOM     78  F   UNL A   1      38.932  29.779  26.941  1.00  0.00    -0.206 F 
ATOM     79  C   UNL A   1      36.234  29.667  29.355  1.00  0.00     0.006 A 
ENDBRANCH  51  72
BRANCH  63  80
ATOM     80  C   UNL A   1      44.899  32.467  30.535  1.00  0.00     0.057 A 
ATOM     81  C   UNL A   1      45.064  33.512  29.617  1.00  0.00     0.134 A 
ATOM     82  C   UNL A   1      44.963  32.789  31.898  1.00  0.00     0.134 A 
ATOM     83  F   UNL A   1      45.027  33.271  28.297  1.00  0.00    -0.206 F 
ATOM     84  C   UNL A   1      45.311  34.820  30.038  1.00  0.00     0.040 A 
ATOM     85  C   UNL A   1      45.178  34.097  32.330  1.00  0.00     0.040 A 
ATOM     86  F   UNL A   1      44.803  31.838  32.830  1.00  0.00    -0.206 F 
ATOM     87  C   UNL A   1      45.360  35.116  31.398  1.00  0.00     0.006 A 
ENDBRANCH  63  80
ENDBRANCH  37  38
ENDBRANCH  29  32
ENDBRANCH  27  28
ENDBRANCH  26  27
ENDBRANCH  25  26
ENDBRANCH   1  25
TORSDOF 15
ENDMDL
MODEL 3
REMARK VINA RESULT:     -11.6      4.773     10.492
REMARK SMILES CC(C)N1C(=O)C[C@@H]([N@@H+]2CC[C@H](C(=O)NCCCCCCNC(=O)c3ccc(-c4c5nc(c(-c6c(F)cccc6F)c6ccc([nH]6)c(-c6c(F)cccc6F)c6nc(c(-c7c(F)cccc7F)c7ccc4[nH]7)C=C6)C=C5)cc3)[C@@H]2C)C1=O
REMARK SMILES IDX 18 1 17 2 16 3 15 4 13 5 14 6 12 8 9 9 10 10 79 11 11 13
REMARK SMILES IDX 80 14 8 15 4 16 5 17 81 18 6 19 7 20 82 21 2 22 1 23 3 24
REMARK SMILES IDX 19 25 20 26 21 27 22 28 23 29 24 31 25 32 26 33 78 34 27 35
REMARK SMILES IDX 77 36 28 37 29 38 30 39 71 40 31 41 76 42 70 43 72 44 32 45
REMARK SMILES IDX 75 46 69 47 68 48 33 50 59 51 42 52 58 53 43 54 46 55 57 56
REMARK SMILES IDX 73 57 44 58 45 59 56 61 74 62 47 63 34 64 35 65 40 66 36 67
REMARK SMILES IDX 37 68 39 69 41 70 38 71 60 72 61 73 66 74 62 75 63 76 65 77
REMARK SMILES IDX 67 78 64 79 48 80 49 81 54 82 50 83 51 84 53 85 55 86 52 87
REMARK H PARENT 15 7 9 12 22 30 72 49 46 60
REMARK Flexibility Score: inf
ROOT
ATOM      1  C   UNL A   1      35.505  20.836  25.406  1.00  0.00     0.002 C 
ENDROOT
BRANCH   1   2
ATOM      2  C   UNL A   1      34.444  19.952  24.744  1.00  0.00     0.021 C 
BRANCH   2   3
ATOM      3  C   UNL A   1      33.003  20.325  25.080  1.00  0.00     0.116 C 
BRANCH   3   4
ATOM      4  N   UNL A   1      32.539  21.445  24.285  1.00  0.00    -0.356 N 
ATOM      5  C   UNL A   1      32.446  22.766  24.592  1.00  0.00     0.229 C 
ATOM      6  O   UNL A   1      32.044  23.533  23.716  1.00  0.00    -0.275 OA
ATOM      7  H   UNL A   1      32.244  21.211  23.375  1.00  0.00     0.163 HD
BRANCH   5   8
ATOM      8  C   UNL A   1      32.813  23.247  25.988  1.00  0.00     0.142 C 
ATOM      9  N   UNL A   1      32.249  25.531  26.493  1.00  0.00    -0.321 N 
ATOM     10  C   UNL A   1      33.511  25.523  25.751  1.00  0.00     0.264 C 
ATOM     11  C   UNL A   1      31.748  24.153  26.630  1.00  0.00     0.194 C 
ATOM     12  H   UNL A   1      32.414  25.835  27.452  1.00  0.00     0.349 HD
ATOM     13  C   UNL A   1      34.058  24.123  25.930  1.00  0.00     0.081 C 
ATOM     14  C   UNL A   1      30.301  23.832  26.252  1.00  0.00     0.076 C 
BRANCH   9  15
ATOM     15  C   UNL A   1      31.316  26.609  26.135  1.00  0.00     0.284 C 
ATOM     16  N   UNL A   1      32.025  28.822  25.737  1.00  0.00    -0.275 N 
ATOM     17  C   UNL A   1      31.615  28.356  24.522  1.00  0.00     0.236 C 
ATOM     18  C   UNL A   1      31.763  27.935  26.747  1.00  0.00     0.288 C 
ATOM     19  O   UNL A   1      31.567  28.980  23.474  1.00  0.00    -0.274 OA
ATOM     20  C   UNL A   1      31.178  26.931  24.651  1.00  0.00     0.176 C 
ATOM     21  O   UNL A   1      31.874  28.158  27.946  1.00  0.00    -0.267 OA
BRANCH  16  22
ATOM     22  C   UNL A   1      32.550  30.164  25.979  1.00  0.00     0.087 C 
ATOM     23  C   UNL A   1      31.477  31.112  26.518  1.00  0.00     0.031 C 
ATOM     24  C   UNL A   1      33.769  30.122  26.897  1.00  0.00     0.031 C 
ENDBRANCH  16  22
ENDBRANCH   9  15
ENDBRANCH   5   8
ENDBRANCH   3   4
ENDBRANCH   2   3
ENDBRANCH   1   2
BRANCH   1  25
ATOM     25  C   UNL A   1      36.827  20.954  24.641  1.00  0.00     0.002 C 
BRANCH  25  26
ATOM     26  C   UNL A   1      37.828  19.825  24.895  1.00  0.00     0.021 C 
BRANCH  26  27
ATOM     27  C   UNL A   1      39.004  20.205  25.786  1.00  0.00     0.116 C 
BRANCH  27  28
ATOM     28  N   UNL A   1      40.006  19.154  25.854  1.00  0.00    -0.352 N 
ATOM     29  C   UNL A   1      41.356  19.253  26.078  1.00  0.00     0.251 C 
ATOM     30  H   UNL A   1      39.667  18.239  25.718  1.00  0.00     0.163 HD
ATOM     31  O   UNL A   1      42.083  18.277  25.915  1.00  0.00    -0.269 OA
BRANCH  29  32
ATOM     32  C   UNL A   1      41.940  20.545  26.494  1.00  0.00     0.039 A 
ATOM     33  C   UNL A   1      42.400  21.424  25.512  1.00  0.00     0.014 A 
ATOM     34  C   UNL A   1      42.032  20.892  27.846  1.00  0.00     0.014 A 
ATOM     35  C   UNL A   1      42.892  22.678  25.880  1.00  0.00     0.010 A 
ATOM     36  C   UNL A   1      42.450  22.170  28.206  1.00  0.00     0.010 A 
ATOM     37  C   UNL A   1      42.883  23.078  27.227  1.00  0.00    -0.014 A 
BRANCH  37  38
ATOM     38  C   UNL A   1      43.309  24.444  27.625  1.00  0.00     0.031 A 
ATOM     39  C   UNL A   1      42.287  25.481  28.002  1.00  0.00     0.074 A 
ATOM     40  C   UNL A   1      44.617  24.768  27.589  1.00  0.00     0.049 A 
ATOM     41  N   UNL A   1      42.464  26.739  28.316  1.00  0.00    -0.248 NA
ATOM     42  C   UNL A   1      40.878  25.055  28.005  1.00  0.00     0.031 C 
ATOM     43  C   UNL A   1      45.702  23.866  27.195  1.00  0.00     0.029 A 
ATOM     44  N   UNL A   1      45.256  25.949  27.875  1.00  0.00    -0.354 N 
ATOM     45  C   UNL A   1      41.194  27.256  28.542  1.00  0.00     0.074 A 
ATOM     46  C   UNL A   1      40.252  26.191  28.278  1.00  0.00     0.031 C 
ATOM     47  C   UNL A   1      46.872  24.518  27.287  1.00  0.00     0.029 A 
ATOM     48  C   UNL A   1      46.619  25.894  27.700  1.00  0.00     0.049 A 
ATOM     49  H   UNL A   1      44.784  26.757  28.178  1.00  0.00     0.167 HD
ATOM     50  C   UNL A   1      40.848  28.499  28.952  1.00  0.00     0.037 A 
ATOM     51  C   UNL A   1      47.557  26.849  27.844  1.00  0.00     0.037 A 
ATOM     52  C   UNL A   1      41.791  29.551  29.233  1.00  0.00     0.049 A 
ATOM     53  C   UNL A   1      47.141  28.227  28.282  1.00  0.00     0.074 A 
ATOM     54  C   UNL A   1      41.539  30.824  29.714  1.00  0.00     0.029 A 
ATOM     55  N   UNL A   1      43.162  29.454  29.056  1.00  0.00    -0.354 N 
ATOM     56  N   UNL A   1      45.943  28.679  28.565  1.00  0.00    -0.248 NA
ATOM     57  C   UNL A   1      48.207  29.229  28.426  1.00  0.00     0.031 C 
ATOM     58  C   UNL A   1      42.752  31.517  29.772  1.00  0.00     0.029 A 
ATOM     59  C   UNL A   1      43.766  30.656  29.387  1.00  0.00     0.049 A 
ATOM     60  H   UNL A   1      43.636  28.651  28.739  1.00  0.00     0.167 HD
ATOM     61  C   UNL A   1      46.116  30.003  28.950  1.00  0.00     0.074 A 
ATOM     62  C   UNL A   1      47.536  30.276  28.881  1.00  0.00     0.031 C 
ATOM     63  C   UNL A   1      45.182  30.911  29.324  1.00  0.00     0.037 A 
BRANCH  50  64
ATOM     64  C   UNL A   1      39.386  28.797  29.126  1.00  0.00     0.057 A 
ATOM     65  C   UNL A   1      38.735  28.612  30.354  1.00  0.00     0.134 A 
ATOM     66  C   UNL A   1      38.636  29.336  28.074  1.00  0.00     0.134 A 
ATOM     67  F   UNL A   1      39.393  28.090  31.401  1.00  0.00    -0.206 F 
ATOM     68  C   UNL A   1      37.387  28.935  30.521  1.00  0.00     0.040 A 
ATOM     69  C   UNL A   1      37.295  29.689  28.237  1.00  0.00     0.040 A 
ATOM     70  F   UNL A   1      39.198  29.545  26.874  1.00  0.00    -0.206 F 
ATOM     71  C   UNL A   1      36.666  29.484  29.462  1.00  0.00     0.006 A 
ENDBRANCH  50  64
BRANCH  51  72
ATOM     72  C   UNL A   1      48.987  26.544  27.573  1.00  0.00     0.057 A 
ATOM     73  C   UNL A   1      49.516  26.641  26.280  1.00  0.00     0.134 A 
ATOM     74  C   UNL A   1      49.849  26.118  28.590  1.00  0.00     0.134 A 
ATOM     75  F   UNL A   1      48.736  27.028  25.258  1.00  0.00    -0.206 F 
ATOM     76  C   UNL A   1      50.839  26.294  26.002  1.00  0.00     0.040 A 
ATOM     77  C   UNL A   1      51.183  25.797  28.332  1.00  0.00     0.040 A 
ATOM     78  F   UNL A   1      49.408  26.011  29.852  1.00  0.00    -0.206 F 
ATOM     79  C   UNL A   1      51.678  25.873  27.032  1.00  0.00     0.006 A 
ENDBRANCH  51  72
BRANCH  63  80
ATOM     80  C   UNL A   1      45.669  32.272  29.729  1.00  0.00     0.057 A 
ATOM     81  C   UNL A   1      46.055  32.562  31.044  1.00  0.00     0.134 A 
ATOM     82  C   UNL A   1      45.791  33.297  28.780  1.00  0.00     0.134 A 
ATOM     83  F   UNL A   1      45.952  31.630  32.005  1.00  0.00    -0.206 F 
ATOM     84  C   UNL A   1      46.518  33.828  31.406  1.00  0.00     0.040 A 
ATOM     85  C   UNL A   1      46.282  34.556  29.124  1.00  0.00     0.040 A 
ATOM     86  F   UNL A   1      45.449  33.084  27.501  1.00  0.00    -0.206 F 
ATOM     87  C   UNL A   1      46.639  34.827  30.442  1.00  0.00     0.006 A 
ENDBRANCH  63  80
ENDBRANCH  37  38
ENDBRANCH  29  32
ENDBRANCH  27  28
ENDBRANCH  26  27
ENDBRANCH  25  26
ENDBRANCH   1  25
TORSDOF 15
ENDMDL
