MODEL 1
REMARK VINA RESULT:     -12.4      0.000      0.000
REMARK SMILES O=C(C[NH+]1CCC(C(=O)NCCCCCCNC(=O)c2ccc(-c3c4nc(c(-c5c(F)cccc5F)c5ccc([nH]5)c(-c5c(F)cccc5F)c5nc(c(-c6c(F)cccc6F)c6ccc3[nH]6)C=C5)C=C4)cc2)CC1)Nc1ccccc1Oc1ccccc1
REMARK SMILES IDX 12 1 11 2 10 3 8 4 9 5 7 7 4 8 5 9 75 10 6 12 74 13 3 14
REMARK SMILES IDX 2 15 1 16 76 17 77 19 78 20 82 21 79 22 81 23 80 24 83 25
REMARK SMILES IDX 84 26 85 27 89 28 86 29 88 30 87 31 13 32 14 33 15 34 16 35
REMARK SMILES IDX 17 36 18 37 19 39 20 40 21 41 73 42 22 43 72 44 23 45 24 46
REMARK SMILES IDX 25 47 66 48 26 49 71 50 65 51 67 52 27 53 70 54 64 55 63 56
REMARK SMILES IDX 28 58 54 59 37 60 53 61 38 62 41 63 52 64 68 65 39 66 40 67
REMARK SMILES IDX 51 69 69 70 42 71 29 72 30 73 35 74 31 75 32 76 34 77 36 78
REMARK SMILES IDX 33 79 55 80 56 81 61 82 57 83 58 84 60 85 62 86 59 87 43 88
REMARK SMILES IDX 44 89 49 90 45 91 46 92 48 93 50 94 47 95
REMARK H PARENT 10 6 4 11 76 18 17 38 67 57 41 68
REMARK Flexibility Score: inf
ROOT
ATOM      1  C   UNL A   1      33.075  29.570  24.976  1.00  0.00     0.021 C 
ENDROOT
BRANCH   1   2
ATOM      2  C   UNL A   1      32.871  28.780  23.689  1.00  0.00     0.116 C 
BRANCH   2   3
ATOM      3  N   UNL A   1      31.837  29.390  22.869  1.00  0.00    -0.356 N 
ATOM      4  C   UNL A   1      30.734  28.848  22.287  1.00  0.00     0.223 C 
ATOM      5  O   UNL A   1      30.034  29.567  21.573  1.00  0.00    -0.275 OA
ATOM      6  H   UNL A   1      31.956  30.355  22.708  1.00  0.00     0.163 HD
BRANCH   4   7
ATOM      7  C   UNL A   1      30.348  27.408  22.559  1.00  0.00     0.089 C 
ATOM      8  N   UNL A   1      31.120  25.144  24.177  1.00  0.00    -0.327 N 
ATOM      9  C   UNL A   1      31.274  25.037  22.720  1.00  0.00     0.263 C 
ATOM     10  C   UNL A   1      29.885  25.859  24.507  1.00  0.00     0.263 C 
ATOM     11  H   UNL A   1      31.897  25.687  24.554  1.00  0.00     0.348 HD
ATOM     12  C   UNL A   1      31.429  26.420  22.100  1.00  0.00     0.075 C 
ATOM     13  C   UNL A   1      29.906  27.289  24.020  1.00  0.00     0.075 C 
BRANCH   8  14
ATOM     14  C   UNL A   1      31.176  23.804  24.810  1.00  0.00     0.363 C 
BRANCH  14  15
ATOM     15  C   UNL A   1      32.572  23.434  25.330  1.00  0.00     0.279 C 
ATOM     16  O   UNL A   1      32.935  23.673  26.479  1.00  0.00    -0.268 OA
ATOM     17  N   UNL A   1      33.371  22.899  24.329  1.00  0.00    -0.318 N 
ATOM     18  H   UNL A   1      32.990  22.818  23.424  1.00  0.00     0.170 HD
BRANCH  17  19
ATOM     19  C   UNL A   1      34.686  22.468  24.531  1.00  0.00     0.084 A 
ATOM     20  C   UNL A   1      35.682  23.361  24.102  1.00  0.00     0.030 A 
ATOM     21  C   UNL A   1      35.037  21.226  25.079  1.00  0.00     0.150 A 
ATOM     22  C   UNL A   1      37.030  23.070  24.301  1.00  0.00     0.002 A 
ATOM     23  C   UNL A   1      36.401  20.948  25.265  1.00  0.00     0.049 A 
ATOM     24  C   UNL A   1      37.389  21.864  24.891  1.00  0.00     0.004 A 
BRANCH  21  25
ATOM     25  O   UNL A   1      34.220  20.177  25.455  1.00  0.00    -0.455 OA
BRANCH  25  26
ATOM     26  C   UNL A   1      33.867  19.192  24.567  1.00  0.00     0.127 A 
ATOM     27  C   UNL A   1      32.713  19.419  23.815  1.00  0.00     0.047 A 
ATOM     28  C   UNL A   1      34.577  17.999  24.416  1.00  0.00     0.047 A 
ATOM     29  C   UNL A   1      32.321  18.502  22.838  1.00  0.00     0.004 A 
ATOM     30  C   UNL A   1      34.186  17.084  23.433  1.00  0.00     0.004 A 
ATOM     31  C   UNL A   1      33.066  17.342  22.637  1.00  0.00     0.000 A 
ENDBRANCH  25  26
ENDBRANCH  21  25
ENDBRANCH  17  19
ENDBRANCH  14  15
ENDBRANCH   8  14
ENDBRANCH   4   7
ENDBRANCH   2   3
ENDBRANCH   1   2
BRANCH   1  32
ATOM     32  C   UNL A   1      31.785  29.751  25.780  1.00  0.00     0.002 C 
BRANCH  32  33
ATOM     33  C   UNL A   1      31.205  31.169  25.728  1.00  0.00     0.002 C 
BRANCH  33  34
ATOM     34  C   UNL A   1      31.349  31.961  27.030  1.00  0.00     0.021 C 
BRANCH  34  35
ATOM     35  C   UNL A   1      32.663  32.723  27.151  1.00  0.00     0.116 C 
BRANCH  35  36
ATOM     36  N   UNL A   1      32.474  34.039  27.737  1.00  0.00    -0.352 N 
ATOM     37  C   UNL A   1      33.181  34.649  28.736  1.00  0.00     0.251 C 
ATOM     38  H   UNL A   1      31.731  34.566  27.363  1.00  0.00     0.163 HD
ATOM     39  O   UNL A   1      32.757  35.683  29.252  1.00  0.00    -0.269 OA
BRANCH  37  40
ATOM     40  C   UNL A   1      34.446  34.055  29.203  1.00  0.00     0.039 A 
ATOM     41  C   UNL A   1      34.413  33.160  30.274  1.00  0.00     0.014 A 
ATOM     42  C   UNL A   1      35.662  34.389  28.597  1.00  0.00     0.014 A 
ATOM     43  C   UNL A   1      35.597  32.571  30.713  1.00  0.00     0.010 A 
ATOM     44  C   UNL A   1      36.828  33.737  28.982  1.00  0.00     0.010 A 
ATOM     45  C   UNL A   1      36.810  32.837  30.056  1.00  0.00    -0.014 A 
BRANCH  45  46
ATOM     46  C   UNL A   1      38.065  32.180  30.496  1.00  0.00     0.031 A 
ATOM     47  C   UNL A   1      38.889  32.775  31.603  1.00  0.00     0.074 A 
ATOM     48  C   UNL A   1      38.481  31.067  29.865  1.00  0.00     0.049 A 
ATOM     49  N   UNL A   1      39.999  32.330  32.136  1.00  0.00    -0.248 NA
ATOM     50  C   UNL A   1      38.425  34.054  32.163  1.00  0.00     0.031 C 
ATOM     51  C   UNL A   1      37.809  30.440  28.726  1.00  0.00     0.029 A 
ATOM     52  N   UNL A   1      39.572  30.266  30.091  1.00  0.00    -0.354 N 
ATOM     53  C   UNL A   1      40.371  33.279  33.078  1.00  0.00     0.074 A 
ATOM     54  C   UNL A   1      39.406  34.353  33.001  1.00  0.00     0.031 C 
ATOM     55  C   UNL A   1      38.484  29.335  28.373  1.00  0.00     0.029 A 
ATOM     56  C   UNL A   1      39.651  29.193  29.239  1.00  0.00     0.049 A 
ATOM     57  H   UNL A   1      40.235  30.445  30.796  1.00  0.00     0.167 HD
ATOM     58  C   UNL A   1      41.409  33.247  33.948  1.00  0.00     0.037 A 
ATOM     59  C   UNL A   1      40.558  28.202  29.166  1.00  0.00     0.037 A 
ATOM     60  C   UNL A   1      42.353  32.163  34.033  1.00  0.00     0.049 A 
ATOM     61  C   UNL A   1      41.682  28.164  30.160  1.00  0.00     0.074 A 
ATOM     62  C   UNL A   1      43.386  31.987  34.935  1.00  0.00     0.029 A 
ATOM     63  N   UNL A   1      42.383  31.074  33.172  1.00  0.00    -0.354 N 
ATOM     64  N   UNL A   1      41.964  29.012  31.121  1.00  0.00    -0.248 NA
ATOM     65  C   UNL A   1      42.605  27.026  30.074  1.00  0.00     0.031 C 
ATOM     66  C   UNL A   1      44.079  30.822  34.584  1.00  0.00     0.029 A 
ATOM     67  C   UNL A   1      43.439  30.239  33.501  1.00  0.00     0.049 A 
ATOM     68  H   UNL A   1      41.748  30.918  32.436  1.00  0.00     0.167 HD
ATOM     69  C   UNL A   1      43.081  28.500  31.767  1.00  0.00     0.074 A 
ATOM     70  C   UNL A   1      43.416  27.259  31.098  1.00  0.00     0.031 C 
ATOM     71  C   UNL A   1      43.765  29.010  32.821  1.00  0.00     0.037 A 
BRANCH  58  72
ATOM     72  C   UNL A   1      41.578  34.424  34.866  1.00  0.00     0.057 A 
ATOM     73  C   UNL A   1      41.091  34.421  36.181  1.00  0.00     0.134 A 
ATOM     74  C   UNL A   1      42.241  35.578  34.430  1.00  0.00     0.134 A 
ATOM     75  F   UNL A   1      40.436  33.352  36.661  1.00  0.00    -0.206 F 
ATOM     76  C   UNL A   1      41.220  35.535  37.013  1.00  0.00     0.040 A 
ATOM     77  C   UNL A   1      42.406  36.686  35.264  1.00  0.00     0.040 A 
ATOM     78  F   UNL A   1      42.740  35.650  33.187  1.00  0.00    -0.206 F 
ATOM     79  C   UNL A   1      41.883  36.671  36.555  1.00  0.00     0.006 A 
ENDBRANCH  58  72
BRANCH  59  80
ATOM     80  C   UNL A   1      40.407  27.151  28.129  1.00  0.00     0.057 A 
ATOM     81  C   UNL A   1      41.085  27.233  26.908  1.00  0.00     0.134 A 
ATOM     82  C   UNL A   1      39.614  26.019  28.353  1.00  0.00     0.134 A 
ATOM     83  F   UNL A   1      41.849  28.299  26.631  1.00  0.00    -0.206 F 
ATOM     84  C   UNL A   1      40.973  26.231  25.942  1.00  0.00     0.040 A 
ATOM     85  C   UNL A   1      39.512  24.998  27.407  1.00  0.00     0.040 A 
ATOM     86  F   UNL A   1      38.949  25.876  29.510  1.00  0.00    -0.206 F 
ATOM     87  C   UNL A   1      40.191  25.106  26.195  1.00  0.00     0.006 A 
ENDBRANCH  59  80
BRANCH  71  88
ATOM     88  C   UNL A   1      44.932  28.216  33.332  1.00  0.00     0.057 A 
ATOM     89  C   UNL A   1      46.243  28.465  32.905  1.00  0.00     0.134 A 
ATOM     90  C   UNL A   1      44.745  27.218  34.298  1.00  0.00     0.134 A 
ATOM     91  F   UNL A   1      46.490  29.399  31.975  1.00  0.00    -0.206 F 
ATOM     92  C   UNL A   1      47.323  27.734  33.404  1.00  0.00     0.040 A 
ATOM     93  C   UNL A   1      45.819  26.501  34.824  1.00  0.00     0.040 A 
ATOM     94  F   UNL A   1      43.517  26.935  34.756  1.00  0.00    -0.206 F 
ATOM     95  C   UNL A   1      47.113  26.753  34.372  1.00  0.00     0.006 A 
ENDBRANCH  71  88
ENDBRANCH  45  46
ENDBRANCH  37  40
ENDBRANCH  35  36
ENDBRANCH  34  35
ENDBRANCH  33  34
ENDBRANCH  32  33
ENDBRANCH   1  32
TORSDOF 18
ENDMDL
MODEL 2
REMARK VINA RESULT:     -12.1      1.211      5.940
REMARK SMILES O=C(C[NH+]1CCC(C(=O)NCCCCCCNC(=O)c2ccc(-c3c4nc(c(-c5c(F)cccc5F)c5ccc([nH]5)c(-c5c(F)cccc5F)c5nc(c(-c6c(F)cccc6F)c6ccc3[nH]6)C=C5)C=C4)cc2)CC1)Nc1ccccc1Oc1ccccc1
REMARK SMILES IDX 12 1 11 2 10 3 8 4 9 5 7 7 4 8 5 9 75 10 6 12 74 13 3 14
REMARK SMILES IDX 2 15 1 16 76 17 77 19 78 20 82 21 79 22 81 23 80 24 83 25
REMARK SMILES IDX 84 26 85 27 89 28 86 29 88 30 87 31 13 32 14 33 15 34 16 35
REMARK SMILES IDX 17 36 18 37 19 39 20 40 21 41 73 42 22 43 72 44 23 45 24 46
REMARK SMILES IDX 25 47 66 48 26 49 71 50 65 51 67 52 27 53 70 54 64 55 63 56
REMARK SMILES IDX 28 58 54 59 37 60 53 61 38 62 41 63 52 64 68 65 39 66 40 67
REMARK SMILES IDX 51 69 69 70 42 71 29 72 30 73 35 74 31 75 32 76 34 77 36 78
REMARK SMILES IDX 33 79 55 80 56 81 61 82 57 83 58 84 60 85 62 86 59 87 43 88
REMARK SMILES IDX 44 89 49 90 45 91 46 92 48 93 50 94 47 95
REMARK H PARENT 10 6 4 11 76 18 17 38 67 57 41 68
REMARK Flexibility Score: inf
ROOT
ATOM      1  C   UNL A   1      33.255  29.706  25.118  1.00  0.00     0.021 C 
ENDROOT
BRANCH   1   2
ATOM      2  C   UNL A   1      32.144  28.801  24.599  1.00  0.00     0.116 C 
BRANCH   2   3
ATOM      3  N   UNL A   1      31.414  29.447  23.521  1.00  0.00    -0.356 N 
ATOM      4  C   UNL A   1      30.678  28.918  22.508  1.00  0.00     0.223 C 
ATOM      5  O   UNL A   1      30.203  29.682  21.666  1.00  0.00    -0.275 OA
ATOM      6  H   UNL A   1      31.461  30.432  23.526  1.00  0.00     0.163 HD
BRANCH   4   7
ATOM      7  C   UNL A   1      30.404  27.429  22.451  1.00  0.00     0.089 C 
ATOM      8  N   UNL A   1      31.071  24.970  23.810  1.00  0.00    -0.327 N 
ATOM      9  C   UNL A   1      31.530  25.140  22.425  1.00  0.00     0.263 C 
ATOM     10  C   UNL A   1      29.725  25.523  23.972  1.00  0.00     0.263 C 
ATOM     11  H   UNL A   1      31.692  25.489  24.431  1.00  0.00     0.348 HD
ATOM     12  C   UNL A   1      31.657  26.621  22.087  1.00  0.00     0.075 C 
ATOM     13  C   UNL A   1      29.689  27.014  23.740  1.00  0.00     0.075 C 
BRANCH   8  14
ATOM     14  C   UNL A   1      31.143  23.544  24.214  1.00  0.00     0.363 C 
BRANCH  14  15
ATOM     15  C   UNL A   1      32.473  23.165  24.878  1.00  0.00     0.279 C 
ATOM     16  O   UNL A   1      32.662  23.269  26.088  1.00  0.00    -0.268 OA
ATOM     17  N   UNL A   1      33.431  22.796  23.944  1.00  0.00    -0.318 N 
ATOM     18  H   UNL A   1      33.183  22.816  22.991  1.00  0.00     0.170 HD
BRANCH  17  19
ATOM     19  C   UNL A   1      34.729  22.394  24.277  1.00  0.00     0.084 A 
ATOM     20  C   UNL A   1      35.752  23.253  23.843  1.00  0.00     0.030 A 
ATOM     21  C   UNL A   1      35.040  21.209  24.957  1.00  0.00     0.150 A 
ATOM     22  C   UNL A   1      37.082  22.990  24.162  1.00  0.00     0.002 A 
ATOM     23  C   UNL A   1      36.387  20.958  25.264  1.00  0.00     0.049 A 
ATOM     24  C   UNL A   1      37.399  21.844  24.882  1.00  0.00     0.004 A 
BRANCH  21  25
ATOM     25  O   UNL A   1      34.199  20.190  25.366  1.00  0.00    -0.455 OA
BRANCH  25  26
ATOM     26  C   UNL A   1      33.863  19.160  24.526  1.00  0.00     0.127 A 
ATOM     27  C   UNL A   1      32.676  19.307  23.805  1.00  0.00     0.047 A 
ATOM     28  C   UNL A   1      34.622  17.995  24.391  1.00  0.00     0.047 A 
ATOM     29  C   UNL A   1      32.295  18.340  22.875  1.00  0.00     0.004 A 
ATOM     30  C   UNL A   1      34.242  17.029  23.455  1.00  0.00     0.004 A 
ATOM     31  C   UNL A   1      33.086  17.207  22.689  1.00  0.00     0.000 A 
ENDBRANCH  25  26
ENDBRANCH  21  25
ENDBRANCH  17  19
ENDBRANCH  14  15
ENDBRANCH   8  14
ENDBRANCH   4   7
ENDBRANCH   2   3
ENDBRANCH   1   2
BRANCH   1  32
ATOM     32  C   UNL A   1      33.050  30.136  26.572  1.00  0.00     0.002 C 
BRANCH  32  33
ATOM     33  C   UNL A   1      31.637  30.638  26.887  1.00  0.00     0.002 C 
BRANCH  33  34
ATOM     34  C   UNL A   1      31.492  32.163  26.890  1.00  0.00     0.021 C 
BRANCH  34  35
ATOM     35  C   UNL A   1      32.800  32.911  27.116  1.00  0.00     0.116 C 
BRANCH  35  36
ATOM     36  N   UNL A   1      32.576  34.244  27.646  1.00  0.00    -0.352 N 
ATOM     37  C   UNL A   1      33.140  34.847  28.737  1.00  0.00     0.251 C 
ATOM     38  H   UNL A   1      31.926  34.793  27.150  1.00  0.00     0.163 HD
ATOM     39  O   UNL A   1      32.684  35.907  29.164  1.00  0.00    -0.269 OA
BRANCH  37  40
ATOM     40  C   UNL A   1      34.289  34.213  29.409  1.00  0.00     0.039 A 
ATOM     41  C   UNL A   1      34.046  33.316  30.450  1.00  0.00     0.014 A 
ATOM     42  C   UNL A   1      35.600  34.510  29.022  1.00  0.00     0.014 A 
ATOM     43  C   UNL A   1      35.118  32.690  31.081  1.00  0.00     0.010 A 
ATOM     44  C   UNL A   1      36.663  33.821  29.595  1.00  0.00     0.010 A 
ATOM     45  C   UNL A   1      36.434  32.919  30.643  1.00  0.00    -0.014 A 
BRANCH  45  46
ATOM     46  C   UNL A   1      37.574  32.223  31.286  1.00  0.00     0.031 A 
ATOM     47  C   UNL A   1      38.264  31.084  30.588  1.00  0.00     0.074 A 
ATOM     48  C   UNL A   1      37.961  32.593  32.521  1.00  0.00     0.049 A 
ATOM     49  N   UNL A   1      39.290  30.374  30.984  1.00  0.00    -0.248 NA
ATOM     50  C   UNL A   1      37.710  30.667  29.291  1.00  0.00     0.031 C 
ATOM     51  C   UNL A   1      37.319  33.630  33.331  1.00  0.00     0.029 A 
ATOM     52  N   UNL A   1      38.984  32.137  33.312  1.00  0.00    -0.354 N 
ATOM     53  C   UNL A   1      39.491  29.420  29.996  1.00  0.00     0.074 A 
ATOM     54  C   UNL A   1      38.445  29.601  29.014  1.00  0.00     0.031 C 
ATOM     55  C   UNL A   1      37.983  33.753  34.491  1.00  0.00     0.029 A 
ATOM     56  C   UNL A   1      39.075  32.785  34.519  1.00  0.00     0.049 A 
ATOM     57  H   UNL A   1      39.594  31.414  33.040  1.00  0.00     0.167 HD
ATOM     58  C   UNL A   1      40.475  28.494  29.901  1.00  0.00     0.037 A 
ATOM     59  C   UNL A   1      39.944  32.622  35.533  1.00  0.00     0.037 A 
ATOM     60  C   UNL A   1      41.526  28.335  30.872  1.00  0.00     0.049 A 
ATOM     61  C   UNL A   1      41.049  31.614  35.396  1.00  0.00     0.074 A 
ATOM     62  C   UNL A   1      42.620  27.490  30.830  1.00  0.00     0.029 A 
ATOM     63  N   UNL A   1      41.604  29.032  32.070  1.00  0.00    -0.354 N 
ATOM     64  N   UNL A   1      41.295  30.789  34.406  1.00  0.00    -0.248 NA
ATOM     65  C   UNL A   1      42.006  31.523  36.505  1.00  0.00     0.031 C 
ATOM     66  C   UNL A   1      43.329  27.634  32.029  1.00  0.00     0.029 A 
ATOM     67  C   UNL A   1      42.710  28.612  32.791  1.00  0.00     0.049 A 
ATOM     68  H   UNL A   1      40.968  29.724  32.365  1.00  0.00     0.167 HD
ATOM     69  C   UNL A   1      42.445  30.098  34.762  1.00  0.00     0.074 A 
ATOM     70  C   UNL A   1      42.856  30.612  36.053  1.00  0.00     0.031 C 
ATOM     71  C   UNL A   1      43.103  29.128  34.080  1.00  0.00     0.037 A 
BRANCH  58  72
ATOM     72  C   UNL A   1      40.449  27.577  28.710  1.00  0.00     0.057 A 
ATOM     73  C   UNL A   1      41.170  27.854  27.540  1.00  0.00     0.134 A 
ATOM     74  C   UNL A   1      39.693  26.398  28.735  1.00  0.00     0.134 A 
ATOM     75  F   UNL A   1      41.908  28.972  27.443  1.00  0.00    -0.206 F 
ATOM     76  C   UNL A   1      41.109  27.015  26.426  1.00  0.00     0.040 A 
ATOM     77  C   UNL A   1      39.650  25.535  27.639  1.00  0.00     0.040 A 
ATOM     78  F   UNL A   1      38.983  26.066  29.824  1.00  0.00    -0.206 F 
ATOM     79  C   UNL A   1      40.349  25.848  26.476  1.00  0.00     0.006 A 
ENDBRANCH  58  72
BRANCH  59  80
ATOM     80  C   UNL A   1      39.814  33.466  36.747  1.00  0.00     0.057 A 
ATOM     81  C   UNL A   1      40.506  34.676  36.866  1.00  0.00     0.134 A 
ATOM     82  C   UNL A   1      38.963  33.102  37.797  1.00  0.00     0.134 A 
ATOM     83  F   UNL A   1      41.346  35.072  35.899  1.00  0.00    -0.206 F 
ATOM     84  C   UNL A   1      40.363  35.491  37.991  1.00  0.00     0.040 A 
ATOM     85  C   UNL A   1      38.791  33.918  38.915  1.00  0.00     0.040 A 
ATOM     86  F   UNL A   1      38.261  31.959  37.735  1.00  0.00    -0.206 F 
ATOM     87  C   UNL A   1      39.496  35.115  39.016  1.00  0.00     0.006 A 
ENDBRANCH  59  80
BRANCH  71  88
ATOM     88  C   UNL A   1      44.350  28.573  34.704  1.00  0.00     0.057 A 
ATOM     89  C   UNL A   1      45.613  29.126  34.456  1.00  0.00     0.134 A 
ATOM     90  C   UNL A   1      44.280  27.498  35.601  1.00  0.00     0.134 A 
ATOM     91  F   UNL A   1      45.752  30.149  33.600  1.00  0.00    -0.206 F 
ATOM     92  C   UNL A   1      46.764  28.614  35.059  1.00  0.00     0.040 A 
ATOM     93  C   UNL A   1      45.419  26.997  36.231  1.00  0.00     0.040 A 
ATOM     94  F   UNL A   1      43.101  26.929  35.890  1.00  0.00    -0.206 F 
ATOM     95  C   UNL A   1      46.667  27.551  35.955  1.00  0.00     0.006 A 
ENDBRANCH  71  88
ENDBRANCH  45  46
ENDBRANCH  37  40
ENDBRANCH  35  36
ENDBRANCH  34  35
ENDBRANCH  33  34
ENDBRANCH  32  33
ENDBRANCH   1  32
TORSDOF 18
ENDMDL
MODEL 3
REMARK VINA RESULT:     -12.1      4.993     10.548
REMARK SMILES O=C(C[NH+]1CCC(C(=O)NCCCCCCNC(=O)c2ccc(-c3c4nc(c(-c5c(F)cccc5F)c5ccc([nH]5)c(-c5c(F)cccc5F)c5nc(c(-c6c(F)cccc6F)c6ccc3[nH]6)C=C5)C=C4)cc2)CC1)Nc1ccccc1Oc1ccccc1
REMARK SMILES IDX 12 1 11 2 10 3 8 4 9 5 7 7 4 8 5 9 75 10 6 12 74 13 3 14
REMARK SMILES IDX 2 15 1 16 76 17 77 19 78 20 82 21 79 22 81 23 80 24 83 25
REMARK SMILES IDX 84 26 85 27 89 28 86 29 88 30 87 31 13 32 14 33 15 34 16 35
REMARK SMILES IDX 17 36 18 37 19 39 20 40 21 41 73 42 22 43 72 44 23 45 24 46
REMARK SMILES IDX 25 47 66 48 26 49 71 50 65 51 67 52 27 53 70 54 64 55 63 56
REMARK SMILES IDX 28 58 54 59 37 60 53 61 38 62 41 63 52 64 68 65 39 66 40 67
REMARK SMILES IDX 51 69 69 70 42 71 29 72 30 73 35 74 31 75 32 76 34 77 36 78
REMARK SMILES IDX 33 79 55 80 56 81 61 82 57 83 58 84 60 85 62 86 59 87 43 88
REMARK SMILES IDX 44 89 49 90 45 91 46 92 48 93 50 94 47 95
REMARK H PARENT 10 6 4 11 76 18 17 38 67 57 41 68
REMARK Flexibility Score: inf
ROOT
ATOM      1  C   UNL A   1      39.466  23.199  26.508  1.00  0.00     0.021 C 
ENDROOT
BRANCH   1   2
ATOM      2  C   UNL A   1      38.047  23.705  26.283  1.00  0.00     0.116 C 
BRANCH   2   3
ATOM      3  N   UNL A   1      37.677  23.595  24.881  1.00  0.00    -0.356 N 
ATOM      4  C   UNL A   1      36.479  23.323  24.300  1.00  0.00     0.223 C 
ATOM      5  O   UNL A   1      36.432  23.218  23.073  1.00  0.00    -0.275 OA
ATOM      6  H   UNL A   1      38.418  23.742  24.248  1.00  0.00     0.163 HD
BRANCH   4   7
ATOM      7  C   UNL A   1      35.222  23.210  25.139  1.00  0.00     0.089 C 
ATOM      8  N   UNL A   1      32.443  23.993  25.134  1.00  0.00    -0.327 N 
ATOM      9  C   UNL A   1      33.319  24.564  26.165  1.00  0.00     0.263 C 
ATOM     10  C   UNL A   1      32.781  22.587  24.900  1.00  0.00     0.263 C 
ATOM     11  H   UNL A   1      32.592  24.493  24.258  1.00  0.00     0.348 HD
ATOM     12  C   UNL A   1      34.767  24.570  25.687  1.00  0.00     0.075 C 
ATOM     13  C   UNL A   1      34.176  22.420  24.348  1.00  0.00     0.075 C 
BRANCH   8  14
ATOM     14  C   UNL A   1      31.016  24.171  25.501  1.00  0.00     0.363 C 
BRANCH  14  15
ATOM     15  C   UNL A   1      30.545  25.629  25.423  1.00  0.00     0.279 C 
ATOM     16  O   UNL A   1      30.428  26.341  26.417  1.00  0.00    -0.268 OA
ATOM     17  N   UNL A   1      30.189  25.989  24.131  1.00  0.00    -0.318 N 
ATOM     18  H   UNL A   1      30.262  25.309  23.422  1.00  0.00     0.170 HD
BRANCH  17  19
ATOM     19  C   UNL A   1      29.734  27.263  23.775  1.00  0.00     0.084 A 
ATOM     20  C   UNL A   1      28.359  27.353  23.499  1.00  0.00     0.030 A 
ATOM     21  C   UNL A   1      30.557  28.391  23.648  1.00  0.00     0.150 A 
ATOM     22  C   UNL A   1      27.777  28.580  23.189  1.00  0.00     0.002 A 
ATOM     23  C   UNL A   1      29.951  29.617  23.329  1.00  0.00     0.049 A 
ATOM     24  C   UNL A   1      28.574  29.715  23.112  1.00  0.00     0.004 A 
BRANCH  21  25
ATOM     25  O   UNL A   1      31.931  28.486  23.766  1.00  0.00    -0.455 OA
BRANCH  25  26
ATOM     26  C   UNL A   1      32.522  28.869  24.943  1.00  0.00     0.127 A 
ATOM     27  C   UNL A   1      33.675  28.173  25.314  1.00  0.00     0.047 A 
ATOM     28  C   UNL A   1      32.015  29.872  25.771  1.00  0.00     0.047 A 
ATOM     29  C   UNL A   1      34.380  28.544  26.459  1.00  0.00     0.004 A 
ATOM     30  C   UNL A   1      32.726  30.246  26.916  1.00  0.00     0.004 A 
ATOM     31  C   UNL A   1      33.914  29.591  27.252  1.00  0.00     0.000 A 
ENDBRANCH  25  26
ENDBRANCH  21  25
ENDBRANCH  17  19
ENDBRANCH  14  15
ENDBRANCH   8  14
ENDBRANCH   4   7
ENDBRANCH   2   3
ENDBRANCH   1   2
BRANCH   1  32
ATOM     32  C   UNL A   1      39.649  21.729  26.121  1.00  0.00     0.002 C 
BRANCH  32  33
ATOM     33  C   UNL A   1      40.975  21.116  26.582  1.00  0.00     0.002 C 
BRANCH  33  34
ATOM     34  C   UNL A   1      41.209  19.679  26.107  1.00  0.00     0.021 C 
BRANCH  34  35
ATOM     35  C   UNL A   1      42.560  19.104  26.511  1.00  0.00     0.116 C 
BRANCH  35  36
ATOM     36  N   UNL A   1      43.376  18.775  25.354  1.00  0.00    -0.352 N 
ATOM     37  C   UNL A   1      44.139  19.598  24.573  1.00  0.00     0.251 C 
ATOM     38  H   UNL A   1      43.379  17.825  25.096  1.00  0.00     0.163 HD
ATOM     39  O   UNL A   1      44.602  19.188  23.509  1.00  0.00    -0.269 OA
BRANCH  37  40
ATOM     40  C   UNL A   1      44.394  20.985  25.004  1.00  0.00     0.039 A 
ATOM     41  C   UNL A   1      43.838  22.030  24.264  1.00  0.00     0.014 A 
ATOM     42  C   UNL A   1      45.186  21.254  26.124  1.00  0.00     0.014 A 
ATOM     43  C   UNL A   1      44.049  23.346  24.670  1.00  0.00     0.010 A 
ATOM     44  C   UNL A   1      45.324  22.561  26.576  1.00  0.00     0.010 A 
ATOM     45  C   UNL A   1      44.773  23.622  25.842  1.00  0.00    -0.014 A 
BRANCH  45  46
ATOM     46  C   UNL A   1      44.964  25.019  26.299  1.00  0.00     0.031 A 
ATOM     47  C   UNL A   1      46.318  25.668  26.221  1.00  0.00     0.074 A 
ATOM     48  C   UNL A   1      43.922  25.688  26.824  1.00  0.00     0.049 A 
ATOM     49  N   UNL A   1      46.669  26.885  26.550  1.00  0.00    -0.248 NA
ATOM     50  C   UNL A   1      47.429  24.832  25.741  1.00  0.00     0.031 C 
ATOM     51  C   UNL A   1      42.580  25.138  27.025  1.00  0.00     0.029 A 
ATOM     52  N   UNL A   1      43.828  26.976  27.288  1.00  0.00    -0.354 N 
ATOM     53  C   UNL A   1      48.038  26.954  26.334  1.00  0.00     0.074 A 
ATOM     54  C   UNL A   1      48.465  25.641  25.905  1.00  0.00     0.031 C 
ATOM     55  C   UNL A   1      41.789  26.092  27.541  1.00  0.00     0.029 A 
ATOM     56  C   UNL A   1      42.573  27.307  27.736  1.00  0.00     0.049 A 
ATOM     57  H   UNL A   1      44.588  27.602  27.298  1.00  0.00     0.167 HD
ATOM     58  C   UNL A   1      48.862  28.022  26.456  1.00  0.00     0.037 A 
ATOM     59  C   UNL A   1      42.105  28.463  28.242  1.00  0.00     0.037 A 
ATOM     60  C   UNL A   1      48.425  29.332  26.862  1.00  0.00     0.049 A 
ATOM     61  C   UNL A   1      43.025  29.646  28.337  1.00  0.00     0.074 A 
ATOM     62  C   UNL A   1      49.157  30.503  26.932  1.00  0.00     0.029 A 
ATOM     63  N   UNL A   1      47.137  29.640  27.279  1.00  0.00    -0.354 N 
ATOM     64  N   UNL A   1      44.296  29.731  28.026  1.00  0.00    -0.248 NA
ATOM     65  C   UNL A   1      42.444  30.899  28.837  1.00  0.00     0.031 C 
ATOM     66  C   UNL A   1      48.328  31.507  27.448  1.00  0.00     0.029 A 
ATOM     67  C   UNL A   1      47.062  30.975  27.641  1.00  0.00     0.049 A 
ATOM     68  H   UNL A   1      46.387  29.003  27.313  1.00  0.00     0.167 HD
ATOM     69  C   UNL A   1      44.662  31.047  28.270  1.00  0.00     0.074 A 
ATOM     70  C   UNL A   1      43.474  31.729  28.741  1.00  0.00     0.031 C 
ATOM     71  C   UNL A   1      45.872  31.639  28.116  1.00  0.00     0.037 A 
BRANCH  58  72
ATOM     72  C   UNL A   1      50.319  27.809  26.154  1.00  0.00     0.057 A 
ATOM     73  C   UNL A   1      50.817  27.807  24.843  1.00  0.00     0.134 A 
ATOM     74  C   UNL A   1      51.239  27.607  27.191  1.00  0.00     0.134 A 
ATOM     75  F   UNL A   1      49.990  27.985  23.801  1.00  0.00    -0.206 F 
ATOM     76  C   UNL A   1      52.166  27.570  24.572  1.00  0.00     0.040 A 
ATOM     77  C   UNL A   1      52.596  27.402  26.934  1.00  0.00     0.040 A 
ATOM     78  F   UNL A   1      50.835  27.603  28.470  1.00  0.00    -0.206 F 
ATOM     79  C   UNL A   1      53.061  27.371  25.622  1.00  0.00     0.006 A 
ENDBRANCH  58  72
BRANCH  59  80
ATOM     80  C   UNL A   1      40.684  28.552  28.660  1.00  0.00     0.057 A 
ATOM     81  C   UNL A   1      40.293  28.254  29.970  1.00  0.00     0.134 A 
ATOM     82  C   UNL A   1      39.691  28.979  27.771  1.00  0.00     0.134 A 
ATOM     83  F   UNL A   1      41.197  27.828  30.864  1.00  0.00    -0.206 F 
ATOM     84  C   UNL A   1      38.963  28.367  30.379  1.00  0.00     0.040 A 
ATOM     85  C   UNL A   1      38.362  29.121  28.172  1.00  0.00     0.040 A 
ATOM     86  F   UNL A   1      40.006  29.293  26.505  1.00  0.00    -0.206 F 
ATOM     87  C   UNL A   1      37.995  28.811  29.480  1.00  0.00     0.006 A 
ENDBRANCH  59  80
BRANCH  71  88
ATOM     88  C   UNL A   1      45.969  33.102  28.436  1.00  0.00     0.057 A 
ATOM     89  C   UNL A   1      45.704  34.090  27.479  1.00  0.00     0.134 A 
ATOM     90  C   UNL A   1      46.289  33.527  29.733  1.00  0.00     0.134 A 
ATOM     91  F   UNL A   1      45.403  33.752  26.217  1.00  0.00    -0.206 F 
ATOM     92  C   UNL A   1      45.778  35.448  27.795  1.00  0.00     0.040 A 
ATOM     93  C   UNL A   1      46.337  34.880  30.067  1.00  0.00     0.040 A 
ATOM     94  F   UNL A   1      46.545  32.633  30.698  1.00  0.00    -0.206 F 
ATOM     95  C   UNL A   1      46.088  35.846  29.094  1.00  0.00     0.006 A 
ENDBRANCH  71  88
ENDBRANCH  45  46
ENDBRANCH  37  40
ENDBRANCH  35  36
ENDBRANCH  34  35
ENDBRANCH  33  34
ENDBRANCH  32  33
ENDBRANCH   1  32
TORSDOF 18
ENDMDL
