MODEL 1
REMARK VINA RESULT:     -12.5      0.000      0.000
REMARK SMILES Cc1ccc(S(=O)(=O)n2cc(C(=O)C(=O)NCC(=O)N[C@H](Cc3c[nH]c4ccccc34)C(=O)NCCCCCCNC(=O)c3ccc(-c4c5nc(c(-c6c(F)cccc6F)c6ccc([nH]6)c(-c6c(F)cccc6F)c6nc(c(-c7c(F)cccc7F)c7ccc4[nH]7)C=C6)C=C5)cc3)c3ccccc32)cc1
REMARK SMILES IDX 35 1 34 2 32 3 33 4 21 6 20 7 18 8 19 9 17 11 16 12 14 13
REMARK SMILES IDX 15 14 12 16 13 17 11 18 9 19 10 20 103 21 98 22 102 23 99 24
REMARK SMILES IDX 101 25 100 26 6 27 7 28 8 29 5 30 1 31 2 32 3 33 105 34 4 35
REMARK SMILES IDX 104 36 22 37 23 38 24 39 31 40 25 41 26 42 30 43 27 45 29 46
REMARK SMILES IDX 28 47 36 48 37 49 38 50 39 51 40 52 41 53 42 54 43 56 44 57
REMARK SMILES IDX 45 58 97 59 46 60 96 61 47 62 48 63 49 64 90 65 50 66 95 67
REMARK SMILES IDX 89 68 91 69 51 70 94 71 88 72 87 73 52 75 78 76 61 77 77 78
REMARK SMILES IDX 62 79 65 80 76 81 92 82 63 83 64 84 75 86 93 87 66 88 53 89
REMARK SMILES IDX 54 90 59 91 55 92 56 93 58 94 60 95 57 96 79 97 80 98 85 99
REMARK SMILES IDX 81 100 82 101 84 102 86 103 83 104 67 105 68 106 73 107
REMARK SMILES IDX 69 108 70 109 72 110 74 111 71 112
REMARK H PARENT 34 5 20 10 16 15 25 44 41 55 91 74 65 85
REMARK Flexibility Score: inf
ROOT
ATOM      1  C   UNL A   1      33.849  28.413  26.062  1.00  0.00     0.116 C 
ENDROOT
BRANCH   1   2
ATOM      2  N   UNL A   1      34.083  28.773  24.678  1.00  0.00    -0.354 N 
ATOM      3  C   UNL A   1      33.573  28.313  23.508  1.00  0.00     0.242 C 
ATOM      4  O   UNL A   1      34.165  28.683  22.487  1.00  0.00    -0.273 OA
ATOM      5  H   UNL A   1      34.742  29.494  24.564  1.00  0.00     0.163 HD
BRANCH   3   6
ATOM      6  C   UNL A   1      32.360  27.375  23.394  1.00  0.00     0.175 C 
BRANCH   6   7
ATOM      7  N   UNL A   1      32.785  26.205  22.609  1.00  0.00    -0.342 N 
ATOM      8  C   UNL A   1      32.436  24.895  22.749  1.00  0.00     0.240 C 
ATOM      9  O   UNL A   1      33.049  24.082  22.049  1.00  0.00    -0.273 OA
ATOM     10  H   UNL A   1      33.412  26.397  21.874  1.00  0.00     0.164 HD
BRANCH   8  11
ATOM     11  C   UNL A   1      31.209  24.457  23.578  1.00  0.00     0.216 C 
BRANCH  11  12
ATOM     12  N   UNL A   1      31.153  24.841  24.985  1.00  0.00    -0.340 N 
ATOM     13  C   UNL A   1      31.213  24.029  26.108  1.00  0.00     0.292 C 
ATOM     14  O   UNL A   1      31.244  24.484  27.244  1.00  0.00    -0.265 OA
ATOM     15  H   UNL A   1      31.061  25.806  25.161  1.00  0.00     0.164 HD
BRANCH  13  16
ATOM     16  C   UNL A   1      31.272  22.517  25.917  1.00  0.00     0.252 C 
ATOM     17  O   UNL A   1      30.205  21.916  26.047  1.00  0.00    -0.283 OA
BRANCH  16  18
ATOM     18  C   UNL A   1      32.553  21.811  25.788  1.00  0.00     0.054 A 
ATOM     19  N   UNL A   1      34.694  21.086  25.914  1.00  0.00    -0.240 N 
ATOM     20  C   UNL A   1      33.802  22.058  26.371  1.00  0.00     0.117 A 
ATOM     21  C   UNL A   1      33.937  20.103  25.251  1.00  0.00     0.065 A 
ATOM     22  C   UNL A   1      32.745  20.721  24.888  1.00  0.00     0.012 A 
ATOM     23  C   UNL A   1      34.321  18.867  24.695  1.00  0.00     0.028 A 
ATOM     24  C   UNL A   1      32.003  20.185  23.813  1.00  0.00     0.011 A 
ATOM     25  C   UNL A   1      33.617  18.402  23.584  1.00  0.00     0.002 A 
ATOM     26  C   UNL A   1      32.495  19.074  23.123  1.00  0.00     0.001 A 
BRANCH  19  27
ATOM     27  S   UNL A   1      36.199  21.390  25.076  1.00  0.00     0.268 S 
ATOM     28  O   UNL A   1      35.763  22.039  23.850  1.00  0.00    -0.201 OA
ATOM     29  O   UNL A   1      36.812  20.068  25.051  1.00  0.00    -0.201 OA
BRANCH  27  30
ATOM     30  C   UNL A   1      37.535  22.367  25.659  1.00  0.00     0.088 A 
ATOM     31  C   UNL A   1      41.177  23.804  27.490  1.00  0.00     0.044 C 
ATOM     32  C   UNL A   1      39.916  23.352  26.809  1.00  0.00    -0.051 A 
ATOM     33  C   UNL A   1      39.834  22.014  26.450  1.00  0.00     0.005 A 
ATOM     34  C   UNL A   1      38.806  24.193  26.569  1.00  0.00     0.005 A 
ATOM     35  C   UNL A   1      38.669  21.542  25.875  1.00  0.00     0.022 A 
ATOM     36  C   UNL A   1      37.601  23.708  25.997  1.00  0.00     0.022 A 
ENDBRANCH  27  30
ENDBRANCH  19  27
ENDBRANCH  16  18
ENDBRANCH  13  16
ENDBRANCH  11  12
ENDBRANCH   8  11
ENDBRANCH   6   7
BRANCH   6  37
ATOM     37  C   UNL A   1      31.027  27.971  22.884  1.00  0.00     0.072 C 
BRANCH  37  38
ATOM     38  C   UNL A   1      30.475  29.266  23.432  1.00  0.00    -0.020 A 
ATOM     39  C   UNL A   1      30.709  29.895  24.640  1.00  0.00     0.087 A 
ATOM     40  C   UNL A   1      29.561  30.137  22.727  1.00  0.00     0.003 A 
ATOM     41  N   UNL A   1      30.192  31.161  24.593  1.00  0.00    -0.361 N 
ATOM     42  C   UNL A   1      29.476  31.333  23.441  1.00  0.00     0.046 A 
ATOM     43  C   UNL A   1      28.815  30.033  21.533  1.00  0.00     0.010 A 
ATOM     44  H   UNL A   1      30.318  31.848  25.288  1.00  0.00     0.166 HD
ATOM     45  C   UNL A   1      28.759  32.448  22.999  1.00  0.00     0.026 A 
ATOM     46  C   UNL A   1      28.034  31.118  21.107  1.00  0.00     0.001 A 
ATOM     47  C   UNL A   1      28.028  32.316  21.818  1.00  0.00     0.002 A 
ENDBRANCH  37  38
ENDBRANCH   6  37
ENDBRANCH   3   6
ENDBRANCH   1   2
BRANCH   1  48
ATOM     48  C   UNL A   1      34.007  29.608  27.001  1.00  0.00     0.021 C 
BRANCH  48  49
ATOM     49  C   UNL A   1      35.447  29.896  27.453  1.00  0.00     0.002 C 
BRANCH  49  50
ATOM     50  C   UNL A   1      35.785  31.367  27.732  1.00  0.00     0.002 C 
BRANCH  50  51
ATOM     51  C   UNL A   1      34.636  32.217  28.275  1.00  0.00     0.021 C 
BRANCH  51  52
ATOM     52  C   UNL A   1      34.502  32.188  29.792  1.00  0.00     0.116 C 
BRANCH  52  53
ATOM     53  N   UNL A   1      35.308  33.182  30.474  1.00  0.00    -0.352 N 
ATOM     54  C   UNL A   1      36.600  33.115  30.973  1.00  0.00     0.251 C 
ATOM     55  H   UNL A   1      34.863  34.050  30.605  1.00  0.00     0.163 HD
ATOM     56  O   UNL A   1      37.009  34.028  31.657  1.00  0.00    -0.269 OA
BRANCH  54  57
ATOM     57  C   UNL A   1      37.537  32.035  30.536  1.00  0.00     0.039 A 
ATOM     58  C   UNL A   1      37.518  30.851  31.289  1.00  0.00     0.014 A 
ATOM     59  C   UNL A   1      38.546  32.229  29.600  1.00  0.00     0.014 A 
ATOM     60  C   UNL A   1      38.637  30.022  31.309  1.00  0.00     0.010 A 
ATOM     61  C   UNL A   1      39.693  31.464  29.677  1.00  0.00     0.010 A 
ATOM     62  C   UNL A   1      39.762  30.414  30.591  1.00  0.00    -0.014 A 
BRANCH  62  63
ATOM     63  C   UNL A   1      41.093  29.881  30.834  1.00  0.00     0.031 A 
ATOM     64  C   UNL A   1      41.535  28.638  30.184  1.00  0.00     0.074 A 
ATOM     65  C   UNL A   1      41.948  30.601  31.594  1.00  0.00     0.049 A 
ATOM     66  N   UNL A   1      42.462  27.877  30.655  1.00  0.00    -0.248 NA
ATOM     67  C   UNL A   1      40.935  28.130  28.954  1.00  0.00     0.031 C 
ATOM     68  C   UNL A   1      43.387  30.411  31.739  1.00  0.00     0.029 A 
ATOM     69  N   UNL A   1      41.624  31.562  32.558  1.00  0.00    -0.354 N 
ATOM     70  C   UNL A   1      42.760  26.945  29.692  1.00  0.00     0.074 A 
ATOM     71  C   UNL A   1      41.746  27.104  28.674  1.00  0.00     0.031 C 
ATOM     72  C   UNL A   1      43.791  31.003  32.875  1.00  0.00     0.029 A 
ATOM     73  C   UNL A   1      42.599  31.461  33.569  1.00  0.00     0.049 A 
ATOM     74  H   UNL A   1      40.864  32.186  32.535  1.00  0.00     0.167 HD
ATOM     75  C   UNL A   1      43.908  26.219  29.788  1.00  0.00     0.037 A 
ATOM     76  C   UNL A   1      42.256  31.102  34.842  1.00  0.00     0.037 A 
ATOM     77  C   UNL A   1      44.661  26.561  30.987  1.00  0.00     0.049 A 
ATOM     78  C   UNL A   1      42.902  29.817  35.306  1.00  0.00     0.074 A 
ATOM     79  C   UNL A   1      45.688  27.463  31.212  1.00  0.00     0.029 A 
ATOM     80  N   UNL A   1      44.159  26.214  32.235  1.00  0.00    -0.354 N 
ATOM     81  N   UNL A   1      43.416  28.931  34.498  1.00  0.00    -0.248 NA
ATOM     82  C   UNL A   1      43.004  29.418  36.708  1.00  0.00     0.031 C 
ATOM     83  C   UNL A   1      45.754  27.714  32.604  1.00  0.00     0.029 A 
ATOM     84  C   UNL A   1      44.790  26.941  33.225  1.00  0.00     0.049 A 
ATOM     85  H   UNL A   1      43.453  25.544  32.390  1.00  0.00     0.167 HD
ATOM     86  C   UNL A   1      43.878  27.864  35.223  1.00  0.00     0.074 A 
ATOM     87  C   UNL A   1      43.615  28.224  36.603  1.00  0.00     0.031 C 
ATOM     88  C   UNL A   1      44.428  26.768  34.623  1.00  0.00     0.037 A 
BRANCH  75  89
ATOM     89  C   UNL A   1      44.452  25.433  28.630  1.00  0.00     0.057 A 
ATOM     90  C   UNL A   1      44.590  24.035  28.697  1.00  0.00     0.134 A 
ATOM     91  C   UNL A   1      44.899  26.020  27.436  1.00  0.00     0.134 A 
ATOM     92  F   UNL A   1      44.158  23.334  29.753  1.00  0.00    -0.206 F 
ATOM     93  C   UNL A   1      45.206  23.287  27.687  1.00  0.00     0.040 A 
ATOM     94  C   UNL A   1      45.560  25.291  26.437  1.00  0.00     0.040 A 
ATOM     95  F   UNL A   1      44.701  27.325  27.191  1.00  0.00    -0.206 F 
ATOM     96  C   UNL A   1      45.723  23.918  26.565  1.00  0.00     0.006 A 
ENDBRANCH  75  89
BRANCH  76  97
ATOM     97  C   UNL A   1      40.897  31.565  35.231  1.00  0.00     0.057 A 
ATOM     98  C   UNL A   1      39.828  30.657  35.131  1.00  0.00     0.134 A 
ATOM     99  C   UNL A   1      40.708  32.685  36.046  1.00  0.00     0.134 A 
ATOM    100  F   UNL A   1      39.946  29.558  34.367  1.00  0.00    -0.206 F 
ATOM    101  C   UNL A   1      38.669  30.791  35.900  1.00  0.00     0.040 A 
ATOM    102  C   UNL A   1      39.546  32.835  36.813  1.00  0.00     0.040 A 
ATOM    103  F   UNL A   1      41.686  33.586  36.207  1.00  0.00    -0.206 F 
ATOM    104  C   UNL A   1      38.543  31.866  36.774  1.00  0.00     0.006 A 
ENDBRANCH  76  97
BRANCH  88 105
ATOM    105  C   UNL A   1      44.757  25.461  35.298  1.00  0.00     0.057 A 
ATOM    106  C   UNL A   1      43.958  24.312  35.216  1.00  0.00     0.134 A 
ATOM    107  C   UNL A   1      46.008  25.281  35.932  1.00  0.00     0.134 A 
ATOM    108  F   UNL A   1      42.794  24.314  34.554  1.00  0.00    -0.206 F 
ATOM    109  C   UNL A   1      44.352  23.085  35.767  1.00  0.00     0.040 A 
ATOM    110  C   UNL A   1      46.433  24.050  36.437  1.00  0.00     0.040 A 
ATOM    111  F   UNL A   1      46.883  26.290  36.064  1.00  0.00    -0.206 F 
ATOM    112  C   UNL A   1      45.598  22.947  36.367  1.00  0.00     0.006 A 
ENDBRANCH  88 105
ENDBRANCH  62  63
ENDBRANCH  54  57
ENDBRANCH  52  53
ENDBRANCH  51  52
ENDBRANCH  50  51
ENDBRANCH  49  50
ENDBRANCH  48  49
ENDBRANCH   1  48
TORSDOF 22
ENDMDL
MODEL 2
REMARK VINA RESULT:     -11.8      3.695      9.051
REMARK SMILES Cc1ccc(S(=O)(=O)n2cc(C(=O)C(=O)NCC(=O)N[C@H](Cc3c[nH]c4ccccc34)C(=O)NCCCCCCNC(=O)c3ccc(-c4c5nc(c(-c6c(F)cccc6F)c6ccc([nH]6)c(-c6c(F)cccc6F)c6nc(c(-c7c(F)cccc7F)c7ccc4[nH]7)C=C6)C=C5)cc3)c3ccccc32)cc1
REMARK SMILES IDX 35 1 34 2 32 3 33 4 21 6 20 7 18 8 19 9 17 11 16 12 14 13
REMARK SMILES IDX 15 14 12 16 13 17 11 18 9 19 10 20 103 21 98 22 102 23 99 24
REMARK SMILES IDX 101 25 100 26 6 27 7 28 8 29 5 30 1 31 2 32 3 33 105 34 4 35
REMARK SMILES IDX 104 36 22 37 23 38 24 39 31 40 25 41 26 42 30 43 27 45 29 46
REMARK SMILES IDX 28 47 36 48 37 49 38 50 39 51 40 52 41 53 42 54 43 56 44 57
REMARK SMILES IDX 45 58 97 59 46 60 96 61 47 62 48 63 49 64 90 65 50 66 95 67
REMARK SMILES IDX 89 68 91 69 51 70 94 71 88 72 87 73 52 75 78 76 61 77 77 78
REMARK SMILES IDX 62 79 65 80 76 81 92 82 63 83 64 84 75 86 93 87 66 88 53 89
REMARK SMILES IDX 54 90 59 91 55 92 56 93 58 94 60 95 57 96 79 97 80 98 85 99
REMARK SMILES IDX 81 100 82 101 84 102 86 103 83 104 67 105 68 106 73 107
REMARK SMILES IDX 69 108 70 109 72 110 74 111 71 112
REMARK H PARENT 34 5 20 10 16 15 25 44 41 55 91 74 65 85
REMARK Flexibility Score: inf
ROOT
ATOM      1  C   UNL A   1      34.141  26.169  24.019  1.00  0.00     0.116 C 
ENDROOT
BRANCH   1   2
ATOM      2  N   UNL A   1      33.393  27.357  23.660  1.00  0.00    -0.354 N 
ATOM      3  C   UNL A   1      32.814  28.338  24.396  1.00  0.00     0.242 C 
ATOM      4  O   UNL A   1      32.050  29.088  23.777  1.00  0.00    -0.273 OA
ATOM      5  H   UNL A   1      33.285  27.476  22.689  1.00  0.00     0.163 HD
BRANCH   3   6
ATOM      6  C   UNL A   1      33.033  28.542  25.904  1.00  0.00     0.175 C 
BRANCH   6   7
ATOM      7  N   UNL A   1      34.462  28.835  26.101  1.00  0.00    -0.342 N 
ATOM      8  C   UNL A   1      35.059  29.667  27.002  1.00  0.00     0.240 C 
ATOM      9  O   UNL A   1      36.274  29.848  26.864  1.00  0.00    -0.273 OA
ATOM     10  H   UNL A   1      35.077  28.360  25.495  1.00  0.00     0.164 HD
BRANCH   8  11
ATOM     11  C   UNL A   1      34.316  30.196  28.248  1.00  0.00     0.216 C 
BRANCH  11  12
ATOM     12  N   UNL A   1      33.478  31.381  28.101  1.00  0.00    -0.340 N 
ATOM     13  C   UNL A   1      33.849  32.717  28.158  1.00  0.00     0.292 C 
ATOM     14  O   UNL A   1      33.060  33.625  27.931  1.00  0.00    -0.265 OA
ATOM     15  H   UNL A   1      32.521  31.211  27.938  1.00  0.00     0.164 HD
BRANCH  13  16
ATOM     16  C   UNL A   1      35.296  33.062  28.488  1.00  0.00     0.252 C 
ATOM     17  O   UNL A   1      36.044  33.228  27.523  1.00  0.00    -0.283 OA
BRANCH  16  18
ATOM     18  C   UNL A   1      35.804  33.001  29.864  1.00  0.00     0.054 A 
ATOM     19  N   UNL A   1      36.092  32.820  32.102  1.00  0.00    -0.240 N 
ATOM     20  C   UNL A   1      35.144  32.774  31.078  1.00  0.00     0.117 A 
ATOM     21  C   UNL A   1      37.362  32.829  31.497  1.00  0.00     0.065 A 
ATOM     22  C   UNL A   1      37.161  33.286  30.198  1.00  0.00     0.012 A 
ATOM     23  C   UNL A   1      38.651  32.769  32.062  1.00  0.00     0.028 A 
ATOM     24  C   UNL A   1      38.247  33.867  29.509  1.00  0.00     0.011 A 
ATOM     25  C   UNL A   1      39.688  33.421  31.397  1.00  0.00     0.002 A 
ATOM     26  C   UNL A   1      39.481  33.998  30.152  1.00  0.00     0.001 A 
BRANCH  19  27
ATOM     27  S   UNL A   1      36.051  33.888  33.488  1.00  0.00     0.268 S 
ATOM     28  O   UNL A   1      34.880  33.429  34.217  1.00  0.00    -0.201 OA
ATOM     29  O   UNL A   1      36.082  35.205  32.865  1.00  0.00    -0.201 OA
BRANCH  27  30
ATOM     30  C   UNL A   1      37.305  34.063  34.703  1.00  0.00     0.088 A 
ATOM     31  C   UNL A   1      39.545  34.355  38.388  1.00  0.00     0.044 C 
ATOM     32  C   UNL A   1      38.819  34.228  37.078  1.00  0.00    -0.051 A 
ATOM     33  C   UNL A   1      37.612  33.545  37.085  1.00  0.00     0.005 A 
ATOM     34  C   UNL A   1      39.270  34.809  35.871  1.00  0.00     0.005 A 
ATOM     35  C   UNL A   1      36.882  33.457  35.914  1.00  0.00     0.022 A 
ATOM     36  C   UNL A   1      38.514  34.738  34.671  1.00  0.00     0.022 A 
ENDBRANCH  27  30
ENDBRANCH  19  27
ENDBRANCH  16  18
ENDBRANCH  13  16
ENDBRANCH  11  12
ENDBRANCH   8  11
ENDBRANCH   6   7
BRANCH   6  37
ATOM     37  C   UNL A   1      32.522  27.445  26.867  1.00  0.00     0.072 C 
BRANCH  37  38
ATOM     38  C   UNL A   1      31.592  26.349  26.401  1.00  0.00    -0.020 A 
ATOM     39  C   UNL A   1      30.307  26.424  25.899  1.00  0.00     0.087 A 
ATOM     40  C   UNL A   1      31.921  24.942  26.381  1.00  0.00     0.003 A 
ATOM     41  N   UNL A   1      29.958  25.208  25.377  1.00  0.00    -0.361 N 
ATOM     42  C   UNL A   1      30.921  24.280  25.667  1.00  0.00     0.046 A 
ATOM     43  C   UNL A   1      32.989  24.166  26.882  1.00  0.00     0.010 A 
ATOM     44  H   UNL A   1      29.135  25.027  24.867  1.00  0.00     0.166 HD
ATOM     45  C   UNL A   1      30.962  22.918  25.359  1.00  0.00     0.026 A 
ATOM     46  C   UNL A   1      33.013  22.784  26.641  1.00  0.00     0.001 A 
ATOM     47  C   UNL A   1      32.026  22.175  25.870  1.00  0.00     0.002 A 
ENDBRANCH  37  38
ENDBRANCH   6  37
ENDBRANCH   3   6
ENDBRANCH   1   2
BRANCH   1  48
ATOM     48  C   UNL A   1      33.745  24.961  23.170  1.00  0.00     0.021 C 
BRANCH  48  49
ATOM     49  C   UNL A   1      34.631  23.718  23.352  1.00  0.00     0.002 C 
BRANCH  49  50
ATOM     50  C   UNL A   1      35.763  23.843  24.381  1.00  0.00     0.002 C 
BRANCH  50  51
ATOM     51  C   UNL A   1      36.629  22.598  24.564  1.00  0.00     0.021 C 
BRANCH  51  52
ATOM     52  C   UNL A   1      37.192  22.431  25.970  1.00  0.00     0.116 C 
BRANCH  52  53
ATOM     53  N   UNL A   1      38.359  21.572  26.040  1.00  0.00    -0.352 N 
ATOM     54  C   UNL A   1      39.689  21.869  26.295  1.00  0.00     0.251 C 
ATOM     55  H   UNL A   1      38.176  20.619  25.878  1.00  0.00     0.163 HD
ATOM     56  O   UNL A   1      40.521  21.002  26.138  1.00  0.00    -0.269 OA
BRANCH  54  57
ATOM     57  C   UNL A   1      40.079  23.169  26.923  1.00  0.00     0.039 A 
ATOM     58  C   UNL A   1      39.817  24.327  26.174  1.00  0.00     0.014 A 
ATOM     59  C   UNL A   1      40.865  23.262  28.066  1.00  0.00     0.014 A 
ATOM     60  C   UNL A   1      40.559  25.484  26.401  1.00  0.00     0.010 A 
ATOM     61  C   UNL A   1      41.666  24.372  28.244  1.00  0.00     0.010 A 
ATOM     62  C   UNL A   1      41.566  25.446  27.360  1.00  0.00    -0.014 A 
BRANCH  62  63
ATOM     63  C   UNL A   1      42.651  26.411  27.420  1.00  0.00     0.031 A 
ATOM     64  C   UNL A   1      44.053  25.966  27.448  1.00  0.00     0.074 A 
ATOM     65  C   UNL A   1      42.349  27.727  27.353  1.00  0.00     0.049 A 
ATOM     66  N   UNL A   1      45.015  26.670  27.936  1.00  0.00    -0.248 NA
ATOM     67  C   UNL A   1      44.480  24.661  26.953  1.00  0.00     0.031 C 
ATOM     68  C   UNL A   1      43.263  28.839  27.117  1.00  0.00     0.029 A 
ATOM     69  N   UNL A   1      41.135  28.337  27.685  1.00  0.00    -0.354 N 
ATOM     70  C   UNL A   1      46.193  26.050  27.597  1.00  0.00     0.074 A 
ATOM     71  C   UNL A   1      45.810  24.774  27.036  1.00  0.00     0.031 C 
ATOM     72  C   UNL A   1      42.689  29.972  27.554  1.00  0.00     0.029 A 
ATOM     73  C   UNL A   1      41.454  29.600  28.222  1.00  0.00     0.049 A 
ATOM     74  H   UNL A   1      40.235  27.958  27.568  1.00  0.00     0.167 HD
ATOM     75  C   UNL A   1      47.368  26.729  27.704  1.00  0.00     0.037 A 
ATOM     76  C   UNL A   1      41.145  29.910  29.516  1.00  0.00     0.037 A 
ATOM     77  C   UNL A   1      47.164  28.078  28.216  1.00  0.00     0.049 A 
ATOM     78  C   UNL A   1      42.354  30.216  30.371  1.00  0.00     0.074 A 
ATOM     79  C   UNL A   1      46.983  29.295  27.581  1.00  0.00     0.029 A 
ATOM     80  N   UNL A   1      46.765  28.257  29.535  1.00  0.00    -0.354 N 
ATOM     81  N   UNL A   1      43.571  29.862  30.060  1.00  0.00    -0.248 NA
ATOM     82  C   UNL A   1      42.289  30.923  31.648  1.00  0.00     0.031 C 
ATOM     83  C   UNL A   1      46.402  30.192  28.509  1.00  0.00     0.029 A 
ATOM     84  C   UNL A   1      46.261  29.530  29.715  1.00  0.00     0.049 A 
ATOM     85  H   UNL A   1      46.833  27.573  30.241  1.00  0.00     0.167 HD
ATOM     86  C   UNL A   1      44.428  30.244  31.058  1.00  0.00     0.074 A 
ATOM     87  C   UNL A   1      43.581  30.922  32.021  1.00  0.00     0.031 C 
ATOM     88  C   UNL A   1      45.762  29.959  31.012  1.00  0.00     0.037 A 
BRANCH  75  89
ATOM     89  C   UNL A   1      48.631  26.241  27.057  1.00  0.00     0.057 A 
ATOM     90  C   UNL A   1      49.576  25.486  27.775  1.00  0.00     0.134 A 
ATOM     91  C   UNL A   1      48.985  26.531  25.730  1.00  0.00     0.134 A 
ATOM     92  F   UNL A   1      49.350  25.089  29.034  1.00  0.00    -0.206 F 
ATOM     93  C   UNL A   1      50.817  25.121  27.241  1.00  0.00     0.040 A 
ATOM     94  C   UNL A   1      50.243  26.214  25.197  1.00  0.00     0.040 A 
ATOM     95  F   UNL A   1      48.118  27.127  24.898  1.00  0.00    -0.206 F 
ATOM     96  C   UNL A   1      51.168  25.513  25.958  1.00  0.00     0.006 A 
ENDBRANCH  75  89
BRANCH  76  97
ATOM     97  C   UNL A   1      39.905  29.245  29.995  1.00  0.00     0.057 A 
ATOM     98  C   UNL A   1      40.010  28.308  31.039  1.00  0.00     0.134 A 
ATOM     99  C   UNL A   1      38.640  29.786  29.749  1.00  0.00     0.134 A 
ATOM    100  F   UNL A   1      41.198  27.754  31.329  1.00  0.00    -0.206 F 
ATOM    101  C   UNL A   1      38.933  28.012  31.877  1.00  0.00     0.040 A 
ATOM    102  C   UNL A   1      37.550  29.487  30.577  1.00  0.00     0.040 A 
ATOM    103  F   UNL A   1      38.462  30.698  28.784  1.00  0.00    -0.206 F 
ATOM    104  C   UNL A   1      37.706  28.633  31.669  1.00  0.00     0.006 A 
ENDBRANCH  76  97
BRANCH  88 105
ATOM    105  C   UNL A   1      46.744  30.130  32.143  1.00  0.00     0.057 A 
ATOM    106  C   UNL A   1      46.966  29.172  33.141  1.00  0.00     0.134 A 
ATOM    107  C   UNL A   1      47.630  31.231  32.157  1.00  0.00     0.134 A 
ATOM    108  F   UNL A   1      46.266  28.031  33.185  1.00  0.00    -0.206 F 
ATOM    109  C   UNL A   1      47.965  29.321  34.113  1.00  0.00     0.040 A 
ATOM    110  C   UNL A   1      48.663  31.363  33.088  1.00  0.00     0.040 A 
ATOM    111  F   UNL A   1      47.547  32.215  31.248  1.00  0.00    -0.206 F 
ATOM    112  C   UNL A   1      48.826  30.411  34.081  1.00  0.00     0.006 A 
ENDBRANCH  88 105
ENDBRANCH  62  63
ENDBRANCH  54  57
ENDBRANCH  52  53
ENDBRANCH  51  52
ENDBRANCH  50  51
ENDBRANCH  49  50
ENDBRANCH  48  49
ENDBRANCH   1  48
TORSDOF 22
ENDMDL
MODEL 3
REMARK VINA RESULT:     -11.7      3.579     10.397
REMARK SMILES Cc1ccc(S(=O)(=O)n2cc(C(=O)C(=O)NCC(=O)N[C@H](Cc3c[nH]c4ccccc34)C(=O)NCCCCCCNC(=O)c3ccc(-c4c5nc(c(-c6c(F)cccc6F)c6ccc([nH]6)c(-c6c(F)cccc6F)c6nc(c(-c7c(F)cccc7F)c7ccc4[nH]7)C=C6)C=C5)cc3)c3ccccc32)cc1
REMARK SMILES IDX 35 1 34 2 32 3 33 4 21 6 20 7 18 8 19 9 17 11 16 12 14 13
REMARK SMILES IDX 15 14 12 16 13 17 11 18 9 19 10 20 103 21 98 22 102 23 99 24
REMARK SMILES IDX 101 25 100 26 6 27 7 28 8 29 5 30 1 31 2 32 3 33 105 34 4 35
REMARK SMILES IDX 104 36 22 37 23 38 24 39 31 40 25 41 26 42 30 43 27 45 29 46
REMARK SMILES IDX 28 47 36 48 37 49 38 50 39 51 40 52 41 53 42 54 43 56 44 57
REMARK SMILES IDX 45 58 97 59 46 60 96 61 47 62 48 63 49 64 90 65 50 66 95 67
REMARK SMILES IDX 89 68 91 69 51 70 94 71 88 72 87 73 52 75 78 76 61 77 77 78
REMARK SMILES IDX 62 79 65 80 76 81 92 82 63 83 64 84 75 86 93 87 66 88 53 89
REMARK SMILES IDX 54 90 59 91 55 92 56 93 58 94 60 95 57 96 79 97 80 98 85 99
REMARK SMILES IDX 81 100 82 101 84 102 86 103 83 104 67 105 68 106 73 107
REMARK SMILES IDX 69 108 70 109 72 110 74 111 71 112
REMARK H PARENT 34 5 20 10 16 15 25 44 41 55 91 74 65 85
REMARK Flexibility Score: inf
ROOT
ATOM      1  C   UNL A   1      33.401  25.970  26.008  1.00  0.00     0.116 C 
ENDROOT
BRANCH   1   2
ATOM      2  N   UNL A   1      32.369  26.789  26.612  1.00  0.00    -0.354 N 
ATOM      3  C   UNL A   1      32.216  28.131  26.742  1.00  0.00     0.242 C 
ATOM      4  O   UNL A   1      31.327  28.493  27.521  1.00  0.00    -0.273 OA
ATOM      5  H   UNL A   1      31.632  26.269  27.005  1.00  0.00     0.163 HD
BRANCH   3   6
ATOM      6  C   UNL A   1      33.073  29.180  26.015  1.00  0.00     0.175 C 
BRANCH   6   7
ATOM      7  N   UNL A   1      32.992  30.426  26.795  1.00  0.00    -0.342 N 
ATOM      8  C   UNL A   1      33.870  30.937  27.704  1.00  0.00     0.240 C 
ATOM      9  O   UNL A   1      33.497  31.934  28.331  1.00  0.00    -0.273 OA
ATOM     10  H   UNL A   1      32.186  30.970  26.636  1.00  0.00     0.164 HD
BRANCH   8  11
ATOM     11  C   UNL A   1      35.327  30.437  27.809  1.00  0.00     0.216 C 
BRANCH  11  12
ATOM     12  N   UNL A   1      36.398  31.428  27.823  1.00  0.00    -0.340 N 
ATOM     13  C   UNL A   1      37.191  31.830  28.888  1.00  0.00     0.292 C 
ATOM     14  O   UNL A   1      38.122  32.614  28.751  1.00  0.00    -0.265 OA
ATOM     15  H   UNL A   1      36.584  31.870  26.963  1.00  0.00     0.164 HD
BRANCH  13  16
ATOM     16  C   UNL A   1      36.911  31.253  30.271  1.00  0.00     0.252 C 
ATOM     17  O   UNL A   1      36.287  30.191  30.295  1.00  0.00    -0.283 OA
BRANCH  16  18
ATOM     18  C   UNL A   1      37.190  32.020  31.492  1.00  0.00     0.054 A 
ATOM     19  N   UNL A   1      38.091  33.001  33.322  1.00  0.00    -0.240 N 
ATOM     20  C   UNL A   1      38.362  32.153  32.246  1.00  0.00     0.117 A 
ATOM     21  C   UNL A   1      36.831  33.581  33.091  1.00  0.00     0.065 A 
ATOM     22  C   UNL A   1      36.178  32.732  32.203  1.00  0.00     0.012 A 
ATOM     23  C   UNL A   1      36.131  34.575  33.803  1.00  0.00     0.028 A 
ATOM     24  C   UNL A   1      34.768  32.753  32.157  1.00  0.00     0.011 A 
ATOM     25  C   UNL A   1      34.738  34.522  33.803  1.00  0.00     0.002 A 
ATOM     26  C   UNL A   1      34.063  33.596  33.020  1.00  0.00     0.001 A 
BRANCH  19  27
ATOM     27  S   UNL A   1      38.299  32.606  35.014  1.00  0.00     0.268 S 
ATOM     28  O   UNL A   1      39.438  31.702  34.999  1.00  0.00    -0.201 OA
ATOM     29  O   UNL A   1      36.971  32.137  35.387  1.00  0.00    -0.201 OA
BRANCH  27  30
ATOM     30  C   UNL A   1      38.632  33.738  36.313  1.00  0.00     0.088 A 
ATOM     31  C   UNL A   1      40.207  36.903  38.800  1.00  0.00     0.044 C 
ATOM     32  C   UNL A   1      39.602  35.810  37.964  1.00  0.00    -0.051 A 
ATOM     33  C   UNL A   1      39.743  35.912  36.588  1.00  0.00     0.005 A 
ATOM     34  C   UNL A   1      38.955  34.675  38.503  1.00  0.00     0.005 A 
ATOM     35  C   UNL A   1      39.254  34.899  35.784  1.00  0.00     0.022 A 
ATOM     36  C   UNL A   1      38.469  33.623  37.682  1.00  0.00     0.022 A 
ENDBRANCH  27  30
ENDBRANCH  19  27
ENDBRANCH  16  18
ENDBRANCH  13  16
ENDBRANCH  11  12
ENDBRANCH   8  11
ENDBRANCH   6   7
BRANCH   6  37
ATOM     37  C   UNL A   1      32.813  29.414  24.509  1.00  0.00     0.072 C 
BRANCH  37  38
ATOM     38  C   UNL A   1      31.616  28.816  23.808  1.00  0.00    -0.020 A 
ATOM     39  C   UNL A   1      31.454  27.576  23.221  1.00  0.00     0.087 A 
ATOM     40  C   UNL A   1      30.342  29.479  23.639  1.00  0.00     0.003 A 
ATOM     41  N   UNL A   1      30.129  27.383  22.937  1.00  0.00    -0.361 N 
ATOM     42  C   UNL A   1      29.428  28.533  23.172  1.00  0.00     0.046 A 
ATOM     43  C   UNL A   1      29.870  30.790  23.863  1.00  0.00     0.010 A 
ATOM     44  H   UNL A   1      29.738  26.540  22.611  1.00  0.00     0.166 HD
ATOM     45  C   UNL A   1      28.068  28.797  22.991  1.00  0.00     0.026 A 
ATOM     46  C   UNL A   1      28.521  31.092  23.622  1.00  0.00     0.001 A 
ATOM     47  C   UNL A   1      27.629  30.102  23.216  1.00  0.00     0.002 A 
ENDBRANCH  37  38
ENDBRANCH   6  37
ENDBRANCH   3   6
ENDBRANCH   1   2
BRANCH   1  48
ATOM     48  C   UNL A   1      33.064  24.481  26.072  1.00  0.00     0.021 C 
BRANCH  48  49
ATOM     49  C   UNL A   1      33.284  23.707  24.763  1.00  0.00     0.002 C 
BRANCH  49  50
ATOM     50  C   UNL A   1      34.497  22.767  24.732  1.00  0.00     0.002 C 
BRANCH  50  51
ATOM     51  C   UNL A   1      35.852  23.445  24.528  1.00  0.00     0.021 C 
BRANCH  51  52
ATOM     52  C   UNL A   1      36.567  23.810  25.822  1.00  0.00     0.116 C 
BRANCH  52  53
ATOM     53  N   UNL A   1      37.681  22.940  26.147  1.00  0.00    -0.352 N 
ATOM     54  C   UNL A   1      38.984  23.236  26.519  1.00  0.00     0.251 C 
ATOM     55  H   UNL A   1      37.479  21.978  26.093  1.00  0.00     0.163 HD
ATOM     56  O   UNL A   1      39.791  22.334  26.580  1.00  0.00    -0.269 OA
BRANCH  54  57
ATOM     57  C   UNL A   1      39.351  24.599  27.010  1.00  0.00     0.039 A 
ATOM     58  C   UNL A   1      40.154  25.374  26.158  1.00  0.00     0.014 A 
ATOM     59  C   UNL A   1      39.135  25.027  28.315  1.00  0.00     0.014 A 
ATOM     60  C   UNL A   1      40.949  26.388  26.685  1.00  0.00     0.010 A 
ATOM     61  C   UNL A   1      39.980  25.971  28.863  1.00  0.00     0.010 A 
ATOM     62  C   UNL A   1      40.939  26.588  28.062  1.00  0.00    -0.014 A 
BRANCH  62  63
ATOM     63  C   UNL A   1      41.982  27.309  28.774  1.00  0.00     0.031 A 
ATOM     64  C   UNL A   1      41.797  28.719  29.151  1.00  0.00     0.074 A 
ATOM     65  C   UNL A   1      43.084  26.631  29.166  1.00  0.00     0.049 A 
ATOM     66  N   UNL A   1      42.773  29.535  29.360  1.00  0.00    -0.248 NA
ATOM     67  C   UNL A   1      40.483  29.337  29.290  1.00  0.00     0.031 C 
ATOM     68  C   UNL A   1      44.106  27.063  30.113  1.00  0.00     0.029 A 
ATOM     69  N   UNL A   1      43.596  25.452  28.613  1.00  0.00    -0.354 N 
ATOM     70  C   UNL A   1      42.244  30.680  29.900  1.00  0.00     0.074 A 
ATOM     71  C   UNL A   1      40.810  30.535  29.785  1.00  0.00     0.031 C 
ATOM     72  C   UNL A   1      45.221  26.345  29.905  1.00  0.00     0.029 A 
ATOM     73  C   UNL A   1      44.998  25.536  28.719  1.00  0.00     0.049 A 
ATOM     74  H   UNL A   1      43.079  24.711  28.226  1.00  0.00     0.167 HD
ATOM     75  C   UNL A   1      43.064  31.581  30.509  1.00  0.00     0.037 A 
ATOM     76  C   UNL A   1      45.786  25.558  27.603  1.00  0.00     0.037 A 
ATOM     77  C   UNL A   1      44.457  31.158  30.458  1.00  0.00     0.049 A 
ATOM     78  C   UNL A   1      46.599  26.825  27.460  1.00  0.00     0.074 A 
ATOM     79  C   UNL A   1      45.244  30.445  31.348  1.00  0.00     0.029 A 
ATOM     80  N   UNL A   1      45.125  31.144  29.240  1.00  0.00    -0.354 N 
ATOM     81  N   UNL A   1      46.324  27.938  28.084  1.00  0.00    -0.248 NA
ATOM     82  C   UNL A   1      47.767  26.947  26.592  1.00  0.00     0.031 C 
ATOM     83  C   UNL A   1      46.359  29.939  30.639  1.00  0.00     0.029 A 
ATOM     84  C   UNL A   1      46.266  30.370  29.328  1.00  0.00     0.049 A 
ATOM     85  H   UNL A   1      44.828  31.619  28.430  1.00  0.00     0.167 HD
ATOM     86  C   UNL A   1      47.216  28.907  27.706  1.00  0.00     0.074 A 
ATOM     87  C   UNL A   1      48.112  28.233  26.786  1.00  0.00     0.031 C 
ATOM     88  C   UNL A   1      47.133  30.186  28.175  1.00  0.00     0.037 A 
BRANCH  75  89
ATOM     89  C   UNL A   1      42.532  32.673  31.391  1.00  0.00     0.057 A 
ATOM     90  C   UNL A   1      42.453  34.003  30.941  1.00  0.00     0.134 A 
ATOM     91  C   UNL A   1      42.124  32.468  32.719  1.00  0.00     0.134 A 
ATOM     92  F   UNL A   1      42.758  34.339  29.681  1.00  0.00    -0.206 F 
ATOM     93  C   UNL A   1      42.080  35.063  31.775  1.00  0.00     0.040 A 
ATOM     94  C   UNL A   1      41.794  33.525  33.579  1.00  0.00     0.040 A 
ATOM     95  F   UNL A   1      42.024  31.230  33.228  1.00  0.00    -0.206 F 
ATOM     96  C   UNL A   1      41.779  34.831  33.109  1.00  0.00     0.006 A 
ENDBRANCH  75  89
BRANCH  76  97
ATOM     97  C   UNL A   1      45.220  24.773  26.474  1.00  0.00     0.057 A 
ATOM     98  C   UNL A   1      45.213  23.370  26.574  1.00  0.00     0.134 A 
ATOM     99  C   UNL A   1      44.357  25.350  25.539  1.00  0.00     0.134 A 
ATOM    100  F   UNL A   1      46.016  22.754  27.456  1.00  0.00    -0.206 F 
ATOM    101  C   UNL A   1      44.303  22.584  25.863  1.00  0.00     0.040 A 
ATOM    102  C   UNL A   1      43.448  24.570  24.813  1.00  0.00     0.040 A 
ATOM    103  F   UNL A   1      44.293  26.682  25.397  1.00  0.00    -0.206 F 
ATOM    104  C   UNL A   1      43.391  23.189  25.006  1.00  0.00     0.006 A 
ENDBRANCH  76  97
BRANCH  88 105
ATOM    105  C   UNL A   1      47.911  31.370  27.660  1.00  0.00     0.057 A 
ATOM    106  C   UNL A   1      47.399  32.315  26.761  1.00  0.00     0.134 A 
ATOM    107  C   UNL A   1      49.179  31.680  28.204  1.00  0.00     0.134 A 
ATOM    108  F   UNL A   1      46.167  32.199  26.248  1.00  0.00    -0.206 F 
ATOM    109  C   UNL A   1      48.116  33.461  26.391  1.00  0.00     0.040 A 
ATOM    110  C   UNL A   1      49.878  32.846  27.883  1.00  0.00     0.040 A 
ATOM    111  F   UNL A   1      49.782  30.875  29.092  1.00  0.00    -0.206 F 
ATOM    112  C   UNL A   1      49.352  33.737  26.961  1.00  0.00     0.006 A 
ENDBRANCH  88 105
ENDBRANCH  62  63
ENDBRANCH  54  57
ENDBRANCH  52  53
ENDBRANCH  51  52
ENDBRANCH  50  51
ENDBRANCH  49  50
ENDBRANCH  48  49
ENDBRANCH   1  48
TORSDOF 22
ENDMDL
