MODEL 1
REMARK VINA RESULT:     -10.6      0.000      0.000
REMARK SMILES O=C(CSc1nc2ccc(NC(=O)COc3ccc(Cl)cc3)cc2s1)NCCCCCCNC(=O)c1ccc(-c2c3nc(c(-c4c(F)cccc4F)c4ccc([nH]4)c(-c4c(F)cccc4F)c4nc(c(-c5c(F)cccc5F)c5ccc2[nH]5)C=C4)C=C3)cc1
REMARK SMILES IDX 27 1 26 2 1 3 2 4 3 6 4 7 5 8 6 9 25 10 7 11 24 12 8 13
REMARK SMILES IDX 23 14 9 15 10 16 11 17 12 18 13 20 14 21 15 22 16 23 17 24
REMARK SMILES IDX 22 25 18 26 21 27 19 28 20 29 28 30 29 31 30 32 31 33 32 34
REMARK SMILES IDX 33 35 34 36 35 38 36 39 37 40 89 41 38 42 88 43 39 44 40 45
REMARK SMILES IDX 41 46 82 47 42 48 87 49 81 50 83 51 43 52 86 53 80 54 79 55
REMARK SMILES IDX 44 57 70 58 53 59 69 60 54 61 57 62 68 63 84 64 55 65 56 66
REMARK SMILES IDX 67 68 85 69 58 70 45 71 46 72 51 73 47 74 48 75 50 76 52 77
REMARK SMILES IDX 49 78 71 79 72 80 77 81 73 82 74 83 76 84 78 85 75 86 59 87
REMARK SMILES IDX 60 88 65 89 61 90 62 91 64 92 66 93 63 94
REMARK H PARENT 26 5 11 19 33 37 83 56 57 67
REMARK Flexibility Score: inf
ROOT
ATOM      1  C   UNL A   1      34.692  22.759  25.199  1.00  0.00     0.116 C 
ENDROOT
BRANCH   1   2
ATOM      2  N   UNL A   1      34.138  23.912  24.523  1.00  0.00    -0.355 N 
ATOM      3  O   UNL A   1      34.470  23.126  22.397  1.00  0.00    -0.274 OA
ATOM      4  C   UNL A   1      34.048  24.002  23.149  1.00  0.00     0.230 C 
ATOM      5  H   UNL A   1      33.812  24.664  25.067  1.00  0.00     0.163 HD
BRANCH   4   6
ATOM      6  C   UNL A   1      33.532  25.329  22.613  1.00  0.00     0.177 C 
BRANCH   6   7
ATOM      7  S   UNL A   1      31.777  25.629  22.962  1.00  0.00    -0.086 SA
BRANCH   7   8
ATOM      8  C   UNL A   1      31.869  27.028  24.010  1.00  0.00     0.151 A 
ATOM      9  N   UNL A   1      32.700  27.093  25.021  1.00  0.00    -0.230 NA
ATOM     10  S   UNL A   1      30.881  28.400  23.755  1.00  0.00    -0.108 S 
ATOM     11  C   UNL A   1      32.587  28.326  25.639  1.00  0.00     0.083 A 
ATOM     12  C   UNL A   1      31.641  29.186  25.086  1.00  0.00     0.057 A 
ATOM     13  C   UNL A   1      33.325  28.772  26.751  1.00  0.00     0.032 A 
ATOM     14  C   UNL A   1      31.404  30.476  25.596  1.00  0.00     0.047 A 
ATOM     15  C   UNL A   1      33.107  30.064  27.251  1.00  0.00     0.028 A 
ATOM     16  C   UNL A   1      32.174  30.928  26.667  1.00  0.00     0.042 A 
BRANCH  16  17
ATOM     17  N   UNL A   1      32.063  32.203  27.247  1.00  0.00    -0.323 N 
ATOM     18  C   UNL A   1      32.962  33.123  27.696  1.00  0.00     0.262 C 
ATOM     19  H   UNL A   1      31.130  32.497  27.353  1.00  0.00     0.170 HD
ATOM     20  O   UNL A   1      32.508  34.214  28.066  1.00  0.00    -0.271 OA
BRANCH  18  21
ATOM     21  C   UNL A   1      34.469  32.866  27.790  1.00  0.00     0.329 C 
BRANCH  21  22
ATOM     22  O   UNL A   1      35.315  33.840  28.373  1.00  0.00    -0.484 OA
BRANCH  22  23
ATOM     23  C   UNL A   1      36.086  33.478  29.438  1.00  0.00     0.120 A 
ATOM     24  C   UNL A   1      35.624  33.172  30.718  1.00  0.00     0.048 A 
ATOM     25  C   UNL A   1      37.452  33.371  29.159  1.00  0.00     0.048 A 
ATOM     26  C   UNL A   1      36.522  32.763  31.709  1.00  0.00     0.024 A 
ATOM     27  C   UNL A   1      38.354  32.979  30.152  1.00  0.00     0.024 A 
ATOM     28  C   UNL A   1      37.882  32.671  31.424  1.00  0.00     0.041 A 
ATOM     29  Cl  UNL A   1      38.981  32.172  32.649  1.00  0.00    -0.084 Cl
ENDBRANCH  22  23
ENDBRANCH  21  22
ENDBRANCH  18  21
ENDBRANCH  16  17
ENDBRANCH   7   8
ENDBRANCH   6   7
ENDBRANCH   4   6
ENDBRANCH   1   2
BRANCH   1  30
ATOM     30  C   UNL A   1      35.994  23.103  25.922  1.00  0.00     0.021 C 
BRANCH  30  31
ATOM     31  C   UNL A   1      37.268  22.754  25.141  1.00  0.00     0.002 C 
BRANCH  31  32
ATOM     32  C   UNL A   1      37.176  21.511  24.250  1.00  0.00     0.002 C 
BRANCH  32  33
ATOM     33  C   UNL A   1      37.731  20.224  24.862  1.00  0.00     0.021 C 
BRANCH  33  34
ATOM     34  C   UNL A   1      38.776  20.430  25.956  1.00  0.00     0.116 C 
BRANCH  34  35
ATOM     35  N   UNL A   1      39.830  19.429  25.915  1.00  0.00    -0.352 N 
ATOM     36  C   UNL A   1      41.182  19.575  26.104  1.00  0.00     0.251 C 
ATOM     37  H   UNL A   1      39.531  18.511  25.724  1.00  0.00     0.163 HD
ATOM     38  O   UNL A   1      41.943  18.641  25.862  1.00  0.00    -0.269 OA
BRANCH  36  39
ATOM     39  C   UNL A   1      41.732  20.866  26.574  1.00  0.00     0.039 A 
ATOM     40  C   UNL A   1      42.123  21.817  25.628  1.00  0.00     0.014 A 
ATOM     41  C   UNL A   1      41.868  21.138  27.937  1.00  0.00     0.014 A 
ATOM     42  C   UNL A   1      42.586  23.066  26.050  1.00  0.00     0.010 A 
ATOM     43  C   UNL A   1      42.258  22.408  28.355  1.00  0.00     0.010 A 
ATOM     44  C   UNL A   1      42.621  23.387  27.417  1.00  0.00    -0.014 A 
BRANCH  44  45
ATOM     45  C   UNL A   1      43.023  24.740  27.881  1.00  0.00     0.031 A 
ATOM     46  C   UNL A   1      41.979  25.775  28.202  1.00  0.00     0.074 A 
ATOM     47  C   UNL A   1      44.330  25.061  27.949  1.00  0.00     0.049 A 
ATOM     48  N   UNL A   1      42.135  27.027  28.556  1.00  0.00    -0.248 NA
ATOM     49  C   UNL A   1      40.572  25.359  28.086  1.00  0.00     0.031 C 
ATOM     50  C   UNL A   1      45.440  24.164  27.620  1.00  0.00     0.029 A 
ATOM     51  N   UNL A   1      44.950  26.234  28.306  1.00  0.00    -0.354 N 
ATOM     52  C   UNL A   1      40.854  27.548  28.685  1.00  0.00     0.074 A 
ATOM     53  C   UNL A   1      39.932  26.493  28.329  1.00  0.00     0.031 C 
ATOM     54  C   UNL A   1      46.602  24.810  27.811  1.00  0.00     0.029 A 
ATOM     55  C   UNL A   1      46.321  26.179  28.233  1.00  0.00     0.049 A 
ATOM     56  H   UNL A   1      44.457  27.039  28.587  1.00  0.00     0.167 HD
ATOM     57  C   UNL A   1      40.481  28.788  29.083  1.00  0.00     0.037 A 
ATOM     58  C   UNL A   1      47.248  27.128  28.466  1.00  0.00     0.037 A 
ATOM     59  C   UNL A   1      41.402  29.827  29.466  1.00  0.00     0.049 A 
ATOM     60  C   UNL A   1      46.803  28.500  28.894  1.00  0.00     0.074 A 
ATOM     61  C   UNL A   1      41.117  31.088  29.958  1.00  0.00     0.029 A 
ATOM     62  N   UNL A   1      42.783  29.727  29.392  1.00  0.00    -0.354 N 
ATOM     63  N   UNL A   1      45.589  28.952  29.096  1.00  0.00    -0.248 NA
ATOM     64  C   UNL A   1      47.858  29.495  29.132  1.00  0.00     0.031 C 
ATOM     65  C   UNL A   1      42.324  31.775  30.126  1.00  0.00     0.029 A 
ATOM     66  C   UNL A   1      43.363  30.919  29.797  1.00  0.00     0.049 A 
ATOM     67  H   UNL A   1      43.277  28.930  29.094  1.00  0.00     0.167 HD
ATOM     68  C   UNL A   1      45.736  30.267  29.518  1.00  0.00     0.074 A 
ATOM     69  C   UNL A   1      47.158  30.537  29.556  1.00  0.00     0.031 C 
ATOM     70  C   UNL A   1      44.781  31.170  29.844  1.00  0.00     0.037 A 
BRANCH  57  71
ATOM     71  C   UNL A   1      39.012  29.098  29.122  1.00  0.00     0.057 A 
ATOM     72  C   UNL A   1      38.262  28.993  30.300  1.00  0.00     0.134 A 
ATOM     73  C   UNL A   1      38.354  29.567  27.977  1.00  0.00     0.134 A 
ATOM     74  F   UNL A   1      38.828  28.543  31.430  1.00  0.00    -0.206 F 
ATOM     75  C   UNL A   1      36.904  29.322  30.333  1.00  0.00     0.040 A 
ATOM     76  C   UNL A   1      37.005  29.925  28.005  1.00  0.00     0.040 A 
ATOM     77  F   UNL A   1      39.015  29.699  26.817  1.00  0.00    -0.206 F 
ATOM     78  C   UNL A   1      36.275  29.798  29.184  1.00  0.00     0.006 A 
ENDBRANCH  57  71
BRANCH  58  79
ATOM     79  C   UNL A   1      48.693  26.821  28.309  1.00  0.00     0.057 A 
ATOM     80  C   UNL A   1      49.438  26.285  29.368  1.00  0.00     0.134 A 
ATOM     81  C   UNL A   1      49.374  27.089  27.116  1.00  0.00     0.134 A 
ATOM     82  F   UNL A   1      48.847  26.026  30.544  1.00  0.00    -0.206 F 
ATOM     83  C   UNL A   1      50.810  26.056  29.256  1.00  0.00     0.040 A 
ATOM     84  C   UNL A   1      50.740  26.835  26.979  1.00  0.00     0.040 A 
ATOM     85  F   UNL A   1      48.720  27.595  26.061  1.00  0.00    -0.206 F 
ATOM     86  C   UNL A   1      51.465  26.328  28.057  1.00  0.00     0.006 A 
ENDBRANCH  58  79
BRANCH  70  87
ATOM     87  C   UNL A   1      45.239  32.520  30.317  1.00  0.00     0.057 A 
ATOM     88  C   UNL A   1      45.406  33.598  29.439  1.00  0.00     0.134 A 
ATOM     89  C   UNL A   1      45.478  32.753  31.678  1.00  0.00     0.134 A 
ATOM     90  F   UNL A   1      45.206  33.441  28.122  1.00  0.00    -0.206 F 
ATOM     91  C   UNL A   1      45.819  34.852  29.894  1.00  0.00     0.040 A 
ATOM     92  C   UNL A   1      45.861  34.008  32.149  1.00  0.00     0.040 A 
ATOM     93  F   UNL A   1      45.327  31.766  32.574  1.00  0.00    -0.206 F 
ATOM     94  C   UNL A   1      46.040  35.062  31.254  1.00  0.00     0.006 A 
ENDBRANCH  70  87
ENDBRANCH  44  45
ENDBRANCH  36  39
ENDBRANCH  34  35
ENDBRANCH  33  34
ENDBRANCH  32  33
ENDBRANCH  31  32
ENDBRANCH  30  31
ENDBRANCH   1  30
TORSDOF 19
ENDMDL
MODEL 2
REMARK VINA RESULT:     -10.5      4.689     11.071
REMARK SMILES O=C(CSc1nc2ccc(NC(=O)COc3ccc(Cl)cc3)cc2s1)NCCCCCCNC(=O)c1ccc(-c2c3nc(c(-c4c(F)cccc4F)c4ccc([nH]4)c(-c4c(F)cccc4F)c4nc(c(-c5c(F)cccc5F)c5ccc2[nH]5)C=C4)C=C3)cc1
REMARK SMILES IDX 27 1 26 2 1 3 2 4 3 6 4 7 5 8 6 9 25 10 7 11 24 12 8 13
REMARK SMILES IDX 23 14 9 15 10 16 11 17 12 18 13 20 14 21 15 22 16 23 17 24
REMARK SMILES IDX 22 25 18 26 21 27 19 28 20 29 28 30 29 31 30 32 31 33 32 34
REMARK SMILES IDX 33 35 34 36 35 38 36 39 37 40 89 41 38 42 88 43 39 44 40 45
REMARK SMILES IDX 41 46 82 47 42 48 87 49 81 50 83 51 43 52 86 53 80 54 79 55
REMARK SMILES IDX 44 57 70 58 53 59 69 60 54 61 57 62 68 63 84 64 55 65 56 66
REMARK SMILES IDX 67 68 85 69 58 70 45 71 46 72 51 73 47 74 48 75 50 76 52 77
REMARK SMILES IDX 49 78 71 79 72 80 77 81 73 82 74 83 76 84 78 85 75 86 59 87
REMARK SMILES IDX 60 88 65 89 61 90 62 91 64 92 66 93 63 94
REMARK H PARENT 26 5 11 19 33 37 83 56 57 67
REMARK Flexibility Score: inf
ROOT
ATOM      1  C   UNL A   1      35.397  31.217  28.245  1.00  0.00     0.116 C 
ENDROOT
BRANCH   1   2
ATOM      2  N   UNL A   1      34.687  29.980  28.004  1.00  0.00    -0.355 N 
ATOM      3  O   UNL A   1      33.152  30.863  26.552  1.00  0.00    -0.274 OA
ATOM      4  C   UNL A   1      33.612  29.889  27.144  1.00  0.00     0.230 C 
ATOM      5  H   UNL A   1      34.984  29.167  28.473  1.00  0.00     0.163 HD
BRANCH   4   6
ATOM      6  C   UNL A   1      32.928  28.531  27.092  1.00  0.00     0.177 C 
BRANCH   6   7
ATOM      7  S   UNL A   1      31.509  28.468  25.964  1.00  0.00    -0.086 SA
BRANCH   7   8
ATOM      8  C   UNL A   1      31.779  26.938  25.157  1.00  0.00     0.151 A 
ATOM      9  N   UNL A   1      32.922  26.637  24.592  1.00  0.00    -0.230 NA
ATOM     10  S   UNL A   1      30.559  25.743  25.077  1.00  0.00    -0.108 S 
ATOM     11  C   UNL A   1      32.863  25.354  24.075  1.00  0.00     0.083 A 
ATOM     12  C   UNL A   1      31.647  24.698  24.245  1.00  0.00     0.057 A 
ATOM     13  C   UNL A   1      33.900  24.675  23.409  1.00  0.00     0.032 A 
ATOM     14  C   UNL A   1      31.423  23.388  23.780  1.00  0.00     0.047 A 
ATOM     15  C   UNL A   1      33.690  23.363  22.961  1.00  0.00     0.028 A 
ATOM     16  C   UNL A   1      32.471  22.705  23.164  1.00  0.00     0.042 A 
BRANCH  16  17
ATOM     17  N   UNL A   1      32.393  21.387  22.686  1.00  0.00    -0.323 N 
ATOM     18  C   UNL A   1      32.294  20.166  23.282  1.00  0.00     0.262 C 
ATOM     19  H   UNL A   1      32.412  21.333  21.703  1.00  0.00     0.170 HD
ATOM     20  O   UNL A   1      32.140  19.190  22.535  1.00  0.00    -0.271 OA
BRANCH  18  21
ATOM     21  C   UNL A   1      32.394  19.945  24.794  1.00  0.00     0.329 C 
BRANCH  21  22
ATOM     22  O   UNL A   1      33.660  19.738  25.393  1.00  0.00    -0.484 OA
BRANCH  22  23
ATOM     23  C   UNL A   1      34.476  20.815  25.580  1.00  0.00     0.120 A 
ATOM     24  C   UNL A   1      34.189  21.933  26.364  1.00  0.00     0.048 A 
ATOM     25  C   UNL A   1      35.719  20.722  24.948  1.00  0.00     0.048 A 
ATOM     26  C   UNL A   1      35.140  22.948  26.511  1.00  0.00     0.024 A 
ATOM     27  C   UNL A   1      36.665  21.743  25.079  1.00  0.00     0.024 A 
ATOM     28  C   UNL A   1      36.371  22.851  25.867  1.00  0.00     0.041 A 
ATOM     29  Cl  UNL A   1      37.533  24.106  26.049  1.00  0.00    -0.084 Cl
ENDBRANCH  22  23
ENDBRANCH  21  22
ENDBRANCH  18  21
ENDBRANCH  16  17
ENDBRANCH   7   8
ENDBRANCH   6   7
ENDBRANCH   4   6
ENDBRANCH   1   2
BRANCH   1  30
ATOM     30  C   UNL A   1      34.639  32.118  29.219  1.00  0.00     0.021 C 
BRANCH  30  31
ATOM     31  C   UNL A   1      35.142  33.568  29.268  1.00  0.00     0.002 C 
BRANCH  31  32
ATOM     32  C   UNL A   1      34.543  34.509  28.218  1.00  0.00     0.002 C 
BRANCH  32  33
ATOM     33  C   UNL A   1      33.284  35.261  28.655  1.00  0.00     0.021 C 
BRANCH  33  34
ATOM     34  C   UNL A   1      33.490  36.256  29.793  1.00  0.00     0.116 C 
BRANCH  34  35
ATOM     35  N   UNL A   1      32.464  36.147  30.820  1.00  0.00    -0.352 N 
ATOM     36  C   UNL A   1      32.497  35.481  32.021  1.00  0.00     0.251 C 
ATOM     37  H   UNL A   1      31.624  36.621  30.626  1.00  0.00     0.163 HD
ATOM     38  O   UNL A   1      31.470  35.360  32.685  1.00  0.00    -0.269 OA
BRANCH  36  39
ATOM     39  C   UNL A   1      33.761  34.886  32.506  1.00  0.00     0.039 A 
ATOM     40  C   UNL A   1      33.733  33.605  33.063  1.00  0.00     0.014 A 
ATOM     41  C   UNL A   1      34.967  35.586  32.421  1.00  0.00     0.014 A 
ATOM     42  C   UNL A   1      34.924  32.999  33.471  1.00  0.00     0.010 A 
ATOM     43  C   UNL A   1      36.162  34.953  32.757  1.00  0.00     0.010 A 
ATOM     44  C   UNL A   1      36.154  33.652  33.286  1.00  0.00    -0.014 A 
BRANCH  44  45
ATOM     45  C   UNL A   1      37.439  32.988  33.628  1.00  0.00     0.031 A 
ATOM     46  C   UNL A   1      38.019  31.940  32.717  1.00  0.00     0.074 A 
ATOM     47  C   UNL A   1      38.050  33.279  34.793  1.00  0.00     0.049 A 
ATOM     48  N   UNL A   1      39.092  31.205  32.879  1.00  0.00    -0.248 NA
ATOM     49  C   UNL A   1      37.285  31.661  31.472  1.00  0.00     0.031 C 
ATOM     50  C   UNL A   1      37.567  34.242  35.785  1.00  0.00     0.029 A 
ATOM     51  N   UNL A   1      39.206  32.786  35.349  1.00  0.00    -0.354 N 
ATOM     52  C   UNL A   1      39.149  30.368  31.771  1.00  0.00     0.074 A 
ATOM     53  C   UNL A   1      37.982  30.653  30.966  1.00  0.00     0.031 C 
ATOM     54  C   UNL A   1      38.428  34.285  36.815  1.00  0.00     0.029 A 
ATOM     55  C   UNL A   1      39.501  33.323  36.579  1.00  0.00     0.049 A 
ATOM     56  H   UNL A   1      39.770  32.110  34.906  1.00  0.00     0.167 HD
ATOM     57  C   UNL A   1      40.098  29.460  31.446  1.00  0.00     0.037 A 
ATOM     58  C   UNL A   1      40.513  33.061  37.427  1.00  0.00     0.037 A 
ATOM     59  C   UNL A   1      41.276  29.200  32.234  1.00  0.00     0.049 A 
ATOM     60  C   UNL A   1      41.547  32.037  37.044  1.00  0.00     0.074 A 
ATOM     61  C   UNL A   1      42.333  28.356  31.947  1.00  0.00     0.029 A 
ATOM     62  N   UNL A   1      41.545  29.775  33.467  1.00  0.00    -0.354 N 
ATOM     63  N   UNL A   1      41.634  31.317  35.952  1.00  0.00    -0.248 NA
ATOM     64  C   UNL A   1      42.627  31.791  38.010  1.00  0.00     0.031 C 
ATOM     65  C   UNL A   1      43.215  28.373  33.032  1.00  0.00     0.029 A 
ATOM     66  C   UNL A   1      42.736  29.276  33.968  1.00  0.00     0.049 A 
ATOM     67  H   UNL A   1      40.974  30.438  33.918  1.00  0.00     0.167 HD
ATOM     68  C   UNL A   1      42.793  30.562  36.084  1.00  0.00     0.074 A 
ATOM     69  C   UNL A   1      43.383  30.922  37.356  1.00  0.00     0.031 C 
ATOM     70  C   UNL A   1      43.321  29.653  35.230  1.00  0.00     0.037 A 
BRANCH  57  71
ATOM     71  C   UNL A   1      39.908  28.669  30.183  1.00  0.00     0.057 A 
ATOM     72  C   UNL A   1      40.474  29.066  28.965  1.00  0.00     0.134 A 
ATOM     73  C   UNL A   1      39.197  27.462  30.200  1.00  0.00     0.134 A 
ATOM     74  F   UNL A   1      41.161  30.216  28.876  1.00  0.00    -0.206 F 
ATOM     75  C   UNL A   1      40.323  28.303  27.805  1.00  0.00     0.040 A 
ATOM     76  C   UNL A   1      39.063  26.676  29.054  1.00  0.00     0.040 A 
ATOM     77  F   UNL A   1      38.635  27.018  31.335  1.00  0.00    -0.206 F 
ATOM     78  C   UNL A   1      39.622  27.099  27.851  1.00  0.00     0.006 A 
ENDBRANCH  57  71
BRANCH  58  79
ATOM     79  C   UNL A   1      40.612  33.781  38.723  1.00  0.00     0.057 A 
ATOM     80  C   UNL A   1      39.849  33.388  39.830  1.00  0.00     0.134 A 
ATOM     81  C   UNL A   1      41.440  34.900  38.880  1.00  0.00     0.134 A 
ATOM     82  F   UNL A   1      39.021  32.336  39.737  1.00  0.00    -0.206 F 
ATOM     83  C   UNL A   1      39.880  34.095  41.032  1.00  0.00     0.040 A 
ATOM     84  C   UNL A   1      41.506  35.599  40.086  1.00  0.00     0.040 A 
ATOM     85  F   UNL A   1      42.203  35.326  37.863  1.00  0.00    -0.206 F 
ATOM     86  C   UNL A   1      40.714  35.204  41.163  1.00  0.00     0.006 A 
ENDBRANCH  58  79
BRANCH  70  87
ATOM     87  C   UNL A   1      44.626  29.018  35.617  1.00  0.00     0.057 A 
ATOM     88  C   UNL A   1      45.859  29.577  35.262  1.00  0.00     0.134 A 
ATOM     89  C   UNL A   1      44.645  27.849  36.391  1.00  0.00     0.134 A 
ATOM     90  F   UNL A   1      45.912  30.689  34.512  1.00  0.00    -0.206 F 
ATOM     91  C   UNL A   1      47.065  28.984  35.641  1.00  0.00     0.040 A 
ATOM     92  C   UNL A   1      45.843  27.265  36.801  1.00  0.00     0.040 A 
ATOM     93  F   UNL A   1      43.499  27.267  36.774  1.00  0.00    -0.206 F 
ATOM     94  C   UNL A   1      47.059  27.829  36.420  1.00  0.00     0.006 A 
ENDBRANCH  70  87
ENDBRANCH  44  45
ENDBRANCH  36  39
ENDBRANCH  34  35
ENDBRANCH  33  34
ENDBRANCH  32  33
ENDBRANCH  31  32
ENDBRANCH  30  31
ENDBRANCH   1  30
TORSDOF 19
ENDMDL
MODEL 3
REMARK VINA RESULT:     -10.5      4.136      7.020
REMARK SMILES O=C(CSc1nc2ccc(NC(=O)COc3ccc(Cl)cc3)cc2s1)NCCCCCCNC(=O)c1ccc(-c2c3nc(c(-c4c(F)cccc4F)c4ccc([nH]4)c(-c4c(F)cccc4F)c4nc(c(-c5c(F)cccc5F)c5ccc2[nH]5)C=C4)C=C3)cc1
REMARK SMILES IDX 27 1 26 2 1 3 2 4 3 6 4 7 5 8 6 9 25 10 7 11 24 12 8 13
REMARK SMILES IDX 23 14 9 15 10 16 11 17 12 18 13 20 14 21 15 22 16 23 17 24
REMARK SMILES IDX 22 25 18 26 21 27 19 28 20 29 28 30 29 31 30 32 31 33 32 34
REMARK SMILES IDX 33 35 34 36 35 38 36 39 37 40 89 41 38 42 88 43 39 44 40 45
REMARK SMILES IDX 41 46 82 47 42 48 87 49 81 50 83 51 43 52 86 53 80 54 79 55
REMARK SMILES IDX 44 57 70 58 53 59 69 60 54 61 57 62 68 63 84 64 55 65 56 66
REMARK SMILES IDX 67 68 85 69 58 70 45 71 46 72 51 73 47 74 48 75 50 76 52 77
REMARK SMILES IDX 49 78 71 79 72 80 77 81 73 82 74 83 76 84 78 85 75 86 59 87
REMARK SMILES IDX 60 88 65 89 61 90 62 91 64 92 66 93 63 94
REMARK H PARENT 26 5 11 19 33 37 83 56 57 67
REMARK Flexibility Score: inf
ROOT
ATOM      1  C   UNL A   1      39.477  22.771  26.136  1.00  0.00     0.116 C 
ENDROOT
BRANCH   1   2
ATOM      2  N   UNL A   1      38.108  22.453  26.479  1.00  0.00    -0.355 N 
ATOM      3  O   UNL A   1      37.492  21.757  24.385  1.00  0.00    -0.274 OA
ATOM      4  C   UNL A   1      37.208  21.941  25.567  1.00  0.00     0.230 C 
ATOM      5  H   UNL A   1      37.805  22.609  27.402  1.00  0.00     0.163 HD
BRANCH   4   6
ATOM      6  C   UNL A   1      35.787  21.763  26.079  1.00  0.00     0.177 C 
BRANCH   6   7
ATOM      7  S   UNL A   1      34.688  20.914  24.912  1.00  0.00    -0.086 SA
BRANCH   7   8
ATOM      8  C   UNL A   1      33.779  22.258  24.255  1.00  0.00     0.151 A 
ATOM      9  N   UNL A   1      32.502  22.424  24.495  1.00  0.00    -0.230 NA
ATOM     10  S   UNL A   1      34.522  23.441  23.269  1.00  0.00    -0.108 S 
ATOM     11  C   UNL A   1      32.061  23.588  23.889  1.00  0.00     0.083 A 
ATOM     12  C   UNL A   1      33.026  24.288  23.170  1.00  0.00     0.057 A 
ATOM     13  C   UNL A   1      30.754  24.107  23.934  1.00  0.00     0.032 A 
ATOM     14  C   UNL A   1      32.740  25.491  22.496  1.00  0.00     0.047 A 
ATOM     15  C   UNL A   1      30.468  25.315  23.281  1.00  0.00     0.028 A 
ATOM     16  C   UNL A   1      31.455  26.024  22.586  1.00  0.00     0.042 A 
BRANCH  16  17
ATOM     17  N   UNL A   1      31.048  27.230  21.992  1.00  0.00    -0.323 N 
ATOM     18  C   UNL A   1      30.623  28.430  22.476  1.00  0.00     0.262 C 
ATOM     19  H   UNL A   1      31.077  27.203  21.009  1.00  0.00     0.170 HD
ATOM     20  O   UNL A   1      30.437  29.333  21.649  1.00  0.00    -0.271 OA
BRANCH  18  21
ATOM     21  C   UNL A   1      30.341  28.700  23.957  1.00  0.00     0.329 C 
BRANCH  21  22
ATOM     22  O   UNL A   1      30.745  29.927  24.539  1.00  0.00    -0.484 OA
BRANCH  22  23
ATOM     23  C   UNL A   1      31.800  29.920  25.402  1.00  0.00     0.120 A 
ATOM     24  C   UNL A   1      31.978  30.782  26.485  1.00  0.00     0.048 A 
ATOM     25  C   UNL A   1      32.738  28.909  25.170  1.00  0.00     0.048 A 
ATOM     26  C   UNL A   1      33.086  30.633  27.326  1.00  0.00     0.024 A 
ATOM     27  C   UNL A   1      33.855  28.768  25.999  1.00  0.00     0.024 A 
ATOM     28  C   UNL A   1      34.020  29.630  27.078  1.00  0.00     0.041 A 
ATOM     29  Cl  UNL A   1      35.382  29.456  28.114  1.00  0.00    -0.084 Cl
ENDBRANCH  22  23
ENDBRANCH  21  22
ENDBRANCH  18  21
ENDBRANCH  16  17
ENDBRANCH   7   8
ENDBRANCH   6   7
ENDBRANCH   4   6
ENDBRANCH   1   2
BRANCH   1  30
ATOM     30  C   UNL A   1      40.426  21.630  26.500  1.00  0.00     0.021 C 
BRANCH  30  31
ATOM     31  C   UNL A   1      40.865  21.610  27.971  1.00  0.00     0.002 C 
BRANCH  31  32
ATOM     32  C   UNL A   1      42.004  22.570  28.332  1.00  0.00     0.002 C 
BRANCH  32  33
ATOM     33  C   UNL A   1      43.174  22.597  27.346  1.00  0.00     0.021 C 
BRANCH  33  34
ATOM     34  C   UNL A   1      43.644  23.993  26.943  1.00  0.00     0.116 C 
BRANCH  34  35
ATOM     35  N   UNL A   1      42.846  24.560  25.867  1.00  0.00    -0.352 N 
ATOM     36  C   UNL A   1      41.914  25.568  25.907  1.00  0.00     0.251 C 
ATOM     37  H   UNL A   1      42.996  24.163  24.979  1.00  0.00     0.163 HD
ATOM     38  O   UNL A   1      41.214  25.799  24.923  1.00  0.00    -0.269 OA
BRANCH  36  39
ATOM     39  C   UNL A   1      41.731  26.362  27.142  1.00  0.00     0.039 A 
ATOM     40  C   UNL A   1      42.522  27.497  27.337  1.00  0.00     0.014 A 
ATOM     41  C   UNL A   1      40.791  25.989  28.106  1.00  0.00     0.014 A 
ATOM     42  C   UNL A   1      42.322  28.296  28.466  1.00  0.00     0.010 A 
ATOM     43  C   UNL A   1      40.542  26.826  29.191  1.00  0.00     0.010 A 
ATOM     44  C   UNL A   1      41.304  27.988  29.383  1.00  0.00    -0.014 A 
BRANCH  44  45
ATOM     45  C   UNL A   1      41.016  28.876  30.541  1.00  0.00     0.031 A 
ATOM     46  C   UNL A   1      39.888  29.869  30.475  1.00  0.00     0.074 A 
ATOM     47  C   UNL A   1      41.813  28.835  31.627  1.00  0.00     0.049 A 
ATOM     48  N   UNL A   1      39.525  30.770  31.354  1.00  0.00    -0.248 NA
ATOM     49  C   UNL A   1      39.073  29.869  29.249  1.00  0.00     0.031 C 
ATOM     50  C   UNL A   1      42.967  27.950  31.797  1.00  0.00     0.029 A 
ATOM     51  N   UNL A   1      41.782  29.563  32.791  1.00  0.00    -0.354 N 
ATOM     52  C   UNL A   1      38.459  31.452  30.782  1.00  0.00     0.074 A 
ATOM     53  C   UNL A   1      38.260  30.894  29.464  1.00  0.00     0.031 C 
ATOM     54  C   UNL A   1      43.520  28.171  33.001  1.00  0.00     0.029 A 
ATOM     55  C   UNL A   1      42.788  29.242  33.671  1.00  0.00     0.049 A 
ATOM     56  H   UNL A   1      41.102  30.251  32.978  1.00  0.00     0.167 HD
ATOM     57  C   UNL A   1      37.704  32.441  31.316  1.00  0.00     0.037 A 
ATOM     58  C   UNL A   1      43.096  29.761  34.875  1.00  0.00     0.037 A 
ATOM     59  C   UNL A   1      37.886  32.975  32.641  1.00  0.00     0.049 A 
ATOM     60  C   UNL A   1      42.245  30.868  35.436  1.00  0.00     0.074 A 
ATOM     61  C   UNL A   1      37.121  33.921  33.299  1.00  0.00     0.029 A 
ATOM     62  N   UNL A   1      38.908  32.613  33.506  1.00  0.00    -0.354 N 
ATOM     63  N   UNL A   1      41.187  31.443  34.919  1.00  0.00    -0.248 NA
ATOM     64  C   UNL A   1      42.630  31.397  36.753  1.00  0.00     0.031 C 
ATOM     65  C   UNL A   1      37.714  34.179  34.539  1.00  0.00     0.029 A 
ATOM     66  C   UNL A   1      38.812  33.345  34.678  1.00  0.00     0.049 A 
ATOM     67  H   UNL A   1      39.598  31.939  33.315  1.00  0.00     0.167 HD
ATOM     68  C   UNL A   1      40.760  32.372  35.860  1.00  0.00     0.074 A 
ATOM     69  C   UNL A   1      41.665  32.275  36.985  1.00  0.00     0.031 C 
ATOM     70  C   UNL A   1      39.712  33.229  35.798  1.00  0.00     0.037 A 
BRANCH  57  71
ATOM     71  C   UNL A   1      36.608  33.021  30.467  1.00  0.00     0.057 A 
ATOM     72  C   UNL A   1      36.873  33.907  29.415  1.00  0.00     0.134 A 
ATOM     73  C   UNL A   1      35.275  32.639  30.668  1.00  0.00     0.134 A 
ATOM     74  F   UNL A   1      38.126  34.320  29.173  1.00  0.00    -0.206 F 
ATOM     75  C   UNL A   1      35.850  34.410  28.607  1.00  0.00     0.040 A 
ATOM     76  C   UNL A   1      34.248  33.112  29.850  1.00  0.00     0.040 A 
ATOM     77  F   UNL A   1      34.952  31.787  31.653  1.00  0.00    -0.206 F 
ATOM     78  C   UNL A   1      34.534  34.005  28.820  1.00  0.00     0.006 A 
ENDBRANCH  57  71
BRANCH  58  79
ATOM     79  C   UNL A   1      44.257  29.241  35.643  1.00  0.00     0.057 A 
ATOM     80  C   UNL A   1      44.108  28.187  36.554  1.00  0.00     0.134 A 
ATOM     81  C   UNL A   1      45.531  29.805  35.516  1.00  0.00     0.134 A 
ATOM     82  F   UNL A   1      42.907  27.618  36.735  1.00  0.00    -0.206 F 
ATOM     83  C   UNL A   1      45.175  27.734  37.331  1.00  0.00     0.040 A 
ATOM     84  C   UNL A   1      46.615  29.341  36.264  1.00  0.00     0.040 A 
ATOM     85  F   UNL A   1      45.745  30.812  34.657  1.00  0.00    -0.206 F 
ATOM     86  C   UNL A   1      46.435  28.311  37.185  1.00  0.00     0.006 A 
ENDBRANCH  58  79
BRANCH  70  87
ATOM     87  C   UNL A   1      39.457  34.097  36.997  1.00  0.00     0.057 A 
ATOM     88  C   UNL A   1      38.779  33.622  38.127  1.00  0.00     0.134 A 
ATOM     89  C   UNL A   1      39.934  35.414  37.035  1.00  0.00     0.134 A 
ATOM     90  F   UNL A   1      38.287  32.375  38.151  1.00  0.00    -0.206 F 
ATOM     91  C   UNL A   1      38.561  34.435  39.241  1.00  0.00     0.040 A 
ATOM     92  C   UNL A   1      39.749  36.226  38.154  1.00  0.00     0.040 A 
ATOM     93  F   UNL A   1      40.600  35.928  35.990  1.00  0.00    -0.206 F 
ATOM     94  C   UNL A   1      39.054  35.739  39.260  1.00  0.00     0.006 A 
ENDBRANCH  70  87
ENDBRANCH  44  45
ENDBRANCH  36  39
ENDBRANCH  34  35
ENDBRANCH  33  34
ENDBRANCH  32  33
ENDBRANCH  31  32
ENDBRANCH  30  31
ENDBRANCH   1  30
TORSDOF 19
ENDMDL
