MODEL 1
REMARK VINA RESULT:     -11.1      0.000      0.000
REMARK SMILES O=C(CNC(=O)CN1C(=O)S/C(=C\c2cccc(F)c2)C1=O)NCCCCCCNC(=O)c1ccc(-c2c3nc(c(-c4c(F)cccc4F)c4ccc([nH]4)c(-c4c(F)cccc4F)c4nc(c(-c5c(F)cccc5F)c5ccc2[nH]5)C=C4)C=C3)cc1
REMARK SMILES IDX 25 1 24 2 23 3 1 4 2 5 3 7 4 8 5 9 6 11 7 12 8 13 9 14 21 15
REMARK SMILES IDX 10 16 11 17 12 18 22 19 13 20 14 21 15 22 20 23 16 24 18 25
REMARK SMILES IDX 17 26 19 27 26 28 27 29 28 30 29 31 30 32 31 33 32 35 33 36
REMARK SMILES IDX 34 37 86 38 35 39 85 40 36 41 37 42 38 43 79 44 39 45 84 46
REMARK SMILES IDX 78 47 80 48 40 49 83 50 77 51 76 52 41 54 67 55 50 56 66 57
REMARK SMILES IDX 51 58 54 59 65 60 81 61 52 62 53 63 64 65 82 66 55 67 42 68
REMARK SMILES IDX 43 69 48 70 44 71 45 72 47 73 49 74 46 75 68 76 69 77 74 78
REMARK SMILES IDX 70 79 71 80 73 81 75 82 72 83 56 84 57 85 62 86 58 87 59 88
REMARK SMILES IDX 61 89 63 90 60 91
REMARK H PARENT 23 6 4 10 30 34 80 53 54 64
REMARK Flexibility Score: inf
ROOT
ATOM      1  C   UNL A   1      38.521  23.381  26.342  1.00  0.00     0.021 C 
ENDROOT
BRANCH   1   2
ATOM      2  C   UNL A   1      37.285  23.145  25.478  1.00  0.00     0.116 C 
BRANCH   2   3
ATOM      3  N   UNL A   1      36.136  22.780  26.289  1.00  0.00    -0.355 N 
ATOM      4  O   UNL A   1      35.839  20.681  25.409  1.00  0.00    -0.273 OA
ATOM      5  C   UNL A   1      35.471  21.579  26.159  1.00  0.00     0.239 C 
ATOM      6  H   UNL A   1      35.817  23.422  26.964  1.00  0.00     0.163 HD
BRANCH   5   7
ATOM      7  C   UNL A   1      34.155  21.491  26.947  1.00  0.00     0.216 C 
BRANCH   7   8
ATOM      8  N   UNL A   1      33.298  20.401  26.500  1.00  0.00    -0.345 N 
ATOM      9  C   UNL A   1      32.582  20.238  25.356  1.00  0.00     0.240 C 
ATOM     10  H   UNL A   1      33.227  19.652  27.136  1.00  0.00     0.164 HD
ATOM     11  O   UNL A   1      32.112  19.114  25.159  1.00  0.00    -0.273 OA
BRANCH   9  12
ATOM     12  C   UNL A   1      32.490  21.321  24.277  1.00  0.00     0.229 C 
BRANCH  12  13
ATOM     13  N   UNL A   1      32.170  22.667  24.730  1.00  0.00    -0.259 N 
ATOM     14  C   UNL A   1      31.145  22.897  25.602  1.00  0.00     0.294 C 
ATOM     15  C   UNL A   1      33.032  23.718  24.516  1.00  0.00     0.268 C 
ATOM     16  O   UNL A   1      30.365  22.064  26.050  1.00  0.00    -0.261 OA
ATOM     17  S   UNL A   1      31.090  24.588  26.060  1.00  0.00    -0.022 SA
ATOM     18  C   UNL A   1      32.535  24.947  25.207  1.00  0.00     0.083 C 
ATOM     19  O   UNL A   1      34.047  23.681  23.838  1.00  0.00    -0.268 OA
ATOM     20  C   UNL A   1      33.154  26.133  25.101  1.00  0.00     0.029 C 
BRANCH  20  21
ATOM     21  C   UNL A   1      32.706  27.424  25.654  1.00  0.00    -0.021 A 
ATOM     22  C   UNL A   1      33.215  27.881  26.872  1.00  0.00     0.008 A 
ATOM     23  C   UNL A   1      31.828  28.257  24.951  1.00  0.00     0.047 A 
ATOM     24  C   UNL A   1      32.863  29.148  27.358  1.00  0.00     0.004 A 
ATOM     25  C   UNL A   1      31.509  29.524  25.423  1.00  0.00     0.123 A 
ATOM     26  C   UNL A   1      32.018  29.978  26.624  1.00  0.00     0.039 A 
ATOM     27  F   UNL A   1      30.723  30.317  24.682  1.00  0.00    -0.207 F 
ENDBRANCH  20  21
ENDBRANCH  12  13
ENDBRANCH   9  12
ENDBRANCH   7   8
ENDBRANCH   5   7
ENDBRANCH   2   3
ENDBRANCH   1   2
BRANCH   1  28
ATOM     28  C   UNL A   1      39.399  22.138  26.497  1.00  0.00     0.002 C 
BRANCH  28  29
ATOM     29  C   UNL A   1      39.330  21.027  25.451  1.00  0.00     0.002 C 
BRANCH  29  30
ATOM     30  C   UNL A   1      39.736  19.604  25.846  1.00  0.00     0.021 C 
BRANCH  30  31
ATOM     31  C   UNL A   1      41.041  19.376  26.618  1.00  0.00     0.116 C 
BRANCH  31  32
ATOM     32  N   UNL A   1      42.254  19.290  25.816  1.00  0.00    -0.352 N 
ATOM     33  C   UNL A   1      43.202  20.263  25.566  1.00  0.00     0.251 C 
ATOM     34  H   UNL A   1      42.421  18.416  25.393  1.00  0.00     0.163 HD
ATOM     35  O   UNL A   1      44.172  20.013  24.857  1.00  0.00    -0.269 OA
BRANCH  33  36
ATOM     36  C   UNL A   1      43.023  21.635  26.099  1.00  0.00     0.039 A 
ATOM     37  C   UNL A   1      42.954  21.814  27.485  1.00  0.00     0.014 A 
ATOM     38  C   UNL A   1      42.957  22.743  25.253  1.00  0.00     0.014 A 
ATOM     39  C   UNL A   1      42.928  23.106  28.021  1.00  0.00     0.010 A 
ATOM     40  C   UNL A   1      42.993  24.033  25.789  1.00  0.00     0.010 A 
ATOM     41  C   UNL A   1      43.005  24.229  27.178  1.00  0.00    -0.014 A 
BRANCH  41  42
ATOM     42  C   UNL A   1      43.183  25.594  27.744  1.00  0.00     0.031 A 
ATOM     43  C   UNL A   1      44.548  26.163  28.004  1.00  0.00     0.074 A 
ATOM     44  C   UNL A   1      42.091  26.313  28.078  1.00  0.00     0.049 A 
ATOM     45  N   UNL A   1      44.875  27.341  28.477  1.00  0.00    -0.248 NA
ATOM     46  C   UNL A   1      45.697  25.291  27.720  1.00  0.00     0.031 C 
ATOM     47  C   UNL A   1      40.708  25.855  27.937  1.00  0.00     0.029 A 
ATOM     48  N   UNL A   1      41.969  27.578  28.597  1.00  0.00    -0.354 N 
ATOM     49  C   UNL A   1      46.262  27.356  28.536  1.00  0.00     0.074 A 
ATOM     50  C   UNL A   1      46.712  26.045  28.117  1.00  0.00     0.031 C 
ATOM     51  C   UNL A   1      39.879  26.838  28.317  1.00  0.00     0.029 A 
ATOM     52  C   UNL A   1      40.666  27.983  28.763  1.00  0.00     0.049 A 
ATOM     53  H   UNL A   1      42.743  28.142  28.830  1.00  0.00     0.167 HD
ATOM     54  C   UNL A   1      47.087  28.375  28.880  1.00  0.00     0.037 A 
ATOM     55  C   UNL A   1      40.157  29.146  29.214  1.00  0.00     0.037 A 
ATOM     56  C   UNL A   1      46.637  29.677  29.305  1.00  0.00     0.049 A 
ATOM     57  C   UNL A   1      41.087  30.255  29.612  1.00  0.00     0.074 A 
ATOM     58  C   UNL A   1      47.398  30.787  29.631  1.00  0.00     0.029 A 
ATOM     59  N   UNL A   1      45.309  30.042  29.477  1.00  0.00    -0.354 N 
ATOM     60  N   UNL A   1      42.397  30.281  29.591  1.00  0.00    -0.248 NA
ATOM     61  C   UNL A   1      40.469  31.501  30.089  1.00  0.00     0.031 C 
ATOM     62  C   UNL A   1      46.535  31.802  30.055  1.00  0.00     0.029 A 
ATOM     63  C   UNL A   1      45.231  31.349  29.933  1.00  0.00     0.049 A 
ATOM     64  H   UNL A   1      44.535  29.459  29.301  1.00  0.00     0.167 HD
ATOM     65  C   UNL A   1      42.762  31.545  30.036  1.00  0.00     0.074 A 
ATOM     66  C   UNL A   1      41.533  32.265  30.298  1.00  0.00     0.031 C 
ATOM     67  C   UNL A   1      44.005  32.059  30.211  1.00  0.00     0.037 A 
BRANCH  54  68
ATOM     68  C   UNL A   1      48.568  28.125  28.802  1.00  0.00     0.057 A 
ATOM     69  C   UNL A   1      49.274  28.337  27.611  1.00  0.00     0.134 A 
ATOM     70  C   UNL A   1      49.290  27.629  29.897  1.00  0.00     0.134 A 
ATOM     71  F   UNL A   1      48.646  28.800  26.519  1.00  0.00    -0.206 F 
ATOM     72  C   UNL A   1      50.639  28.063  27.511  1.00  0.00     0.040 A 
ATOM     73  C   UNL A   1      50.661  27.382  29.819  1.00  0.00     0.040 A 
ATOM     74  F   UNL A   1      48.679  27.410  31.071  1.00  0.00    -0.206 F 
ATOM     75  C   UNL A   1      51.338  27.591  28.620  1.00  0.00     0.006 A 
ENDBRANCH  54  68
BRANCH  55  76
ATOM     76  C   UNL A   1      38.683  29.324  29.256  1.00  0.00     0.057 A 
ATOM     77  C   UNL A   1      37.952  29.667  28.112  1.00  0.00     0.134 A 
ATOM     78  C   UNL A   1      37.980  29.213  30.461  1.00  0.00     0.134 A 
ATOM     79  F   UNL A   1      38.570  29.797  26.928  1.00  0.00    -0.206 F 
ATOM     80  C   UNL A   1      36.582  29.922  28.169  1.00  0.00     0.040 A 
ATOM     81  C   UNL A   1      36.604  29.441  30.529  1.00  0.00     0.040 A 
ATOM     82  F   UNL A   1      38.622  28.869  31.587  1.00  0.00    -0.206 F 
ATOM     83  C   UNL A   1      35.904  29.810  29.381  1.00  0.00     0.006 A 
ENDBRANCH  55  76
BRANCH  67  84
ATOM     84  C   UNL A   1      44.107  33.472  30.711  1.00  0.00     0.057 A 
ATOM     85  C   UNL A   1      44.156  34.548  29.813  1.00  0.00     0.134 A 
ATOM     86  C   UNL A   1      44.213  33.768  32.076  1.00  0.00     0.134 A 
ATOM     87  F   UNL A   1      44.070  34.338  28.491  1.00  0.00    -0.206 F 
ATOM     88  C   UNL A   1      44.317  35.863  30.256  1.00  0.00     0.040 A 
ATOM     89  C   UNL A   1      44.343  35.081  32.532  1.00  0.00     0.040 A 
ATOM     90  F   UNL A   1      44.163  32.787  32.990  1.00  0.00    -0.206 F 
ATOM     91  C   UNL A   1      44.404  36.133  31.619  1.00  0.00     0.006 A 
ENDBRANCH  67  84
ENDBRANCH  41  42
ENDBRANCH  33  36
ENDBRANCH  31  32
ENDBRANCH  30  31
ENDBRANCH  29  30
ENDBRANCH  28  29
ENDBRANCH   1  28
TORSDOF 17
ENDMDL
MODEL 2
REMARK VINA RESULT:     -10.6      2.258      3.055
REMARK SMILES O=C(CNC(=O)CN1C(=O)S/C(=C\c2cccc(F)c2)C1=O)NCCCCCCNC(=O)c1ccc(-c2c3nc(c(-c4c(F)cccc4F)c4ccc([nH]4)c(-c4c(F)cccc4F)c4nc(c(-c5c(F)cccc5F)c5ccc2[nH]5)C=C4)C=C3)cc1
REMARK SMILES IDX 25 1 24 2 23 3 1 4 2 5 3 7 4 8 5 9 6 11 7 12 8 13 9 14 21 15
REMARK SMILES IDX 10 16 11 17 12 18 22 19 13 20 14 21 15 22 20 23 16 24 18 25
REMARK SMILES IDX 17 26 19 27 26 28 27 29 28 30 29 31 30 32 31 33 32 35 33 36
REMARK SMILES IDX 34 37 86 38 35 39 85 40 36 41 37 42 38 43 79 44 39 45 84 46
REMARK SMILES IDX 78 47 80 48 40 49 83 50 77 51 76 52 41 54 67 55 50 56 66 57
REMARK SMILES IDX 51 58 54 59 65 60 81 61 52 62 53 63 64 65 82 66 55 67 42 68
REMARK SMILES IDX 43 69 48 70 44 71 45 72 47 73 49 74 46 75 68 76 69 77 74 78
REMARK SMILES IDX 70 79 71 80 73 81 75 82 72 83 56 84 57 85 62 86 58 87 59 88
REMARK SMILES IDX 61 89 63 90 60 91
REMARK H PARENT 23 6 4 10 30 34 80 53 54 64
REMARK Flexibility Score: inf
ROOT
ATOM      1  C   UNL A   1      39.864  23.605  26.463  1.00  0.00     0.021 C 
ENDROOT
BRANCH   1   2
ATOM      2  C   UNL A   1      38.425  24.105  26.354  1.00  0.00     0.116 C 
BRANCH   2   3
ATOM      3  N   UNL A   1      37.475  23.015  26.501  1.00  0.00    -0.355 N 
ATOM      4  O   UNL A   1      37.094  22.684  24.262  1.00  0.00    -0.273 OA
ATOM      5  C   UNL A   1      36.847  22.412  25.433  1.00  0.00     0.239 C 
ATOM      6  H   UNL A   1      37.270  22.692  27.408  1.00  0.00     0.163 HD
BRANCH   5   7
ATOM      7  C   UNL A   1      35.716  21.446  25.820  1.00  0.00     0.216 C 
BRANCH   7   8
ATOM      8  N   UNL A   1      34.581  21.508  24.910  1.00  0.00    -0.345 N 
ATOM      9  C   UNL A   1      33.620  22.455  24.743  1.00  0.00     0.240 C 
ATOM     10  H   UNL A   1      34.495  20.730  24.312  1.00  0.00     0.164 HD
ATOM     11  O   UNL A   1      32.899  22.334  23.747  1.00  0.00    -0.273 OA
BRANCH   9  12
ATOM     12  C   UNL A   1      33.523  23.701  25.628  1.00  0.00     0.229 C 
BRANCH  12  13
ATOM     13  N   UNL A   1      32.424  24.613  25.350  1.00  0.00    -0.259 N 
ATOM     14  C   UNL A   1      31.364  24.728  26.203  1.00  0.00     0.294 C 
ATOM     15  C   UNL A   1      32.525  25.577  24.372  1.00  0.00     0.268 C 
ATOM     16  O   UNL A   1      31.175  24.080  27.226  1.00  0.00    -0.261 OA
ATOM     17  S   UNL A   1      30.275  25.993  25.669  1.00  0.00    -0.022 SA
ATOM     18  C   UNL A   1      31.323  26.468  24.396  1.00  0.00     0.083 C 
ATOM     19  O   UNL A   1      33.439  25.689  23.572  1.00  0.00    -0.268 OA
ATOM     20  C   UNL A   1      31.136  27.449  23.499  1.00  0.00     0.029 C 
BRANCH  20  21
ATOM     21  C   UNL A   1      29.955  28.320  23.365  1.00  0.00    -0.021 A 
ATOM     22  C   UNL A   1      28.690  27.762  23.163  1.00  0.00     0.008 A 
ATOM     23  C   UNL A   1      30.049  29.709  23.507  1.00  0.00     0.047 A 
ATOM     24  C   UNL A   1      27.552  28.579  23.125  1.00  0.00     0.004 A 
ATOM     25  C   UNL A   1      28.913  30.509  23.501  1.00  0.00     0.123 A 
ATOM     26  C   UNL A   1      27.662  29.956  23.309  1.00  0.00     0.039 A 
ATOM     27  F   UNL A   1      29.041  31.825  23.715  1.00  0.00    -0.207 F 
ENDBRANCH  20  21
ENDBRANCH  12  13
ENDBRANCH   9  12
ENDBRANCH   7   8
ENDBRANCH   5   7
ENDBRANCH   2   3
ENDBRANCH   1   2
BRANCH   1  28
ATOM     28  C   UNL A   1      40.025  22.420  27.417  1.00  0.00     0.002 C 
BRANCH  28  29
ATOM     29  C   UNL A   1      40.418  21.052  26.864  1.00  0.00     0.002 C 
BRANCH  29  30
ATOM     30  C   UNL A   1      41.719  20.915  26.067  1.00  0.00     0.021 C 
BRANCH  30  31
ATOM     31  C   UNL A   1      42.589  19.665  26.246  1.00  0.00     0.116 C 
BRANCH  31  32
ATOM     32  N   UNL A   1      43.277  19.188  25.055  1.00  0.00    -0.352 N 
ATOM     33  C   UNL A   1      44.298  19.785  24.342  1.00  0.00     0.251 C 
ATOM     34  H   UNL A   1      42.971  18.317  24.709  1.00  0.00     0.163 HD
ATOM     35  O   UNL A   1      44.764  19.234  23.349  1.00  0.00    -0.269 OA
BRANCH  33  36
ATOM     36  C   UNL A   1      44.797  21.126  24.733  1.00  0.00     0.039 A 
ATOM     37  C   UNL A   1      44.609  22.196  23.851  1.00  0.00     0.014 A 
ATOM     38  C   UNL A   1      45.412  21.344  25.966  1.00  0.00     0.014 A 
ATOM     39  C   UNL A   1      44.940  23.495  24.251  1.00  0.00     0.010 A 
ATOM     40  C   UNL A   1      45.686  22.647  26.389  1.00  0.00     0.010 A 
ATOM     41  C   UNL A   1      45.429  23.740  25.546  1.00  0.00    -0.014 A 
BRANCH  41  42
ATOM     42  C   UNL A   1      45.590  25.132  26.049  1.00  0.00     0.031 A 
ATOM     43  C   UNL A   1      46.927  25.818  26.041  1.00  0.00     0.074 A 
ATOM     44  C   UNL A   1      44.521  25.769  26.568  1.00  0.00     0.049 A 
ATOM     45  N   UNL A   1      47.232  27.032  26.426  1.00  0.00    -0.248 NA
ATOM     46  C   UNL A   1      48.074  25.034  25.561  1.00  0.00     0.031 C 
ATOM     47  C   UNL A   1      43.181  25.196  26.695  1.00  0.00     0.029 A 
ATOM     48  N   UNL A   1      44.389  27.036  27.082  1.00  0.00    -0.354 N 
ATOM     49  C   UNL A   1      48.600  27.163  26.226  1.00  0.00     0.074 A 
ATOM     50  C   UNL A   1      49.076  25.880  25.751  1.00  0.00     0.031 C 
ATOM     51  C   UNL A   1      42.354  26.119  27.207  1.00  0.00     0.029 A 
ATOM     52  C   UNL A   1      43.109  27.337  27.481  1.00  0.00     0.049 A 
ATOM     53  H   UNL A   1      45.141  27.667  27.158  1.00  0.00     0.167 HD
ATOM     54  C   UNL A   1      49.383  28.256  26.395  1.00  0.00     0.037 A 
ATOM     55  C   UNL A   1      42.594  28.468  28.001  1.00  0.00     0.037 A 
ATOM     56  C   UNL A   1      48.909  29.529  26.876  1.00  0.00     0.049 A 
ATOM     57  C   UNL A   1      43.482  29.662  28.202  1.00  0.00     0.074 A 
ATOM     58  C   UNL A   1      49.619  30.707  27.037  1.00  0.00     0.029 A 
ATOM     59  N   UNL A   1      47.610  29.789  27.287  1.00  0.00    -0.354 N 
ATOM     60  N   UNL A   1      44.759  29.793  27.937  1.00  0.00    -0.248 NA
ATOM     61  C   UNL A   1      42.857  30.867  28.767  1.00  0.00     0.031 C 
ATOM     62  C   UNL A   1      48.765  31.661  27.599  1.00  0.00     0.029 A 
ATOM     63  C   UNL A   1      47.505  31.100  27.729  1.00  0.00     0.049 A 
ATOM     64  H   UNL A   1      46.869  29.140  27.267  1.00  0.00     0.167 HD
ATOM     65  C   UNL A   1      45.090  31.096  28.287  1.00  0.00     0.074 A 
ATOM     66  C   UNL A   1      43.872  31.722  28.763  1.00  0.00     0.031 C 
ATOM     67  C   UNL A   1      46.295  31.715  28.220  1.00  0.00     0.037 A 
BRANCH  54  68
ATOM     68  C   UNL A   1      50.840  28.125  26.046  1.00  0.00     0.057 A 
ATOM     69  C   UNL A   1      51.267  28.135  24.712  1.00  0.00     0.134 A 
ATOM     70  C   UNL A   1      51.820  27.944  27.032  1.00  0.00     0.134 A 
ATOM     71  F   UNL A   1      50.384  28.293  23.715  1.00  0.00    -0.206 F 
ATOM     72  C   UNL A   1      52.611  27.966  24.372  1.00  0.00     0.040 A 
ATOM     73  C   UNL A   1      53.171  27.806  26.708  1.00  0.00     0.040 A 
ATOM     74  F   UNL A   1      51.484  27.931  28.331  1.00  0.00    -0.206 F 
ATOM     75  C   UNL A   1      53.568  27.808  25.373  1.00  0.00     0.006 A 
ENDBRANCH  54  68
BRANCH  55  76
ATOM     76  C   UNL A   1      41.143  28.526  28.314  1.00  0.00     0.057 A 
ATOM     77  C   UNL A   1      40.204  28.953  27.367  1.00  0.00     0.134 A 
ATOM     78  C   UNL A   1      40.671  28.213  29.594  1.00  0.00     0.134 A 
ATOM     79  F   UNL A   1      40.595  29.277  26.125  1.00  0.00    -0.206 F 
ATOM     80  C   UNL A   1      38.854  29.094  27.688  1.00  0.00     0.040 A 
ATOM     81  C   UNL A   1      39.318  28.325  29.922  1.00  0.00     0.040 A 
ATOM     82  F   UNL A   1      41.519  27.781  30.539  1.00  0.00    -0.206 F 
ATOM     83  C   UNL A   1      38.407  28.779  28.970  1.00  0.00     0.006 A 
ENDBRANCH  55  76
BRANCH  67  84
ATOM     84  C   UNL A   1      46.365  33.147  28.670  1.00  0.00     0.057 A 
ATOM     85  C   UNL A   1      46.155  34.195  27.763  1.00  0.00     0.134 A 
ATOM     86  C   UNL A   1      46.695  33.492  29.987  1.00  0.00     0.134 A 
ATOM     87  F   UNL A   1      45.845  33.938  26.484  1.00  0.00    -0.206 F 
ATOM     88  C   UNL A   1      46.281  35.531  28.148  1.00  0.00     0.040 A 
ATOM     89  C   UNL A   1      46.793  34.825  30.391  1.00  0.00     0.040 A 
ATOM     90  F   UNL A   1      46.900  32.540  30.909  1.00  0.00    -0.206 F 
ATOM     91  C   UNL A   1      46.594  35.850  29.467  1.00  0.00     0.006 A 
ENDBRANCH  67  84
ENDBRANCH  41  42
ENDBRANCH  33  36
ENDBRANCH  31  32
ENDBRANCH  30  31
ENDBRANCH  29  30
ENDBRANCH  28  29
ENDBRANCH   1  28
TORSDOF 17
ENDMDL
MODEL 3
REMARK VINA RESULT:     -10.5      2.349      3.825
REMARK SMILES O=C(CNC(=O)CN1C(=O)S/C(=C\c2cccc(F)c2)C1=O)NCCCCCCNC(=O)c1ccc(-c2c3nc(c(-c4c(F)cccc4F)c4ccc([nH]4)c(-c4c(F)cccc4F)c4nc(c(-c5c(F)cccc5F)c5ccc2[nH]5)C=C4)C=C3)cc1
REMARK SMILES IDX 25 1 24 2 23 3 1 4 2 5 3 7 4 8 5 9 6 11 7 12 8 13 9 14 21 15
REMARK SMILES IDX 10 16 11 17 12 18 22 19 13 20 14 21 15 22 20 23 16 24 18 25
REMARK SMILES IDX 17 26 19 27 26 28 27 29 28 30 29 31 30 32 31 33 32 35 33 36
REMARK SMILES IDX 34 37 86 38 35 39 85 40 36 41 37 42 38 43 79 44 39 45 84 46
REMARK SMILES IDX 78 47 80 48 40 49 83 50 77 51 76 52 41 54 67 55 50 56 66 57
REMARK SMILES IDX 51 58 54 59 65 60 81 61 52 62 53 63 64 65 82 66 55 67 42 68
REMARK SMILES IDX 43 69 48 70 44 71 45 72 47 73 49 74 46 75 68 76 69 77 74 78
REMARK SMILES IDX 70 79 71 80 73 81 75 82 72 83 56 84 57 85 62 86 58 87 59 88
REMARK SMILES IDX 61 89 63 90 60 91
REMARK H PARENT 23 6 4 10 30 34 80 53 54 64
REMARK Flexibility Score: inf
ROOT
ATOM      1  C   UNL A   1      36.443  24.056  25.763  1.00  0.00     0.021 C 
ENDROOT
BRANCH   1   2
ATOM      2  C   UNL A   1      35.626  23.722  24.517  1.00  0.00     0.116 C 
BRANCH   2   3
ATOM      3  N   UNL A   1      34.298  24.308  24.583  1.00  0.00    -0.355 N 
ATOM      4  O   UNL A   1      33.922  24.385  22.320  1.00  0.00    -0.273 OA
ATOM      5  C   UNL A   1      33.560  24.635  23.466  1.00  0.00     0.239 C 
ATOM      6  H   UNL A   1      33.907  24.479  25.470  1.00  0.00     0.163 HD
BRANCH   5   7
ATOM      7  C   UNL A   1      32.290  25.448  23.756  1.00  0.00     0.216 C 
BRANCH   7   8
ATOM      8  N   UNL A   1      32.293  26.754  23.110  1.00  0.00    -0.345 N 
ATOM      9  C   UNL A   1      32.007  27.991  23.594  1.00  0.00     0.240 C 
ATOM     10  H   UNL A   1      32.545  26.737  22.158  1.00  0.00     0.164 HD
ATOM     11  O   UNL A   1      32.296  28.945  22.866  1.00  0.00    -0.273 OA
BRANCH   9  12
ATOM     12  C   UNL A   1      31.512  28.226  25.025  1.00  0.00     0.229 C 
BRANCH  12  13
ATOM     13  N   UNL A   1      32.447  28.863  25.941  1.00  0.00    -0.259 N 
ATOM     14  C   UNL A   1      33.596  28.238  26.331  1.00  0.00     0.294 C 
ATOM     15  C   UNL A   1      32.352  30.203  26.241  1.00  0.00     0.268 C 
ATOM     16  O   UNL A   1      33.950  27.103  26.029  1.00  0.00    -0.261 OA
ATOM     17  S   UNL A   1      34.573  29.302  27.324  1.00  0.00    -0.022 SA
ATOM     18  C   UNL A   1      33.514  30.631  27.081  1.00  0.00     0.083 C 
ATOM     19  O   UNL A   1      31.444  30.946  25.907  1.00  0.00    -0.268 OA
ATOM     20  C   UNL A   1      33.630  31.874  27.572  1.00  0.00     0.029 C 
BRANCH  20  21
ATOM     21  C   UNL A   1      34.672  32.379  28.483  1.00  0.00    -0.021 A 
ATOM     22  C   UNL A   1      34.479  32.329  29.866  1.00  0.00     0.008 A 
ATOM     23  C   UNL A   1      35.899  32.850  28.004  1.00  0.00     0.047 A 
ATOM     24  C   UNL A   1      35.501  32.724  30.740  1.00  0.00     0.004 A 
ATOM     25  C   UNL A   1      36.919  33.208  28.876  1.00  0.00     0.123 A 
ATOM     26  C   UNL A   1      36.732  33.152  30.243  1.00  0.00     0.039 A 
ATOM     27  F   UNL A   1      38.104  33.582  28.375  1.00  0.00    -0.207 F 
ENDBRANCH  20  21
ENDBRANCH  12  13
ENDBRANCH   9  12
ENDBRANCH   7   8
ENDBRANCH   5   7
ENDBRANCH   2   3
ENDBRANCH   1   2
BRANCH   1  28
ATOM     28  C   UNL A   1      37.953  23.943  25.548  1.00  0.00     0.002 C 
BRANCH  28  29
ATOM     29  C   UNL A   1      38.756  22.918  26.347  1.00  0.00     0.002 C 
BRANCH  29  30
ATOM     30  C   UNL A   1      38.993  21.527  25.750  1.00  0.00     0.021 C 
BRANCH  30  31
ATOM     31  C   UNL A   1      39.411  20.371  26.667  1.00  0.00     0.116 C 
BRANCH  31  32
ATOM     32  N   UNL A   1      40.396  19.447  26.123  1.00  0.00    -0.352 N 
ATOM     33  C   UNL A   1      41.757  19.620  25.963  1.00  0.00     0.251 C 
ATOM     34  H   UNL A   1      40.043  18.576  25.828  1.00  0.00     0.163 HD
ATOM     35  O   UNL A   1      42.442  18.724  25.480  1.00  0.00    -0.269 OA
BRANCH  33  36
ATOM     36  C   UNL A   1      42.392  20.914  26.314  1.00  0.00     0.039 A 
ATOM     37  C   UNL A   1      42.701  21.812  25.286  1.00  0.00     0.014 A 
ATOM     38  C   UNL A   1      42.650  21.263  27.640  1.00  0.00     0.014 A 
ATOM     39  C   UNL A   1      43.167  23.093  25.597  1.00  0.00     0.010 A 
ATOM     40  C   UNL A   1      43.058  22.562  27.953  1.00  0.00     0.010 A 
ATOM     41  C   UNL A   1      43.296  23.500  26.937  1.00  0.00    -0.014 A 
BRANCH  41  42
ATOM     42  C   UNL A   1      43.594  24.918  27.276  1.00  0.00     0.031 A 
ATOM     43  C   UNL A   1      44.958  25.507  27.056  1.00  0.00     0.074 A 
ATOM     44  C   UNL A   1      42.630  25.674  27.841  1.00  0.00     0.049 A 
ATOM     45  N   UNL A   1      45.376  26.729  27.282  1.00  0.00    -0.248 NA
ATOM     46  C   UNL A   1      45.996  24.605  26.537  1.00  0.00     0.031 C 
ATOM     47  C   UNL A   1      41.281  25.208  28.168  1.00  0.00     0.029 A 
ATOM     48  N   UNL A   1      42.631  26.989  28.236  1.00  0.00    -0.354 N 
ATOM     49  C   UNL A   1      46.717  26.745  26.924  1.00  0.00     0.074 A 
ATOM     50  C   UNL A   1      47.061  25.394  26.531  1.00  0.00     0.031 C 
ATOM     51  C   UNL A   1      40.573  26.230  28.671  1.00  0.00     0.029 A 
ATOM     52  C   UNL A   1      41.424  27.414  28.738  1.00  0.00     0.049 A 
ATOM     53  H   UNL A   1      43.422  27.571  28.167  1.00  0.00     0.167 HD
ATOM     54  C   UNL A   1      47.576  27.792  26.896  1.00  0.00     0.037 A 
ATOM     55  C   UNL A   1      41.038  28.622  29.194  1.00  0.00     0.037 A 
ATOM     56  C   UNL A   1      47.235  29.134  27.295  1.00  0.00     0.049 A 
ATOM     57  C   UNL A   1      42.011  29.764  29.178  1.00  0.00     0.074 A 
ATOM     58  C   UNL A   1      48.025  30.271  27.260  1.00  0.00     0.029 A 
ATOM     59  N   UNL A   1      46.008  29.521  27.816  1.00  0.00    -0.354 N 
ATOM     60  N   UNL A   1      43.255  29.782  28.765  1.00  0.00    -0.248 NA
ATOM     61  C   UNL A   1      41.526  31.057  29.682  1.00  0.00     0.031 C 
ATOM     62  C   UNL A   1      47.298  31.330  27.811  1.00  0.00     0.029 A 
ATOM     63  C   UNL A   1      46.030  30.871  28.132  1.00  0.00     0.049 A 
ATOM     64  H   UNL A   1      45.234  28.925  27.940  1.00  0.00     0.167 HD
ATOM     65  C   UNL A   1      43.698  31.087  28.945  1.00  0.00     0.074 A 
ATOM     66  C   UNL A   1      42.582  31.836  29.483  1.00  0.00     0.031 C 
ATOM     67  C   UNL A   1      44.922  31.611  28.686  1.00  0.00     0.037 A 
BRANCH  54  68
ATOM     68  C   UNL A   1      48.974  27.530  26.407  1.00  0.00     0.057 A 
ATOM     69  C   UNL A   1      49.274  27.534  25.039  1.00  0.00     0.134 A 
ATOM     70  C   UNL A   1      50.019  27.226  27.292  1.00  0.00     0.134 A 
ATOM     71  F   UNL A   1      48.321  27.806  24.134  1.00  0.00    -0.206 F 
ATOM     72  C   UNL A   1      50.556  27.245  24.570  1.00  0.00     0.040 A 
ATOM     73  C   UNL A   1      51.313  26.966  26.838  1.00  0.00     0.040 A 
ATOM     74  F   UNL A   1      49.805  27.211  28.617  1.00  0.00    -0.206 F 
ATOM     75  C   UNL A   1      51.582  26.967  25.471  1.00  0.00     0.006 A 
ENDBRANCH  54  68
BRANCH  55  76
ATOM     76  C   UNL A   1      39.638  28.808  29.655  1.00  0.00     0.057 A 
ATOM     77  C   UNL A   1      38.647  29.313  28.804  1.00  0.00     0.134 A 
ATOM     78  C   UNL A   1      39.275  28.541  30.979  1.00  0.00     0.134 A 
ATOM     79  F   UNL A   1      38.934  29.598  27.525  1.00  0.00    -0.206 F 
ATOM     80  C   UNL A   1      37.354  29.574  29.261  1.00  0.00     0.040 A 
ATOM     81  C   UNL A   1      37.979  28.773  31.444  1.00  0.00     0.040 A 
ATOM     82  F   UNL A   1      40.175  28.038  31.837  1.00  0.00    -0.206 F 
ATOM     83  C   UNL A   1      37.018  29.304  30.585  1.00  0.00     0.006 A 
ENDBRANCH  55  76
BRANCH  67  84
ATOM     84  C   UNL A   1      45.126  33.071  28.980  1.00  0.00     0.057 A 
ATOM     85  C   UNL A   1      44.947  34.036  27.979  1.00  0.00     0.134 A 
ATOM     86  C   UNL A   1      45.553  33.520  30.236  1.00  0.00     0.134 A 
ATOM     87  F   UNL A   1      44.548  33.677  26.749  1.00  0.00    -0.206 F 
ATOM     88  C   UNL A   1      45.195  35.389  28.214  1.00  0.00     0.040 A 
ATOM     89  C   UNL A   1      45.775  34.874  30.493  1.00  0.00     0.040 A 
ATOM     90  F   UNL A   1      45.735  32.651  31.243  1.00  0.00    -0.206 F 
ATOM     91  C   UNL A   1      45.604  35.813  29.477  1.00  0.00     0.006 A 
ENDBRANCH  67  84
ENDBRANCH  41  42
ENDBRANCH  33  36
ENDBRANCH  31  32
ENDBRANCH  30  31
ENDBRANCH  29  30
ENDBRANCH  28  29
ENDBRANCH   1  28
TORSDOF 17
ENDMDL
