MODEL 1
REMARK VINA RESULT:     -10.7      0.000      0.000
REMARK SMILES CC(C)C[C@@H](NC(=O)c1cccnc1)C(=O)NCCCCCCNC(=O)c1ccc(-c2c3nc(c(-c4c(F)cccc4F)c4ccc([nH]4)c(-c4c(F)cccc4F)c4nc(c(-c5c(F)cccc5F)c5ccc2[nH]5)C=C4)C=C3)cc1
REMARK SMILES IDX 20 1 19 2 18 3 17 4 15 5 16 6 5 8 4 9 2 10 1 11 3 12 6 13
REMARK SMILES IDX 7 14 8 16 9 17 10 18 14 19 11 20 13 21 12 22 21 23 22 24
REMARK SMILES IDX 23 25 24 26 25 27 26 29 27 30 28 31 80 32 29 33 79 34 30 35
REMARK SMILES IDX 31 36 32 37 73 38 33 39 78 40 72 41 74 42 34 43 77 44 71 45
REMARK SMILES IDX 70 46 35 48 61 49 44 50 60 51 45 52 48 53 59 54 75 55 46 56
REMARK SMILES IDX 47 57 58 59 76 60 49 61 36 62 37 63 42 64 38 65 39 66 41 67
REMARK SMILES IDX 43 68 40 69 62 70 63 71 68 72 64 73 65 74 67 75 69 76 66 77
REMARK SMILES IDX 50 78 51 79 56 80 52 81 53 82 55 83 57 84 54 85
REMARK H PARENT 17 7 6 15 24 28 74 47 48 58
REMARK Flexibility Score: inf
ROOT
ATOM      1  C   UNL A   1      32.404  29.915  26.841  1.00  0.00     0.002 C 
ENDROOT
BRANCH   1   2
ATOM      2  C   UNL A   1      32.085  28.423  26.701  1.00  0.00     0.021 C 
BRANCH   2   3
ATOM      3  C   UNL A   1      33.236  27.635  26.094  1.00  0.00     0.116 C 
BRANCH   3   4
ATOM      4  N   UNL A   1      33.892  28.435  25.077  1.00  0.00    -0.354 N 
ATOM      5  C   UNL A   1      33.706  28.461  23.730  1.00  0.00     0.242 C 
ATOM      6  O   UNL A   1      34.511  29.090  23.039  1.00  0.00    -0.273 OA
ATOM      7  H   UNL A   1      34.578  29.055  25.413  1.00  0.00     0.163 HD
BRANCH   5   8
ATOM      8  C   UNL A   1      32.593  27.624  23.077  1.00  0.00     0.171 C 
BRANCH   8   9
ATOM      9  C   UNL A   1      31.427  28.631  22.889  1.00  0.00     0.038 C 
BRANCH   9  10
ATOM     10  C   UNL A   1      29.994  28.090  22.805  1.00  0.00    -0.015 C 
ATOM     11  C   UNL A   1      29.746  27.022  23.865  1.00  0.00     0.007 C 
ATOM     12  C   UNL A   1      29.016  29.259  22.995  1.00  0.00     0.007 C 
ENDBRANCH   9  10
ENDBRANCH   8   9
BRANCH   8  13
ATOM     13  N   UNL A   1      32.984  26.932  21.832  1.00  0.00    -0.340 N 
ATOM     14  C   UNL A   1      32.839  25.615  21.443  1.00  0.00     0.253 C 
ATOM     15  H   UNL A   1      33.422  27.509  21.165  1.00  0.00     0.164 HD
ATOM     16  O   UNL A   1      32.934  25.328  20.252  1.00  0.00    -0.269 OA
BRANCH  14  17
ATOM     17  C   UNL A   1      32.778  24.517  22.426  1.00  0.00     0.058 A 
ATOM     18  C   UNL A   1      31.602  23.939  22.891  1.00  0.00     0.017 A 
ATOM     19  C   UNL A   1      33.979  24.104  22.994  1.00  0.00     0.124 A 
ATOM     20  C   UNL A   1      31.663  23.082  23.993  1.00  0.00     0.021 A 
ATOM     21  N   UNL A   1      34.067  23.270  24.060  1.00  0.00    -0.264 NA
ATOM     22  C   UNL A   1      32.901  22.799  24.551  1.00  0.00     0.111 A 
ENDBRANCH  14  17
ENDBRANCH   8  13
ENDBRANCH   5   8
ENDBRANCH   3   4
ENDBRANCH   2   3
ENDBRANCH   1   2
BRANCH   1  23
ATOM     23  C   UNL A   1      31.467  30.838  26.053  1.00  0.00     0.002 C 
BRANCH  23  24
ATOM     24  C   UNL A   1      31.341  32.250  26.627  1.00  0.00     0.021 C 
BRANCH  24  25
ATOM     25  C   UNL A   1      32.659  32.834  27.111  1.00  0.00     0.116 C 
BRANCH  25  26
ATOM     26  N   UNL A   1      32.499  34.185  27.624  1.00  0.00    -0.352 N 
ATOM     27  C   UNL A   1      33.155  34.789  28.662  1.00  0.00     0.251 C 
ATOM     28  H   UNL A   1      31.830  34.740  27.162  1.00  0.00     0.163 HD
ATOM     29  O   UNL A   1      32.776  35.871  29.099  1.00  0.00    -0.269 OA
BRANCH  27  30
ATOM     30  C   UNL A   1      34.316  34.109  29.264  1.00  0.00     0.039 A 
ATOM     31  C   UNL A   1      34.095  33.088  30.188  1.00  0.00     0.014 A 
ATOM     32  C   UNL A   1      35.617  34.470  28.898  1.00  0.00     0.014 A 
ATOM     33  C   UNL A   1      35.184  32.400  30.720  1.00  0.00     0.010 A 
ATOM     34  C   UNL A   1      36.694  33.726  29.361  1.00  0.00     0.010 A 
ATOM     35  C   UNL A   1      36.489  32.697  30.291  1.00  0.00    -0.014 A 
BRANCH  35  36
ATOM     36  C   UNL A   1      37.656  31.960  30.834  1.00  0.00     0.031 A 
ATOM     37  C   UNL A   1      38.167  32.278  32.212  1.00  0.00     0.074 A 
ATOM     38  C   UNL A   1      38.274  31.036  30.073  1.00  0.00     0.049 A 
ATOM     39  N   UNL A   1      39.195  31.776  32.849  1.00  0.00    -0.248 NA
ATOM     40  C   UNL A   1      37.443  33.315  32.966  1.00  0.00     0.031 C 
ATOM     41  C   UNL A   1      37.900  30.677  28.704  1.00  0.00     0.029 A 
ATOM     42  N   UNL A   1      39.353  30.235  30.344  1.00  0.00    -0.354 N 
ATOM     43  C   UNL A   1      39.239  32.437  34.070  1.00  0.00     0.074 A 
ATOM     44  C   UNL A   1      38.185  33.426  34.057  1.00  0.00     0.031 C 
ATOM     45  C   UNL A   1      38.719  29.707  28.265  1.00  0.00     0.029 A 
ATOM     46  C   UNL A   1      39.696  29.404  29.305  1.00  0.00     0.049 A 
ATOM     47  H   UNL A   1      39.835  30.251  31.202  1.00  0.00     0.167 HD
ATOM     48  C   UNL A   1      40.063  32.216  35.122  1.00  0.00     0.037 A 
ATOM     49  C   UNL A   1      40.692  28.504  29.204  1.00  0.00     0.037 A 
ATOM     50  C   UNL A   1      41.103  31.222  35.135  1.00  0.00     0.049 A 
ATOM     51  C   UNL A   1      41.607  28.294  30.379  1.00  0.00     0.074 A 
ATOM     52  C   UNL A   1      41.976  30.899  36.158  1.00  0.00     0.029 A 
ATOM     53  N   UNL A   1      41.410  30.389  34.068  1.00  0.00    -0.354 N 
ATOM     54  N   UNL A   1      41.602  28.884  31.551  1.00  0.00    -0.248 NA
ATOM     55  C   UNL A   1      42.662  27.283  30.223  1.00  0.00     0.031 C 
ATOM     56  C   UNL A   1      42.839  29.901  35.697  1.00  0.00     0.029 A 
ATOM     57  C   UNL A   1      42.469  29.561  34.406  1.00  0.00     0.049 A 
ATOM     58  H   UNL A   1      40.946  30.387  33.201  1.00  0.00     0.167 HD
ATOM     59  C   UNL A   1      42.623  28.291  32.281  1.00  0.00     0.074 A 
ATOM     60  C   UNL A   1      43.216  27.284  31.425  1.00  0.00     0.031 C 
ATOM     61  C   UNL A   1      43.035  28.554  33.545  1.00  0.00     0.037 A 
BRANCH  48  62
ATOM     62  C   UNL A   1      39.858  33.058  36.348  1.00  0.00     0.057 A 
ATOM     63  C   UNL A   1      40.564  34.253  36.547  1.00  0.00     0.134 A 
ATOM     64  C   UNL A   1      38.927  32.690  37.327  1.00  0.00     0.134 A 
ATOM     65  F   UNL A   1      41.481  34.658  35.655  1.00  0.00    -0.206 F 
ATOM     66  C   UNL A   1      40.373  35.035  37.687  1.00  0.00     0.040 A 
ATOM     67  C   UNL A   1      38.705  33.480  38.457  1.00  0.00     0.040 A 
ATOM     68  F   UNL A   1      38.213  31.562  37.200  1.00  0.00    -0.206 F 
ATOM     69  C   UNL A   1      39.435  34.653  38.642  1.00  0.00     0.006 A 
ENDBRANCH  48  62
BRANCH  49  70
ATOM     70  C   UNL A   1      40.871  27.722  27.953  1.00  0.00     0.057 A 
ATOM     71  C   UNL A   1      40.281  26.461  27.795  1.00  0.00     0.134 A 
ATOM     72  C   UNL A   1      41.662  28.198  26.900  1.00  0.00     0.134 A 
ATOM     73  F   UNL A   1      39.526  25.943  28.774  1.00  0.00    -0.206 F 
ATOM     74  C   UNL A   1      40.498  25.689  26.653  1.00  0.00     0.040 A 
ATOM     75  C   UNL A   1      41.861  27.450  25.739  1.00  0.00     0.040 A 
ATOM     76  F   UNL A   1      42.247  29.402  26.984  1.00  0.00    -0.206 F 
ATOM     77  C   UNL A   1      41.288  26.186  25.619  1.00  0.00     0.006 A 
ENDBRANCH  49  70
BRANCH  61  78
ATOM     78  C   UNL A   1      44.143  27.704  34.096  1.00  0.00     0.057 A 
ATOM     79  C   UNL A   1      43.899  26.470  34.713  1.00  0.00     0.134 A 
ATOM     80  C   UNL A   1      45.478  28.117  33.984  1.00  0.00     0.134 A 
ATOM     81  F   UNL A   1      42.644  26.020  34.863  1.00  0.00    -0.206 F 
ATOM     82  C   UNL A   1      44.939  25.694  35.228  1.00  0.00     0.040 A 
ATOM     83  C   UNL A   1      46.528  27.336  34.466  1.00  0.00     0.040 A 
ATOM     84  F   UNL A   1      45.783  29.283  33.395  1.00  0.00    -0.206 F 
ATOM     85  C   UNL A   1      46.259  26.124  35.099  1.00  0.00     0.006 A 
ENDBRANCH  61  78
ENDBRANCH  35  36
ENDBRANCH  27  30
ENDBRANCH  25  26
ENDBRANCH  24  25
ENDBRANCH  23  24
ENDBRANCH   1  23
TORSDOF 17
ENDMDL
MODEL 2
REMARK VINA RESULT:     -10.5      1.186      6.393
REMARK SMILES CC(C)C[C@@H](NC(=O)c1cccnc1)C(=O)NCCCCCCNC(=O)c1ccc(-c2c3nc(c(-c4c(F)cccc4F)c4ccc([nH]4)c(-c4c(F)cccc4F)c4nc(c(-c5c(F)cccc5F)c5ccc2[nH]5)C=C4)C=C3)cc1
REMARK SMILES IDX 20 1 19 2 18 3 17 4 15 5 16 6 5 8 4 9 2 10 1 11 3 12 6 13
REMARK SMILES IDX 7 14 8 16 9 17 10 18 14 19 11 20 13 21 12 22 21 23 22 24
REMARK SMILES IDX 23 25 24 26 25 27 26 29 27 30 28 31 80 32 29 33 79 34 30 35
REMARK SMILES IDX 31 36 32 37 73 38 33 39 78 40 72 41 74 42 34 43 77 44 71 45
REMARK SMILES IDX 70 46 35 48 61 49 44 50 60 51 45 52 48 53 59 54 75 55 46 56
REMARK SMILES IDX 47 57 58 59 76 60 49 61 36 62 37 63 42 64 38 65 39 66 41 67
REMARK SMILES IDX 43 68 40 69 62 70 63 71 68 72 64 73 65 74 67 75 69 76 66 77
REMARK SMILES IDX 50 78 51 79 56 80 52 81 53 82 55 83 57 84 54 85
REMARK H PARENT 17 7 6 15 24 28 74 47 48 58
REMARK Flexibility Score: inf
ROOT
ATOM      1  C   UNL A   1      32.604  30.038  27.093  1.00  0.00     0.002 C 
ENDROOT
BRANCH   1   2
ATOM      2  C   UNL A   1      32.708  28.529  26.848  1.00  0.00     0.021 C 
BRANCH   2   3
ATOM      3  C   UNL A   1      34.007  28.137  26.161  1.00  0.00     0.116 C 
BRANCH   3   4
ATOM      4  N   UNL A   1      34.095  28.796  24.871  1.00  0.00    -0.354 N 
ATOM      5  C   UNL A   1      33.696  28.369  23.643  1.00  0.00     0.242 C 
ATOM      6  O   UNL A   1      34.042  29.022  22.655  1.00  0.00    -0.273 OA
ATOM      7  H   UNL A   1      34.507  29.689  24.886  1.00  0.00     0.163 HD
BRANCH   5   8
ATOM      8  C   UNL A   1      32.939  27.040  23.482  1.00  0.00     0.171 C 
BRANCH   8   9
ATOM      9  C   UNL A   1      31.725  27.404  22.587  1.00  0.00     0.038 C 
BRANCH   9  10
ATOM     10  C   UNL A   1      30.336  27.493  23.233  1.00  0.00    -0.015 C 
ATOM     11  C   UNL A   1      30.301  26.758  24.569  1.00  0.00     0.007 C 
ATOM     12  C   UNL A   1      29.983  28.974  23.436  1.00  0.00     0.007 C 
ENDBRANCH   9  10
ENDBRANCH   8   9
BRANCH   8  13
ATOM     13  N   UNL A   1      33.749  25.923  22.955  1.00  0.00    -0.340 N 
ATOM     14  C   UNL A   1      33.686  24.565  23.197  1.00  0.00     0.253 C 
ATOM     15  H   UNL A   1      34.453  26.193  22.322  1.00  0.00     0.164 HD
ATOM     16  O   UNL A   1      34.230  23.791  22.413  1.00  0.00    -0.269 OA
BRANCH  14  17
ATOM     17  C   UNL A   1      33.166  24.024  24.467  1.00  0.00     0.058 A 
ATOM     18  C   UNL A   1      33.825  24.107  25.689  1.00  0.00     0.017 A 
ATOM     19  C   UNL A   1      31.981  23.298  24.411  1.00  0.00     0.124 A 
ATOM     20  C   UNL A   1      33.350  23.350  26.762  1.00  0.00     0.021 A 
ATOM     21  N   UNL A   1      31.495  22.559  25.439  1.00  0.00    -0.264 NA
ATOM     22  C   UNL A   1      32.208  22.583  26.585  1.00  0.00     0.111 A 
ENDBRANCH  14  17
ENDBRANCH   8  13
ENDBRANCH   5   8
ENDBRANCH   3   4
ENDBRANCH   2   3
ENDBRANCH   1   2
BRANCH   1  23
ATOM     23  C   UNL A   1      31.539  30.744  26.247  1.00  0.00     0.002 C 
BRANCH  23  24
ATOM     24  C   UNL A   1      31.399  32.241  26.526  1.00  0.00     0.021 C 
BRANCH  24  25
ATOM     25  C   UNL A   1      32.565  32.829  27.306  1.00  0.00     0.116 C 
BRANCH  25  26
ATOM     26  N   UNL A   1      32.353  34.232  27.625  1.00  0.00    -0.352 N 
ATOM     27  C   UNL A   1      32.979  34.997  28.571  1.00  0.00     0.251 C 
ATOM     28  H   UNL A   1      31.668  34.692  27.089  1.00  0.00     0.163 HD
ATOM     29  O   UNL A   1      32.557  36.115  28.852  1.00  0.00    -0.269 OA
BRANCH  27  30
ATOM     30  C   UNL A   1      34.158  34.450  29.265  1.00  0.00     0.039 A 
ATOM     31  C   UNL A   1      33.987  33.837  30.506  1.00  0.00     0.014 A 
ATOM     32  C   UNL A   1      35.425  34.529  28.678  1.00  0.00     0.014 A 
ATOM     33  C   UNL A   1      35.086  33.265  31.144  1.00  0.00     0.010 A 
ATOM     34  C   UNL A   1      36.501  33.883  29.273  1.00  0.00     0.010 A 
ATOM     35  C   UNL A   1      36.346  33.262  30.520  1.00  0.00    -0.014 A 
BRANCH  35  36
ATOM     36  C   UNL A   1      37.520  32.641  31.179  1.00  0.00     0.031 A 
ATOM     37  C   UNL A   1      38.177  31.439  30.559  1.00  0.00     0.074 A 
ATOM     38  C   UNL A   1      37.965  33.133  32.351  1.00  0.00     0.049 A 
ATOM     39  N   UNL A   1      39.185  30.729  30.999  1.00  0.00    -0.248 NA
ATOM     40  C   UNL A   1      37.613  30.954  29.288  1.00  0.00     0.031 C 
ATOM     41  C   UNL A   1      37.379  34.263  33.073  1.00  0.00     0.029 A 
ATOM     42  N   UNL A   1      39.014  32.741  33.142  1.00  0.00    -0.354 N 
ATOM     43  C   UNL A   1      39.370  29.719  30.062  1.00  0.00     0.074 A 
ATOM     44  C   UNL A   1      38.327  29.861  29.072  1.00  0.00     0.031 C 
ATOM     45  C   UNL A   1      38.093  34.491  34.188  1.00  0.00     0.029 A 
ATOM     46  C   UNL A   1      39.161  33.500  34.278  1.00  0.00     0.049 A 
ATOM     47  H   UNL A   1      39.606  31.987  32.918  1.00  0.00     0.167 HD
ATOM     48  C   UNL A   1      40.343  28.778  30.013  1.00  0.00     0.037 A 
ATOM     49  C   UNL A   1      40.055  33.403  35.279  1.00  0.00     0.037 A 
ATOM     50  C   UNL A   1      41.386  28.648  30.995  1.00  0.00     0.049 A 
ATOM     51  C   UNL A   1      41.111  32.334  35.212  1.00  0.00     0.074 A 
ATOM     52  C   UNL A   1      42.435  27.747  31.027  1.00  0.00     0.029 A 
ATOM     53  N   UNL A   1      41.511  29.446  32.124  1.00  0.00    -0.354 N 
ATOM     54  N   UNL A   1      41.311  31.422  34.291  1.00  0.00    -0.248 NA
ATOM     55  C   UNL A   1      42.076  32.289  36.319  1.00  0.00     0.031 C 
ATOM     56  C   UNL A   1      43.170  27.971  32.194  1.00  0.00     0.029 A 
ATOM     57  C   UNL A   1      42.613  29.049  32.863  1.00  0.00     0.049 A 
ATOM     58  H   UNL A   1      40.906  30.185  32.362  1.00  0.00     0.167 HD
ATOM     59  C   UNL A   1      42.443  30.721  34.687  1.00  0.00     0.074 A 
ATOM     60  C   UNL A   1      42.894  31.325  35.924  1.00  0.00     0.031 C 
ATOM     61  C   UNL A   1      43.055  29.672  34.085  1.00  0.00     0.037 A 
BRANCH  48  62
ATOM     62  C   UNL A   1      40.326  27.828  28.851  1.00  0.00     0.057 A 
ATOM     63  C   UNL A   1      39.589  26.636  28.885  1.00  0.00     0.134 A 
ATOM     64  C   UNL A   1      41.030  28.116  27.675  1.00  0.00     0.134 A 
ATOM     65  F   UNL A   1      38.903  26.291  29.986  1.00  0.00    -0.206 F 
ATOM     66  C   UNL A   1      39.575  25.752  27.805  1.00  0.00     0.040 A 
ATOM     67  C   UNL A   1      40.999  27.255  26.576  1.00  0.00     0.040 A 
ATOM     68  F   UNL A   1      41.753  29.240  27.572  1.00  0.00    -0.206 F 
ATOM     69  C   UNL A   1      40.275  26.066  26.642  1.00  0.00     0.006 A 
ENDBRANCH  48  62
BRANCH  49  70
ATOM     70  C   UNL A   1      40.004  34.349  36.424  1.00  0.00     0.057 A 
ATOM     71  C   UNL A   1      39.298  34.036  37.593  1.00  0.00     0.134 A 
ATOM     72  C   UNL A   1      40.630  35.600  36.366  1.00  0.00     0.134 A 
ATOM     73  F   UNL A   1      38.664  32.860  37.703  1.00  0.00    -0.206 F 
ATOM     74  C   UNL A   1      39.188  34.944  38.647  1.00  0.00     0.040 A 
ATOM     75  C   UNL A   1      40.554  36.505  37.426  1.00  0.00     0.040 A 
ATOM     76  F   UNL A   1      41.330  35.957  35.280  1.00  0.00    -0.206 F 
ATOM     77  C   UNL A   1      39.820  36.182  38.566  1.00  0.00     0.006 A 
ENDBRANCH  49  70
BRANCH  61  78
ATOM     78  C   UNL A   1      44.307  29.149  34.726  1.00  0.00     0.057 A 
ATOM     79  C   UNL A   1      45.575  29.647  34.399  1.00  0.00     0.134 A 
ATOM     80  C   UNL A   1      44.239  28.148  35.704  1.00  0.00     0.134 A 
ATOM     81  F   UNL A   1      45.713  30.598  33.463  1.00  0.00    -0.206 F 
ATOM     82  C   UNL A   1      46.732  29.144  34.997  1.00  0.00     0.040 A 
ATOM     83  C   UNL A   1      45.385  27.660  36.332  1.00  0.00     0.040 A 
ATOM     84  F   UNL A   1      43.055  27.635  36.072  1.00  0.00    -0.206 F 
ATOM     85  C   UNL A   1      46.637  28.153  35.972  1.00  0.00     0.006 A 
ENDBRANCH  61  78
ENDBRANCH  35  36
ENDBRANCH  27  30
ENDBRANCH  25  26
ENDBRANCH  24  25
ENDBRANCH  23  24
ENDBRANCH   1  23
TORSDOF 17
ENDMDL
MODEL 3
REMARK VINA RESULT:     -10.4      0.777      1.799
REMARK SMILES CC(C)C[C@@H](NC(=O)c1cccnc1)C(=O)NCCCCCCNC(=O)c1ccc(-c2c3nc(c(-c4c(F)cccc4F)c4ccc([nH]4)c(-c4c(F)cccc4F)c4nc(c(-c5c(F)cccc5F)c5ccc2[nH]5)C=C4)C=C3)cc1
REMARK SMILES IDX 20 1 19 2 18 3 17 4 15 5 16 6 5 8 4 9 2 10 1 11 3 12 6 13
REMARK SMILES IDX 7 14 8 16 9 17 10 18 14 19 11 20 13 21 12 22 21 23 22 24
REMARK SMILES IDX 23 25 24 26 25 27 26 29 27 30 28 31 80 32 29 33 79 34 30 35
REMARK SMILES IDX 31 36 32 37 73 38 33 39 78 40 72 41 74 42 34 43 77 44 71 45
REMARK SMILES IDX 70 46 35 48 61 49 44 50 60 51 45 52 48 53 59 54 75 55 46 56
REMARK SMILES IDX 47 57 58 59 76 60 49 61 36 62 37 63 42 64 38 65 39 66 41 67
REMARK SMILES IDX 43 68 40 69 62 70 63 71 68 72 64 73 65 74 67 75 69 76 66 77
REMARK SMILES IDX 50 78 51 79 56 80 52 81 53 82 55 83 57 84 54 85
REMARK H PARENT 17 7 6 15 24 28 74 47 48 58
REMARK Flexibility Score: inf
ROOT
ATOM      1  C   UNL A   1      31.873  29.635  26.655  1.00  0.00     0.002 C 
ENDROOT
BRANCH   1   2
ATOM      2  C   UNL A   1      33.362  29.553  27.007  1.00  0.00     0.021 C 
BRANCH   2   3
ATOM      3  C   UNL A   1      34.109  28.544  26.148  1.00  0.00     0.116 C 
BRANCH   3   4
ATOM      4  N   UNL A   1      34.156  29.011  24.775  1.00  0.00    -0.354 N 
ATOM      5  C   UNL A   1      33.732  28.410  23.632  1.00  0.00     0.242 C 
ATOM      6  O   UNL A   1      34.045  28.917  22.552  1.00  0.00    -0.273 OA
ATOM      7  H   UNL A   1      34.557  29.901  24.652  1.00  0.00     0.163 HD
BRANCH   5   8
ATOM      8  C   UNL A   1      32.989  27.064  23.683  1.00  0.00     0.171 C 
BRANCH   8   9
ATOM      9  C   UNL A   1      31.491  27.457  23.574  1.00  0.00     0.038 C 
BRANCH   9  10
ATOM     10  C   UNL A   1      30.455  26.622  24.337  1.00  0.00    -0.015 C 
ATOM     11  C   UNL A   1      30.094  25.356  23.569  1.00  0.00     0.007 C 
ATOM     12  C   UNL A   1      31.035  26.258  25.713  1.00  0.00     0.007 C 
ENDBRANCH   9  10
ENDBRANCH   8   9
BRANCH   8  13
ATOM     13  N   UNL A   1      33.417  26.078  22.670  1.00  0.00    -0.340 N 
ATOM     14  C   UNL A   1      33.613  24.714  22.759  1.00  0.00     0.253 C 
ATOM     15  H   UNL A   1      33.592  26.458  21.779  1.00  0.00     0.164 HD
ATOM     16  O   UNL A   1      33.650  24.046  21.729  1.00  0.00    -0.269 OA
BRANCH  14  17
ATOM     17  C   UNL A   1      33.982  24.063  24.030  1.00  0.00     0.058 A 
ATOM     18  C   UNL A   1      35.032  24.466  24.847  1.00  0.00     0.017 A 
ATOM     19  C   UNL A   1      33.290  22.907  24.377  1.00  0.00     0.124 A 
ATOM     20  C   UNL A   1      35.433  23.628  25.891  1.00  0.00     0.021 A 
ATOM     21  N   UNL A   1      33.654  22.079  25.387  1.00  0.00    -0.264 NA
ATOM     22  C   UNL A   1      34.736  22.448  26.105  1.00  0.00     0.111 A 
ENDBRANCH  14  17
ENDBRANCH   8  13
ENDBRANCH   5   8
ENDBRANCH   3   4
ENDBRANCH   2   3
ENDBRANCH   1   2
BRANCH   1  23
ATOM     23  C   UNL A   1      31.459  30.939  25.963  1.00  0.00     0.002 C 
BRANCH  23  24
ATOM     24  C   UNL A   1      31.397  32.155  26.888  1.00  0.00     0.021 C 
BRANCH  24  25
ATOM     25  C   UNL A   1      32.689  32.957  26.929  1.00  0.00     0.116 C 
BRANCH  25  26
ATOM     26  N   UNL A   1      32.525  34.214  27.643  1.00  0.00    -0.352 N 
ATOM     27  C   UNL A   1      33.184  34.657  28.757  1.00  0.00     0.251 C 
ATOM     28  H   UNL A   1      31.850  34.829  27.274  1.00  0.00     0.163 HD
ATOM     29  O   UNL A   1      32.801  35.657  29.356  1.00  0.00    -0.269 OA
BRANCH  27  30
ATOM     30  C   UNL A   1      34.352  33.900  29.243  1.00  0.00     0.039 A 
ATOM     31  C   UNL A   1      35.626  34.286  28.827  1.00  0.00     0.014 A 
ATOM     32  C   UNL A   1      34.184  32.825  30.121  1.00  0.00     0.014 A 
ATOM     33  C   UNL A   1      36.741  33.614  29.325  1.00  0.00     0.010 A 
ATOM     34  C   UNL A   1      35.297  32.215  30.683  1.00  0.00     0.010 A 
ATOM     35  C   UNL A   1      36.585  32.590  30.276  1.00  0.00    -0.014 A 
BRANCH  35  36
ATOM     36  C   UNL A   1      37.763  31.880  30.829  1.00  0.00     0.031 A 
ATOM     37  C   UNL A   1      38.272  32.229  32.200  1.00  0.00     0.074 A 
ATOM     38  C   UNL A   1      38.395  30.954  30.082  1.00  0.00     0.049 A 
ATOM     39  N   UNL A   1      39.310  31.754  32.843  1.00  0.00    -0.248 NA
ATOM     40  C   UNL A   1      37.535  33.268  32.938  1.00  0.00     0.031 C 
ATOM     41  C   UNL A   1      38.024  30.566  28.720  1.00  0.00     0.029 A 
ATOM     42  N   UNL A   1      39.486  30.173  30.365  1.00  0.00    -0.354 N 
ATOM     43  C   UNL A   1      39.346  32.436  34.053  1.00  0.00     0.074 A 
ATOM     44  C   UNL A   1      38.277  33.408  34.026  1.00  0.00     0.031 C 
ATOM     45  C   UNL A   1      38.856  29.601  28.296  1.00  0.00     0.029 A 
ATOM     46  C   UNL A   1      39.840  29.331  29.339  1.00  0.00     0.049 A 
ATOM     47  H   UNL A   1      39.970  30.212  31.221  1.00  0.00     0.167 HD
ATOM     48  C   UNL A   1      40.175  32.246  35.107  1.00  0.00     0.037 A 
ATOM     49  C   UNL A   1      40.850  28.445  29.250  1.00  0.00     0.037 A 
ATOM     50  C   UNL A   1      41.230  31.268  35.134  1.00  0.00     0.049 A 
ATOM     51  C   UNL A   1      41.770  28.269  30.427  1.00  0.00     0.074 A 
ATOM     52  C   UNL A   1      42.110  30.976  36.160  1.00  0.00     0.029 A 
ATOM     53  N   UNL A   1      41.548  30.422  34.081  1.00  0.00    -0.354 N 
ATOM     54  N   UNL A   1      41.758  28.878  31.588  1.00  0.00    -0.248 NA
ATOM     55  C   UNL A   1      42.840  27.271  30.285  1.00  0.00     0.031 C 
ATOM     56  C   UNL A   1      42.988  29.983  35.715  1.00  0.00     0.029 A 
ATOM     57  C   UNL A   1      42.620  29.617  34.430  1.00  0.00     0.049 A 
ATOM     58  H   UNL A   1      41.082  30.398  33.215  1.00  0.00     0.167 HD
ATOM     59  C   UNL A   1      42.790  28.313  32.327  1.00  0.00     0.074 A 
ATOM     60  C   UNL A   1      43.396  27.301  31.487  1.00  0.00     0.031 C 
ATOM     61  C   UNL A   1      43.200  28.604  33.585  1.00  0.00     0.037 A 
BRANCH  48  62
ATOM     62  C   UNL A   1      39.959  33.105  36.319  1.00  0.00     0.057 A 
ATOM     63  C   UNL A   1      40.628  34.327  36.483  1.00  0.00     0.134 A 
ATOM     64  C   UNL A   1      39.056  32.726  37.319  1.00  0.00     0.134 A 
ATOM     65  F   UNL A   1      41.518  34.744  35.570  1.00  0.00    -0.206 F 
ATOM     66  C   UNL A   1      40.427  35.125  37.610  1.00  0.00     0.040 A 
ATOM     67  C   UNL A   1      38.824  33.531  38.436  1.00  0.00     0.040 A 
ATOM     68  F   UNL A   1      38.379  31.572  37.225  1.00  0.00    -0.206 F 
ATOM     69  C   UNL A   1      39.516  34.731  38.588  1.00  0.00     0.006 A 
ENDBRANCH  48  62
BRANCH  49  70
ATOM     70  C   UNL A   1      41.038  27.644  28.013  1.00  0.00     0.057 A 
ATOM     71  C   UNL A   1      41.769  28.147  26.928  1.00  0.00     0.134 A 
ATOM     72  C   UNL A   1      40.467  26.374  27.870  1.00  0.00     0.134 A 
ATOM     73  F   UNL A   1      42.327  29.363  26.997  1.00  0.00    -0.206 F 
ATOM     74  C   UNL A   1      41.895  27.431  25.737  1.00  0.00     0.040 A 
ATOM     75  C   UNL A   1      40.613  25.634  26.696  1.00  0.00     0.040 A 
ATOM     76  F   UNL A   1      39.765  25.831  28.875  1.00  0.00    -0.206 F 
ATOM     77  C   UNL A   1      41.318  26.169  25.620  1.00  0.00     0.006 A 
ENDBRANCH  49  70
BRANCH  61  78
ATOM     78  C   UNL A   1      44.322  27.780  34.148  1.00  0.00     0.057 A 
ATOM     79  C   UNL A   1      45.662  28.173  34.039  1.00  0.00     0.134 A 
ATOM     80  C   UNL A   1      44.053  26.587  34.832  1.00  0.00     0.134 A 
ATOM     81  F   UNL A   1      45.991  29.299  33.387  1.00  0.00    -0.206 F 
ATOM     82  C   UNL A   1      46.696  27.393  34.560  1.00  0.00     0.040 A 
ATOM     83  C   UNL A   1      45.074  25.815  35.385  1.00  0.00     0.040 A 
ATOM     84  F   UNL A   1      42.790  26.158  34.982  1.00  0.00    -0.206 F 
ATOM     85  C   UNL A   1      46.401  26.213  35.241  1.00  0.00     0.006 A 
ENDBRANCH  61  78
ENDBRANCH  35  36
ENDBRANCH  27  30
ENDBRANCH  25  26
ENDBRANCH  24  25
ENDBRANCH  23  24
ENDBRANCH   1  23
TORSDOF 17
ENDMDL
