MODEL 1
REMARK VINA RESULT:      -8.4      0.000      0.000
REMARK SMILES Cc1nc2nc(CNC(=O)OC(C)(C)C)nn2c(C)c1CCC(=O)NCCCCCCNC(=O)c1ccc(-c2c3nc(c(-c4c(F)cccc4F)c4ccc([nH]4)c(-c4c(F)cccc4F)c4nc(c(-c5c(F)cccc5F)c5ccc2[nH]5)C=C4)C=C3)cc1
REMARK SMILES IDX 26 1 25 2 23 3 24 4 22 6 21 7 20 8 1 9 2 10 3 11 4 12 18 13
REMARK SMILES IDX 5 14 17 15 19 16 6 17 16 18 7 19 8 20 9 21 10 23 11 24 12 25
REMARK SMILES IDX 13 26 14 27 15 28 27 29 28 30 29 31 30 32 31 33 32 34 33 35
REMARK SMILES IDX 34 37 35 38 36 39 88 40 37 41 87 42 38 43 39 44 40 45 81 46
REMARK SMILES IDX 41 47 86 48 80 49 82 50 42 51 85 52 79 53 78 54 43 56 69 57
REMARK SMILES IDX 52 58 68 59 53 60 56 61 67 62 83 63 54 64 55 65 66 67 84 68
REMARK SMILES IDX 57 69 44 70 45 71 50 72 46 73 47 74 49 75 51 76 48 77 70 78
REMARK SMILES IDX 71 79 76 80 72 81 73 82 75 83 77 84 74 85 58 86 59 87 64 88
REMARK SMILES IDX 60 89 61 90 63 91 65 92 62 93
REMARK H PARENT 25 5 8 22 32 36 82 55 56 66
REMARK Flexibility Score: inf
ROOT
ATOM      1  C   UNL A   1      36.368  31.619  31.335  1.00  0.00     0.116 C 
ENDROOT
BRANCH   1   2
ATOM      2  N   UNL A   1      35.931  32.972  30.995  1.00  0.00    -0.356 N 
ATOM      3  C   UNL A   1      35.033  33.402  30.061  1.00  0.00     0.220 C 
ATOM      4  O   UNL A   1      34.991  34.606  29.797  1.00  0.00    -0.275 OA
ATOM      5  H   UNL A   1      36.352  33.687  31.524  1.00  0.00     0.163 HD
BRANCH   3   6
ATOM      6  C   UNL A   1      34.088  32.432  29.370  1.00  0.00     0.105 C 
BRANCH   6   7
ATOM      7  C   UNL A   1      34.396  32.252  27.869  1.00  0.00     0.049 C 
BRANCH   7   8
ATOM      8  C   UNL A   1      33.834  30.965  27.284  1.00  0.00    -0.005 A 
ATOM      9  C   UNL A   1      35.894  29.592  28.201  1.00  0.00     0.067 C 
ATOM     10  C   UNL A   1      34.702  29.716  27.247  1.00  0.00     0.046 A 
ATOM     11  N   UNL A   1      34.477  28.703  26.455  1.00  0.00    -0.216 NA
ATOM     12  C   UNL A   1      33.402  28.800  25.604  1.00  0.00     0.252 A 
ATOM     13  C   UNL A   1      32.624  30.834  26.664  1.00  0.00     0.048 A 
ATOM     14  N   UNL A   1      33.183  28.203  24.443  1.00  0.00    -0.192 NA
ATOM     15  N   UNL A   1      32.391  29.730  25.796  1.00  0.00    -0.201 N 
ATOM     16  C   UNL A   1      31.579  31.906  26.650  1.00  0.00     0.067 C 
ATOM     17  C   UNL A   1      31.912  28.548  24.041  1.00  0.00     0.172 A 
ATOM     18  N   UNL A   1      31.381  29.483  24.871  1.00  0.00    -0.148 NA
BRANCH  17  19
ATOM     19  C   UNL A   1      31.136  27.913  22.788  1.00  0.00     0.199 C 
BRANCH  19  20
ATOM     20  N   UNL A   1      31.898  27.150  21.717  1.00  0.00    -0.314 N 
ATOM     21  C   UNL A   1      32.233  25.794  21.453  1.00  0.00     0.408 C 
ATOM     22  H   UNL A   1      32.253  27.753  21.023  1.00  0.00     0.167 HD
ATOM     23  O   UNL A   1      32.904  25.555  20.477  1.00  0.00    -0.225 OA
BRANCH  21  24
ATOM     24  O   UNL A   1      31.878  24.827  22.363  1.00  0.00    -0.444 OA
BRANCH  24  25
ATOM     25  C   UNL A   1      32.839  24.037  23.198  1.00  0.00     0.106 C 
ATOM     26  C   UNL A   1      33.290  22.757  22.492  1.00  0.00     0.056 C 
ATOM     27  C   UNL A   1      34.113  24.760  23.703  1.00  0.00     0.056 C 
ATOM     28  C   UNL A   1      32.042  23.641  24.466  1.00  0.00     0.056 C 
ENDBRANCH  24  25
ENDBRANCH  21  24
ENDBRANCH  19  20
ENDBRANCH  17  19
ENDBRANCH   7   8
ENDBRANCH   6   7
ENDBRANCH   3   6
ENDBRANCH   1   2
BRANCH   1  29
ATOM     29  C   UNL A   1      36.241  31.390  32.830  1.00  0.00     0.021 C 
BRANCH  29  30
ATOM     30  C   UNL A   1      36.747  32.457  33.796  1.00  0.00     0.002 C 
BRANCH  30  31
ATOM     31  C   UNL A   1      37.855  32.082  34.805  1.00  0.00     0.002 C 
BRANCH  31  32
ATOM     32  C   UNL A   1      39.347  31.910  34.431  1.00  0.00     0.021 C 
BRANCH  32  33
ATOM     33  C   UNL A   1      39.916  31.854  32.992  1.00  0.00     0.116 C 
BRANCH  33  34
ATOM     34  N   UNL A   1      39.597  32.937  32.105  1.00  0.00    -0.352 N 
ATOM     35  C   UNL A   1      39.645  32.898  30.742  1.00  0.00     0.251 C 
ATOM     36  H   UNL A   1      39.317  33.787  32.518  1.00  0.00     0.163 HD
ATOM     37  O   UNL A   1      39.096  33.663  29.958  1.00  0.00    -0.269 OA
BRANCH  35  38
ATOM     38  C   UNL A   1      40.232  31.830  30.010  1.00  0.00     0.039 A 
ATOM     39  C   UNL A   1      39.457  30.688  29.863  1.00  0.00     0.014 A 
ATOM     40  C   UNL A   1      41.613  31.780  30.159  1.00  0.00     0.014 A 
ATOM     41  C   UNL A   1      40.108  29.495  29.974  1.00  0.00     0.010 A 
ATOM     42  C   UNL A   1      42.289  30.628  30.044  1.00  0.00     0.010 A 
ATOM     43  C   UNL A   1      41.511  29.498  30.070  1.00  0.00    -0.014 A 
BRANCH  43  44
ATOM     44  C   UNL A   1      42.206  28.263  29.923  1.00  0.00     0.031 A 
ATOM     45  C   UNL A   1      42.701  27.834  31.245  1.00  0.00     0.074 A 
ATOM     46  C   UNL A   1      42.193  27.583  28.770  1.00  0.00     0.049 A 
ATOM     47  N   UNL A   1      43.936  27.784  31.607  1.00  0.00    -0.248 NA
ATOM     48  C   UNL A   1      41.738  27.817  32.371  1.00  0.00     0.031 C 
ATOM     49  C   UNL A   1      41.469  27.842  27.520  1.00  0.00     0.029 A 
ATOM     50  N   UNL A   1      42.761  26.382  28.554  1.00  0.00    -0.354 N 
ATOM     51  C   UNL A   1      43.902  27.511  32.962  1.00  0.00     0.074 A 
ATOM     52  C   UNL A   1      42.566  27.783  33.414  1.00  0.00     0.031 C 
ATOM     53  C   UNL A   1      41.428  26.704  26.792  1.00  0.00     0.029 A 
ATOM     54  C   UNL A   1      42.266  25.720  27.445  1.00  0.00     0.049 A 
ATOM     55  H   UNL A   1      43.465  26.009  29.133  1.00  0.00     0.167 HD
ATOM     56  C   UNL A   1      44.908  26.804  33.529  1.00  0.00     0.037 A 
ATOM     57  C   UNL A   1      42.482  24.402  27.237  1.00  0.00     0.037 A 
ATOM     58  C   UNL A   1      46.099  26.860  32.712  1.00  0.00     0.049 A 
ATOM     59  C   UNL A   1      43.678  24.037  28.066  1.00  0.00     0.074 A 
ATOM     60  C   UNL A   1      46.908  27.902  32.296  1.00  0.00     0.029 A 
ATOM     61  N   UNL A   1      46.308  25.838  31.812  1.00  0.00    -0.354 N 
ATOM     62  N   UNL A   1      44.874  24.529  27.853  1.00  0.00    -0.248 NA
ATOM     63  C   UNL A   1      43.446  23.566  29.426  1.00  0.00     0.031 C 
ATOM     64  C   UNL A   1      47.210  27.622  30.929  1.00  0.00     0.029 A 
ATOM     65  C   UNL A   1      46.633  26.395  30.595  1.00  0.00     0.049 A 
ATOM     66  H   UNL A   1      46.238  24.875  32.006  1.00  0.00     0.167 HD
ATOM     67  C   UNL A   1      45.395  24.800  29.117  1.00  0.00     0.074 A 
ATOM     68  C   UNL A   1      44.495  24.120  30.047  1.00  0.00     0.031 C 
ATOM     69  C   UNL A   1      46.317  25.793  29.313  1.00  0.00     0.037 A 
BRANCH  56  70
ATOM     70  C   UNL A   1      44.644  25.771  34.583  1.00  0.00     0.057 A 
ATOM     71  C   UNL A   1      45.155  25.966  35.872  1.00  0.00     0.134 A 
ATOM     72  C   UNL A   1      44.135  24.476  34.323  1.00  0.00     0.134 A 
ATOM     73  F   UNL A   1      45.681  27.147  36.229  1.00  0.00    -0.206 F 
ATOM     74  C   UNL A   1      45.208  24.932  36.812  1.00  0.00     0.040 A 
ATOM     75  C   UNL A   1      44.133  23.455  35.271  1.00  0.00     0.040 A 
ATOM     76  F   UNL A   1      43.708  24.091  33.116  1.00  0.00    -0.206 F 
ATOM     77  C   UNL A   1      44.700  23.672  36.513  1.00  0.00     0.006 A 
ENDBRANCH  56  70
BRANCH  57  78
ATOM     78  C   UNL A   1      41.491  23.429  26.738  1.00  0.00     0.057 A 
ATOM     79  C   UNL A   1      41.906  22.300  26.027  1.00  0.00     0.134 A 
ATOM     80  C   UNL A   1      40.144  23.445  27.150  1.00  0.00     0.134 A 
ATOM     81  F   UNL A   1      43.179  22.185  25.623  1.00  0.00    -0.206 F 
ATOM     82  C   UNL A   1      41.040  21.232  25.762  1.00  0.00     0.040 A 
ATOM     83  C   UNL A   1      39.267  22.390  26.885  1.00  0.00     0.040 A 
ATOM     84  F   UNL A   1      39.650  24.445  27.895  1.00  0.00    -0.206 F 
ATOM     85  C   UNL A   1      39.720  21.269  26.201  1.00  0.00     0.006 A 
ENDBRANCH  57  78
BRANCH  69  86
ATOM     86  C   UNL A   1      46.880  26.470  28.083  1.00  0.00     0.057 A 
ATOM     87  C   UNL A   1      46.362  27.654  27.528  1.00  0.00     0.134 A 
ATOM     88  C   UNL A   1      48.064  25.993  27.517  1.00  0.00     0.134 A 
ATOM     89  F   UNL A   1      45.304  28.262  28.069  1.00  0.00    -0.206 F 
ATOM     90  C   UNL A   1      46.951  28.293  26.432  1.00  0.00     0.040 A 
ATOM     91  C   UNL A   1      48.685  26.639  26.441  1.00  0.00     0.040 A 
ATOM     92  F   UNL A   1      48.666  24.909  28.030  1.00  0.00    -0.206 F 
ATOM     93  C   UNL A   1      48.121  27.783  25.884  1.00  0.00     0.006 A 
ENDBRANCH  69  86
ENDBRANCH  43  44
ENDBRANCH  35  38
ENDBRANCH  33  34
ENDBRANCH  32  33
ENDBRANCH  31  32
ENDBRANCH  30  31
ENDBRANCH  29  30
ENDBRANCH   1  29
TORSDOF 19
ENDMDL
MODEL 2
REMARK VINA RESULT:      -8.4      4.545     10.734
REMARK SMILES Cc1nc2nc(CNC(=O)OC(C)(C)C)nn2c(C)c1CCC(=O)NCCCCCCNC(=O)c1ccc(-c2c3nc(c(-c4c(F)cccc4F)c4ccc([nH]4)c(-c4c(F)cccc4F)c4nc(c(-c5c(F)cccc5F)c5ccc2[nH]5)C=C4)C=C3)cc1
REMARK SMILES IDX 26 1 25 2 23 3 24 4 22 6 21 7 20 8 1 9 2 10 3 11 4 12 18 13
REMARK SMILES IDX 5 14 17 15 19 16 6 17 16 18 7 19 8 20 9 21 10 23 11 24 12 25
REMARK SMILES IDX 13 26 14 27 15 28 27 29 28 30 29 31 30 32 31 33 32 34 33 35
REMARK SMILES IDX 34 37 35 38 36 39 88 40 37 41 87 42 38 43 39 44 40 45 81 46
REMARK SMILES IDX 41 47 86 48 80 49 82 50 42 51 85 52 79 53 78 54 43 56 69 57
REMARK SMILES IDX 52 58 68 59 53 60 56 61 67 62 83 63 54 64 55 65 66 67 84 68
REMARK SMILES IDX 57 69 44 70 45 71 50 72 46 73 47 74 49 75 51 76 48 77 70 78
REMARK SMILES IDX 71 79 76 80 72 81 73 82 75 83 77 84 74 85 58 86 59 87 64 88
REMARK SMILES IDX 60 89 61 90 63 91 65 92 62 93
REMARK H PARENT 25 5 8 22 32 36 82 55 56 66
REMARK Flexibility Score: inf
ROOT
ATOM      1  C   UNL A   1      48.321  30.918  29.120  1.00  0.00     0.116 C 
ENDROOT
BRANCH   1   2
ATOM      2  N   UNL A   1      48.868  30.122  28.023  1.00  0.00    -0.356 N 
ATOM      3  C   UNL A   1      49.053  28.774  27.916  1.00  0.00     0.220 C 
ATOM      4  O   UNL A   1      49.741  28.347  26.987  1.00  0.00    -0.275 OA
ATOM      5  H   UNL A   1      49.150  30.641  27.236  1.00  0.00     0.163 HD
BRANCH   3   6
ATOM      6  C   UNL A   1      48.413  27.809  28.904  1.00  0.00     0.105 C 
BRANCH   6   7
ATOM      7  C   UNL A   1      46.931  27.519  28.592  1.00  0.00     0.049 C 
BRANCH   7   8
ATOM      8  C   UNL A   1      46.718  26.798  27.269  1.00  0.00    -0.005 A 
ATOM      9  C   UNL A   1      45.836  29.019  26.147  1.00  0.00     0.067 C 
ATOM     10  C   UNL A   1      45.952  27.492  26.152  1.00  0.00     0.046 A 
ATOM     11  N   UNL A   1      45.397  26.858  25.155  1.00  0.00    -0.216 NA
ATOM     12  C   UNL A   1      45.508  25.488  25.145  1.00  0.00     0.252 A 
ATOM     13  C   UNL A   1      47.060  25.503  27.005  1.00  0.00     0.048 A 
ATOM     14  N   UNL A   1      44.731  24.578  24.578  1.00  0.00    -0.192 NA
ATOM     15  N   UNL A   1      46.442  24.817  25.920  1.00  0.00    -0.201 N 
ATOM     16  C   UNL A   1      47.884  24.658  27.925  1.00  0.00     0.067 C 
ATOM     17  C   UNL A   1      45.332  23.355  24.766  1.00  0.00     0.172 A 
ATOM     18  N   UNL A   1      46.413  23.468  25.581  1.00  0.00    -0.148 NA
BRANCH  17  19
ATOM     19  C   UNL A   1      44.856  21.978  24.090  1.00  0.00     0.199 C 
BRANCH  19  20
ATOM     20  N   UNL A   1      44.293  20.855  24.945  1.00  0.00    -0.314 N 
ATOM     21  C   UNL A   1      43.066  20.574  25.605  1.00  0.00     0.408 C 
ATOM     22  H   UNL A   1      44.950  20.133  25.075  1.00  0.00     0.167 HD
ATOM     23  O   UNL A   1      42.987  19.549  26.241  1.00  0.00    -0.225 OA
BRANCH  21  24
ATOM     24  O   UNL A   1      42.064  21.514  25.587  1.00  0.00    -0.444 OA
BRANCH  24  25
ATOM     25  C   UNL A   1      41.762  22.472  26.698  1.00  0.00     0.106 C 
ATOM     26  C   UNL A   1      42.795  22.384  27.823  1.00  0.00     0.056 C 
ATOM     27  C   UNL A   1      41.606  23.970  26.331  1.00  0.00     0.056 C 
ATOM     28  C   UNL A   1      40.389  22.024  27.257  1.00  0.00     0.056 C 
ENDBRANCH  24  25
ENDBRANCH  21  24
ENDBRANCH  19  20
ENDBRANCH  17  19
ENDBRANCH   7   8
ENDBRANCH   6   7
ENDBRANCH   3   6
ENDBRANCH   1   2
BRANCH   1  29
ATOM     29  C   UNL A   1      47.426  32.015  28.572  1.00  0.00     0.021 C 
BRANCH  29  30
ATOM     30  C   UNL A   1      47.460  32.332  27.080  1.00  0.00     0.002 C 
BRANCH  30  31
ATOM     31  C   UNL A   1      48.560  33.275  26.544  1.00  0.00     0.002 C 
BRANCH  31  32
ATOM     32  C   UNL A   1      48.334  34.769  26.209  1.00  0.00     0.021 C 
BRANCH  32  33
ATOM     33  C   UNL A   1      46.979  35.414  25.830  1.00  0.00     0.116 C 
BRANCH  33  34
ATOM     34  N   UNL A   1      46.464  36.442  26.692  1.00  0.00    -0.352 N 
ATOM     35  C   UNL A   1      45.752  36.244  27.839  1.00  0.00     0.251 C 
ATOM     36  H   UNL A   1      46.643  37.375  26.432  1.00  0.00     0.163 HD
ATOM     37  O   UNL A   1      45.572  37.045  28.748  1.00  0.00    -0.269 OA
BRANCH  35  38
ATOM     38  C   UNL A   1      45.230  34.980  28.228  1.00  0.00     0.039 A 
ATOM     39  C   UNL A   1      44.208  34.470  27.439  1.00  0.00     0.014 A 
ATOM     40  C   UNL A   1      45.279  34.785  29.602  1.00  0.00     0.014 A 
ATOM     41  C   UNL A   1      43.188  33.847  28.096  1.00  0.00     0.010 A 
ATOM     42  C   UNL A   1      44.404  33.985  30.228  1.00  0.00     0.010 A 
ATOM     43  C   UNL A   1      43.311  33.628  29.480  1.00  0.00    -0.014 A 
BRANCH  43  44
ATOM     44  C   UNL A   1      42.381  32.757  30.116  1.00  0.00     0.031 A 
ATOM     45  C   UNL A   1      42.804  31.361  29.891  1.00  0.00     0.074 A 
ATOM     46  C   UNL A   1      41.421  33.224  30.924  1.00  0.00     0.049 A 
ATOM     47  N   UNL A   1      42.188  30.494  29.166  1.00  0.00    -0.248 NA
ATOM     48  C   UNL A   1      44.213  31.010  30.191  1.00  0.00     0.031 C 
ATOM     49  C   UNL A   1      41.153  34.587  31.395  1.00  0.00     0.029 A 
ATOM     50  N   UNL A   1      40.541  32.479  31.618  1.00  0.00    -0.354 N 
ATOM     51  C   UNL A   1      43.040  29.408  29.103  1.00  0.00     0.074 A 
ATOM     52  C   UNL A   1      44.336  29.862  29.527  1.00  0.00     0.031 C 
ATOM     53  C   UNL A   1      40.365  34.527  32.491  1.00  0.00     0.029 A 
ATOM     54  C   UNL A   1      39.945  33.152  32.670  1.00  0.00     0.049 A 
ATOM     55  H   UNL A   1      40.340  31.540  31.398  1.00  0.00     0.167 HD
ATOM     56  C   UNL A   1      42.529  28.160  28.986  1.00  0.00     0.037 A 
ATOM     57  C   UNL A   1      39.277  32.507  33.652  1.00  0.00     0.037 A 
ATOM     58  C   UNL A   1      41.183  28.205  28.460  1.00  0.00     0.049 A 
ATOM     59  C   UNL A   1      38.910  31.163  33.096  1.00  0.00     0.074 A 
ATOM     60  C   UNL A   1      40.652  28.662  27.267  1.00  0.00     0.029 A 
ATOM     61  N   UNL A   1      40.142  28.207  29.362  1.00  0.00    -0.354 N 
ATOM     62  N   UNL A   1      38.091  31.005  32.085  1.00  0.00    -0.248 NA
ATOM     63  C   UNL A   1      39.844  30.062  33.301  1.00  0.00     0.031 C 
ATOM     64  C   UNL A   1      39.448  29.341  27.626  1.00  0.00     0.029 A 
ATOM     65  C   UNL A   1      39.265  29.208  29.005  1.00  0.00     0.049 A 
ATOM     66  H   UNL A   1      40.042  27.599  30.130  1.00  0.00     0.167 HD
ATOM     67  C   UNL A   1      38.660  30.005  31.299  1.00  0.00     0.074 A 
ATOM     68  C   UNL A   1      39.702  29.416  32.138  1.00  0.00     0.031 C 
ATOM     69  C   UNL A   1      38.448  29.950  29.947  1.00  0.00     0.037 A 
BRANCH  56  70
ATOM     70  C   UNL A   1      43.117  26.996  29.726  1.00  0.00     0.057 A 
ATOM     71  C   UNL A   1      43.306  27.093  31.109  1.00  0.00     0.134 A 
ATOM     72  C   UNL A   1      43.743  25.889  29.106  1.00  0.00     0.134 A 
ATOM     73  F   UNL A   1      42.775  28.111  31.804  1.00  0.00    -0.206 F 
ATOM     74  C   UNL A   1      44.107  26.188  31.813  1.00  0.00     0.040 A 
ATOM     75  C   UNL A   1      44.497  24.951  29.806  1.00  0.00     0.040 A 
ATOM     76  F   UNL A   1      43.751  25.705  27.781  1.00  0.00    -0.206 F 
ATOM     77  C   UNL A   1      44.708  25.116  31.163  1.00  0.00     0.006 A 
ENDBRANCH  56  70
BRANCH  57  78
ATOM     78  C   UNL A   1      39.340  32.819  35.093  1.00  0.00     0.057 A 
ATOM     79  C   UNL A   1      38.169  33.070  35.813  1.00  0.00     0.134 A 
ATOM     80  C   UNL A   1      40.512  32.641  35.854  1.00  0.00     0.134 A 
ATOM     81  F   UNL A   1      37.000  33.221  35.172  1.00  0.00    -0.206 F 
ATOM     82  C   UNL A   1      38.154  33.115  37.212  1.00  0.00     0.040 A 
ATOM     83  C   UNL A   1      40.514  32.692  37.250  1.00  0.00     0.040 A 
ATOM     84  F   UNL A   1      41.683  32.330  35.277  1.00  0.00    -0.206 F 
ATOM     85  C   UNL A   1      39.326  32.914  37.935  1.00  0.00     0.006 A 
ENDBRANCH  57  78
BRANCH  69  86
ATOM     86  C   UNL A   1      37.434  30.910  29.364  1.00  0.00     0.057 A 
ATOM     87  C   UNL A   1      37.707  32.255  29.060  1.00  0.00     0.134 A 
ATOM     88  C   UNL A   1      36.183  30.432  28.968  1.00  0.00     0.134 A 
ATOM     89  F   UNL A   1      38.913  32.781  29.285  1.00  0.00    -0.206 F 
ATOM     90  C   UNL A   1      36.767  33.096  28.455  1.00  0.00     0.040 A 
ATOM     91  C   UNL A   1      35.244  31.251  28.331  1.00  0.00     0.040 A 
ATOM     92  F   UNL A   1      35.867  29.141  29.154  1.00  0.00    -0.206 F 
ATOM     93  C   UNL A   1      35.527  32.592  28.087  1.00  0.00     0.006 A 
ENDBRANCH  69  86
ENDBRANCH  43  44
ENDBRANCH  35  38
ENDBRANCH  33  34
ENDBRANCH  32  33
ENDBRANCH  31  32
ENDBRANCH  30  31
ENDBRANCH  29  30
ENDBRANCH   1  29
TORSDOF 19
ENDMDL
MODEL 3
REMARK VINA RESULT:      -8.4      2.784      4.679
REMARK SMILES Cc1nc2nc(CNC(=O)OC(C)(C)C)nn2c(C)c1CCC(=O)NCCCCCCNC(=O)c1ccc(-c2c3nc(c(-c4c(F)cccc4F)c4ccc([nH]4)c(-c4c(F)cccc4F)c4nc(c(-c5c(F)cccc5F)c5ccc2[nH]5)C=C4)C=C3)cc1
REMARK SMILES IDX 26 1 25 2 23 3 24 4 22 6 21 7 20 8 1 9 2 10 3 11 4 12 18 13
REMARK SMILES IDX 5 14 17 15 19 16 6 17 16 18 7 19 8 20 9 21 10 23 11 24 12 25
REMARK SMILES IDX 13 26 14 27 15 28 27 29 28 30 29 31 30 32 31 33 32 34 33 35
REMARK SMILES IDX 34 37 35 38 36 39 88 40 37 41 87 42 38 43 39 44 40 45 81 46
REMARK SMILES IDX 41 47 86 48 80 49 82 50 42 51 85 52 79 53 78 54 43 56 69 57
REMARK SMILES IDX 52 58 68 59 53 60 56 61 67 62 83 63 54 64 55 65 66 67 84 68
REMARK SMILES IDX 57 69 44 70 45 71 50 72 46 73 47 74 49 75 51 76 48 77 70 78
REMARK SMILES IDX 71 79 76 80 72 81 73 82 75 83 77 84 74 85 58 86 59 87 64 88
REMARK SMILES IDX 60 89 61 90 63 91 65 92 62 93
REMARK H PARENT 25 5 8 22 32 36 82 55 56 66
REMARK Flexibility Score: inf
ROOT
ATOM      1  C   UNL A   1      34.447  28.959  26.365  1.00  0.00     0.116 C 
ENDROOT
BRANCH   1   2
ATOM      2  N   UNL A   1      33.059  29.338  26.111  1.00  0.00    -0.356 N 
ATOM      3  C   UNL A   1      32.334  29.316  24.954  1.00  0.00     0.220 C 
ATOM      4  O   UNL A   1      31.246  29.895  24.931  1.00  0.00    -0.275 OA
ATOM      5  H   UNL A   1      32.568  29.660  26.900  1.00  0.00     0.163 HD
BRANCH   3   6
ATOM      6  C   UNL A   1      32.839  28.581  23.722  1.00  0.00     0.105 C 
BRANCH   6   7
ATOM      7  C   UNL A   1      31.714  28.217  22.731  1.00  0.00     0.049 C 
BRANCH   7   8
ATOM      8  C   UNL A   1      31.320  26.748  22.773  1.00  0.00    -0.005 A 
ATOM      9  C   UNL A   1      28.978  27.356  23.827  1.00  0.00     0.067 C 
ATOM     10  C   UNL A   1      30.075  26.327  23.538  1.00  0.00     0.046 A 
ATOM     11  N   UNL A   1      29.858  25.107  23.951  1.00  0.00    -0.216 NA
ATOM     12  C   UNL A   1      30.832  24.174  23.684  1.00  0.00     0.252 A 
ATOM     13  C   UNL A   1      32.055  25.713  22.269  1.00  0.00     0.048 A 
ATOM     14  N   UNL A   1      31.119  23.046  24.313  1.00  0.00    -0.192 NA
ATOM     15  N   UNL A   1      31.817  24.387  22.732  1.00  0.00    -0.201 N 
ATOM     16  C   UNL A   1      33.271  25.897  21.416  1.00  0.00     0.067 C 
ATOM     17  C   UNL A   1      32.107  22.416  23.590  1.00  0.00     0.172 A 
ATOM     18  N   UNL A   1      32.552  23.215  22.585  1.00  0.00    -0.148 NA
BRANCH  17  19
ATOM     19  C   UNL A   1      32.643  20.928  23.861  1.00  0.00     0.199 C 
BRANCH  19  20
ATOM     20  N   UNL A   1      32.201  19.777  22.972  1.00  0.00    -0.314 N 
ATOM     21  C   UNL A   1      32.580  18.421  22.771  1.00  0.00     0.408 C 
ATOM     22  H   UNL A   1      31.457  20.038  22.383  1.00  0.00     0.167 HD
ATOM     23  O   UNL A   1      31.995  17.790  21.922  1.00  0.00    -0.225 OA
BRANCH  21  24
ATOM     24  O   UNL A   1      33.654  17.915  23.462  1.00  0.00    -0.444 OA
BRANCH  24  25
ATOM     25  C   UNL A   1      33.564  17.112  24.724  1.00  0.00     0.106 C 
ATOM     26  C   UNL A   1      32.923  17.908  25.862  1.00  0.00     0.056 C 
ATOM     27  C   UNL A   1      32.841  15.743  24.652  1.00  0.00     0.056 C 
ATOM     28  C   UNL A   1      35.032  16.801  25.110  1.00  0.00     0.056 C 
ENDBRANCH  24  25
ENDBRANCH  21  24
ENDBRANCH  19  20
ENDBRANCH  17  19
ENDBRANCH   7   8
ENDBRANCH   6   7
ENDBRANCH   3   6
ENDBRANCH   1   2
BRANCH   1  29
ATOM     29  C   UNL A   1      34.973  29.693  27.586  1.00  0.00     0.021 C 
BRANCH  29  30
ATOM     30  C   UNL A   1      35.111  31.212  27.543  1.00  0.00     0.002 C 
BRANCH  30  31
ATOM     31  C   UNL A   1      36.075  31.900  28.535  1.00  0.00     0.002 C 
BRANCH  31  32
ATOM     32  C   UNL A   1      35.616  32.818  29.694  1.00  0.00     0.021 C 
BRANCH  32  33
ATOM     33  C   UNL A   1      34.655  32.415  30.839  1.00  0.00     0.116 C 
BRANCH  33  34
ATOM     34  N   UNL A   1      35.196  32.328  32.166  1.00  0.00    -0.352 N 
ATOM     35  C   UNL A   1      36.416  31.817  32.502  1.00  0.00     0.251 C 
ATOM     36  H   UNL A   1      34.637  32.668  32.901  1.00  0.00     0.163 HD
ATOM     37  O   UNL A   1      37.039  32.003  33.541  1.00  0.00    -0.269 OA
BRANCH  35  38
ATOM     38  C   UNL A   1      37.239  31.095  31.594  1.00  0.00     0.039 A 
ATOM     39  C   UNL A   1      37.073  29.717  31.580  1.00  0.00     0.014 A 
ATOM     40  C   UNL A   1      38.475  31.699  31.402  1.00  0.00     0.014 A 
ATOM     41  C   UNL A   1      38.209  28.970  31.468  1.00  0.00     0.010 A 
ATOM     42  C   UNL A   1      39.559  30.985  31.067  1.00  0.00     0.010 A 
ATOM     43  C   UNL A   1      39.427  29.628  31.221  1.00  0.00    -0.014 A 
BRANCH  43  44
ATOM     44  C   UNL A   1      40.558  28.848  30.846  1.00  0.00     0.031 A 
ATOM     45  C   UNL A   1      41.349  28.544  32.054  1.00  0.00     0.074 A 
ATOM     46  C   UNL A   1      40.693  28.358  29.608  1.00  0.00     0.049 A 
ATOM     47  N   UNL A   1      42.521  29.003  32.323  1.00  0.00    -0.248 NA
ATOM     48  C   UNL A   1      40.634  27.986  33.226  1.00  0.00     0.031 C 
ATOM     49  C   UNL A   1      39.779  28.402  28.461  1.00  0.00     0.029 A 
ATOM     50  N   UNL A   1      41.689  27.559  29.179  1.00  0.00    -0.354 N 
ATOM     51  C   UNL A   1      42.776  28.602  33.621  1.00  0.00     0.074 A 
ATOM     52  C   UNL A   1      41.519  28.210  34.196  1.00  0.00     0.031 C 
ATOM     53  C   UNL A   1      40.138  27.447  27.576  1.00  0.00     0.029 A 
ATOM     54  C   UNL A   1      41.390  26.868  28.018  1.00  0.00     0.049 A 
ATOM     55  H   UNL A   1      42.550  27.475  29.648  1.00  0.00     0.167 HD
ATOM     56  C   UNL A   1      44.049  28.353  34.009  1.00  0.00     0.037 A 
ATOM     57  C   UNL A   1      42.120  25.810  27.602  1.00  0.00     0.037 A 
ATOM     58  C   UNL A   1      44.990  29.013  33.133  1.00  0.00     0.049 A 
ATOM     59  C   UNL A   1      43.450  25.922  28.287  1.00  0.00     0.074 A 
ATOM     60  C   UNL A   1      45.219  30.343  32.825  1.00  0.00     0.029 A 
ATOM     61  N   UNL A   1      45.502  28.289  32.080  1.00  0.00    -0.354 N 
ATOM     62  N   UNL A   1      44.285  26.909  28.072  1.00  0.00    -0.248 NA
ATOM     63  C   UNL A   1      43.612  25.256  29.575  1.00  0.00     0.031 C 
ATOM     64  C   UNL A   1      45.439  30.370  31.415  1.00  0.00     0.029 A 
ATOM     65  C   UNL A   1      45.404  29.057  30.941  1.00  0.00     0.049 A 
ATOM     66  H   UNL A   1      45.874  27.378  32.132  1.00  0.00     0.167 HD
ATOM     67  C   UNL A   1      44.793  27.246  29.325  1.00  0.00     0.074 A 
ATOM     68  C   UNL A   1      44.393  26.145  30.200  1.00  0.00     0.031 C 
ATOM     69  C   UNL A   1      45.219  28.516  29.607  1.00  0.00     0.037 A 
BRANCH  56  70
ATOM     70  C   UNL A   1      44.384  27.205  34.913  1.00  0.00     0.057 A 
ATOM     71  C   UNL A   1      44.096  25.901  34.494  1.00  0.00     0.134 A 
ATOM     72  C   UNL A   1      44.738  27.339  36.276  1.00  0.00     0.134 A 
ATOM     73  F   UNL A   1      43.731  25.653  33.228  1.00  0.00    -0.206 F 
ATOM     74  C   UNL A   1      44.102  24.819  35.381  1.00  0.00     0.040 A 
ATOM     75  C   UNL A   1      44.802  26.260  37.155  1.00  0.00     0.040 A 
ATOM     76  F   UNL A   1      44.942  28.523  36.863  1.00  0.00    -0.206 F 
ATOM     77  C   UNL A   1      44.452  24.996  36.716  1.00  0.00     0.006 A 
ENDBRANCH  56  70
BRANCH  57  78
ATOM     78  C   UNL A   1      41.585  24.558  27.030  1.00  0.00     0.057 A 
ATOM     79  C   UNL A   1      42.314  23.854  26.068  1.00  0.00     0.134 A 
ATOM     80  C   UNL A   1      40.473  23.892  27.579  1.00  0.00     0.134 A 
ATOM     81  F   UNL A   1      43.407  24.399  25.514  1.00  0.00    -0.206 F 
ATOM     82  C   UNL A   1      41.976  22.549  25.691  1.00  0.00     0.040 A 
ATOM     83  C   UNL A   1      40.119  22.593  27.206  1.00  0.00     0.040 A 
ATOM     84  F   UNL A   1      39.738  24.442  28.557  1.00  0.00    -0.206 F 
ATOM     85  C   UNL A   1      40.883  21.910  26.268  1.00  0.00     0.006 A 
ENDBRANCH  57  78
BRANCH  69  86
ATOM     86  C   UNL A   1      45.282  29.498  28.457  1.00  0.00     0.057 A 
ATOM     87  C   UNL A   1      44.233  30.363  28.101  1.00  0.00     0.134 A 
ATOM     88  C   UNL A   1      46.484  29.676  27.770  1.00  0.00     0.134 A 
ATOM     89  F   UNL A   1      43.080  30.360  28.775  1.00  0.00    -0.206 F 
ATOM     90  C   UNL A   1      44.350  31.309  27.077  1.00  0.00     0.040 A 
ATOM     91  C   UNL A   1      46.630  30.641  26.766  1.00  0.00     0.040 A 
ATOM     92  F   UNL A   1      47.560  28.943  28.095  1.00  0.00    -0.206 F 
ATOM     93  C   UNL A   1      45.557  31.450  26.405  1.00  0.00     0.006 A 
ENDBRANCH  69  86
ENDBRANCH  43  44
ENDBRANCH  35  38
ENDBRANCH  33  34
ENDBRANCH  32  33
ENDBRANCH  31  32
ENDBRANCH  30  31
ENDBRANCH  29  30
ENDBRANCH   1  29
TORSDOF 19
ENDMDL
