MODEL 1
REMARK VINA RESULT:     -11.3      0.000      0.000
REMARK SMILES C[C@H](CN(Cc1ccccc1)C(=O)c1cc2ccccc2oc1=O)C(=O)NCCCCCCNC(=O)c1ccc(-c2c3nc(c(-c4c(F)cccc4F)c4ccc([nH]4)c(-c4c(F)cccc4F)c4nc(c(-c5c(F)cccc5F)c5ccc2[nH]5)C=C4)C=C3)cc1
REMARK SMILES IDX 29 1 28 2 27 3 25 4 26 5 2 7 1 8 3 9 4 10 5 11 6 12 7 13
REMARK SMILES IDX 11 14 8 15 10 16 9 17 12 18 13 19 14 20 15 21 23 22 16 23
REMARK SMILES IDX 22 24 24 25 17 26 21 27 18 28 20 29 19 30 30 31 31 32 32 33
REMARK SMILES IDX 33 34 34 35 35 36 36 38 37 39 38 40 90 41 39 42 89 43 40 44
REMARK SMILES IDX 41 45 42 46 83 47 43 48 88 49 82 50 84 51 44 52 87 53 81 54
REMARK SMILES IDX 80 55 45 57 71 58 54 59 70 60 55 61 58 62 69 63 85 64 56 65
REMARK SMILES IDX 57 66 68 68 86 69 59 70 46 71 47 72 52 73 48 74 49 75 51 76
REMARK SMILES IDX 53 77 50 78 72 79 73 80 78 81 74 82 75 83 77 84 79 85 76 86
REMARK SMILES IDX 60 87 61 88 66 89 62 90 63 91 65 92 67 93 64 94
REMARK H PARENT 27 6 34 37 84 56 58 67
REMARK Flexibility Score: inf
ROOT
ATOM      1  C   UNL A   1      32.259  28.929  23.117  1.00  0.00     0.021 C 
ENDROOT
BRANCH   1   2
ATOM      2  C   UNL A   1      33.356  27.883  22.893  1.00  0.00     0.116 C 
BRANCH   2   3
ATOM      3  N   UNL A   1      33.160  27.195  21.626  1.00  0.00    -0.356 N 
ATOM      4  C   UNL A   1      33.001  25.874  21.339  1.00  0.00     0.224 C 
ATOM      5  O   UNL A   1      32.994  25.550  20.148  1.00  0.00    -0.275 OA
ATOM      6  H   UNL A   1      33.141  27.787  20.840  1.00  0.00     0.163 HD
BRANCH   4   7
ATOM      7  C   UNL A   1      32.777  24.815  22.416  1.00  0.00     0.095 C 
ATOM      8  C   UNL A   1      31.472  25.090  23.167  1.00  0.00     0.020 C 
BRANCH   7   9
ATOM      9  C   UNL A   1      34.037  24.537  23.265  1.00  0.00     0.133 C 
BRANCH   9  10
ATOM     10  N   UNL A   1      34.536  23.157  23.162  1.00  0.00    -0.333 N 
BRANCH  10  11
ATOM     11  C   UNL A   1      35.957  22.968  22.841  1.00  0.00     0.155 C 
BRANCH  11  12
ATOM     12  C   UNL A   1      36.813  22.761  24.076  1.00  0.00    -0.029 A 
ATOM     13  C   UNL A   1      37.048  23.818  24.966  1.00  0.00     0.005 A 
ATOM     14  C   UNL A   1      37.434  21.527  24.329  1.00  0.00     0.005 A 
ATOM     15  C   UNL A   1      37.883  23.644  26.074  1.00  0.00     0.000 A 
ATOM     16  C   UNL A   1      38.263  21.352  25.438  1.00  0.00     0.000 A 
ATOM     17  C   UNL A   1      38.490  22.413  26.309  1.00  0.00     0.000 A 
ENDBRANCH  11  12
ENDBRANCH  10  11
BRANCH  10  18
ATOM     18  C   UNL A   1      33.653  22.123  23.443  1.00  0.00     0.261 C 
ATOM     19  O   UNL A   1      32.875  21.676  22.601  1.00  0.00    -0.269 OA
BRANCH  18  20
ATOM     20  C   UNL A   1      33.727  21.507  24.810  1.00  0.00     0.126 A 
ATOM     21  C   UNL A   1      33.837  22.351  25.861  1.00  0.00     0.033 A 
ATOM     22  C   UNL A   1      32.671  20.484  25.064  1.00  0.00     0.349 A 
ATOM     23  C   UNL A   1      32.566  23.042  26.168  1.00  0.00     0.018 A 
ATOM     24  O   UNL A   1      31.442  20.998  25.484  1.00  0.00    -0.422 OA
ATOM     25  O   UNL A   1      32.852  19.289  24.860  1.00  0.00    -0.246 OA
ATOM     26  C   UNL A   1      32.506  24.344  26.654  1.00  0.00     0.012 A 
ATOM     27  C   UNL A   1      31.381  22.332  25.939  1.00  0.00     0.138 A 
ATOM     28  C   UNL A   1      31.258  24.925  26.897  1.00  0.00     0.001 A 
ATOM     29  C   UNL A   1      30.135  22.900  26.174  1.00  0.00     0.048 A 
ATOM     30  C   UNL A   1      30.079  24.208  26.655  1.00  0.00     0.004 A 
ENDBRANCH  18  20
ENDBRANCH  10  18
ENDBRANCH   9  10
ENDBRANCH   7   9
ENDBRANCH   4   7
ENDBRANCH   2   3
ENDBRANCH   1   2
BRANCH   1  31
ATOM     31  C   UNL A   1      31.306  28.605  24.272  1.00  0.00     0.002 C 
BRANCH  31  32
ATOM     32  C   UNL A   1      31.626  29.289  25.608  1.00  0.00     0.002 C 
BRANCH  32  33
ATOM     33  C   UNL A   1      32.176  28.386  26.718  1.00  0.00     0.021 C 
BRANCH  33  34
ATOM     34  C   UNL A   1      33.575  28.730  27.232  1.00  0.00     0.116 C 
BRANCH  34  35
ATOM     35  N   UNL A   1      33.643  30.082  27.763  1.00  0.00    -0.352 N 
ATOM     36  C   UNL A   1      34.655  30.736  28.414  1.00  0.00     0.251 C 
ATOM     37  H   UNL A   1      32.826  30.616  27.630  1.00  0.00     0.163 HD
ATOM     38  O   UNL A   1      34.421  31.825  28.940  1.00  0.00    -0.269 OA
BRANCH  36  39
ATOM     39  C   UNL A   1      36.024  30.173  28.509  1.00  0.00     0.039 A 
ATOM     40  C   UNL A   1      36.456  29.693  29.753  1.00  0.00     0.014 A 
ATOM     41  C   UNL A   1      36.923  30.213  27.438  1.00  0.00     0.014 A 
ATOM     42  C   UNL A   1      37.769  29.239  29.920  1.00  0.00     0.010 A 
ATOM     43  C   UNL A   1      38.225  29.727  27.596  1.00  0.00     0.010 A 
ATOM     44  C   UNL A   1      38.664  29.249  28.841  1.00  0.00    -0.014 A 
BRANCH  44  45
ATOM     45  C   UNL A   1      40.074  28.816  29.020  1.00  0.00     0.031 A 
ATOM     46  C   UNL A   1      41.080  29.750  29.633  1.00  0.00     0.074 A 
ATOM     47  C   UNL A   1      40.463  27.592  28.617  1.00  0.00     0.049 A 
ATOM     48  N   UNL A   1      42.369  29.586  29.794  1.00  0.00    -0.248 NA
ATOM     49  C   UNL A   1      40.572  31.044  30.111  1.00  0.00     0.031 C 
ATOM     50  C   UNL A   1      39.597  26.586  28.002  1.00  0.00     0.029 A 
ATOM     51  N   UNL A   1      41.696  26.991  28.664  1.00  0.00    -0.354 N 
ATOM     52  C   UNL A   1      42.832  30.765  30.365  1.00  0.00     0.074 A 
ATOM     53  C   UNL A   1      41.686  31.639  30.517  1.00  0.00     0.031 C 
ATOM     54  C   UNL A   1      40.324  25.487  27.739  1.00  0.00     0.029 A 
ATOM     55  C   UNL A   1      41.708  25.719  28.147  1.00  0.00     0.049 A 
ATOM     56  H   UNL A   1      42.496  27.429  29.033  1.00  0.00     0.167 HD
ATOM     57  C   UNL A   1      44.095  31.093  30.730  1.00  0.00     0.037 A 
ATOM     58  C   UNL A   1      42.718  24.841  28.012  1.00  0.00     0.037 A 
ATOM     59  C   UNL A   1      45.235  30.223  30.621  1.00  0.00     0.049 A 
ATOM     60  C   UNL A   1      44.099  25.206  28.477  1.00  0.00     0.074 A 
ATOM     61  C   UNL A   1      46.550  30.475  30.974  1.00  0.00     0.029 A 
ATOM     62  N   UNL A   1      45.191  28.927  30.139  1.00  0.00    -0.354 N 
ATOM     63  N   UNL A   1      44.521  26.330  29.001  1.00  0.00    -0.248 NA
ATOM     64  C   UNL A   1      45.142  24.180  28.332  1.00  0.00     0.031 C 
ATOM     65  C   UNL A   1      47.304  29.327  30.702  1.00  0.00     0.029 A 
ATOM     66  C   UNL A   1      46.453  28.360  30.193  1.00  0.00     0.049 A 
ATOM     67  H   UNL A   1      44.382  28.474  29.807  1.00  0.00     0.167 HD
ATOM     68  C   UNL A   1      45.872  26.144  29.258  1.00  0.00     0.074 A 
ATOM     69  C   UNL A   1      46.201  24.796  28.842  1.00  0.00     0.031 C 
ATOM     70  C   UNL A   1      46.762  27.016  29.789  1.00  0.00     0.037 A 
BRANCH  57  71
ATOM     71  C   UNL A   1      44.308  32.470  31.277  1.00  0.00     0.057 A 
ATOM     72  C   UNL A   1      44.595  33.553  30.440  1.00  0.00     0.134 A 
ATOM     73  C   UNL A   1      44.201  32.716  32.650  1.00  0.00     0.134 A 
ATOM     74  F   UNL A   1      44.723  33.375  29.116  1.00  0.00    -0.206 F 
ATOM     75  C   UNL A   1      44.781  34.838  30.954  1.00  0.00     0.040 A 
ATOM     76  C   UNL A   1      44.371  33.997  33.174  1.00  0.00     0.040 A 
ATOM     77  F   UNL A   1      43.927  31.715  33.501  1.00  0.00    -0.206 F 
ATOM     78  C   UNL A   1      44.665  35.062  32.325  1.00  0.00     0.006 A 
ENDBRANCH  57  71
BRANCH  58  79
ATOM     79  C   UNL A   1      42.459  23.508  27.423  1.00  0.00     0.057 A 
ATOM     80  C   UNL A   1      42.599  23.294  26.048  1.00  0.00     0.134 A 
ATOM     81  C   UNL A   1      42.062  22.427  28.217  1.00  0.00     0.134 A 
ATOM     82  F   UNL A   1      42.957  24.301  25.240  1.00  0.00    -0.206 F 
ATOM     83  C   UNL A   1      42.344  22.046  25.477  1.00  0.00     0.040 A 
ATOM     84  C   UNL A   1      41.815  21.172  27.661  1.00  0.00     0.040 A 
ATOM     85  F   UNL A   1      41.912  22.578  29.540  1.00  0.00    -0.206 F 
ATOM     86  C   UNL A   1      41.954  20.980  26.287  1.00  0.00     0.006 A 
ENDBRANCH  58  79
BRANCH  70  87
ATOM     87  C   UNL A   1      48.165  26.531  29.969  1.00  0.00     0.057 A 
ATOM     88  C   UNL A   1      48.584  25.934  31.163  1.00  0.00     0.134 A 
ATOM     89  C   UNL A   1      49.096  26.636  28.929  1.00  0.00     0.134 A 
ATOM     90  F   UNL A   1      47.739  25.816  32.198  1.00  0.00    -0.206 F 
ATOM     91  C   UNL A   1      49.888  25.463  31.321  1.00  0.00     0.040 A 
ATOM     92  C   UNL A   1      50.401  26.162  29.071  1.00  0.00     0.040 A 
ATOM     93  F   UNL A   1      48.753  27.202  27.762  1.00  0.00    -0.206 F 
ATOM     94  C   UNL A   1      50.800  25.575  30.271  1.00  0.00     0.006 A 
ENDBRANCH  70  87
ENDBRANCH  44  45
ENDBRANCH  36  39
ENDBRANCH  34  35
ENDBRANCH  33  34
ENDBRANCH  32  33
ENDBRANCH  31  32
ENDBRANCH   1  31
TORSDOF 19
ENDMDL
MODEL 2
REMARK VINA RESULT:     -11.3      4.613      7.126
REMARK SMILES C[C@H](CN(Cc1ccccc1)C(=O)c1cc2ccccc2oc1=O)C(=O)NCCCCCCNC(=O)c1ccc(-c2c3nc(c(-c4c(F)cccc4F)c4ccc([nH]4)c(-c4c(F)cccc4F)c4nc(c(-c5c(F)cccc5F)c5ccc2[nH]5)C=C4)C=C3)cc1
REMARK SMILES IDX 29 1 28 2 27 3 25 4 26 5 2 7 1 8 3 9 4 10 5 11 6 12 7 13
REMARK SMILES IDX 11 14 8 15 10 16 9 17 12 18 13 19 14 20 15 21 23 22 16 23
REMARK SMILES IDX 22 24 24 25 17 26 21 27 18 28 20 29 19 30 30 31 31 32 32 33
REMARK SMILES IDX 33 34 34 35 35 36 36 38 37 39 38 40 90 41 39 42 89 43 40 44
REMARK SMILES IDX 41 45 42 46 83 47 43 48 88 49 82 50 84 51 44 52 87 53 81 54
REMARK SMILES IDX 80 55 45 57 71 58 54 59 70 60 55 61 58 62 69 63 85 64 56 65
REMARK SMILES IDX 57 66 68 68 86 69 59 70 46 71 47 72 52 73 48 74 49 75 51 76
REMARK SMILES IDX 53 77 50 78 72 79 73 80 78 81 74 82 75 83 77 84 79 85 76 86
REMARK SMILES IDX 60 87 61 88 66 89 62 90 63 91 65 92 67 93 64 94
REMARK H PARENT 27 6 34 37 84 56 58 67
REMARK Flexibility Score: inf
ROOT
ATOM      1  C   UNL A   1      34.918  31.667  27.999  1.00  0.00     0.021 C 
ENDROOT
BRANCH   1   2
ATOM      2  C   UNL A   1      33.965  30.530  27.618  1.00  0.00     0.116 C 
BRANCH   2   3
ATOM      3  N   UNL A   1      32.788  31.049  26.938  1.00  0.00    -0.356 N 
ATOM      4  C   UNL A   1      31.864  30.435  26.151  1.00  0.00     0.224 C 
ATOM      5  O   UNL A   1      31.036  31.154  25.584  1.00  0.00    -0.275 OA
ATOM      6  H   UNL A   1      32.635  32.012  27.071  1.00  0.00     0.163 HD
BRANCH   4   7
ATOM      7  C   UNL A   1      31.784  28.917  25.999  1.00  0.00     0.095 C 
ATOM      8  C   UNL A   1      31.715  28.250  27.374  1.00  0.00     0.020 C 
BRANCH   7   9
ATOM      9  C   UNL A   1      32.809  28.355  24.990  1.00  0.00     0.133 C 
BRANCH   9  10
ATOM     10  N   UNL A   1      32.388  27.100  24.346  1.00  0.00    -0.333 N 
BRANCH  10  11
ATOM     11  C   UNL A   1      31.843  27.183  22.984  1.00  0.00     0.155 C 
BRANCH  11  12
ATOM     12  C   UNL A   1      30.480  27.845  22.938  1.00  0.00    -0.029 A 
ATOM     13  C   UNL A   1      30.326  29.125  22.387  1.00  0.00     0.005 A 
ATOM     14  C   UNL A   1      29.351  27.221  23.495  1.00  0.00     0.005 A 
ATOM     15  C   UNL A   1      29.080  29.760  22.396  1.00  0.00     0.000 A 
ATOM     16  C   UNL A   1      28.107  27.852  23.499  1.00  0.00     0.000 A 
ATOM     17  C   UNL A   1      27.972  29.124  22.952  1.00  0.00     0.000 A 
ENDBRANCH  11  12
ENDBRANCH  10  11
BRANCH  10  18
ATOM     18  C   UNL A   1      32.596  25.913  25.035  1.00  0.00     0.261 C 
ATOM     19  O   UNL A   1      33.611  25.707  25.698  1.00  0.00    -0.269 OA
BRANCH  18  20
ATOM     20  C   UNL A   1      31.491  24.896  25.003  1.00  0.00     0.126 A 
ATOM     21  C   UNL A   1      31.799  23.667  24.530  1.00  0.00     0.033 A 
ATOM     22  C   UNL A   1      30.736  24.793  26.285  1.00  0.00     0.349 A 
ATOM     23  C   UNL A   1      32.594  22.873  25.491  1.00  0.00     0.018 A 
ATOM     24  O   UNL A   1      31.318  23.966  27.248  1.00  0.00    -0.422 OA
ATOM     25  O   UNL A   1      29.712  25.434  26.498  1.00  0.00    -0.246 OA
ATOM     26  C   UNL A   1      33.571  21.963  25.101  1.00  0.00     0.012 A 
ATOM     27  C   UNL A   1      32.337  23.073  26.852  1.00  0.00     0.138 A 
ATOM     28  C   UNL A   1      34.288  21.269  26.080  1.00  0.00     0.001 A 
ATOM     29  C   UNL A   1      33.044  22.392  27.835  1.00  0.00     0.048 A 
ATOM     30  C   UNL A   1      34.028  21.486  27.441  1.00  0.00     0.004 A 
ENDBRANCH  18  20
ENDBRANCH  10  18
ENDBRANCH   9  10
ENDBRANCH   7   9
ENDBRANCH   4   7
ENDBRANCH   2   3
ENDBRANCH   1   2
BRANCH   1  31
ATOM     31  C   UNL A   1      34.419  32.548  29.149  1.00  0.00     0.002 C 
BRANCH  31  32
ATOM     32  C   UNL A   1      34.577  34.060  28.943  1.00  0.00     0.002 C 
BRANCH  32  33
ATOM     33  C   UNL A   1      33.282  34.880  28.920  1.00  0.00     0.021 C 
BRANCH  33  34
ATOM     34  C   UNL A   1      33.359  36.276  29.541  1.00  0.00     0.116 C 
BRANCH  34  35
ATOM     35  N   UNL A   1      32.451  36.423  30.666  1.00  0.00    -0.352 N 
ATOM     36  C   UNL A   1      32.478  35.861  31.915  1.00  0.00     0.251 C 
ATOM     37  H   UNL A   1      31.691  37.028  30.503  1.00  0.00     0.163 HD
ATOM     38  O   UNL A   1      31.496  35.986  32.648  1.00  0.00    -0.269 OA
BRANCH  36  39
ATOM     39  C   UNL A   1      33.652  35.104  32.414  1.00  0.00     0.039 A 
ATOM     40  C   UNL A   1      34.912  35.711  32.334  1.00  0.00     0.014 A 
ATOM     41  C   UNL A   1      33.555  33.778  32.847  1.00  0.00     0.014 A 
ATOM     42  C   UNL A   1      36.063  35.007  32.703  1.00  0.00     0.010 A 
ATOM     43  C   UNL A   1      34.701  33.084  33.249  1.00  0.00     0.010 A 
ATOM     44  C   UNL A   1      35.967  33.687  33.167  1.00  0.00    -0.014 A 
BRANCH  44  45
ATOM     45  C   UNL A   1      37.186  32.913  33.514  1.00  0.00     0.031 A 
ATOM     46  C   UNL A   1      37.893  33.159  34.818  1.00  0.00     0.074 A 
ATOM     47  C   UNL A   1      37.677  32.001  32.655  1.00  0.00     0.049 A 
ATOM     48  N   UNL A   1      39.013  32.645  35.261  1.00  0.00    -0.248 NA
ATOM     49  C   UNL A   1      37.265  34.119  35.737  1.00  0.00     0.031 C 
ATOM     50  C   UNL A   1      37.099  31.663  31.353  1.00  0.00     0.029 A 
ATOM     51  N   UNL A   1      38.782  31.192  32.751  1.00  0.00    -0.354 N 
ATOM     52  C   UNL A   1      39.241  33.241  36.495  1.00  0.00     0.074 A 
ATOM     53  C   UNL A   1      38.144  34.159  36.729  1.00  0.00     0.031 C 
ATOM     54  C   UNL A   1      37.849  30.709  30.776  1.00  0.00     0.029 A 
ATOM     55  C   UNL A   1      38.968  30.383  31.657  1.00  0.00     0.049 A 
ATOM     56  H   UNL A   1      39.384  31.191  33.530  1.00  0.00     0.167 HD
ATOM     57  C   UNL A   1      40.268  33.045  37.356  1.00  0.00     0.037 A 
ATOM     58  C   UNL A   1      39.934  29.483  31.392  1.00  0.00     0.037 A 
ATOM     59  C   UNL A   1      41.342  32.110  37.156  1.00  0.00     0.049 A 
ATOM     60  C   UNL A   1      41.031  29.241  32.388  1.00  0.00     0.074 A 
ATOM     61  C   UNL A   1      42.421  31.843  37.983  1.00  0.00     0.029 A 
ATOM     62  N   UNL A   1      41.463  31.275  36.059  1.00  0.00    -0.354 N 
ATOM     63  N   UNL A   1      41.238  29.824  33.543  1.00  0.00    -0.248 NA
ATOM     64  C   UNL A   1      42.027  28.216  32.044  1.00  0.00     0.031 C 
ATOM     65  C   UNL A   1      43.198  30.845  37.382  1.00  0.00     0.029 A 
ATOM     66  C   UNL A   1      42.593  30.485  36.189  1.00  0.00     0.049 A 
ATOM     67  H   UNL A   1      40.839  31.247  35.298  1.00  0.00     0.167 HD
ATOM     68  C   UNL A   1      42.377  29.230  34.067  1.00  0.00     0.074 A 
ATOM     69  C   UNL A   1      42.815  28.235  33.110  1.00  0.00     0.031 C 
ATOM     70  C   UNL A   1      43.008  29.491  35.238  1.00  0.00     0.037 A 
BRANCH  57  71
ATOM     71  C   UNL A   1      40.278  33.875  38.602  1.00  0.00     0.057 A 
ATOM     72  C   UNL A   1      40.983  35.081  38.670  1.00  0.00     0.134 A 
ATOM     73  C   UNL A   1      39.557  33.474  39.732  1.00  0.00     0.134 A 
ATOM     74  F   UNL A   1      41.704  35.509  37.622  1.00  0.00    -0.206 F 
ATOM     75  C   UNL A   1      40.980  35.858  39.831  1.00  0.00     0.040 A 
ATOM     76  C   UNL A   1      39.535  34.248  40.892  1.00  0.00     0.040 A 
ATOM     77  F   UNL A   1      38.861  32.327  39.724  1.00  0.00    -0.206 F 
ATOM     78  C   UNL A   1      40.251  35.443  40.944  1.00  0.00     0.006 A 
ENDBRANCH  57  71
BRANCH  58  79
ATOM     79  C   UNL A   1      39.898  28.722  30.123  1.00  0.00     0.057 A 
ATOM     80  C   UNL A   1      40.566  29.190  28.987  1.00  0.00     0.134 A 
ATOM     81  C   UNL A   1      39.194  27.518  30.018  1.00  0.00     0.134 A 
ATOM     82  F   UNL A   1      41.239  30.349  29.029  1.00  0.00    -0.206 F 
ATOM     83  C   UNL A   1      40.529  28.489  27.781  1.00  0.00     0.040 A 
ATOM     84  C   UNL A   1      39.158  26.801  28.822  1.00  0.00     0.040 A 
ATOM     85  F   UNL A   1      38.535  27.025  31.076  1.00  0.00    -0.206 F 
ATOM     86  C   UNL A   1      39.825  27.288  27.699  1.00  0.00     0.006 A 
ENDBRANCH  58  79
BRANCH  70  87
ATOM     87  C   UNL A   1      44.220  28.675  35.555  1.00  0.00     0.057 A 
ATOM     88  C   UNL A   1      45.497  29.075  35.146  1.00  0.00     0.134 A 
ATOM     89  C   UNL A   1      44.112  27.496  36.302  1.00  0.00     0.134 A 
ATOM     90  F   UNL A   1      45.660  30.190  34.419  1.00  0.00    -0.206 F 
ATOM     91  C   UNL A   1      46.629  28.322  35.461  1.00  0.00     0.040 A 
ATOM     92  C   UNL A   1      45.237  26.739  36.631  1.00  0.00     0.040 A 
ATOM     93  F   UNL A   1      42.913  27.062  36.720  1.00  0.00    -0.206 F 
ATOM     94  C   UNL A   1      46.500  27.151  36.209  1.00  0.00     0.006 A 
ENDBRANCH  70  87
ENDBRANCH  44  45
ENDBRANCH  36  39
ENDBRANCH  34  35
ENDBRANCH  33  34
ENDBRANCH  32  33
ENDBRANCH  31  32
ENDBRANCH   1  31
TORSDOF 19
ENDMDL
MODEL 3
REMARK VINA RESULT:     -11.0      1.865      2.542
REMARK SMILES C[C@H](CN(Cc1ccccc1)C(=O)c1cc2ccccc2oc1=O)C(=O)NCCCCCCNC(=O)c1ccc(-c2c3nc(c(-c4c(F)cccc4F)c4ccc([nH]4)c(-c4c(F)cccc4F)c4nc(c(-c5c(F)cccc5F)c5ccc2[nH]5)C=C4)C=C3)cc1
REMARK SMILES IDX 29 1 28 2 27 3 25 4 26 5 2 7 1 8 3 9 4 10 5 11 6 12 7 13
REMARK SMILES IDX 11 14 8 15 10 16 9 17 12 18 13 19 14 20 15 21 23 22 16 23
REMARK SMILES IDX 22 24 24 25 17 26 21 27 18 28 20 29 19 30 30 31 31 32 32 33
REMARK SMILES IDX 33 34 34 35 35 36 36 38 37 39 38 40 90 41 39 42 89 43 40 44
REMARK SMILES IDX 41 45 42 46 83 47 43 48 88 49 82 50 84 51 44 52 87 53 81 54
REMARK SMILES IDX 80 55 45 57 71 58 54 59 70 60 55 61 58 62 69 63 85 64 56 65
REMARK SMILES IDX 57 66 68 68 86 69 59 70 46 71 47 72 52 73 48 74 49 75 51 76
REMARK SMILES IDX 53 77 50 78 72 79 73 80 78 81 74 82 75 83 77 84 79 85 76 86
REMARK SMILES IDX 60 87 61 88 66 89 62 90 63 91 65 92 67 93 64 94
REMARK H PARENT 27 6 34 37 84 56 58 67
REMARK Flexibility Score: inf
ROOT
ATOM      1  C   UNL A   1      32.248  28.733  23.141  1.00  0.00     0.021 C 
ENDROOT
BRANCH   1   2
ATOM      2  C   UNL A   1      33.394  27.763  22.836  1.00  0.00     0.116 C 
BRANCH   2   3
ATOM      3  N   UNL A   1      33.184  27.102  21.557  1.00  0.00    -0.356 N 
ATOM      4  C   UNL A   1      33.022  25.788  21.243  1.00  0.00     0.224 C 
ATOM      5  O   UNL A   1      33.001  25.491  20.045  1.00  0.00    -0.275 OA
ATOM      6  H   UNL A   1      33.153  27.712  20.784  1.00  0.00     0.163 HD
BRANCH   4   7
ATOM      7  C   UNL A   1      32.814  24.705  22.300  1.00  0.00     0.095 C 
ATOM      8  C   UNL A   1      31.467  24.900  23.000  1.00  0.00     0.020 C 
BRANCH   7   9
ATOM      9  C   UNL A   1      34.053  24.486  23.195  1.00  0.00     0.133 C 
BRANCH   9  10
ATOM     10  N   UNL A   1      34.553  23.102  23.197  1.00  0.00    -0.333 N 
BRANCH  10  11
ATOM     11  C   UNL A   1      35.974  22.891  22.883  1.00  0.00     0.155 C 
BRANCH  11  12
ATOM     12  C   UNL A   1      36.836  22.776  24.125  1.00  0.00    -0.029 A 
ATOM     13  C   UNL A   1      37.041  23.886  24.957  1.00  0.00     0.005 A 
ATOM     14  C   UNL A   1      37.493  21.576  24.443  1.00  0.00     0.005 A 
ATOM     15  C   UNL A   1      37.881  23.796  26.071  1.00  0.00     0.000 A 
ATOM     16  C   UNL A   1      38.327  21.485  25.558  1.00  0.00     0.000 A 
ATOM     17  C   UNL A   1      38.524  22.597  26.370  1.00  0.00     0.000 A 
ENDBRANCH  11  12
ENDBRANCH  10  11
BRANCH  10  18
ATOM     18  C   UNL A   1      33.674  22.092  23.562  1.00  0.00     0.261 C 
ATOM     19  O   UNL A   1      32.909  21.564  22.756  1.00  0.00    -0.269 OA
BRANCH  18  20
ATOM     20  C   UNL A   1      33.736  21.605  24.981  1.00  0.00     0.126 A 
ATOM     21  C   UNL A   1      33.821  22.543  25.951  1.00  0.00     0.033 A 
ATOM     22  C   UNL A   1      32.690  20.595  25.313  1.00  0.00     0.349 A 
ATOM     23  C   UNL A   1      32.537  23.242  26.176  1.00  0.00     0.018 A 
ATOM     24  O   UNL A   1      31.448  21.128  25.668  1.00  0.00    -0.422 OA
ATOM     25  O   UNL A   1      32.888  19.389  25.223  1.00  0.00    -0.246 OA
ATOM     26  C   UNL A   1      32.454  24.582  26.540  1.00  0.00     0.012 A 
ATOM     27  C   UNL A   1      31.365  22.498  25.998  1.00  0.00     0.138 A 
ATOM     28  C   UNL A   1      31.196  25.166  26.713  1.00  0.00     0.001 A 
ATOM     29  C   UNL A   1      30.109  23.067  26.164  1.00  0.00     0.048 A 
ATOM     30  C   UNL A   1      30.029  24.413  26.522  1.00  0.00     0.004 A 
ENDBRANCH  18  20
ENDBRANCH  10  18
ENDBRANCH   9  10
ENDBRANCH   7   9
ENDBRANCH   4   7
ENDBRANCH   2   3
ENDBRANCH   1   2
BRANCH   1  31
ATOM     31  C   UNL A   1      31.347  28.298  24.301  1.00  0.00     0.002 C 
BRANCH  31  32
ATOM     32  C   UNL A   1      31.661  28.936  25.660  1.00  0.00     0.002 C 
BRANCH  32  33
ATOM     33  C   UNL A   1      32.835  28.331  26.440  1.00  0.00     0.021 C 
BRANCH  33  34
ATOM     34  C   UNL A   1      34.145  29.119  26.400  1.00  0.00     0.116 C 
BRANCH  34  35
ATOM     35  N   UNL A   1      33.977  30.479  26.886  1.00  0.00    -0.352 N 
ATOM     36  C   UNL A   1      34.651  31.169  27.859  1.00  0.00     0.251 C 
ATOM     37  H   UNL A   1      33.262  30.988  26.440  1.00  0.00     0.163 HD
ATOM     38  O   UNL A   1      34.212  32.258  28.232  1.00  0.00    -0.269 OA
BRANCH  36  39
ATOM     39  C   UNL A   1      35.892  30.645  28.482  1.00  0.00     0.039 A 
ATOM     40  C   UNL A   1      37.121  31.059  27.952  1.00  0.00     0.014 A 
ATOM     41  C   UNL A   1      35.869  29.677  29.491  1.00  0.00     0.014 A 
ATOM     42  C   UNL A   1      38.318  30.524  28.440  1.00  0.00     0.010 A 
ATOM     43  C   UNL A   1      37.067  29.167  30.003  1.00  0.00     0.010 A 
ATOM     44  C   UNL A   1      38.302  29.576  29.473  1.00  0.00    -0.014 A 
BRANCH  44  45
ATOM     45  C   UNL A   1      39.563  28.965  29.964  1.00  0.00     0.031 A 
ATOM     46  C   UNL A   1      40.235  29.504  31.196  1.00  0.00     0.074 A 
ATOM     47  C   UNL A   1      40.122  27.937  29.298  1.00  0.00     0.049 A 
ATOM     48  N   UNL A   1      41.380  29.161  31.730  1.00  0.00    -0.248 NA
ATOM     49  C   UNL A   1      39.535  30.581  31.910  1.00  0.00     0.031 C 
ATOM     50  C   UNL A   1      39.584  27.317  28.087  1.00  0.00     0.029 A 
ATOM     51  N   UNL A   1      41.275  27.236  29.550  1.00  0.00    -0.354 N 
ATOM     52  C   UNL A   1      41.554  29.998  32.824  1.00  0.00     0.074 A 
ATOM     53  C   UNL A   1      40.397  30.870  32.876  1.00  0.00     0.031 C 
ATOM     54  C   UNL A   1      40.401  26.320  27.707  1.00  0.00     0.029 A 
ATOM     55  C   UNL A   1      41.527  26.244  28.635  1.00  0.00     0.049 A 
ATOM     56  H   UNL A   1      41.866  27.425  30.314  1.00  0.00     0.167 HD
ATOM     57  C   UNL A   1      42.579  30.040  33.709  1.00  0.00     0.037 A 
ATOM     58  C   UNL A   1      42.551  25.375  28.549  1.00  0.00     0.037 A 
ATOM     59  C   UNL A   1      43.714  29.156  33.694  1.00  0.00     0.049 A 
ATOM     60  C   UNL A   1      43.648  25.403  29.574  1.00  0.00     0.074 A 
ATOM     61  C   UNL A   1      44.796  29.125  34.557  1.00  0.00     0.029 A 
ATOM     62  N   UNL A   1      43.902  28.134  32.780  1.00  0.00    -0.354 N 
ATOM     63  N   UNL A   1      43.804  26.211  30.594  1.00  0.00    -0.248 NA
ATOM     64  C   UNL A   1      44.713  24.398  29.436  1.00  0.00     0.031 C 
ATOM     65  C   UNL A   1      45.643  28.083  34.162  1.00  0.00     0.029 A 
ATOM     66  C   UNL A   1      45.078  27.460  33.062  1.00  0.00     0.049 A 
ATOM     67  H   UNL A   1      43.291  27.919  32.039  1.00  0.00     0.167 HD
ATOM     68  C   UNL A   1      44.971  25.806  31.224  1.00  0.00     0.074 A 
ATOM     69  C   UNL A   1      45.484  24.675  30.479  1.00  0.00     0.031 C 
ATOM     70  C   UNL A   1      45.568  26.329  32.322  1.00  0.00     0.037 A 
BRANCH  57  71
ATOM     71  C   UNL A   1      42.521  31.094  34.769  1.00  0.00     0.057 A 
ATOM     72  C   UNL A   1      41.944  30.844  36.018  1.00  0.00     0.134 A 
ATOM     73  C   UNL A   1      43.069  32.362  34.544  1.00  0.00     0.134 A 
ATOM     74  F   UNL A   1      41.391  29.651  36.286  1.00  0.00    -0.206 F 
ATOM     75  C   UNL A   1      41.904  31.828  37.009  1.00  0.00     0.040 A 
ATOM     76  C   UNL A   1      43.046  33.348  35.530  1.00  0.00     0.040 A 
ATOM     77  F   UNL A   1      43.636  32.659  33.365  1.00  0.00    -0.206 F 
ATOM     78  C   UNL A   1      42.459  33.083  36.766  1.00  0.00     0.006 A 
ENDBRANCH  57  71
BRANCH  58  79
ATOM     79  C   UNL A   1      42.581  24.381  27.453  1.00  0.00     0.057 A 
ATOM     80  C   UNL A   1      43.139  24.701  26.211  1.00  0.00     0.134 A 
ATOM     81  C   UNL A   1      42.049  23.099  27.620  1.00  0.00     0.134 A 
ATOM     82  F   UNL A   1      43.645  25.923  25.992  1.00  0.00    -0.206 F 
ATOM     83  C   UNL A   1      43.161  23.778  25.165  1.00  0.00     0.040 A 
ATOM     84  C   UNL A   1      42.074  22.163  26.586  1.00  0.00     0.040 A 
ATOM     85  F   UNL A   1      41.501  22.741  28.790  1.00  0.00    -0.206 F 
ATOM     86  C   UNL A   1      42.630  22.503  25.354  1.00  0.00     0.006 A 
ENDBRANCH  58  79
BRANCH  70  87
ATOM     87  C   UNL A   1      46.826  25.671  32.792  1.00  0.00     0.057 A 
ATOM     88  C   UNL A   1      48.075  26.031  32.275  1.00  0.00     0.134 A 
ATOM     89  C   UNL A   1      46.789  24.691  33.791  1.00  0.00     0.134 A 
ATOM     90  F   UNL A   1      48.171  26.955  31.309  1.00  0.00    -0.206 F 
ATOM     91  C   UNL A   1      49.250  25.430  32.731  1.00  0.00     0.040 A 
ATOM     92  C   UNL A   1      47.956  24.088  34.261  1.00  0.00     0.040 A 
ATOM     93  F   UNL A   1      45.619  24.304  34.322  1.00  0.00    -0.206 F 
ATOM     94  C   UNL A   1      49.192  24.457  33.730  1.00  0.00     0.006 A 
ENDBRANCH  70  87
ENDBRANCH  44  45
ENDBRANCH  36  39
ENDBRANCH  34  35
ENDBRANCH  33  34
ENDBRANCH  32  33
ENDBRANCH  31  32
ENDBRANCH   1  31
TORSDOF 19
ENDMDL
