MODEL 1
REMARK VINA RESULT:     -13.5      0.000      0.000
REMARK SMILES Cc1ccc([C@@H]2[C@H](C(=O)NCCCCCCNC(=O)c3ccc(-c4c5nc(c(-c6c(F)cccc6F)c6ccc([nH]6)c(-c6c(F)cccc6F)c6nc(c(-c7c(F)cccc7F)c7ccc4[nH]7)C=C6)C=C5)cc3)c3ccccc3C(=O)N2c2ccccc2)cc1
REMARK SMILES IDX 14 1 13 2 12 3 11 4 10 5 8 6 9 7 7 9 6 10 82 11 74 12 80 13
REMARK SMILES IDX 75 14 79 15 81 16 76 17 78 18 77 19 5 20 1 21 2 22 3 23
REMARK SMILES IDX 90 24 4 25 89 26 83 27 84 28 88 29 85 30 87 31 86 32 15 33
REMARK SMILES IDX 16 34 17 35 18 36 19 38 20 39 21 40 73 41 22 42 72 43 23 44
REMARK SMILES IDX 24 45 25 46 66 47 26 48 71 49 65 50 67 51 27 52 70 53 64 54
REMARK SMILES IDX 63 55 28 57 54 58 37 59 53 60 38 61 41 62 52 63 68 64 39 65
REMARK SMILES IDX 40 66 51 68 69 69 42 70 29 71 30 72 35 73 31 74 32 75 34 76
REMARK SMILES IDX 36 77 33 78 55 79 56 80 61 81 57 82 58 83 60 84 62 85 59 86
REMARK SMILES IDX 43 87 44 88 49 89 45 90 46 91 48 92 50 93 47 94
REMARK H PARENT 10 8 17 37 67 56 41 67
REMARK Flexibility Score: inf
ROOT
ATOM      1  C   UNL A   1      33.596  28.040  24.901  1.00  0.00     0.002 C 
ENDROOT
BRANCH   1   2
ATOM      2  C   UNL A   1      33.523  26.697  24.152  1.00  0.00     0.002 C 
BRANCH   2   3
ATOM      3  C   UNL A   1      33.521  26.763  22.619  1.00  0.00     0.021 C 
BRANCH   3   4
ATOM      4  C   UNL A   1      33.352  25.418  21.912  1.00  0.00     0.116 C 
BRANCH   4   5
ATOM      5  N   UNL A   1      33.470  24.319  22.843  1.00  0.00    -0.355 N 
ATOM      6  C   UNL A   1      32.823  23.129  22.597  1.00  0.00     0.230 C 
ATOM      7  O   UNL A   1      33.059  22.485  21.577  1.00  0.00    -0.274 OA
ATOM      8  H   UNL A   1      34.016  24.422  23.655  1.00  0.00     0.163 HD
BRANCH   6   9
ATOM      9  C   UNL A   1      31.783  22.679  23.630  1.00  0.00     0.137 C 
ATOM     10  C   UNL A   1      32.323  21.624  24.638  1.00  0.00     0.138 C 
ATOM     11  N   UNL A   1      33.047  22.313  25.719  1.00  0.00    -0.300 N 
ATOM     12  C   UNL A   1      31.108  23.825  24.401  1.00  0.00    -0.020 A 
ATOM     13  C   UNL A   1      32.143  22.995  26.558  1.00  0.00     0.259 C 
ATOM     14  C   UNL A   1      30.348  24.792  23.723  1.00  0.00     0.005 A 
ATOM     15  C   UNL A   1      31.241  23.929  25.802  1.00  0.00     0.044 A 
ATOM     16  O   UNL A   1      32.152  22.958  27.781  1.00  0.00    -0.269 OA
ATOM     17  C   UNL A   1      29.781  25.860  24.419  1.00  0.00     0.000 A 
ATOM     18  C   UNL A   1      30.632  24.977  26.500  1.00  0.00     0.014 A 
ATOM     19  C   UNL A   1      29.917  25.950  25.804  1.00  0.00     0.001 A 
BRANCH  10  20
ATOM     20  C   UNL A   1      32.752  20.259  24.111  1.00  0.00    -0.024 A 
ATOM     21  C   UNL A   1      33.911  16.203  23.127  1.00  0.00     0.044 C 
ATOM     22  C   UNL A   1      33.586  17.645  23.373  1.00  0.00    -0.051 A 
ATOM     23  C   UNL A   1      32.526  18.275  22.714  1.00  0.00     0.004 A 
ATOM     24  C   UNL A   1      34.301  18.368  24.327  1.00  0.00     0.004 A 
ATOM     25  C   UNL A   1      32.153  19.586  23.042  1.00  0.00     0.006 A 
ATOM     26  C   UNL A   1      33.887  19.651  24.689  1.00  0.00     0.006 A 
ENDBRANCH  10  20
BRANCH  11  27
ATOM     27  C   UNL A   1      34.350  22.929  25.557  1.00  0.00     0.045 A 
ATOM     28  C   UNL A   1      35.375  22.224  24.889  1.00  0.00     0.026 A 
ATOM     29  C   UNL A   1      34.711  24.150  26.140  1.00  0.00     0.026 A 
ATOM     30  C   UNL A   1      36.699  22.673  24.875  1.00  0.00     0.002 A 
ATOM     31  C   UNL A   1      36.029  24.626  26.087  1.00  0.00     0.002 A 
ATOM     32  C   UNL A   1      37.026  23.877  25.477  1.00  0.00     0.000 A 
ENDBRANCH  11  27
ENDBRANCH   6   9
ENDBRANCH   4   5
ENDBRANCH   3   4
ENDBRANCH   2   3
ENDBRANCH   1   2
BRANCH   1  33
ATOM     33  C   UNL A   1      34.002  27.974  26.375  1.00  0.00     0.021 C 
BRANCH  33  34
ATOM     34  C   UNL A   1      34.809  29.173  26.864  1.00  0.00     0.116 C 
BRANCH  34  35
ATOM     35  N   UNL A   1      34.055  30.410  26.896  1.00  0.00    -0.352 N 
ATOM     36  C   UNL A   1      34.159  31.518  27.741  1.00  0.00     0.251 C 
ATOM     37  H   UNL A   1      33.354  30.482  26.209  1.00  0.00     0.163 HD
ATOM     38  O   UNL A   1      33.355  32.425  27.629  1.00  0.00    -0.269 OA
BRANCH  36  39
ATOM     39  C   UNL A   1      35.323  31.661  28.651  1.00  0.00     0.039 A 
ATOM     40  C   UNL A   1      36.355  32.521  28.243  1.00  0.00     0.014 A 
ATOM     41  C   UNL A   1      35.515  30.840  29.755  1.00  0.00     0.014 A 
ATOM     42  C   UNL A   1      37.640  32.348  28.752  1.00  0.00     0.010 A 
ATOM     43  C   UNL A   1      36.799  30.592  30.192  1.00  0.00     0.010 A 
ATOM     44  C   UNL A   1      37.868  31.294  29.631  1.00  0.00    -0.014 A 
BRANCH  44  45
ATOM     45  C   UNL A   1      39.189  30.747  29.902  1.00  0.00     0.031 A 
ATOM     46  C   UNL A   1      39.653  29.518  29.234  1.00  0.00     0.074 A 
ATOM     47  C   UNL A   1      40.035  31.461  30.678  1.00  0.00     0.049 A 
ATOM     48  N   UNL A   1      40.590  28.760  29.692  1.00  0.00    -0.248 NA
ATOM     49  C   UNL A   1      39.068  29.028  27.993  1.00  0.00     0.031 C 
ATOM     50  C   UNL A   1      41.476  31.279  30.822  1.00  0.00     0.029 A 
ATOM     51  N   UNL A   1      39.702  32.405  31.657  1.00  0.00    -0.354 N 
ATOM     52  C   UNL A   1      40.921  27.861  28.705  1.00  0.00     0.074 A 
ATOM     53  C   UNL A   1      39.905  28.028  27.691  1.00  0.00     0.031 C 
ATOM     54  C   UNL A   1      41.872  31.852  31.970  1.00  0.00     0.029 A 
ATOM     55  C   UNL A   1      40.675  32.284  32.671  1.00  0.00     0.049 A 
ATOM     56  H   UNL A   1      38.941  33.030  31.641  1.00  0.00     0.167 HD
ATOM     57  C   UNL A   1      42.097  27.174  28.794  1.00  0.00     0.037 A 
ATOM     58  C   UNL A   1      40.337  31.900  33.935  1.00  0.00     0.037 A 
ATOM     59  C   UNL A   1      42.813  27.517  30.021  1.00  0.00     0.049 A 
ATOM     60  C   UNL A   1      41.011  30.625  34.383  1.00  0.00     0.074 A 
ATOM     61  C   UNL A   1      43.839  28.414  30.278  1.00  0.00     0.029 A 
ATOM     62  N   UNL A   1      42.294  27.148  31.256  1.00  0.00    -0.354 N 
ATOM     63  N   UNL A   1      41.508  29.740  33.565  1.00  0.00    -0.248 NA
ATOM     64  C   UNL A   1      41.168  30.243  35.783  1.00  0.00     0.031 C 
ATOM     65  C   UNL A   1      43.909  28.614  31.676  1.00  0.00     0.029 A 
ATOM     66  C   UNL A   1      42.940  27.827  32.272  1.00  0.00     0.049 A 
ATOM     67  H   UNL A   1      41.569  26.495  31.389  1.00  0.00     0.167 HD
ATOM     68  C   UNL A   1      42.026  28.692  34.284  1.00  0.00     0.074 A 
ATOM     69  C   UNL A   1      41.804  29.064  35.667  1.00  0.00     0.031 C 
ATOM     70  C   UNL A   1      42.590  27.609  33.667  1.00  0.00     0.037 A 
BRANCH  57  71
ATOM     71  C   UNL A   1      42.732  26.441  27.634  1.00  0.00     0.057 A 
ATOM     72  C   UNL A   1      43.405  27.141  26.612  1.00  0.00     0.134 A 
ATOM     73  C   UNL A   1      42.676  25.051  27.438  1.00  0.00     0.134 A 
ATOM     74  F   UNL A   1      43.653  28.453  26.698  1.00  0.00    -0.206 F 
ATOM     75  C   UNL A   1      43.864  26.528  25.439  1.00  0.00     0.040 A 
ATOM     76  C   UNL A   1      43.083  24.429  26.248  1.00  0.00     0.040 A 
ATOM     77  F   UNL A   1      42.275  24.223  28.413  1.00  0.00    -0.206 F 
ATOM     78  C   UNL A   1      43.665  25.173  25.232  1.00  0.00     0.006 A 
ENDBRANCH  57  71
BRANCH  58  79
ATOM     79  C   UNL A   1      38.973  32.333  34.335  1.00  0.00     0.057 A 
ATOM     80  C   UNL A   1      38.803  33.642  34.819  1.00  0.00     0.134 A 
ATOM     81  C   UNL A   1      37.829  31.664  33.892  1.00  0.00     0.134 A 
ATOM     82  F   UNL A   1      39.863  34.341  35.259  1.00  0.00    -0.206 F 
ATOM     83  C   UNL A   1      37.572  34.299  34.756  1.00  0.00     0.040 A 
ATOM     84  C   UNL A   1      36.588  32.309  33.833  1.00  0.00     0.040 A 
ATOM     85  F   UNL A   1      37.915  30.421  33.397  1.00  0.00    -0.206 F 
ATOM     86  C   UNL A   1      36.466  33.642  34.226  1.00  0.00     0.006 A 
ENDBRANCH  58  79
BRANCH  70  87
ATOM     87  C   UNL A   1      42.968  26.296  34.314  1.00  0.00     0.057 A 
ATOM     88  C   UNL A   1      42.071  25.452  34.987  1.00  0.00     0.134 A 
ATOM     89  C   UNL A   1      44.267  25.759  34.144  1.00  0.00     0.134 A 
ATOM     90  F   UNL A   1      40.778  25.767  35.126  1.00  0.00    -0.206 F 
ATOM     91  C   UNL A   1      42.450  24.204  35.502  1.00  0.00     0.040 A 
ATOM     92  C   UNL A   1      44.640  24.492  34.602  1.00  0.00     0.040 A 
ATOM     93  F   UNL A   1      45.231  26.430  33.495  1.00  0.00    -0.206 F 
ATOM     94  C   UNL A   1      43.734  23.713  35.300  1.00  0.00     0.006 A 
ENDBRANCH  70  87
ENDBRANCH  44  45
ENDBRANCH  36  39
ENDBRANCH  34  35
ENDBRANCH  33  34
ENDBRANCH   1  33
TORSDOF 15
ENDMDL
MODEL 2
REMARK VINA RESULT:     -13.2      1.624      2.620
REMARK SMILES Cc1ccc([C@@H]2[C@H](C(=O)NCCCCCCNC(=O)c3ccc(-c4c5nc(c(-c6c(F)cccc6F)c6ccc([nH]6)c(-c6c(F)cccc6F)c6nc(c(-c7c(F)cccc7F)c7ccc4[nH]7)C=C6)C=C5)cc3)c3ccccc3C(=O)N2c2ccccc2)cc1
REMARK SMILES IDX 14 1 13 2 12 3 11 4 10 5 8 6 9 7 7 9 6 10 82 11 74 12 80 13
REMARK SMILES IDX 75 14 79 15 81 16 76 17 78 18 77 19 5 20 1 21 2 22 3 23
REMARK SMILES IDX 90 24 4 25 89 26 83 27 84 28 88 29 85 30 87 31 86 32 15 33
REMARK SMILES IDX 16 34 17 35 18 36 19 38 20 39 21 40 73 41 22 42 72 43 23 44
REMARK SMILES IDX 24 45 25 46 66 47 26 48 71 49 65 50 67 51 27 52 70 53 64 54
REMARK SMILES IDX 63 55 28 57 54 58 37 59 53 60 38 61 41 62 52 63 68 64 39 65
REMARK SMILES IDX 40 66 51 68 69 69 42 70 29 71 30 72 35 73 31 74 32 75 34 76
REMARK SMILES IDX 36 77 33 78 55 79 56 80 61 81 57 82 58 83 60 84 62 85 59 86
REMARK SMILES IDX 43 87 44 88 49 89 45 90 46 91 48 92 50 93 47 94
REMARK H PARENT 10 8 17 37 67 56 41 67
REMARK Flexibility Score: inf
ROOT
ATOM      1  C   UNL A   1      33.298  27.609  25.529  1.00  0.00     0.002 C 
ENDROOT
BRANCH   1   2
ATOM      2  C   UNL A   1      33.982  26.692  24.499  1.00  0.00     0.002 C 
BRANCH   2   3
ATOM      3  C   UNL A   1      33.444  26.749  23.063  1.00  0.00     0.021 C 
BRANCH   3   4
ATOM      4  C   UNL A   1      33.628  25.466  22.250  1.00  0.00     0.116 C 
BRANCH   4   5
ATOM      5  N   UNL A   1      33.701  24.307  23.111  1.00  0.00    -0.355 N 
ATOM      6  C   UNL A   1      32.982  23.173  22.808  1.00  0.00     0.230 C 
ATOM      7  O   UNL A   1      33.160  22.580  21.746  1.00  0.00    -0.274 OA
ATOM      8  H   UNL A   1      34.268  24.330  23.915  1.00  0.00     0.163 HD
BRANCH   6   9
ATOM      9  C   UNL A   1      31.938  22.720  23.836  1.00  0.00     0.137 C 
ATOM     10  C   UNL A   1      32.457  21.620  24.807  1.00  0.00     0.138 C 
ATOM     11  N   UNL A   1      33.209  22.255  25.902  1.00  0.00    -0.300 N 
ATOM     12  C   UNL A   1      31.302  23.859  24.649  1.00  0.00    -0.020 A 
ATOM     13  C   UNL A   1      32.331  22.935  26.769  1.00  0.00     0.259 C 
ATOM     14  C   UNL A   1      30.563  24.867  24.008  1.00  0.00     0.005 A 
ATOM     15  C   UNL A   1      31.449  23.916  26.052  1.00  0.00     0.044 A 
ATOM     16  O   UNL A   1      32.350  22.859  27.991  1.00  0.00    -0.269 OA
ATOM     17  C   UNL A   1      30.032  25.929  24.742  1.00  0.00     0.000 A 
ATOM     18  C   UNL A   1      30.876  24.959  26.787  1.00  0.00     0.014 A 
ATOM     19  C   UNL A   1      30.181  25.972  26.127  1.00  0.00     0.001 A 
BRANCH  10  20
ATOM     20  C   UNL A   1      32.843  20.261  24.234  1.00  0.00    -0.024 A 
ATOM     21  C   UNL A   1      33.899  16.210  23.118  1.00  0.00     0.044 C 
ATOM     22  C   UNL A   1      33.607  17.652  23.407  1.00  0.00    -0.051 A 
ATOM     23  C   UNL A   1      32.532  18.311  22.804  1.00  0.00     0.004 A 
ATOM     24  C   UNL A   1      34.369  18.341  24.348  1.00  0.00     0.004 A 
ATOM     25  C   UNL A   1      32.193  19.621  23.175  1.00  0.00     0.006 A 
ATOM     26  C   UNL A   1      33.990  19.622  24.754  1.00  0.00     0.006 A 
ENDBRANCH  10  20
BRANCH  11  27
ATOM     27  C   UNL A   1      34.527  22.839  25.747  1.00  0.00     0.045 A 
ATOM     28  C   UNL A   1      35.498  22.169  24.972  1.00  0.00     0.026 A 
ATOM     29  C   UNL A   1      34.955  23.984  26.430  1.00  0.00     0.026 A 
ATOM     30  C   UNL A   1      36.837  22.573  24.946  1.00  0.00     0.002 A 
ATOM     31  C   UNL A   1      36.288  24.418  26.370  1.00  0.00     0.002 A 
ATOM     32  C   UNL A   1      37.232  23.699  25.650  1.00  0.00     0.000 A 
ENDBRANCH  11  27
ENDBRANCH   6   9
ENDBRANCH   4   5
ENDBRANCH   3   4
ENDBRANCH   2   3
ENDBRANCH   1   2
BRANCH   1  33
ATOM     33  C   UNL A   1      33.964  28.963  25.781  1.00  0.00     0.021 C 
BRANCH  33  34
ATOM     34  C   UNL A   1      33.762  29.516  27.188  1.00  0.00     0.116 C 
BRANCH  34  35
ATOM     35  N   UNL A   1      34.490  30.742  27.443  1.00  0.00    -0.352 N 
ATOM     36  C   UNL A   1      35.800  30.948  27.884  1.00  0.00     0.251 C 
ATOM     37  H   UNL A   1      33.977  31.567  27.280  1.00  0.00     0.163 HD
ATOM     38  O   UNL A   1      36.178  32.083  28.107  1.00  0.00    -0.269 OA
BRANCH  36  39
ATOM     39  C   UNL A   1      36.764  29.820  27.927  1.00  0.00     0.039 A 
ATOM     40  C   UNL A   1      36.869  29.112  29.134  1.00  0.00     0.014 A 
ATOM     41  C   UNL A   1      37.686  29.585  26.915  1.00  0.00     0.014 A 
ATOM     42  C   UNL A   1      38.034  28.403  29.422  1.00  0.00     0.010 A 
ATOM     43  C   UNL A   1      38.882  28.973  27.226  1.00  0.00     0.010 A 
ATOM     44  C   UNL A   1      39.081  28.452  28.506  1.00  0.00    -0.014 A 
BRANCH  44  45
ATOM     45  C   UNL A   1      40.459  28.131  28.846  1.00  0.00     0.031 A 
ATOM     46  C   UNL A   1      41.133  26.962  28.253  1.00  0.00     0.074 A 
ATOM     47  C   UNL A   1      41.153  29.001  29.613  1.00  0.00     0.049 A 
ATOM     48  N   UNL A   1      42.157  26.380  28.777  1.00  0.00    -0.248 NA
ATOM     49  C   UNL A   1      40.681  26.334  27.019  1.00  0.00     0.031 C 
ATOM     50  C   UNL A   1      42.597  29.053  29.812  1.00  0.00     0.029 A 
ATOM     51  N   UNL A   1      40.639  29.922  30.534  1.00  0.00    -0.354 N 
ATOM     52  C   UNL A   1      42.663  25.503  27.846  1.00  0.00     0.074 A 
ATOM     53  C   UNL A   1      41.673  25.466  26.793  1.00  0.00     0.031 C 
ATOM     54  C   UNL A   1      42.855  29.729  30.944  1.00  0.00     0.029 A 
ATOM     55  C   UNL A   1      41.578  29.999  31.583  1.00  0.00     0.049 A 
ATOM     56  H   UNL A   1      39.792  30.420  30.463  1.00  0.00     0.167 HD
ATOM     57  C   UNL A   1      43.926  25.012  28.007  1.00  0.00     0.037 A 
ATOM     58  C   UNL A   1      41.253  29.621  32.853  1.00  0.00     0.037 A 
ATOM     59  C   UNL A   1      44.532  25.515  29.238  1.00  0.00     0.049 A 
ATOM     60  C   UNL A   1      42.098  28.488  33.384  1.00  0.00     0.074 A 
ATOM     61  C   UNL A   1      45.394  26.572  29.484  1.00  0.00     0.029 A 
ATOM     62  N   UNL A   1      44.027  25.123  30.473  1.00  0.00    -0.354 N 
ATOM     63  N   UNL A   1      42.758  27.656  32.627  1.00  0.00    -0.248 NA
ATOM     64  C   UNL A   1      42.257  28.195  34.805  1.00  0.00     0.031 C 
ATOM     65  C   UNL A   1      45.378  26.841  30.873  1.00  0.00     0.029 A 
ATOM     66  C   UNL A   1      44.519  25.938  31.474  1.00  0.00     0.049 A 
ATOM     67  H   UNL A   1      43.407  24.371  30.613  1.00  0.00     0.167 HD
ATOM     68  C   UNL A   1      43.404  26.734  33.412  1.00  0.00     0.074 A 
ATOM     69  C   UNL A   1      43.072  27.125  34.767  1.00  0.00     0.031 C 
ATOM     70  C   UNL A   1      44.152  25.728  32.867  1.00  0.00     0.037 A 
BRANCH  57  71
ATOM     71  C   UNL A   1      44.713  24.339  26.905  1.00  0.00     0.057 A 
ATOM     72  C   UNL A   1      44.564  22.962  26.643  1.00  0.00     0.134 A 
ATOM     73  C   UNL A   1      45.668  24.979  26.097  1.00  0.00     0.134 A 
ATOM     74  F   UNL A   1      43.617  22.226  27.237  1.00  0.00    -0.206 F 
ATOM     75  C   UNL A   1      45.384  22.260  25.749  1.00  0.00     0.040 A 
ATOM     76  C   UNL A   1      46.532  24.283  25.238  1.00  0.00     0.040 A 
ATOM     77  F   UNL A   1      45.772  26.314  26.063  1.00  0.00    -0.206 F 
ATOM     78  C   UNL A   1      46.403  22.912  25.074  1.00  0.00     0.006 A 
ENDBRANCH  57  71
BRANCH  58  79
ATOM     79  C   UNL A   1      39.824  29.852  33.188  1.00  0.00     0.057 A 
ATOM     80  C   UNL A   1      39.406  31.167  33.458  1.00  0.00     0.134 A 
ATOM     81  C   UNL A   1      38.833  28.922  32.862  1.00  0.00     0.134 A 
ATOM     82  F   UNL A   1      40.309  32.109  33.776  1.00  0.00    -0.206 F 
ATOM     83  C   UNL A   1      38.077  31.566  33.299  1.00  0.00     0.040 A 
ATOM     84  C   UNL A   1      37.497  29.309  32.709  1.00  0.00     0.040 A 
ATOM     85  F   UNL A   1      39.157  27.654  32.570  1.00  0.00    -0.206 F 
ATOM     86  C   UNL A   1      37.123  30.642  32.887  1.00  0.00     0.006 A 
ENDBRANCH  58  79
BRANCH  70  87
ATOM     87  C   UNL A   1      44.703  24.518  33.589  1.00  0.00     0.057 A 
ATOM     88  C   UNL A   1      46.068  24.245  33.757  1.00  0.00     0.134 A 
ATOM     89  C   UNL A   1      43.835  23.639  34.282  1.00  0.00     0.134 A 
ATOM     90  F   UNL A   1      47.014  25.051  33.261  1.00  0.00    -0.206 F 
ATOM     91  C   UNL A   1      46.533  23.152  34.504  1.00  0.00     0.040 A 
ATOM     92  C   UNL A   1      44.289  22.582  35.076  1.00  0.00     0.040 A 
ATOM     93  F   UNL A   1      42.502  23.785  34.246  1.00  0.00    -0.206 F 
ATOM     94  C   UNL A   1      45.645  22.324  35.177  1.00  0.00     0.006 A 
ENDBRANCH  70  87
ENDBRANCH  44  45
ENDBRANCH  36  39
ENDBRANCH  34  35
ENDBRANCH  33  34
ENDBRANCH   1  33
TORSDOF 15
ENDMDL
MODEL 3
REMARK VINA RESULT:     -12.3      2.328      4.127
REMARK SMILES Cc1ccc([C@@H]2[C@H](C(=O)NCCCCCCNC(=O)c3ccc(-c4c5nc(c(-c6c(F)cccc6F)c6ccc([nH]6)c(-c6c(F)cccc6F)c6nc(c(-c7c(F)cccc7F)c7ccc4[nH]7)C=C6)C=C5)cc3)c3ccccc3C(=O)N2c2ccccc2)cc1
REMARK SMILES IDX 14 1 13 2 12 3 11 4 10 5 8 6 9 7 7 9 6 10 82 11 74 12 80 13
REMARK SMILES IDX 75 14 79 15 81 16 76 17 78 18 77 19 5 20 1 21 2 22 3 23
REMARK SMILES IDX 90 24 4 25 89 26 83 27 84 28 88 29 85 30 87 31 86 32 15 33
REMARK SMILES IDX 16 34 17 35 18 36 19 38 20 39 21 40 73 41 22 42 72 43 23 44
REMARK SMILES IDX 24 45 25 46 66 47 26 48 71 49 65 50 67 51 27 52 70 53 64 54
REMARK SMILES IDX 63 55 28 57 54 58 37 59 53 60 38 61 41 62 52 63 68 64 39 65
REMARK SMILES IDX 40 66 51 68 69 69 42 70 29 71 30 72 35 73 31 74 32 75 34 76
REMARK SMILES IDX 36 77 33 78 55 79 56 80 61 81 57 82 58 83 60 84 62 85 59 86
REMARK SMILES IDX 43 87 44 88 49 89 45 90 46 91 48 92 50 93 47 94
REMARK H PARENT 10 8 17 37 67 56 41 67
REMARK Flexibility Score: inf
ROOT
ATOM      1  C   UNL A   1      31.974  30.119  26.678  1.00  0.00     0.002 C 
ENDROOT
BRANCH   1   2
ATOM      2  C   UNL A   1      32.498  29.138  25.614  1.00  0.00     0.002 C 
BRANCH   2   3
ATOM      3  C   UNL A   1      32.436  27.645  25.963  1.00  0.00     0.021 C 
BRANCH   3   4
ATOM      4  C   UNL A   1      33.794  26.961  26.132  1.00  0.00     0.116 C 
BRANCH   4   5
ATOM      5  N   UNL A   1      33.737  25.577  25.722  1.00  0.00    -0.355 N 
ATOM      6  C   UNL A   1      34.887  24.915  25.355  1.00  0.00     0.230 C 
ATOM      7  O   UNL A   1      35.824  24.798  26.143  1.00  0.00    -0.274 OA
ATOM      8  H   UNL A   1      32.873  25.106  25.706  1.00  0.00     0.163 HD
BRANCH   6   9
ATOM      9  C   UNL A   1      34.948  24.374  23.921  1.00  0.00     0.137 C 
ATOM     10  C   UNL A   1      34.939  22.820  23.841  1.00  0.00     0.138 C 
ATOM     11  N   UNL A   1      33.550  22.338  23.928  1.00  0.00    -0.300 N 
ATOM     12  C   UNL A   1      33.875  24.940  22.977  1.00  0.00    -0.020 A 
ATOM     13  C   UNL A   1      32.854  22.635  22.740  1.00  0.00     0.259 C 
ATOM     14  C   UNL A   1      33.825  26.315  22.697  1.00  0.00     0.005 A 
ATOM     15  C   UNL A   1      32.921  24.091  22.376  1.00  0.00     0.044 A 
ATOM     16  O   UNL A   1      32.150  21.849  22.120  1.00  0.00    -0.269 OA
ATOM     17  C   UNL A   1      32.818  26.833  21.880  1.00  0.00     0.000 A 
ATOM     18  C   UNL A   1      31.942  24.611  21.523  1.00  0.00     0.014 A 
ATOM     19  C   UNL A   1      31.883  25.984  21.290  1.00  0.00     0.001 A 
BRANCH  10  20
ATOM     20  C   UNL A   1      36.108  22.049  24.445  1.00  0.00    -0.024 A 
ATOM     21  C   UNL A   1      39.442  19.579  25.688  1.00  0.00     0.044 C 
ATOM     22  C   UNL A   1      38.255  20.440  25.381  1.00  0.00    -0.051 A 
ATOM     23  C   UNL A   1      38.351  21.835  25.376  1.00  0.00     0.004 A 
ATOM     24  C   UNL A   1      37.043  19.854  25.021  1.00  0.00     0.004 A 
ATOM     25  C   UNL A   1      37.269  22.628  24.967  1.00  0.00     0.006 A 
ATOM     26  C   UNL A   1      35.991  20.647  24.559  1.00  0.00     0.006 A 
ENDBRANCH  10  20
BRANCH  11  27
ATOM     27  C   UNL A   1      32.763  22.350  25.145  1.00  0.00     0.045 A 
ATOM     28  C   UNL A   1      31.433  22.820  25.110  1.00  0.00     0.026 A 
ATOM     29  C   UNL A   1      33.281  22.039  26.409  1.00  0.00     0.026 A 
ATOM     30  C   UNL A   1      30.692  23.044  26.274  1.00  0.00     0.002 A 
ATOM     31  C   UNL A   1      32.524  22.219  27.576  1.00  0.00     0.002 A 
ATOM     32  C   UNL A   1      31.241  22.744  27.511  1.00  0.00     0.000 A 
ENDBRANCH  11  27
ENDBRANCH   6   9
ENDBRANCH   4   5
ENDBRANCH   3   4
ENDBRANCH   2   3
ENDBRANCH   1   2
BRANCH   1  33
ATOM     33  C   UNL A   1      32.991  31.107  27.250  1.00  0.00     0.021 C 
BRANCH  33  34
ATOM     34  C   UNL A   1      34.302  30.474  27.706  1.00  0.00     0.116 C 
BRANCH  34  35
ATOM     35  N   UNL A   1      35.157  31.374  28.452  1.00  0.00    -0.352 N 
ATOM     36  C   UNL A   1      36.383  31.151  29.085  1.00  0.00     0.251 C 
ATOM     37  H   UNL A   1      34.819  32.296  28.526  1.00  0.00     0.163 HD
ATOM     38  O   UNL A   1      36.889  32.051  29.729  1.00  0.00    -0.269 OA
BRANCH  36  39
ATOM     39  C   UNL A   1      37.132  29.892  28.847  1.00  0.00     0.039 A 
ATOM     40  C   UNL A   1      37.252  29.002  29.925  1.00  0.00     0.014 A 
ATOM     41  C   UNL A   1      37.874  29.670  27.693  1.00  0.00     0.014 A 
ATOM     42  C   UNL A   1      38.300  28.085  29.952  1.00  0.00     0.010 A 
ATOM     43  C   UNL A   1      38.973  28.839  27.751  1.00  0.00     0.010 A 
ATOM     44  C   UNL A   1      39.226  28.106  28.912  1.00  0.00    -0.014 A 
BRANCH  44  45
ATOM     45  C   UNL A   1      40.556  27.525  29.011  1.00  0.00     0.031 A 
ATOM     46  C   UNL A   1      40.817  26.148  28.557  1.00  0.00     0.074 A 
ATOM     47  C   UNL A   1      41.578  28.318  29.403  1.00  0.00     0.049 A 
ATOM     48  N   UNL A   1      41.810  25.432  28.963  1.00  0.00    -0.248 NA
ATOM     49  C   UNL A   1      39.951  25.451  27.615  1.00  0.00     0.031 C 
ATOM     50  C   UNL A   1      43.007  28.056  29.272  1.00  0.00     0.029 A 
ATOM     51  N   UNL A   1      41.506  29.475  30.189  1.00  0.00    -0.354 N 
ATOM     52  C   UNL A   1      41.880  24.318  28.160  1.00  0.00     0.074 A 
ATOM     53  C   UNL A   1      40.665  24.345  27.377  1.00  0.00     0.031 C 
ATOM     54  C   UNL A   1      43.672  28.828  30.147  1.00  0.00     0.029 A 
ATOM     55  C   UNL A   1      42.680  29.497  30.970  1.00  0.00     0.049 A 
ATOM     56  H   UNL A   1      40.781  30.142  30.195  1.00  0.00     0.167 HD
ATOM     57  C   UNL A   1      43.024  23.573  28.149  1.00  0.00     0.037 A 
ATOM     58  C   UNL A   1      42.626  29.423  32.331  1.00  0.00     0.037 A 
ATOM     59  C   UNL A   1      44.011  24.113  29.082  1.00  0.00     0.049 A 
ATOM     60  C   UNL A   1      43.344  28.224  32.903  1.00  0.00     0.074 A 
ATOM     61  C   UNL A   1      45.094  24.958  28.901  1.00  0.00     0.029 A 
ATOM     62  N   UNL A   1      43.775  24.062  30.451  1.00  0.00    -0.354 N 
ATOM     63  N   UNL A   1      43.615  27.145  32.222  1.00  0.00    -0.248 NA
ATOM     64  C   UNL A   1      43.804  28.141  34.285  1.00  0.00     0.031 C 
ATOM     65  C   UNL A   1      45.487  25.448  30.169  1.00  0.00     0.029 A 
ATOM     66  C   UNL A   1      44.655  24.890  31.122  1.00  0.00     0.049 A 
ATOM     67  H   UNL A   1      43.079  23.514  30.882  1.00  0.00     0.167 HD
ATOM     68  C   UNL A   1      44.250  26.239  33.032  1.00  0.00     0.074 A 
ATOM     69  C   UNL A   1      44.360  26.916  34.308  1.00  0.00     0.031 C 
ATOM     70  C   UNL A   1      44.625  25.007  32.572  1.00  0.00     0.037 A 
BRANCH  57  71
ATOM     71  C   UNL A   1      43.355  22.558  27.078  1.00  0.00     0.057 A 
ATOM     72  C   UNL A   1      42.654  21.339  26.990  1.00  0.00     0.134 A 
ATOM     73  C   UNL A   1      44.385  22.700  26.133  1.00  0.00     0.134 A 
ATOM     74  F   UNL A   1      41.570  21.090  27.735  1.00  0.00    -0.206 F 
ATOM     75  C   UNL A   1      43.029  20.301  26.127  1.00  0.00     0.040 A 
ATOM     76  C   UNL A   1      44.807  21.652  25.300  1.00  0.00     0.040 A 
ATOM     77  F   UNL A   1      44.996  23.876  25.936  1.00  0.00    -0.206 F 
ATOM     78  C   UNL A   1      44.137  20.438  25.307  1.00  0.00     0.006 A 
ENDBRANCH  57  71
BRANCH  58  79
ATOM     79  C   UNL A   1      41.403  30.041  32.905  1.00  0.00     0.057 A 
ATOM     80  C   UNL A   1      41.350  31.442  33.013  1.00  0.00     0.134 A 
ATOM     81  C   UNL A   1      40.189  29.351  32.966  1.00  0.00     0.134 A 
ATOM     82  F   UNL A   1      42.481  32.165  32.960  1.00  0.00    -0.206 F 
ATOM     83  C   UNL A   1      40.138  32.134  33.061  1.00  0.00     0.040 A 
ATOM     84  C   UNL A   1      38.968  30.034  33.024  1.00  0.00     0.040 A 
ATOM     85  F   UNL A   1      40.156  28.016  32.849  1.00  0.00    -0.206 F 
ATOM     86  C   UNL A   1      38.939  31.429  33.030  1.00  0.00     0.006 A 
ENDBRANCH  58  79
BRANCH  70  87
ATOM     87  C   UNL A   1      45.099  23.837  33.405  1.00  0.00     0.057 A 
ATOM     88  C   UNL A   1      46.405  23.686  33.896  1.00  0.00     0.134 A 
ATOM     89  C   UNL A   1      44.178  22.867  33.870  1.00  0.00     0.134 A 
ATOM     90  F   UNL A   1      47.361  24.587  33.641  1.00  0.00    -0.206 F 
ATOM     91  C   UNL A   1      46.779  22.624  34.733  1.00  0.00     0.040 A 
ATOM     92  C   UNL A   1      44.527  21.837  34.750  1.00  0.00     0.040 A 
ATOM     93  F   UNL A   1      42.885  22.890  33.515  1.00  0.00    -0.206 F 
ATOM     94  C   UNL A   1      45.838  21.703  35.174  1.00  0.00     0.006 A 
ENDBRANCH  70  87
ENDBRANCH  44  45
ENDBRANCH  36  39
ENDBRANCH  34  35
ENDBRANCH  33  34
ENDBRANCH   1  33
TORSDOF 15
ENDMDL
