MODEL 1
REMARK VINA RESULT:     -11.5      0.000      0.000
REMARK SMILES O=C(CSc1nnc2sc3ccccc3n12)N[C@H](Cc1c[nH]c2ccccc12)C(=O)NCCCCCCNC(=O)c1ccc(-c2c3nc(c(-c4c(F)cccc4F)c4ccc([nH]4)c(-c4c(F)cccc4F)c4nc(c(-c5c(F)cccc5F)c5ccc2[nH]5)C=C4)C=C3)cc1
REMARK SMILES IDX 33 1 32 2 31 3 29 4 30 5 18 7 17 8 1 9 2 10 3 12 4 13 5 14
REMARK SMILES IDX 6 15 16 16 7 17 8 18 15 19 9 20 10 21 14 22 11 23 13 24
REMARK SMILES IDX 12 25 19 26 20 27 21 28 28 29 22 30 23 31 27 32 24 34 26 35
REMARK SMILES IDX 25 36 34 37 35 38 36 39 37 40 38 41 39 42 40 44 41 45 42 46
REMARK SMILES IDX 94 47 43 48 93 49 44 50 45 51 46 52 87 53 47 54 92 55 86 56
REMARK SMILES IDX 88 57 48 58 91 59 85 60 84 61 49 63 75 64 58 65 74 66 59 67
REMARK SMILES IDX 62 68 73 69 89 70 60 71 61 72 72 74 90 75 63 76 50 77 51 78
REMARK SMILES IDX 56 79 52 80 53 81 55 82 57 83 54 84 76 85 77 86 82 87 78 88
REMARK SMILES IDX 79 89 81 90 83 91 80 92 64 93 65 94 70 95 66 96 67 97 69 98
REMARK SMILES IDX 71 99 68 100
REMARK H PARENT 31 6 17 11 22 33 38 43 88 62 62 73
REMARK Flexibility Score: inf
ROOT
ATOM      1  C   UNL A   1      35.410  30.795  28.114  1.00  0.00     0.021 C 
ENDROOT
BRANCH   1   2
ATOM      2  C   UNL A   1      34.717  29.748  27.260  1.00  0.00     0.116 C 
BRANCH   2   3
ATOM      3  N   UNL A   1      33.338  29.540  27.637  1.00  0.00    -0.354 N 
ATOM      4  C   UNL A   1      32.441  28.629  27.163  1.00  0.00     0.242 C 
ATOM      5  O   UNL A   1      31.370  28.503  27.766  1.00  0.00    -0.273 OA
ATOM      6  H   UNL A   1      32.996  30.143  28.337  1.00  0.00     0.163 HD
BRANCH   4   7
ATOM      7  C   UNL A   1      32.785  27.690  25.990  1.00  0.00     0.175 C 
BRANCH   7   8
ATOM      8  N   UNL A   1      31.633  27.720  25.072  1.00  0.00    -0.343 N 
ATOM      9  O   UNL A   1      32.432  28.952  23.318  1.00  0.00    -0.274 OA
ATOM     10  C   UNL A   1      31.578  28.201  23.796  1.00  0.00     0.231 C 
ATOM     11  H   UNL A   1      30.793  27.344  25.424  1.00  0.00     0.164 HD
BRANCH  10  12
ATOM     12  C   UNL A   1      30.373  27.793  22.959  1.00  0.00     0.178 C 
BRANCH  12  13
ATOM     13  S   UNL A   1      30.152  26.002  22.752  1.00  0.00    -0.076 SA
BRANCH  13  14
ATOM     14  C   UNL A   1      30.165  25.444  24.386  1.00  0.00     0.197 A 
ATOM     15  N   UNL A   1      29.535  26.025  25.391  1.00  0.00    -0.122 NA
ATOM     16  N   UNL A   1      30.686  24.257  24.815  1.00  0.00    -0.260 N 
ATOM     17  N   UNL A   1      29.638  25.201  26.508  1.00  0.00    -0.118 NA
ATOM     18  C   UNL A   1      30.326  24.162  26.127  1.00  0.00     0.217 A 
ATOM     19  C   UNL A   1      31.392  23.172  24.307  1.00  0.00     0.068 A 
ATOM     20  S   UNL A   1      30.836  22.693  26.881  1.00  0.00    -0.094 S 
ATOM     21  C   UNL A   1      31.539  22.194  25.306  1.00  0.00     0.055 A 
ATOM     22  C   UNL A   1      31.875  22.997  23.023  1.00  0.00     0.028 A 
ATOM     23  C   UNL A   1      32.152  20.989  25.014  1.00  0.00     0.021 A 
ATOM     24  C   UNL A   1      32.497  21.781  22.734  1.00  0.00     0.002 A 
ATOM     25  C   UNL A   1      32.625  20.783  23.715  1.00  0.00     0.002 A 
ENDBRANCH  13  14
ENDBRANCH  12  13
ENDBRANCH  10  12
ENDBRANCH   7   8
BRANCH   7  26
ATOM     26  C   UNL A   1      33.399  26.344  26.398  1.00  0.00     0.072 C 
BRANCH  26  27
ATOM     27  C   UNL A   1      34.012  25.515  25.289  1.00  0.00    -0.020 A 
ATOM     28  C   UNL A   1      34.032  25.906  23.959  1.00  0.00     0.087 A 
ATOM     29  C   UNL A   1      34.700  24.249  25.346  1.00  0.00     0.003 A 
ATOM     30  N   UNL A   1      34.697  24.960  23.231  1.00  0.00    -0.361 N 
ATOM     31  C   UNL A   1      35.119  23.941  24.048  1.00  0.00     0.046 A 
ATOM     32  C   UNL A   1      35.017  23.321  26.363  1.00  0.00     0.010 A 
ATOM     33  H   UNL A   1      34.853  25.004  22.259  1.00  0.00     0.166 HD
ATOM     34  C   UNL A   1      35.836  22.779  23.727  1.00  0.00     0.026 A 
ATOM     35  C   UNL A   1      35.715  22.146  26.058  1.00  0.00     0.001 A 
ATOM     36  C   UNL A   1      36.124  21.884  24.757  1.00  0.00     0.002 A 
ENDBRANCH  26  27
ENDBRANCH   7  26
ENDBRANCH   4   7
ENDBRANCH   2   3
ENDBRANCH   1   2
BRANCH   1  37
ATOM     37  C   UNL A   1      34.835  32.203  27.978  1.00  0.00     0.002 C 
BRANCH  37  38
ATOM     38  C   UNL A   1      34.436  32.884  29.291  1.00  0.00     0.002 C 
BRANCH  38  39
ATOM     39  C   UNL A   1      35.026  32.283  30.575  1.00  0.00     0.021 C 
BRANCH  39  40
ATOM     40  C   UNL A   1      36.107  33.142  31.229  1.00  0.00     0.116 C 
BRANCH  40  41
ATOM     41  N   UNL A   1      36.992  33.762  30.269  1.00  0.00    -0.352 N 
ATOM     42  C   UNL A   1      38.158  33.417  29.654  1.00  0.00     0.251 C 
ATOM     43  H   UNL A   1      36.675  34.651  29.991  1.00  0.00     0.163 HD
ATOM     44  O   UNL A   1      38.593  34.229  28.832  1.00  0.00    -0.269 OA
BRANCH  42  45
ATOM     45  C   UNL A   1      38.952  32.193  29.933  1.00  0.00     0.039 A 
ATOM     46  C   UNL A   1      40.225  32.151  30.502  1.00  0.00     0.014 A 
ATOM     47  C   UNL A   1      38.362  30.984  29.518  1.00  0.00     0.014 A 
ATOM     48  C   UNL A   1      40.930  30.953  30.556  1.00  0.00     0.010 A 
ATOM     49  C   UNL A   1      39.051  29.783  29.584  1.00  0.00     0.010 A 
ATOM     50  C   UNL A   1      40.359  29.782  30.049  1.00  0.00    -0.014 A 
BRANCH  50  51
ATOM     51  C   UNL A   1      41.152  28.559  30.092  1.00  0.00     0.031 A 
ATOM     52  C   UNL A   1      41.685  28.210  31.439  1.00  0.00     0.074 A 
ATOM     53  C   UNL A   1      41.327  27.753  29.026  1.00  0.00     0.049 A 
ATOM     54  N   UNL A   1      42.921  28.153  31.816  1.00  0.00    -0.248 NA
ATOM     55  C   UNL A   1      40.717  28.023  32.532  1.00  0.00     0.031 C 
ATOM     56  C   UNL A   1      40.670  27.811  27.717  1.00  0.00     0.029 A 
ATOM     57  N   UNL A   1      42.096  26.633  28.926  1.00  0.00    -0.354 N 
ATOM     58  C   UNL A   1      42.899  27.742  33.148  1.00  0.00     0.074 A 
ATOM     59  C   UNL A   1      41.526  27.815  33.573  1.00  0.00     0.031 C 
ATOM     60  C   UNL A   1      40.893  26.656  27.051  1.00  0.00     0.029 A 
ATOM     61  C   UNL A   1      41.822  25.843  27.818  1.00  0.00     0.049 A 
ATOM     62  H   UNL A   1      42.790  26.403  29.585  1.00  0.00     0.167 HD
ATOM     63  C   UNL A   1      43.987  27.168  33.732  1.00  0.00     0.037 A 
ATOM     64  C   UNL A   1      42.288  24.592  27.581  1.00  0.00     0.037 A 
ATOM     65  C   UNL A   1      45.192  27.460  32.999  1.00  0.00     0.049 A 
ATOM     66  C   UNL A   1      43.490  24.390  28.425  1.00  0.00     0.074 A 
ATOM     67  C   UNL A   1      45.882  28.609  32.667  1.00  0.00     0.029 A 
ATOM     68  N   UNL A   1      45.703  26.479  32.185  1.00  0.00    -0.354 N 
ATOM     69  N   UNL A   1      44.622  25.005  28.230  1.00  0.00    -0.248 NA
ATOM     70  C   UNL A   1      43.292  23.855  29.764  1.00  0.00     0.031 C 
ATOM     71  C   UNL A   1      46.382  28.371  31.352  1.00  0.00     0.029 A 
ATOM     72  C   UNL A   1      46.016  27.073  30.991  1.00  0.00     0.049 A 
ATOM     73  H   UNL A   1      45.821  25.529  32.416  1.00  0.00     0.167 HD
ATOM     74  C   UNL A   1      45.072  25.326  29.502  1.00  0.00     0.074 A 
ATOM     75  C   UNL A   1      44.255  24.520  30.409  1.00  0.00     0.031 C 
ATOM     76  C   UNL A   1      45.863  26.419  29.717  1.00  0.00     0.037 A 
BRANCH  63  77
ATOM     77  C   UNL A   1      43.914  26.023  34.717  1.00  0.00     0.057 A 
ATOM     78  C   UNL A   1      43.767  24.673  34.344  1.00  0.00     0.134 A 
ATOM     79  C   UNL A   1      44.344  26.234  36.041  1.00  0.00     0.134 A 
ATOM     80  F   UNL A   1      43.408  24.300  33.111  1.00  0.00    -0.206 F 
ATOM     81  C   UNL A   1      44.085  23.613  35.198  1.00  0.00     0.040 A 
ATOM     82  C   UNL A   1      44.711  25.180  36.887  1.00  0.00     0.040 A 
ATOM     83  F   UNL A   1      44.514  27.474  36.522  1.00  0.00    -0.206 F 
ATOM     84  C   UNL A   1      44.598  23.864  36.459  1.00  0.00     0.006 A 
ENDBRANCH  63  77
BRANCH  64  85
ATOM     85  C   UNL A   1      41.592  23.464  26.920  1.00  0.00     0.057 A 
ATOM     86  C   UNL A   1      40.257  23.153  27.233  1.00  0.00     0.134 A 
ATOM     87  C   UNL A   1      42.292  22.499  26.183  1.00  0.00     0.134 A 
ATOM     88  F   UNL A   1      39.520  23.966  28.003  1.00  0.00    -0.206 F 
ATOM     89  C   UNL A   1      39.656  21.951  26.845  1.00  0.00     0.040 A 
ATOM     90  C   UNL A   1      41.703  21.288  25.792  1.00  0.00     0.040 A 
ATOM     91  F   UNL A   1      43.585  22.682  25.878  1.00  0.00    -0.206 F 
ATOM     92  C   UNL A   1      40.383  21.006  26.133  1.00  0.00     0.006 A 
ENDBRANCH  64  85
BRANCH  76  93
ATOM     93  C   UNL A   1      46.414  27.123  28.508  1.00  0.00     0.057 A 
ATOM     94  C   UNL A   1      47.728  26.861  28.111  1.00  0.00     0.134 A 
ATOM     95  C   UNL A   1      45.727  28.124  27.804  1.00  0.00     0.134 A 
ATOM     96  F   UNL A   1      48.470  25.963  28.778  1.00  0.00    -0.206 F 
ATOM     97  C   UNL A   1      48.325  27.538  27.046  1.00  0.00     0.040 A 
ATOM     98  C   UNL A   1      46.299  28.779  26.709  1.00  0.00     0.040 A 
ATOM     99  F   UNL A   1      44.511  28.531  28.183  1.00  0.00    -0.206 F 
ATOM    100  C   UNL A   1      47.604  28.488  26.328  1.00  0.00     0.006 A 
ENDBRANCH  76  93
ENDBRANCH  50  51
ENDBRANCH  42  45
ENDBRANCH  40  41
ENDBRANCH  39  40
ENDBRANCH  38  39
ENDBRANCH  37  38
ENDBRANCH   1  37
TORSDOF 19
ENDMDL
MODEL 2
REMARK VINA RESULT:     -11.3      2.253      4.574
REMARK SMILES O=C(CSc1nnc2sc3ccccc3n12)N[C@H](Cc1c[nH]c2ccccc12)C(=O)NCCCCCCNC(=O)c1ccc(-c2c3nc(c(-c4c(F)cccc4F)c4ccc([nH]4)c(-c4c(F)cccc4F)c4nc(c(-c5c(F)cccc5F)c5ccc2[nH]5)C=C4)C=C3)cc1
REMARK SMILES IDX 33 1 32 2 31 3 29 4 30 5 18 7 17 8 1 9 2 10 3 12 4 13 5 14
REMARK SMILES IDX 6 15 16 16 7 17 8 18 15 19 9 20 10 21 14 22 11 23 13 24
REMARK SMILES IDX 12 25 19 26 20 27 21 28 28 29 22 30 23 31 27 32 24 34 26 35
REMARK SMILES IDX 25 36 34 37 35 38 36 39 37 40 38 41 39 42 40 44 41 45 42 46
REMARK SMILES IDX 94 47 43 48 93 49 44 50 45 51 46 52 87 53 47 54 92 55 86 56
REMARK SMILES IDX 88 57 48 58 91 59 85 60 84 61 49 63 75 64 58 65 74 66 59 67
REMARK SMILES IDX 62 68 73 69 89 70 60 71 61 72 72 74 90 75 63 76 50 77 51 78
REMARK SMILES IDX 56 79 52 80 53 81 55 82 57 83 54 84 76 85 77 86 82 87 78 88
REMARK SMILES IDX 79 89 81 90 83 91 80 92 64 93 65 94 70 95 66 96 67 97 69 98
REMARK SMILES IDX 71 99 68 100
REMARK H PARENT 31 6 17 11 22 33 38 43 88 62 62 73
REMARK Flexibility Score: inf
ROOT
ATOM      1  C   UNL A   1      35.140  35.244  32.761  1.00  0.00     0.021 C 
ENDROOT
BRANCH   1   2
ATOM      2  C   UNL A   1      34.721  34.321  31.631  1.00  0.00     0.116 C 
BRANCH   2   3
ATOM      3  N   UNL A   1      35.575  34.432  30.471  1.00  0.00    -0.354 N 
ATOM      4  C   UNL A   1      36.053  33.451  29.654  1.00  0.00     0.242 C 
ATOM      5  O   UNL A   1      36.611  33.790  28.605  1.00  0.00    -0.273 OA
ATOM      6  H   UNL A   1      35.851  35.348  30.236  1.00  0.00     0.163 HD
BRANCH   4   7
ATOM      7  C   UNL A   1      35.805  31.959  29.951  1.00  0.00     0.175 C 
BRANCH   7   8
ATOM      8  N   UNL A   1      34.766  31.505  29.010  1.00  0.00    -0.343 N 
ATOM      9  O   UNL A   1      36.000  30.720  27.252  1.00  0.00    -0.274 OA
ATOM     10  C   UNL A   1      34.921  30.818  27.842  1.00  0.00     0.231 C 
ATOM     11  H   UNL A   1      33.838  31.728  29.256  1.00  0.00     0.164 HD
BRANCH  10  12
ATOM     12  C   UNL A   1      33.673  30.176  27.251  1.00  0.00     0.178 C 
BRANCH  12  13
ATOM     13  S   UNL A   1      33.807  28.396  26.918  1.00  0.00    -0.076 SA
BRANCH  13  14
ATOM     14  C   UNL A   1      33.367  28.305  25.251  1.00  0.00     0.197 A 
ATOM     15  N   UNL A   1      33.038  29.337  24.496  1.00  0.00    -0.122 NA
ATOM     16  N   UNL A   1      33.457  27.191  24.466  1.00  0.00    -0.260 N 
ATOM     17  N   UNL A   1      32.913  28.896  23.181  1.00  0.00    -0.118 NA
ATOM     18  C   UNL A   1      33.170  27.619  23.204  1.00  0.00     0.217 A 
ATOM     19  C   UNL A   1      33.785  25.845  24.583  1.00  0.00     0.068 A 
ATOM     20  S   UNL A   1      33.277  26.374  22.009  1.00  0.00    -0.094 S 
ATOM     21  C   UNL A   1      33.767  25.242  23.313  1.00  0.00     0.055 A 
ATOM     22  C   UNL A   1      34.121  25.146  25.729  1.00  0.00     0.028 A 
ATOM     23  C   UNL A   1      34.128  23.915  23.168  1.00  0.00     0.021 A 
ATOM     24  C   UNL A   1      34.481  23.806  25.578  1.00  0.00     0.002 A 
ATOM     25  C   UNL A   1      34.496  23.198  24.312  1.00  0.00     0.002 A 
ENDBRANCH  13  14
ENDBRANCH  12  13
ENDBRANCH  10  12
ENDBRANCH   7   8
BRANCH   7  26
ATOM     26  C   UNL A   1      35.691  31.606  31.440  1.00  0.00     0.072 C 
BRANCH  26  27
ATOM     27  C   UNL A   1      36.656  30.566  31.968  1.00  0.00    -0.020 A 
ATOM     28  C   UNL A   1      37.028  30.468  33.299  1.00  0.00     0.087 A 
ATOM     29  C   UNL A   1      37.333  29.493  31.282  1.00  0.00     0.003 A 
ATOM     30  N   UNL A   1      37.868  29.401  33.447  1.00  0.00    -0.361 N 
ATOM     31  C   UNL A   1      38.070  28.784  32.237  1.00  0.00     0.046 A 
ATOM     32  C   UNL A   1      37.403  29.038  29.947  1.00  0.00     0.010 A 
ATOM     33  H   UNL A   1      38.271  29.114  34.298  1.00  0.00     0.166 HD
ATOM     34  C   UNL A   1      38.848  27.659  31.927  1.00  0.00     0.026 A 
ATOM     35  C   UNL A   1      38.190  27.929  29.616  1.00  0.00     0.001 A 
ATOM     36  C   UNL A   1      38.897  27.245  30.596  1.00  0.00     0.002 A 
ENDBRANCH  26  27
ENDBRANCH   7  26
ENDBRANCH   4   7
ENDBRANCH   2   3
ENDBRANCH   1   2
BRANCH   1  37
ATOM     37  C   UNL A   1      35.461  34.532  34.073  1.00  0.00     0.002 C 
BRANCH  37  38
ATOM     38  C   UNL A   1      36.811  33.810  34.122  1.00  0.00     0.002 C 
BRANCH  38  39
ATOM     39  C   UNL A   1      37.998  34.545  33.481  1.00  0.00     0.021 C 
BRANCH  39  40
ATOM     40  C   UNL A   1      38.659  33.785  32.333  1.00  0.00     0.116 C 
BRANCH  40  41
ATOM     41  N   UNL A   1      39.862  34.426  31.851  1.00  0.00    -0.352 N 
ATOM     42  C   UNL A   1      40.946  34.041  31.122  1.00  0.00     0.251 C 
ATOM     43  H   UNL A   1      39.908  35.374  32.112  1.00  0.00     0.163 HD
ATOM     44  O   UNL A   1      41.767  34.927  30.870  1.00  0.00    -0.269 OA
BRANCH  42  45
ATOM     45  C   UNL A   1      41.234  32.655  30.669  1.00  0.00     0.039 A 
ATOM     46  C   UNL A   1      40.292  31.652  30.443  1.00  0.00     0.014 A 
ATOM     47  C   UNL A   1      42.600  32.342  30.521  1.00  0.00     0.014 A 
ATOM     48  C   UNL A   1      40.705  30.350  30.183  1.00  0.00     0.010 A 
ATOM     49  C   UNL A   1      43.017  31.049  30.245  1.00  0.00     0.010 A 
ATOM     50  C   UNL A   1      42.068  30.043  30.136  1.00  0.00    -0.014 A 
BRANCH  50  51
ATOM     51  C   UNL A   1      42.451  28.656  29.899  1.00  0.00     0.031 A 
ATOM     52  C   UNL A   1      43.193  28.015  31.020  1.00  0.00     0.074 A 
ATOM     53  C   UNL A   1      42.095  27.969  28.795  1.00  0.00     0.049 A 
ATOM     54  N   UNL A   1      44.412  27.581  31.024  1.00  0.00    -0.248 NA
ATOM     55  C   UNL A   1      42.536  27.963  32.336  1.00  0.00     0.031 C 
ATOM     56  C   UNL A   1      41.163  28.361  27.734  1.00  0.00     0.029 A 
ATOM     57  N   UNL A   1      42.447  26.704  28.432  1.00  0.00    -0.354 N 
ATOM     58  C   UNL A   1      44.622  27.032  32.287  1.00  0.00     0.074 A 
ATOM     59  C   UNL A   1      43.492  27.419  33.091  1.00  0.00     0.031 C 
ATOM     60  C   UNL A   1      40.854  27.279  26.984  1.00  0.00     0.029 A 
ATOM     61  C   UNL A   1      41.672  26.158  27.418  1.00  0.00     0.049 A 
ATOM     62  H   UNL A   1      43.191  26.217  28.854  1.00  0.00     0.167 HD
ATOM     63  C   UNL A   1      45.608  26.119  32.510  1.00  0.00     0.037 A 
ATOM     64  C   UNL A   1      41.671  24.867  27.005  1.00  0.00     0.037 A 
ATOM     65  C   UNL A   1      46.608  26.162  31.475  1.00  0.00     0.049 A 
ATOM     66  C   UNL A   1      42.940  24.247  27.460  1.00  0.00     0.074 A 
ATOM     67  C   UNL A   1      47.491  27.115  31.006  1.00  0.00     0.029 A 
ATOM     68  N   UNL A   1      46.576  25.187  30.509  1.00  0.00    -0.354 N 
ATOM     69  N   UNL A   1      44.109  24.553  26.973  1.00  0.00    -0.248 NA
ATOM     70  C   UNL A   1      42.954  23.626  28.776  1.00  0.00     0.031 C 
ATOM     71  C   UNL A   1      47.534  26.913  29.594  1.00  0.00     0.029 A 
ATOM     72  C   UNL A   1      46.723  25.817  29.301  1.00  0.00     0.049 A 
ATOM     73  H   UNL A   1      46.466  24.220  30.656  1.00  0.00     0.167 HD
ATOM     74  C   UNL A   1      44.951  24.583  28.075  1.00  0.00     0.074 A 
ATOM     75  C   UNL A   1      44.204  23.923  29.144  1.00  0.00     0.031 C 
ATOM     76  C   UNL A   1      46.055  25.388  28.098  1.00  0.00     0.037 A 
BRANCH  63  77
ATOM     77  C   UNL A   1      45.465  24.925  33.426  1.00  0.00     0.057 A 
ATOM     78  C   UNL A   1      44.611  23.834  33.169  1.00  0.00     0.134 A 
ATOM     79  C   UNL A   1      46.448  24.695  34.407  1.00  0.00     0.134 A 
ATOM     80  F   UNL A   1      43.652  23.871  32.238  1.00  0.00    -0.206 F 
ATOM     81  C   UNL A   1      44.764  22.591  33.790  1.00  0.00     0.040 A 
ATOM     82  C   UNL A   1      46.640  23.441  34.999  1.00  0.00     0.040 A 
ATOM     83  F   UNL A   1      47.317  25.658  34.751  1.00  0.00    -0.206 F 
ATOM     84  C   UNL A   1      45.806  22.378  34.677  1.00  0.00     0.006 A 
ENDBRANCH  63  77
BRANCH  64  85
ATOM     85  C   UNL A   1      40.528  24.058  26.526  1.00  0.00     0.057 A 
ATOM     86  C   UNL A   1      39.203  24.481  26.735  1.00  0.00     0.134 A 
ATOM     87  C   UNL A   1      40.691  22.731  26.107  1.00  0.00     0.134 A 
ATOM     88  F   UNL A   1      38.935  25.704  27.215  1.00  0.00    -0.206 F 
ATOM     89  C   UNL A   1      38.106  23.633  26.548  1.00  0.00     0.040 A 
ATOM     90  C   UNL A   1      39.600  21.868  25.920  1.00  0.00     0.040 A 
ATOM     91  F   UNL A   1      41.918  22.219  25.928  1.00  0.00    -0.206 F 
ATOM     92  C   UNL A   1      38.303  22.317  26.151  1.00  0.00     0.006 A 
ENDBRANCH  64  85
BRANCH  76  93
ATOM     93  C   UNL A   1      46.450  26.060  26.812  1.00  0.00     0.057 A 
ATOM     94  C   UNL A   1      45.923  27.320  26.516  1.00  0.00     0.134 A 
ATOM     95  C   UNL A   1      47.237  25.453  25.821  1.00  0.00     0.134 A 
ATOM     96  F   UNL A   1      45.109  27.935  27.388  1.00  0.00    -0.206 F 
ATOM     97  C   UNL A   1      46.189  27.964  25.306  1.00  0.00     0.040 A 
ATOM     98  C   UNL A   1      47.544  26.104  24.622  1.00  0.00     0.040 A 
ATOM     99  F   UNL A   1      47.685  24.201  25.959  1.00  0.00    -0.206 F 
ATOM    100  C   UNL A   1      47.016  27.365  24.361  1.00  0.00     0.006 A 
ENDBRANCH  76  93
ENDBRANCH  50  51
ENDBRANCH  42  45
ENDBRANCH  40  41
ENDBRANCH  39  40
ENDBRANCH  38  39
ENDBRANCH  37  38
ENDBRANCH   1  37
TORSDOF 19
ENDMDL
MODEL 3
REMARK VINA RESULT:     -10.9      5.859     10.523
REMARK SMILES O=C(CSc1nnc2sc3ccccc3n12)N[C@H](Cc1c[nH]c2ccccc12)C(=O)NCCCCCCNC(=O)c1ccc(-c2c3nc(c(-c4c(F)cccc4F)c4ccc([nH]4)c(-c4c(F)cccc4F)c4nc(c(-c5c(F)cccc5F)c5ccc2[nH]5)C=C4)C=C3)cc1
REMARK SMILES IDX 33 1 32 2 31 3 29 4 30 5 18 7 17 8 1 9 2 10 3 12 4 13 5 14
REMARK SMILES IDX 6 15 16 16 7 17 8 18 15 19 9 20 10 21 14 22 11 23 13 24
REMARK SMILES IDX 12 25 19 26 20 27 21 28 28 29 22 30 23 31 27 32 24 34 26 35
REMARK SMILES IDX 25 36 34 37 35 38 36 39 37 40 38 41 39 42 40 44 41 45 42 46
REMARK SMILES IDX 94 47 43 48 93 49 44 50 45 51 46 52 87 53 47 54 92 55 86 56
REMARK SMILES IDX 88 57 48 58 91 59 85 60 84 61 49 63 75 64 58 65 74 66 59 67
REMARK SMILES IDX 62 68 73 69 89 70 60 71 61 72 72 74 90 75 63 76 50 77 51 78
REMARK SMILES IDX 56 79 52 80 53 81 55 82 57 83 54 84 76 85 77 86 82 87 78 88
REMARK SMILES IDX 79 89 81 90 83 91 80 92 64 93 65 94 70 95 66 96 67 97 69 98
REMARK SMILES IDX 71 99 68 100
REMARK H PARENT 31 6 17 11 22 33 38 43 88 62 62 73
REMARK Flexibility Score: inf
ROOT
ATOM      1  C   UNL A   1      43.927  30.933  27.516  1.00  0.00     0.021 C 
ENDROOT
BRANCH   1   2
ATOM      2  C   UNL A   1      44.390  29.602  26.952  1.00  0.00     0.116 C 
BRANCH   2   3
ATOM      3  N   UNL A   1      43.614  29.176  25.810  1.00  0.00    -0.354 N 
ATOM      4  C   UNL A   1      43.102  27.945  25.525  1.00  0.00     0.242 C 
ATOM      5  O   UNL A   1      42.306  27.853  24.584  1.00  0.00    -0.273 OA
ATOM      6  H   UNL A   1      43.428  29.875  25.141  1.00  0.00     0.163 HD
BRANCH   4   7
ATOM      7  C   UNL A   1      43.400  26.720  26.411  1.00  0.00     0.175 C 
BRANCH   7   8
ATOM      8  N   UNL A   1      43.708  25.602  25.501  1.00  0.00    -0.343 N 
ATOM      9  O   UNL A   1      45.978  25.412  25.704  1.00  0.00    -0.274 OA
ATOM     10  C   UNL A   1      44.897  24.957  25.323  1.00  0.00     0.231 C 
ATOM     11  H   UNL A   1      42.958  25.280  24.949  1.00  0.00     0.164 HD
BRANCH  10  12
ATOM     12  C   UNL A   1      44.852  23.625  24.587  1.00  0.00     0.178 C 
BRANCH  12  13
ATOM     13  S   UNL A   1      46.041  22.383  25.172  1.00  0.00    -0.076 SA
BRANCH  13  14
ATOM     14  C   UNL A   1      45.176  20.909  24.927  1.00  0.00     0.197 A 
ATOM     15  N   UNL A   1      45.639  19.857  24.277  1.00  0.00    -0.122 NA
ATOM     16  N   UNL A   1      43.982  20.584  25.503  1.00  0.00    -0.260 N 
ATOM     17  N   UNL A   1      44.733  18.811  24.433  1.00  0.00    -0.118 NA
ATOM     18  C   UNL A   1      43.764  19.281  25.166  1.00  0.00     0.217 A 
ATOM     19  C   UNL A   1      43.016  21.161  26.322  1.00  0.00     0.068 A 
ATOM     20  S   UNL A   1      42.314  18.624  25.839  1.00  0.00    -0.094 S 
ATOM     21  C   UNL A   1      42.031  20.208  26.635  1.00  0.00     0.055 A 
ATOM     22  C   UNL A   1      42.981  22.452  26.818  1.00  0.00     0.028 A 
ATOM     23  C   UNL A   1      40.999  20.533  27.496  1.00  0.00     0.021 A 
ATOM     24  C   UNL A   1      41.935  22.776  27.684  1.00  0.00     0.002 A 
ATOM     25  C   UNL A   1      40.960  21.825  28.028  1.00  0.00     0.002 A 
ENDBRANCH  13  14
ENDBRANCH  12  13
ENDBRANCH  10  12
ENDBRANCH   7   8
BRANCH   7  26
ATOM     26  C   UNL A   1      42.418  26.508  27.572  1.00  0.00     0.072 C 
BRANCH  26  27
ATOM     27  C   UNL A   1      42.954  26.755  28.967  1.00  0.00    -0.020 A 
ATOM     28  C   UNL A   1      42.915  27.989  29.597  1.00  0.00     0.087 A 
ATOM     29  C   UNL A   1      43.544  25.841  29.912  1.00  0.00     0.003 A 
ATOM     30  N   UNL A   1      43.432  27.860  30.855  1.00  0.00    -0.361 N 
ATOM     31  C   UNL A   1      43.820  26.562  31.078  1.00  0.00     0.046 A 
ATOM     32  C   UNL A   1      43.878  24.468  29.909  1.00  0.00     0.010 A 
ATOM     33  H   UNL A   1      43.513  28.592  31.508  1.00  0.00     0.166 HD
ATOM     34  C   UNL A   1      44.391  25.986  32.222  1.00  0.00     0.026 A 
ATOM     35  C   UNL A   1      44.467  23.880  31.035  1.00  0.00     0.001 A 
ATOM     36  C   UNL A   1      44.713  24.629  32.178  1.00  0.00     0.002 A 
ENDBRANCH  26  27
ENDBRANCH   7  26
ENDBRANCH   4   7
ENDBRANCH   2   3
ENDBRANCH   1   2
BRANCH   1  37
ATOM     37  C   UNL A   1      44.512  32.156  26.813  1.00  0.00     0.002 C 
BRANCH  37  38
ATOM     38  C   UNL A   1      45.343  33.092  27.697  1.00  0.00     0.002 C 
BRANCH  38  39
ATOM     39  C   UNL A   1      45.928  34.334  27.010  1.00  0.00     0.021 C 
BRANCH  39  40
ATOM     40  C   UNL A   1      46.858  35.160  27.896  1.00  0.00     0.116 C 
BRANCH  40  41
ATOM     41  N   UNL A   1      46.335  36.475  28.191  1.00  0.00    -0.352 N 
ATOM     42  C   UNL A   1      45.221  36.966  28.801  1.00  0.00     0.251 C 
ATOM     43  H   UNL A   1      46.932  37.192  27.875  1.00  0.00     0.163 HD
ATOM     44  O   UNL A   1      45.160  38.195  28.902  1.00  0.00    -0.269 OA
BRANCH  42  45
ATOM     45  C   UNL A   1      44.076  36.155  29.291  1.00  0.00     0.039 A 
ATOM     46  C   UNL A   1      42.838  36.018  28.663  1.00  0.00     0.014 A 
ATOM     47  C   UNL A   1      44.272  35.528  30.537  1.00  0.00     0.014 A 
ATOM     48  C   UNL A   1      41.794  35.366  29.310  1.00  0.00     0.010 A 
ATOM     49  C   UNL A   1      43.240  34.862  31.179  1.00  0.00     0.010 A 
ATOM     50  C   UNL A   1      41.984  34.834  30.589  1.00  0.00    -0.014 A 
BRANCH  50  51
ATOM     51  C   UNL A   1      40.849  34.194  31.241  1.00  0.00     0.031 A 
ATOM     52  C   UNL A   1      41.024  33.954  32.701  1.00  0.00     0.074 A 
ATOM     53  C   UNL A   1      39.693  33.914  30.607  1.00  0.00     0.049 A 
ATOM     54  N   UNL A   1      41.079  32.819  33.321  1.00  0.00    -0.248 NA
ATOM     55  C   UNL A   1      41.294  35.117  33.560  1.00  0.00     0.031 C 
ATOM     56  C   UNL A   1      39.267  34.313  29.263  1.00  0.00     0.029 A 
ATOM     57  N   UNL A   1      38.598  33.260  31.087  1.00  0.00    -0.354 N 
ATOM     58  C   UNL A   1      41.207  33.125  34.674  1.00  0.00     0.074 A 
ATOM     59  C   UNL A   1      41.475  34.537  34.748  1.00  0.00     0.031 C 
ATOM     60  C   UNL A   1      37.939  34.094  29.128  1.00  0.00     0.029 A 
ATOM     61  C   UNL A   1      37.454  33.410  30.315  1.00  0.00     0.049 A 
ATOM     62  H   UNL A   1      38.617  32.725  31.912  1.00  0.00     0.167 HD
ATOM     63  C   UNL A   1      40.868  32.227  35.640  1.00  0.00     0.037 A 
ATOM     64  C   UNL A   1      36.194  33.042  30.655  1.00  0.00     0.037 A 
ATOM     65  C   UNL A   1      40.825  30.885  35.119  1.00  0.00     0.049 A 
ATOM     66  C   UNL A   1      36.295  32.041  31.745  1.00  0.00     0.074 A 
ATOM     67  C   UNL A   1      41.742  30.030  34.539  1.00  0.00     0.029 A 
ATOM     68  N   UNL A   1      39.595  30.340  34.846  1.00  0.00    -0.354 N 
ATOM     69  N   UNL A   1      36.757  30.834  31.577  1.00  0.00    -0.248 NA
ATOM     70  C   UNL A   1      36.316  32.533  33.114  1.00  0.00     0.031 C 
ATOM     71  C   UNL A   1      41.007  29.328  33.537  1.00  0.00     0.029 A 
ATOM     72  C   UNL A   1      39.681  29.756  33.610  1.00  0.00     0.049 A 
ATOM     73  H   UNL A   1      38.801  30.366  35.429  1.00  0.00     0.167 HD
ATOM     74  C   UNL A   1      37.526  30.591  32.706  1.00  0.00     0.074 A 
ATOM     75  C   UNL A   1      37.149  31.638  33.655  1.00  0.00     0.031 C 
ATOM     76  C   UNL A   1      38.595  29.743  32.663  1.00  0.00     0.037 A 
BRANCH  63  77
ATOM     77  C   UNL A   1      40.187  32.596  36.939  1.00  0.00     0.057 A 
ATOM     78  C   UNL A   1      40.836  32.617  38.189  1.00  0.00     0.134 A 
ATOM     79  C   UNL A   1      38.954  33.274  36.894  1.00  0.00     0.134 A 
ATOM     80  F   UNL A   1      42.035  32.059  38.390  1.00  0.00    -0.206 F 
ATOM     81  C   UNL A   1      40.333  33.315  39.291  1.00  0.00     0.040 A 
ATOM     82  C   UNL A   1      38.465  34.014  37.977  1.00  0.00     0.040 A 
ATOM     83  F   UNL A   1      38.233  33.319  35.764  1.00  0.00    -0.206 F 
ATOM     84  C   UNL A   1      39.165  34.050  39.176  1.00  0.00     0.006 A 
ENDBRANCH  63  77
BRANCH  64  85
ATOM     85  C   UNL A   1      34.920  33.720  30.326  1.00  0.00     0.057 A 
ATOM     86  C   UNL A   1      34.281  33.501  29.092  1.00  0.00     0.134 A 
ATOM     87  C   UNL A   1      34.445  34.801  31.080  1.00  0.00     0.134 A 
ATOM     88  F   UNL A   1      34.708  32.548  28.252  1.00  0.00    -0.206 F 
ATOM     89  C   UNL A   1      33.240  34.314  28.631  1.00  0.00     0.040 A 
ATOM     90  C   UNL A   1      33.405  35.627  30.629  1.00  0.00     0.040 A 
ATOM     91  F   UNL A   1      35.022  35.120  32.249  1.00  0.00    -0.206 F 
ATOM     92  C   UNL A   1      32.806  35.390  29.395  1.00  0.00     0.006 A 
ENDBRANCH  64  85
BRANCH  76  93
ATOM     93  C   UNL A   1      38.771  28.911  31.423  1.00  0.00     0.057 A 
ATOM     94  C   UNL A   1      38.548  27.533  31.494  1.00  0.00     0.134 A 
ATOM     95  C   UNL A   1      39.257  29.413  30.206  1.00  0.00     0.134 A 
ATOM     96  F   UNL A   1      38.145  26.971  32.644  1.00  0.00    -0.206 F 
ATOM     97  C   UNL A   1      38.768  26.694  30.399  1.00  0.00     0.040 A 
ATOM     98  C   UNL A   1      39.442  28.590  29.091  1.00  0.00     0.040 A 
ATOM     99  F   UNL A   1      39.614  30.695  30.076  1.00  0.00    -0.206 F 
ATOM    100  C   UNL A   1      39.199  27.224  29.187  1.00  0.00     0.006 A 
ENDBRANCH  76  93
ENDBRANCH  50  51
ENDBRANCH  42  45
ENDBRANCH  40  41
ENDBRANCH  39  40
ENDBRANCH  38  39
ENDBRANCH  37  38
ENDBRANCH   1  37
TORSDOF 19
ENDMDL
