MODEL 1
REMARK VINA RESULT:     -11.7      0.000      0.000
REMARK SMILES Cc1nc2n(n1)[C@@H](c1ccc([N+](=O)[O-])o1)CC(C(=O)NCCCCCCNC(=O)c1ccc(-c3c4nc(c(-c5c(F)cccc5F)c5ccc([nH]5)c(-c5c(F)cccc5F)c5nc(c(-c6c(F)cccc6F)c6ccc3[nH]6)C=C5)C=C4)cc1)=N2
REMARK SMILES IDX 23 1 22 2 21 3 20 4 18 5 19 6 17 8 1 9 2 10 3 11 6 12 4 13
REMARK SMILES IDX 5 14 84 15 7 16 16 17 8 18 9 19 15 20 10 21 11 22 12 23
REMARK SMILES IDX 13 24 14 25 24 26 25 27 26 28 27 29 28 30 29 32 30 33 31 34
REMARK SMILES IDX 83 35 32 36 82 37 33 38 34 39 35 40 76 41 36 42 81 43 75 44
REMARK SMILES IDX 77 45 37 46 80 47 74 48 73 49 38 51 64 52 47 53 63 54 48 55
REMARK SMILES IDX 51 56 62 57 78 58 49 59 50 60 61 62 79 63 52 64 39 65 40 66
REMARK SMILES IDX 45 67 41 68 42 69 44 70 46 71 43 72 65 73 66 74 71 75 67 76
REMARK SMILES IDX 68 77 70 78 72 79 69 80 53 81 54 82 59 83 55 84 56 85 58 86
REMARK SMILES IDX 60 87 57 88
REMARK H PARENT 20 7 27 31 77 50 51 61
REMARK Flexibility Score: inf
ROOT
ATOM      1  C   UNL A   1      34.394  23.669  25.770  1.00  0.00     0.002 C 
ENDROOT
BRANCH   1   2
ATOM      2  C   UNL A   1      33.683  22.369  26.173  1.00  0.00     0.021 C 
BRANCH   2   3
ATOM      3  C   UNL A   1      32.340  22.151  25.469  1.00  0.00     0.116 C 
BRANCH   3   4
ATOM      4  N   UNL A   1      31.216  22.431  26.349  1.00  0.00    -0.351 N 
ATOM      5  C   UNL A   1      30.470  23.533  26.683  1.00  0.00     0.265 C 
ATOM      6  O   UNL A   1      29.574  23.364  27.511  1.00  0.00    -0.268 OA
ATOM      7  H   UNL A   1      30.915  21.624  26.827  1.00  0.00     0.163 HD
BRANCH   5   8
ATOM      8  C   UNL A   1      30.661  24.949  26.099  1.00  0.00     0.112 C 
ATOM      9  C   UNL A   1      31.974  30.593  26.507  1.00  0.00     0.092 C 
ATOM     10  C   UNL A   1      31.629  29.195  26.184  1.00  0.00     0.149 A 
ATOM     11  N   UNL A   1      31.660  28.195  27.120  1.00  0.00    -0.195 NA
ATOM     12  N   UNL A   1      31.277  28.802  24.954  1.00  0.00    -0.154 NA
ATOM     13  C   UNL A   1      31.309  27.114  26.455  1.00  0.00     0.249 A 
ATOM     14  N   UNL A   1      31.111  27.480  25.154  1.00  0.00    -0.219 N 
ATOM     15  N   UNL A   1      31.158  25.846  26.898  1.00  0.00    -0.211 NA
ATOM     16  C   UNL A   1      30.678  26.577  24.116  1.00  0.00     0.184 C 
ATOM     17  C   UNL A   1      30.218  25.236  24.692  1.00  0.00     0.098 C 
BRANCH  16  18
ATOM     18  C   UNL A   1      31.727  26.378  23.059  1.00  0.00     0.136 A 
ATOM     19  C   UNL A   1      32.474  27.202  22.233  1.00  0.00     0.056 A 
ATOM     20  O   UNL A   1      32.047  25.068  22.803  1.00  0.00    -0.404 OA
ATOM     21  C   UNL A   1      33.311  26.358  21.452  1.00  0.00     0.134 A 
ATOM     22  C   UNL A   1      33.017  25.080  21.853  1.00  0.00     0.433 A 
BRANCH  22  23
ATOM     23  N   UNL A   1      33.537  23.802  21.480  1.00  0.00     0.102 N 
ATOM     24  O   UNL A   1      34.308  23.265  22.293  1.00  0.00    -0.256 OA
ATOM     25  O   UNL A   1      33.173  23.326  20.401  1.00  0.00    -0.256 OA
ENDBRANCH  22  23
ENDBRANCH  16  18
ENDBRANCH   5   8
ENDBRANCH   3   4
ENDBRANCH   2   3
ENDBRANCH   1   2
BRANCH   1  26
ATOM     26  C   UNL A   1      35.928  23.607  25.771  1.00  0.00     0.002 C 
BRANCH  26  27
ATOM     27  C   UNL A   1      36.552  22.198  25.845  1.00  0.00     0.021 C 
BRANCH  27  28
ATOM     28  C   UNL A   1      38.002  22.086  25.339  1.00  0.00     0.116 C 
BRANCH  28  29
ATOM     29  N   UNL A   1      38.827  21.414  26.328  1.00  0.00    -0.352 N 
ATOM     30  C   UNL A   1      39.974  21.766  26.979  1.00  0.00     0.251 C 
ATOM     31  H   UNL A   1      38.491  20.522  26.578  1.00  0.00     0.163 HD
ATOM     32  O   UNL A   1      40.652  20.856  27.461  1.00  0.00    -0.269 OA
BRANCH  30  33
ATOM     33  C   UNL A   1      40.429  23.161  27.175  1.00  0.00     0.039 A 
ATOM     34  C   UNL A   1      41.760  23.446  26.829  1.00  0.00     0.014 A 
ATOM     35  C   UNL A   1      39.680  24.125  27.851  1.00  0.00     0.014 A 
ATOM     36  C   UNL A   1      42.334  24.683  27.127  1.00  0.00     0.010 A 
ATOM     37  C   UNL A   1      40.259  25.370  28.151  1.00  0.00     0.010 A 
ATOM     38  C   UNL A   1      41.584  25.666  27.774  1.00  0.00    -0.014 A 
BRANCH  38  39
ATOM     39  C   UNL A   1      42.181  27.022  27.849  1.00  0.00     0.031 A 
ATOM     40  C   UNL A   1      41.191  28.120  27.649  1.00  0.00     0.074 A 
ATOM     41  C   UNL A   1      43.239  27.348  28.628  1.00  0.00     0.049 A 
ATOM     42  N   UNL A   1      40.435  28.504  28.631  1.00  0.00    -0.248 NA
ATOM     43  C   UNL A   1      40.773  28.653  26.357  1.00  0.00     0.031 C 
ATOM     44  C   UNL A   1      43.548  26.716  29.917  1.00  0.00     0.029 A 
ATOM     45  N   UNL A   1      44.087  28.439  28.574  1.00  0.00    -0.354 N 
ATOM     46  C   UNL A   1      39.406  29.264  28.113  1.00  0.00     0.074 A 
ATOM     47  C   UNL A   1      39.669  29.347  26.693  1.00  0.00     0.031 C 
ATOM     48  C   UNL A   1      44.380  27.526  30.605  1.00  0.00     0.029 A 
ATOM     49  C   UNL A   1      44.776  28.650  29.760  1.00  0.00     0.049 A 
ATOM     50  H   UNL A   1      44.191  29.007  27.776  1.00  0.00     0.167 HD
ATOM     51  C   UNL A   1      38.432  29.764  28.923  1.00  0.00     0.037 A 
ATOM     52  C   UNL A   1      45.251  29.844  30.207  1.00  0.00     0.037 A 
ATOM     53  C   UNL A   1      38.570  29.537  30.352  1.00  0.00     0.049 A 
ATOM     54  C   UNL A   1      44.030  30.447  30.849  1.00  0.00     0.074 A 
ATOM     55  C   UNL A   1      37.766  29.415  31.468  1.00  0.00     0.029 A 
ATOM     56  N   UNL A   1      39.843  29.448  30.837  1.00  0.00    -0.354 N 
ATOM     57  N   UNL A   1      43.562  30.165  32.038  1.00  0.00    -0.248 NA
ATOM     58  C   UNL A   1      43.107  31.220  29.999  1.00  0.00     0.031 C 
ATOM     59  C   UNL A   1      38.624  29.493  32.620  1.00  0.00     0.029 A 
ATOM     60  C   UNL A   1      39.917  29.705  32.172  1.00  0.00     0.049 A 
ATOM     61  H   UNL A   1      40.625  29.222  30.281  1.00  0.00     0.167 HD
ATOM     62  C   UNL A   1      42.210  30.484  31.968  1.00  0.00     0.074 A 
ATOM     63  C   UNL A   1      42.023  31.264  30.762  1.00  0.00     0.031 C 
ATOM     64  C   UNL A   1      41.241  29.875  32.709  1.00  0.00     0.037 A 
BRANCH  51  65
ATOM     65  C   UNL A   1      37.376  30.709  28.484  1.00  0.00     0.057 A 
ATOM     66  C   UNL A   1      37.539  32.066  28.813  1.00  0.00     0.134 A 
ATOM     67  C   UNL A   1      36.141  30.316  27.972  1.00  0.00     0.134 A 
ATOM     68  F   UNL A   1      38.712  32.509  29.297  1.00  0.00    -0.206 F 
ATOM     69  C   UNL A   1      36.498  32.986  28.695  1.00  0.00     0.040 A 
ATOM     70  C   UNL A   1      35.090  31.234  27.838  1.00  0.00     0.040 A 
ATOM     71  F   UNL A   1      35.913  29.036  27.646  1.00  0.00    -0.206 F 
ATOM     72  C   UNL A   1      35.262  32.567  28.218  1.00  0.00     0.006 A 
ENDBRANCH  51  65
BRANCH  52  73
ATOM     73  C   UNL A   1      46.194  30.594  29.321  1.00  0.00     0.057 A 
ATOM     74  C   UNL A   1      47.490  30.868  29.807  1.00  0.00     0.134 A 
ATOM     75  C   UNL A   1      45.911  31.111  28.051  1.00  0.00     0.134 A 
ATOM     76  F   UNL A   1      47.826  30.546  31.066  1.00  0.00    -0.206 F 
ATOM     77  C   UNL A   1      48.474  31.490  29.029  1.00  0.00     0.040 A 
ATOM     78  C   UNL A   1      46.893  31.707  27.248  1.00  0.00     0.040 A 
ATOM     79  F   UNL A   1      44.676  31.067  27.538  1.00  0.00    -0.206 F 
ATOM     80  C   UNL A   1      48.186  31.879  27.728  1.00  0.00     0.006 A 
ENDBRANCH  52  73
BRANCH  64  81
ATOM     81  C   UNL A   1      41.650  29.232  33.974  1.00  0.00     0.057 A 
ATOM     82  C   UNL A   1      42.025  27.885  33.982  1.00  0.00     0.134 A 
ATOM     83  C   UNL A   1      41.746  29.947  35.171  1.00  0.00     0.134 A 
ATOM     84  F   UNL A   1      41.990  27.159  32.852  1.00  0.00    -0.206 F 
ATOM     85  C   UNL A   1      42.483  27.266  35.141  1.00  0.00     0.040 A 
ATOM     86  C   UNL A   1      42.218  29.342  36.336  1.00  0.00     0.040 A 
ATOM     87  F   UNL A   1      41.395  31.241  35.233  1.00  0.00    -0.206 F 
ATOM     88  C   UNL A   1      42.588  27.998  36.322  1.00  0.00     0.006 A 
ENDBRANCH  64  81
ENDBRANCH  38  39
ENDBRANCH  30  33
ENDBRANCH  28  29
ENDBRANCH  27  28
ENDBRANCH  26  27
ENDBRANCH   1  26
TORSDOF 15
ENDMDL
MODEL 2
REMARK VINA RESULT:     -11.6      5.657     10.356
REMARK SMILES Cc1nc2n(n1)[C@@H](c1ccc([N+](=O)[O-])o1)CC(C(=O)NCCCCCCNC(=O)c1ccc(-c3c4nc(c(-c5c(F)cccc5F)c5ccc([nH]5)c(-c5c(F)cccc5F)c5nc(c(-c6c(F)cccc6F)c6ccc3[nH]6)C=C5)C=C4)cc1)=N2
REMARK SMILES IDX 23 1 22 2 21 3 20 4 18 5 19 6 17 8 1 9 2 10 3 11 6 12 4 13
REMARK SMILES IDX 5 14 84 15 7 16 16 17 8 18 9 19 15 20 10 21 11 22 12 23
REMARK SMILES IDX 13 24 14 25 24 26 25 27 26 28 27 29 28 30 29 32 30 33 31 34
REMARK SMILES IDX 83 35 32 36 82 37 33 38 34 39 35 40 76 41 36 42 81 43 75 44
REMARK SMILES IDX 77 45 37 46 80 47 74 48 73 49 38 51 64 52 47 53 63 54 48 55
REMARK SMILES IDX 51 56 62 57 78 58 49 59 50 60 61 62 79 63 52 64 39 65 40 66
REMARK SMILES IDX 45 67 41 68 42 69 44 70 46 71 43 72 65 73 66 74 71 75 67 76
REMARK SMILES IDX 68 77 70 78 72 79 69 80 53 81 54 82 59 83 55 84 56 85 58 86
REMARK SMILES IDX 60 87 57 88
REMARK H PARENT 20 7 27 31 77 50 51 61
REMARK Flexibility Score: inf
ROOT
ATOM      1  C   UNL A   1      45.013  32.371  26.414  1.00  0.00     0.002 C 
ENDROOT
BRANCH   1   2
ATOM      2  C   UNL A   1      44.598  30.947  26.811  1.00  0.00     0.021 C 
BRANCH   2   3
ATOM      3  C   UNL A   1      45.762  29.952  26.865  1.00  0.00     0.116 C 
BRANCH   3   4
ATOM      4  N   UNL A   1      45.994  29.321  25.575  1.00  0.00    -0.351 N 
ATOM      5  C   UNL A   1      46.102  28.037  25.106  1.00  0.00     0.265 C 
ATOM      6  O   UNL A   1      46.322  27.904  23.901  1.00  0.00    -0.268 OA
ATOM      7  H   UNL A   1      46.100  29.985  24.855  1.00  0.00     0.163 HD
BRANCH   5   8
ATOM      8  C   UNL A   1      45.960  26.760  25.962  1.00  0.00     0.112 C 
ATOM      9  C   UNL A   1      43.886  23.745  30.474  1.00  0.00     0.092 C 
ATOM     10  C   UNL A   1      44.499  24.318  29.259  1.00  0.00     0.149 A 
ATOM     11  N   UNL A   1      44.256  25.602  28.848  1.00  0.00    -0.195 NA
ATOM     12  N   UNL A   1      45.323  23.621  28.467  1.00  0.00    -0.154 NA
ATOM     13  C   UNL A   1      44.958  25.729  27.742  1.00  0.00     0.249 A 
ATOM     14  N   UNL A   1      45.570  24.531  27.505  1.00  0.00    -0.219 N 
ATOM     15  N   UNL A   1      45.097  26.802  26.933  1.00  0.00    -0.211 NA
ATOM     16  C   UNL A   1      46.461  24.282  26.399  1.00  0.00     0.184 C 
ATOM     17  C   UNL A   1      46.846  25.578  25.683  1.00  0.00     0.098 C 
BRANCH  16  18
ATOM     18  C   UNL A   1      45.904  23.276  25.432  1.00  0.00     0.136 A 
ATOM     19  C   UNL A   1      45.058  23.316  24.335  1.00  0.00     0.056 A 
ATOM     20  O   UNL A   1      46.290  21.980  25.661  1.00  0.00    -0.404 OA
ATOM     21  C   UNL A   1      44.942  21.983  23.853  1.00  0.00     0.134 A 
ATOM     22  C   UNL A   1      45.721  21.223  24.688  1.00  0.00     0.433 A 
BRANCH  22  23
ATOM     23  N   UNL A   1      46.047  19.832  24.711  1.00  0.00     0.102 N 
ATOM     24  O   UNL A   1      45.103  19.043  24.544  1.00  0.00    -0.256 OA
ATOM     25  O   UNL A   1      47.232  19.523  24.876  1.00  0.00    -0.256 OA
ENDBRANCH  22  23
ENDBRANCH  16  18
ENDBRANCH   5   8
ENDBRANCH   3   4
ENDBRANCH   2   3
ENDBRANCH   1   2
BRANCH   1  26
ATOM     26  C   UNL A   1      43.996  33.136  25.556  1.00  0.00     0.002 C 
BRANCH  26  27
ATOM     27  C   UNL A   1      44.491  34.457  24.930  1.00  0.00     0.021 C 
BRANCH  27  28
ATOM     28  C   UNL A   1      45.650  35.150  25.671  1.00  0.00     0.116 C 
BRANCH  28  29
ATOM     29  N   UNL A   1      45.198  36.405  26.246  1.00  0.00    -0.352 N 
ATOM     30  C   UNL A   1      44.225  36.720  27.150  1.00  0.00     0.251 C 
ATOM     31  H   UNL A   1      45.695  37.189  25.915  1.00  0.00     0.163 HD
ATOM     32  O   UNL A   1      43.813  37.881  27.155  1.00  0.00    -0.269 OA
BRANCH  30  33
ATOM     33  C   UNL A   1      43.667  35.771  28.141  1.00  0.00     0.039 A 
ATOM     34  C   UNL A   1      44.590  35.010  28.877  1.00  0.00     0.014 A 
ATOM     35  C   UNL A   1      42.309  35.469  28.234  1.00  0.00     0.014 A 
ATOM     36  C   UNL A   1      44.169  33.977  29.714  1.00  0.00     0.010 A 
ATOM     37  C   UNL A   1      41.884  34.427  29.076  1.00  0.00     0.010 A 
ATOM     38  C   UNL A   1      42.809  33.686  29.838  1.00  0.00    -0.014 A 
BRANCH  38  39
ATOM     39  C   UNL A   1      42.423  32.737  30.912  1.00  0.00     0.031 A 
ATOM     40  C   UNL A   1      40.997  32.861  31.330  1.00  0.00     0.074 A 
ATOM     41  C   UNL A   1      42.954  31.502  31.065  1.00  0.00     0.049 A 
ATOM     42  N   UNL A   1      40.061  32.298  30.630  1.00  0.00    -0.248 NA
ATOM     43  C   UNL A   1      40.488  33.797  32.326  1.00  0.00     0.031 C 
ATOM     44  C   UNL A   1      43.439  30.663  29.962  1.00  0.00     0.029 A 
ATOM     45  N   UNL A   1      42.942  30.652  32.156  1.00  0.00    -0.354 N 
ATOM     46  C   UNL A   1      38.849  32.833  31.019  1.00  0.00     0.074 A 
ATOM     47  C   UNL A   1      39.163  33.750  32.093  1.00  0.00     0.031 C 
ATOM     48  C   UNL A   1      43.505  29.384  30.390  1.00  0.00     0.029 A 
ATOM     49  C   UNL A   1      43.211  29.332  31.820  1.00  0.00     0.049 A 
ATOM     50  H   UNL A   1      42.761  30.952  33.076  1.00  0.00     0.167 HD
ATOM     51  C   UNL A   1      37.691  32.453  30.412  1.00  0.00     0.037 A 
ATOM     52  C   UNL A   1      42.789  28.232  32.499  1.00  0.00     0.037 A 
ATOM     53  C   UNL A   1      37.776  31.406  29.407  1.00  0.00     0.049 A 
ATOM     54  C   UNL A   1      41.394  28.048  31.963  1.00  0.00     0.074 A 
ATOM     55  C   UNL A   1      37.101  30.992  28.275  1.00  0.00     0.029 A 
ATOM     56  N   UNL A   1      38.765  30.478  29.573  1.00  0.00    -0.354 N 
ATOM     57  N   UNL A   1      41.071  27.494  30.822  1.00  0.00    -0.248 NA
ATOM     58  C   UNL A   1      40.295  28.779  32.618  1.00  0.00     0.031 C 
ATOM     59  C   UNL A   1      37.588  29.679  27.947  1.00  0.00     0.029 A 
ATOM     60  C   UNL A   1      38.512  29.315  28.913  1.00  0.00     0.049 A 
ATOM     61  H   UNL A   1      39.575  30.634  30.113  1.00  0.00     0.167 HD
ATOM     62  C   UNL A   1      39.832  28.040  30.505  1.00  0.00     0.074 A 
ATOM     63  C   UNL A   1      39.339  28.691  31.702  1.00  0.00     0.031 C 
ATOM     64  C   UNL A   1      39.373  28.207  29.232  1.00  0.00     0.037 A 
BRANCH  51  65
ATOM     65  C   UNL A   1      36.335  32.856  30.858  1.00  0.00     0.057 A 
ATOM     66  C   UNL A   1      35.716  33.922  30.182  1.00  0.00     0.134 A 
ATOM     67  C   UNL A   1      35.734  32.405  32.031  1.00  0.00     0.134 A 
ATOM     68  F   UNL A   1      36.240  34.392  29.037  1.00  0.00    -0.206 F 
ATOM     69  C   UNL A   1      34.580  34.556  30.681  1.00  0.00     0.040 A 
ATOM     70  C   UNL A   1      34.584  33.026  32.539  1.00  0.00     0.040 A 
ATOM     71  F   UNL A   1      36.275  31.398  32.732  1.00  0.00    -0.206 F 
ATOM     72  C   UNL A   1      34.017  34.115  31.873  1.00  0.00     0.006 A 
ENDBRANCH  51  65
BRANCH  52  73
ATOM     73  C   UNL A   1      43.157  28.123  33.945  1.00  0.00     0.057 A 
ATOM     74  C   UNL A   1      43.954  27.031  34.350  1.00  0.00     0.134 A 
ATOM     75  C   UNL A   1      42.746  28.977  34.976  1.00  0.00     0.134 A 
ATOM     76  F   UNL A   1      44.287  26.071  33.472  1.00  0.00    -0.206 F 
ATOM     77  C   UNL A   1      44.421  26.881  35.661  1.00  0.00     0.040 A 
ATOM     78  C   UNL A   1      43.229  28.857  36.286  1.00  0.00     0.040 A 
ATOM     79  F   UNL A   1      41.857  29.954  34.762  1.00  0.00    -0.206 F 
ATOM     80  C   UNL A   1      44.088  27.819  36.627  1.00  0.00     0.006 A 
ENDBRANCH  52  73
BRANCH  64  81
ATOM     81  C   UNL A   1      39.945  27.344  28.180  1.00  0.00     0.057 A 
ATOM     82  C   UNL A   1      40.825  27.886  27.237  1.00  0.00     0.134 A 
ATOM     83  C   UNL A   1      39.693  25.971  28.130  1.00  0.00     0.134 A 
ATOM     84  F   UNL A   1      41.134  29.192  27.262  1.00  0.00    -0.206 F 
ATOM     85  C   UNL A   1      41.437  27.089  26.275  1.00  0.00     0.040 A 
ATOM     86  C   UNL A   1      40.313  25.158  27.179  1.00  0.00     0.040 A 
ATOM     87  F   UNL A   1      38.854  25.390  29.001  1.00  0.00    -0.206 F 
ATOM     88  C   UNL A   1      41.188  25.718  26.250  1.00  0.00     0.006 A 
ENDBRANCH  64  81
ENDBRANCH  38  39
ENDBRANCH  30  33
ENDBRANCH  28  29
ENDBRANCH  27  28
ENDBRANCH  26  27
ENDBRANCH   1  26
TORSDOF 15
ENDMDL
MODEL 3
REMARK VINA RESULT:     -11.6      1.491      2.667
REMARK SMILES Cc1nc2n(n1)[C@@H](c1ccc([N+](=O)[O-])o1)CC(C(=O)NCCCCCCNC(=O)c1ccc(-c3c4nc(c(-c5c(F)cccc5F)c5ccc([nH]5)c(-c5c(F)cccc5F)c5nc(c(-c6c(F)cccc6F)c6ccc3[nH]6)C=C5)C=C4)cc1)=N2
REMARK SMILES IDX 23 1 22 2 21 3 20 4 18 5 19 6 17 8 1 9 2 10 3 11 6 12 4 13
REMARK SMILES IDX 5 14 84 15 7 16 16 17 8 18 9 19 15 20 10 21 11 22 12 23
REMARK SMILES IDX 13 24 14 25 24 26 25 27 26 28 27 29 28 30 29 32 30 33 31 34
REMARK SMILES IDX 83 35 32 36 82 37 33 38 34 39 35 40 76 41 36 42 81 43 75 44
REMARK SMILES IDX 77 45 37 46 80 47 74 48 73 49 38 51 64 52 47 53 63 54 48 55
REMARK SMILES IDX 51 56 62 57 78 58 49 59 50 60 61 62 79 63 52 64 39 65 40 66
REMARK SMILES IDX 45 67 41 68 42 69 44 70 46 71 43 72 65 73 66 74 71 75 67 76
REMARK SMILES IDX 68 77 70 78 72 79 69 80 53 81 54 82 59 83 55 84 56 85 58 86
REMARK SMILES IDX 60 87 57 88
REMARK H PARENT 20 7 27 31 77 50 51 61
REMARK Flexibility Score: inf
ROOT
ATOM      1  C   UNL A   1      35.212  22.800  25.200  1.00  0.00     0.002 C 
ENDROOT
BRANCH   1   2
ATOM      2  C   UNL A   1      34.638  22.726  26.622  1.00  0.00     0.021 C 
BRANCH   2   3
ATOM      3  C   UNL A   1      33.404  21.827  26.748  1.00  0.00     0.116 C 
BRANCH   3   4
ATOM      4  N   UNL A   1      32.216  22.586  27.109  1.00  0.00    -0.351 N 
ATOM      5  C   UNL A   1      31.583  23.712  26.647  1.00  0.00     0.265 C 
ATOM      6  O   UNL A   1      30.567  24.061  27.250  1.00  0.00    -0.268 OA
ATOM      7  H   UNL A   1      31.748  22.191  27.880  1.00  0.00     0.163 HD
BRANCH   5   8
ATOM      8  C   UNL A   1      32.036  24.558  25.438  1.00  0.00     0.112 C 
ATOM      9  C   UNL A   1      32.666  25.551  19.749  1.00  0.00     0.092 C 
ATOM     10  C   UNL A   1      32.582  25.506  21.222  1.00  0.00     0.149 A 
ATOM     11  N   UNL A   1      31.984  24.472  21.893  1.00  0.00    -0.195 NA
ATOM     12  N   UNL A   1      33.070  26.476  22.005  1.00  0.00    -0.154 NA
ATOM     13  C   UNL A   1      32.097  24.798  23.163  1.00  0.00     0.249 A 
ATOM     14  N   UNL A   1      32.721  26.012  23.220  1.00  0.00    -0.219 N 
ATOM     15  N   UNL A   1      31.694  24.122  24.261  1.00  0.00    -0.211 NA
ATOM     16  C   UNL A   1      33.060  26.690  24.447  1.00  0.00     0.184 C 
ATOM     17  C   UNL A   1      32.881  25.780  25.663  1.00  0.00     0.098 C 
BRANCH  16  18
ATOM     18  C   UNL A   1      32.300  27.975  24.618  1.00  0.00     0.136 A 
ATOM     19  C   UNL A   1      32.358  29.056  25.483  1.00  0.00     0.056 A 
ATOM     20  O   UNL A   1      31.272  28.159  23.728  1.00  0.00    -0.404 OA
ATOM     21  C   UNL A   1      31.333  29.959  25.086  1.00  0.00     0.134 A 
ATOM     22  C   UNL A   1      30.720  29.368  24.012  1.00  0.00     0.433 A 
BRANCH  22  23
ATOM     23  N   UNL A   1      29.656  29.782  23.152  1.00  0.00     0.102 N 
ATOM     24  O   UNL A   1      28.903  30.663  23.597  1.00  0.00    -0.256 OA
ATOM     25  O   UNL A   1      29.577  29.253  22.039  1.00  0.00    -0.256 OA
ENDBRANCH  22  23
ENDBRANCH  16  18
ENDBRANCH   5   8
ENDBRANCH   3   4
ENDBRANCH   2   3
ENDBRANCH   1   2
BRANCH   1  26
ATOM     26  C   UNL A   1      35.619  21.454  24.585  1.00  0.00     0.002 C 
BRANCH  26  27
ATOM     27  C   UNL A   1      37.029  20.940  24.944  1.00  0.00     0.021 C 
BRANCH  27  28
ATOM     28  C   UNL A   1      37.997  21.997  25.508  1.00  0.00     0.116 C 
BRANCH  28  29
ATOM     29  N   UNL A   1      38.976  21.366  26.377  1.00  0.00    -0.352 N 
ATOM     30  C   UNL A   1      40.160  21.789  26.909  1.00  0.00     0.251 C 
ATOM     31  H   UNL A   1      38.737  20.445  26.634  1.00  0.00     0.163 HD
ATOM     32  O   UNL A   1      40.953  20.923  27.283  1.00  0.00    -0.269 OA
BRANCH  30  33
ATOM     33  C   UNL A   1      40.531  23.210  27.098  1.00  0.00     0.039 A 
ATOM     34  C   UNL A   1      41.824  23.585  26.699  1.00  0.00     0.014 A 
ATOM     35  C   UNL A   1      39.750  24.118  27.814  1.00  0.00     0.014 A 
ATOM     36  C   UNL A   1      42.327  24.855  26.983  1.00  0.00     0.010 A 
ATOM     37  C   UNL A   1      40.257  25.397  28.101  1.00  0.00     0.010 A 
ATOM     38  C   UNL A   1      41.543  25.782  27.671  1.00  0.00    -0.014 A 
BRANCH  38  39
ATOM     39  C   UNL A   1      42.053  27.174  27.733  1.00  0.00     0.031 A 
ATOM     40  C   UNL A   1      40.994  28.204  27.523  1.00  0.00     0.074 A 
ATOM     41  C   UNL A   1      43.087  27.574  28.509  1.00  0.00     0.049 A 
ATOM     42  N   UNL A   1      40.215  28.549  28.502  1.00  0.00    -0.248 NA
ATOM     43  C   UNL A   1      40.544  28.699  26.226  1.00  0.00     0.031 C 
ATOM     44  C   UNL A   1      43.435  26.975  29.803  1.00  0.00     0.029 A 
ATOM     45  N   UNL A   1      43.864  28.716  28.444  1.00  0.00    -0.354 N 
ATOM     46  C   UNL A   1      39.140  29.237  27.977  1.00  0.00     0.074 A 
ATOM     47  C   UNL A   1      39.397  29.323  26.556  1.00  0.00     0.031 C 
ATOM     48  C   UNL A   1      44.214  27.843  30.483  1.00  0.00     0.029 A 
ATOM     49  C   UNL A   1      44.538  28.982  29.628  1.00  0.00     0.049 A 
ATOM     50  H   UNL A   1      43.932  29.282  27.641  1.00  0.00     0.167 HD
ATOM     51  C   UNL A   1      38.135  29.681  28.783  1.00  0.00     0.037 A 
ATOM     52  C   UNL A   1      44.936  30.207  30.064  1.00  0.00     0.037 A 
ATOM     53  C   UNL A   1      38.287  29.477  30.214  1.00  0.00     0.049 A 
ATOM     54  C   UNL A   1      43.678  30.738  30.700  1.00  0.00     0.074 A 
ATOM     55  C   UNL A   1      37.493  29.314  31.332  1.00  0.00     0.029 A 
ATOM     56  N   UNL A   1      39.564  29.473  30.699  1.00  0.00    -0.354 N 
ATOM     57  N   UNL A   1      43.229  30.437  31.892  1.00  0.00    -0.248 NA
ATOM     58  C   UNL A   1      42.709  31.443  29.844  1.00  0.00     0.031 C 
ATOM     59  C   UNL A   1      38.344  29.458  32.482  1.00  0.00     0.029 A 
ATOM     60  C   UNL A   1      39.621  29.747  32.031  1.00  0.00     0.049 A 
ATOM     61  H   UNL A   1      40.359  29.293  30.145  1.00  0.00     0.167 HD
ATOM     62  C   UNL A   1      41.860  30.668  31.820  1.00  0.00     0.074 A 
ATOM     63  C   UNL A   1      41.623  31.424  30.606  1.00  0.00     0.031 C 
ATOM     64  C   UNL A   1      40.932  30.006  32.567  1.00  0.00     0.037 A 
BRANCH  51  65
ATOM     65  C   UNL A   1      37.022  30.553  28.336  1.00  0.00     0.057 A 
ATOM     66  C   UNL A   1      37.125  31.930  28.602  1.00  0.00     0.134 A 
ATOM     67  C   UNL A   1      35.795  30.078  27.878  1.00  0.00     0.134 A 
ATOM     68  F   UNL A   1      38.287  32.450  29.031  1.00  0.00    -0.206 F 
ATOM     69  C   UNL A   1      36.037  32.792  28.476  1.00  0.00     0.040 A 
ATOM     70  C   UNL A   1      34.695  30.936  27.736  1.00  0.00     0.040 A 
ATOM     71  F   UNL A   1      35.623  28.774  27.614  1.00  0.00    -0.206 F 
ATOM     72  C   UNL A   1      34.810  32.291  28.054  1.00  0.00     0.006 A 
ENDBRANCH  51  65
BRANCH  52  73
ATOM     73  C   UNL A   1      45.829  31.008  29.171  1.00  0.00     0.057 A 
ATOM     74  C   UNL A   1      47.118  31.339  29.639  1.00  0.00     0.134 A 
ATOM     75  C   UNL A   1      45.503  31.521  27.909  1.00  0.00     0.134 A 
ATOM     76  F   UNL A   1      47.487  31.024  30.891  1.00  0.00    -0.206 F 
ATOM     77  C   UNL A   1      48.060  32.013  28.853  1.00  0.00     0.040 A 
ATOM     78  C   UNL A   1      46.444  32.169  27.097  1.00  0.00     0.040 A 
ATOM     79  F   UNL A   1      44.264  31.423  27.413  1.00  0.00    -0.206 F 
ATOM     80  C   UNL A   1      47.735  32.397  27.560  1.00  0.00     0.006 A 
ENDBRANCH  52  73
BRANCH  64  81
ATOM     81  C   UNL A   1      41.380  29.402  33.838  1.00  0.00     0.057 A 
ATOM     82  C   UNL A   1      41.316  30.144  35.022  1.00  0.00     0.134 A 
ATOM     83  C   UNL A   1      41.809  28.075  33.916  1.00  0.00     0.134 A 
ATOM     84  F   UNL A   1      40.875  31.412  35.012  1.00  0.00    -0.206 F 
ATOM     85  C   UNL A   1      41.664  29.584  36.247  1.00  0.00     0.040 A 
ATOM     86  C   UNL A   1      42.146  27.498  35.141  1.00  0.00     0.040 A 
ATOM     87  F   UNL A   1      41.900  27.311  32.816  1.00  0.00    -0.206 F 
ATOM     88  C   UNL A   1      42.073  28.253  36.310  1.00  0.00     0.006 A 
ENDBRANCH  64  81
ENDBRANCH  38  39
ENDBRANCH  30  33
ENDBRANCH  28  29
ENDBRANCH  27  28
ENDBRANCH  26  27
ENDBRANCH   1  26
TORSDOF 15
ENDMDL
