MODEL 1
REMARK VINA RESULT:     -11.7      0.000      0.000
REMARK SMILES Cc1ccccc1[C@@H](CC(=O)NCCCCCCNC(=O)c1ccc(-c2c3nc(c(-c4c(F)cccc4F)c4ccc([nH]4)c(-c4c(F)cccc4F)c4nc(c(-c5c(F)cccc5F)c5ccc2[nH]5)C=C4)C=C3)cc1)NC(=O)C(F)(F)F
REMARK SMILES IDX 15 1 14 2 13 3 12 4 10 5 11 6 9 8 8 9 7 10 1 11 2 12 3 13
REMARK SMILES IDX 4 14 6 15 5 16 76 17 77 18 78 20 79 21 80 22 81 23 82 24
REMARK SMILES IDX 16 25 17 26 18 27 19 28 20 29 21 31 22 32 23 33 75 34 24 35
REMARK SMILES IDX 74 36 25 37 26 38 27 39 68 40 28 41 73 42 67 43 69 44 29 45
REMARK SMILES IDX 72 46 66 47 65 48 30 50 56 51 39 52 55 53 40 54 43 55 54 56
REMARK SMILES IDX 70 57 41 58 42 59 53 61 71 62 44 63 31 64 32 65 37 66 33 67
REMARK SMILES IDX 34 68 36 69 38 70 35 71 57 72 58 73 63 74 59 75 60 76 62 77
REMARK SMILES IDX 64 78 61 79 45 80 46 81 51 82 47 83 48 84 50 85 52 86 49 87
REMARK H PARENT 12 7 76 19 19 30 69 49 43 60
REMARK Flexibility Score: inf
ROOT
ATOM      1  C   UNL A   1      31.745  28.712  26.077  1.00  0.00     0.002 C 
ENDROOT
BRANCH   1   2
ATOM      2  C   UNL A   1      31.792  27.291  26.650  1.00  0.00     0.021 C 
BRANCH   2   3
ATOM      3  C   UNL A   1      31.185  26.177  25.784  1.00  0.00     0.116 C 
BRANCH   3   4
ATOM      4  N   UNL A   1      31.133  24.922  26.512  1.00  0.00    -0.356 N 
ATOM      5  C   UNL A   1      32.097  24.011  26.796  1.00  0.00     0.222 C 
ATOM      6  O   UNL A   1      31.757  22.997  27.410  1.00  0.00    -0.275 OA
ATOM      7  H   UNL A   1      30.242  24.693  26.859  1.00  0.00     0.163 HD
BRANCH   5   8
ATOM      8  C   UNL A   1      33.540  24.206  26.384  1.00  0.00     0.129 C 
BRANCH   8   9
ATOM      9  C   UNL A   1      33.870  23.860  24.916  1.00  0.00     0.122 C 
BRANCH   9  10
ATOM     10  C   UNL A   1      35.001  22.836  24.833  1.00  0.00    -0.022 A 
ATOM     11  C   UNL A   1      33.400  20.810  24.742  1.00  0.00     0.045 C 
ATOM     12  C   UNL A   1      34.764  21.440  24.872  1.00  0.00    -0.046 A 
ATOM     13  C   UNL A   1      35.857  20.554  24.940  1.00  0.00     0.004 A 
ATOM     14  C   UNL A   1      37.168  21.022  24.955  1.00  0.00     0.000 A 
ATOM     15  C   UNL A   1      36.337  23.280  24.797  1.00  0.00     0.006 A 
ATOM     16  C   UNL A   1      37.407  22.385  24.859  1.00  0.00     0.000 A 
ENDBRANCH   9  10
BRANCH   9  17
ATOM     17  N   UNL A   1      34.105  25.019  24.059  1.00  0.00    -0.341 N 
ATOM     18  C   UNL A   1      33.777  25.171  22.730  1.00  0.00     0.326 C 
ATOM     19  H   UNL A   1      34.553  25.786  24.484  1.00  0.00     0.164 HD
ATOM     20  O   UNL A   1      34.136  26.215  22.176  1.00  0.00    -0.265 OA
BRANCH  18  21
ATOM     21  C   UNL A   1      32.974  24.066  22.006  1.00  0.00     0.471 C 
ATOM     22  F   UNL A   1      33.606  22.858  22.037  1.00  0.00    -0.162 F 
ATOM     23  F   UNL A   1      31.753  23.863  22.583  1.00  0.00    -0.162 F 
ATOM     24  F   UNL A   1      32.735  24.340  20.695  1.00  0.00    -0.162 F 
ENDBRANCH  18  21
ENDBRANCH   9  17
ENDBRANCH   8   9
ENDBRANCH   5   8
ENDBRANCH   3   4
ENDBRANCH   2   3
ENDBRANCH   1   2
BRANCH   1  25
ATOM     25  C   UNL A   1      31.770  29.876  27.078  1.00  0.00     0.002 C 
BRANCH  25  26
ATOM     26  C   UNL A   1      32.999  30.780  27.028  1.00  0.00     0.021 C 
BRANCH  26  27
ATOM     27  C   UNL A   1      34.245  30.191  27.678  1.00  0.00     0.116 C 
BRANCH  27  28
ATOM     28  N   UNL A   1      34.918  31.134  28.566  1.00  0.00    -0.352 N 
ATOM     29  C   UNL A   1      36.158  31.048  29.172  1.00  0.00     0.251 C 
ATOM     30  H   UNL A   1      34.412  31.956  28.764  1.00  0.00     0.163 HD
ATOM     31  O   UNL A   1      36.594  31.990  29.826  1.00  0.00    -0.269 OA
BRANCH  29  32
ATOM     32  C   UNL A   1      37.013  29.872  28.909  1.00  0.00     0.039 A 
ATOM     33  C   UNL A   1      37.213  28.966  29.957  1.00  0.00     0.014 A 
ATOM     34  C   UNL A   1      37.767  29.778  27.742  1.00  0.00     0.014 A 
ATOM     35  C   UNL A   1      38.341  28.153  29.945  1.00  0.00     0.010 A 
ATOM     36  C   UNL A   1      38.933  29.038  27.764  1.00  0.00     0.010 A 
ATOM     37  C   UNL A   1      39.258  28.298  28.905  1.00  0.00    -0.014 A 
BRANCH  37  38
ATOM     38  C   UNL A   1      40.643  27.864  29.023  1.00  0.00     0.031 A 
ATOM     39  C   UNL A   1      41.072  26.542  28.525  1.00  0.00     0.074 A 
ATOM     40  C   UNL A   1      41.544  28.718  29.562  1.00  0.00     0.049 A 
ATOM     41  N   UNL A   1      42.175  25.972  28.875  1.00  0.00    -0.248 NA
ATOM     42  C   UNL A   1      40.243  25.704  27.662  1.00  0.00     0.031 C 
ATOM     43  C   UNL A   1      43.000  28.621  29.523  1.00  0.00     0.029 A 
ATOM     44  N   UNL A   1      41.287  29.751  30.477  1.00  0.00    -0.354 N 
ATOM     45  C   UNL A   1      42.339  24.860  28.087  1.00  0.00     0.074 A 
ATOM     46  C   UNL A   1      41.059  24.662  27.459  1.00  0.00     0.031 C 
ATOM     47  C   UNL A   1      43.508  29.331  30.543  1.00  0.00     0.029 A 
ATOM     48  C   UNL A   1      42.392  29.777  31.356  1.00  0.00     0.049 A 
ATOM     49  H   UNL A   1      40.497  30.338  30.502  1.00  0.00     0.167 HD
ATOM     50  C   UNL A   1      43.586  24.328  27.962  1.00  0.00     0.037 A 
ATOM     51  C   UNL A   1      42.252  29.523  32.689  1.00  0.00     0.037 A 
ATOM     52  C   UNL A   1      44.478  24.844  29.001  1.00  0.00     0.049 A 
ATOM     53  C   UNL A   1      43.069  28.353  33.185  1.00  0.00     0.074 A 
ATOM     54  C   UNL A   1      45.517  25.757  29.001  1.00  0.00     0.029 A 
ATOM     55  N   UNL A   1      44.175  24.587  30.336  1.00  0.00    -0.354 N 
ATOM     56  N   UNL A   1      43.577  27.438  32.406  1.00  0.00    -0.248 NA
ATOM     57  C   UNL A   1      43.343  28.101  34.596  1.00  0.00     0.031 C 
ATOM     58  C   UNL A   1      45.765  26.128  30.352  1.00  0.00     0.029 A 
ATOM     59  C   UNL A   1      44.913  25.402  31.169  1.00  0.00     0.049 A 
ATOM     60  H   UNL A   1      43.524  23.915  30.642  1.00  0.00     0.167 HD
ATOM     61  C   UNL A   1      44.182  26.474  33.169  1.00  0.00     0.074 A 
ATOM     62  C   UNL A   1      44.038  26.951  34.533  1.00  0.00     0.031 C 
ATOM     63  C   UNL A   1      44.726  25.351  32.614  1.00  0.00     0.037 A 
BRANCH  50  64
ATOM     64  C   UNL A   1      44.070  23.486  26.796  1.00  0.00     0.057 A 
ATOM     65  C   UNL A   1      44.807  24.082  25.751  1.00  0.00     0.134 A 
ATOM     66  C   UNL A   1      43.733  22.137  26.559  1.00  0.00     0.134 A 
ATOM     67  F   UNL A   1      45.196  25.364  25.813  1.00  0.00    -0.206 F 
ATOM     68  C   UNL A   1      45.160  23.400  24.574  1.00  0.00     0.040 A 
ATOM     69  C   UNL A   1      44.122  21.431  25.411  1.00  0.00     0.040 A 
ATOM     70  F   UNL A   1      42.954  21.432  27.385  1.00  0.00    -0.206 F 
ATOM     71  C   UNL A   1      44.825  22.066  24.403  1.00  0.00     0.006 A 
ENDBRANCH  50  64
BRANCH  51  72
ATOM     72  C   UNL A   1      40.940  29.937  33.245  1.00  0.00     0.057 A 
ATOM     73  C   UNL A   1      40.720  31.297  33.518  1.00  0.00     0.134 A 
ATOM     74  C   UNL A   1      39.815  29.112  33.173  1.00  0.00     0.134 A 
ATOM     75  F   UNL A   1      41.758  32.144  33.599  1.00  0.00    -0.206 F 
ATOM     76  C   UNL A   1      39.434  31.834  33.613  1.00  0.00     0.040 A 
ATOM     77  C   UNL A   1      38.520  29.637  33.273  1.00  0.00     0.040 A 
ATOM     78  F   UNL A   1      39.942  27.806  32.892  1.00  0.00    -0.206 F 
ATOM     79  C   UNL A   1      38.327  31.006  33.456  1.00  0.00     0.006 A 
ENDBRANCH  51  72
BRANCH  63  80
ATOM     80  C   UNL A   1      45.183  24.130  33.377  1.00  0.00     0.057 A 
ATOM     81  C   UNL A   1      46.400  24.039  34.069  1.00  0.00     0.134 A 
ATOM     82  C   UNL A   1      44.310  23.035  33.559  1.00  0.00     0.134 A 
ATOM     83  F   UNL A   1      47.278  25.052  34.086  1.00  0.00    -0.206 F 
ATOM     84  C   UNL A   1      46.752  22.916  34.833  1.00  0.00     0.040 A 
ATOM     85  C   UNL A   1      44.628  21.934  34.362  1.00  0.00     0.040 A 
ATOM     86  F   UNL A   1      43.099  22.999  32.984  1.00  0.00    -0.206 F 
ATOM     87  C   UNL A   1      45.860  21.863  34.990  1.00  0.00     0.006 A 
ENDBRANCH  63  80
ENDBRANCH  37  38
ENDBRANCH  29  32
ENDBRANCH  27  28
ENDBRANCH  26  27
ENDBRANCH  25  26
ENDBRANCH   1  25
TORSDOF 17
ENDMDL
MODEL 2
REMARK VINA RESULT:     -11.7      3.439      8.528
REMARK SMILES Cc1ccccc1[C@@H](CC(=O)NCCCCCCNC(=O)c1ccc(-c2c3nc(c(-c4c(F)cccc4F)c4ccc([nH]4)c(-c4c(F)cccc4F)c4nc(c(-c5c(F)cccc5F)c5ccc2[nH]5)C=C4)C=C3)cc1)NC(=O)C(F)(F)F
REMARK SMILES IDX 15 1 14 2 13 3 12 4 10 5 11 6 9 8 8 9 7 10 1 11 2 12 3 13
REMARK SMILES IDX 4 14 6 15 5 16 76 17 77 18 78 20 79 21 80 22 81 23 82 24
REMARK SMILES IDX 16 25 17 26 18 27 19 28 20 29 21 31 22 32 23 33 75 34 24 35
REMARK SMILES IDX 74 36 25 37 26 38 27 39 68 40 28 41 73 42 67 43 69 44 29 45
REMARK SMILES IDX 72 46 66 47 65 48 30 50 56 51 39 52 55 53 40 54 43 55 54 56
REMARK SMILES IDX 70 57 41 58 42 59 53 61 71 62 44 63 31 64 32 65 37 66 33 67
REMARK SMILES IDX 34 68 36 69 38 70 35 71 57 72 58 73 63 74 59 75 60 76 62 77
REMARK SMILES IDX 64 78 61 79 45 80 46 81 51 82 47 83 48 84 50 85 52 86 49 87
REMARK H PARENT 12 7 76 19 19 30 69 49 43 60
REMARK Flexibility Score: inf
ROOT
ATOM      1  C   UNL A   1      35.415  21.712  26.147  1.00  0.00     0.002 C 
ENDROOT
BRANCH   1   2
ATOM      2  C   UNL A   1      33.883  21.693  26.215  1.00  0.00     0.021 C 
BRANCH   2   3
ATOM      3  C   UNL A   1      33.242  22.229  27.503  1.00  0.00     0.116 C 
BRANCH   3   4
ATOM      4  N   UNL A   1      31.843  22.553  27.293  1.00  0.00    -0.356 N 
ATOM      5  C   UNL A   1      31.233  23.722  26.973  1.00  0.00     0.222 C 
ATOM      6  O   UNL A   1      30.002  23.716  26.893  1.00  0.00    -0.275 OA
ATOM      7  H   UNL A   1      31.230  21.791  27.401  1.00  0.00     0.163 HD
BRANCH   5   8
ATOM      8  C   UNL A   1      32.008  24.997  26.723  1.00  0.00     0.129 C 
BRANCH   8   9
ATOM      9  C   UNL A   1      31.917  25.567  25.291  1.00  0.00     0.122 C 
BRANCH   9  10
ATOM     10  C   UNL A   1      32.748  24.738  24.314  1.00  0.00    -0.022 A 
ATOM     11  C   UNL A   1      30.689  23.580  23.268  1.00  0.00     0.045 C 
ATOM     12  C   UNL A   1      32.173  23.750  23.478  1.00  0.00    -0.046 A 
ATOM     13  C   UNL A   1      33.011  22.919  22.709  1.00  0.00     0.004 A 
ATOM     14  C   UNL A   1      34.395  23.059  22.743  1.00  0.00     0.000 A 
ATOM     15  C   UNL A   1      34.148  24.892  24.289  1.00  0.00     0.006 A 
ATOM     16  C   UNL A   1      34.962  24.063  23.515  1.00  0.00     0.000 A 
ENDBRANCH   9  10
BRANCH   9  17
ATOM     17  N   UNL A   1      32.201  26.996  25.189  1.00  0.00    -0.341 N 
ATOM     18  C   UNL A   1      31.548  27.938  24.425  1.00  0.00     0.326 C 
ATOM     19  H   UNL A   1      32.952  27.327  25.734  1.00  0.00     0.164 HD
ATOM     20  O   UNL A   1      32.003  29.086  24.434  1.00  0.00    -0.265 OA
BRANCH  18  21
ATOM     21  C   UNL A   1      30.290  27.536  23.622  1.00  0.00     0.471 C 
ATOM     22  F   UNL A   1      29.586  28.617  23.181  1.00  0.00    -0.162 F 
ATOM     23  F   UNL A   1      30.606  26.816  22.506  1.00  0.00    -0.162 F 
ATOM     24  F   UNL A   1      29.415  26.773  24.332  1.00  0.00    -0.162 F 
ENDBRANCH  18  21
ENDBRANCH   9  17
ENDBRANCH   8   9
ENDBRANCH   5   8
ENDBRANCH   3   4
ENDBRANCH   2   3
ENDBRANCH   1   2
BRANCH   1  25
ATOM     25  C   UNL A   1      36.088  20.751  25.158  1.00  0.00     0.002 C 
BRANCH  25  26
ATOM     26  C   UNL A   1      37.571  20.991  24.889  1.00  0.00     0.021 C 
BRANCH  26  27
ATOM     27  C   UNL A   1      38.143  22.234  25.560  1.00  0.00     0.116 C 
BRANCH  27  28
ATOM     28  N   UNL A   1      39.554  22.091  25.907  1.00  0.00    -0.352 N 
ATOM     29  C   UNL A   1      40.425  23.009  26.462  1.00  0.00     0.251 C 
ATOM     30  H   UNL A   1      39.943  21.207  25.715  1.00  0.00     0.163 HD
ATOM     31  O   UNL A   1      41.568  22.674  26.762  1.00  0.00    -0.269 OA
BRANCH  29  32
ATOM     32  C   UNL A   1      39.931  24.353  26.823  1.00  0.00     0.039 A 
ATOM     33  C   UNL A   1      40.494  25.452  26.164  1.00  0.00     0.014 A 
ATOM     34  C   UNL A   1      39.098  24.541  27.924  1.00  0.00     0.014 A 
ATOM     35  C   UNL A   1      40.447  26.703  26.768  1.00  0.00     0.010 A 
ATOM     36  C   UNL A   1      39.122  25.761  28.571  1.00  0.00     0.010 A 
ATOM     37  C   UNL A   1      39.872  26.812  28.034  1.00  0.00    -0.014 A 
BRANCH  37  38
ATOM     38  C   UNL A   1      40.171  27.919  28.932  1.00  0.00     0.031 A 
ATOM     39  C   UNL A   1      39.258  29.072  29.049  1.00  0.00     0.074 A 
ATOM     40  C   UNL A   1      41.288  27.851  29.692  1.00  0.00     0.049 A 
ATOM     41  N   UNL A   1      39.601  30.206  29.560  1.00  0.00    -0.248 NA
ATOM     42  C   UNL A   1      37.900  29.077  28.510  1.00  0.00     0.031 C 
ATOM     43  C   UNL A   1      41.638  28.680  30.841  1.00  0.00     0.029 A 
ATOM     44  N   UNL A   1      42.463  27.136  29.407  1.00  0.00    -0.354 N 
ATOM     45  C   UNL A   1      38.469  30.971  29.682  1.00  0.00     0.074 A 
ATOM     46  C   UNL A   1      37.477  30.288  28.892  1.00  0.00     0.031 C 
ATOM     47  C   UNL A   1      42.971  28.654  31.003  1.00  0.00     0.029 A 
ATOM     48  C   UNL A   1      43.529  27.934  29.874  1.00  0.00     0.049 A 
ATOM     49  H   UNL A   1      42.529  26.256  28.971  1.00  0.00     0.167 HD
ATOM     50  C   UNL A   1      38.479  32.018  30.551  1.00  0.00     0.037 A 
ATOM     51  C   UNL A   1      44.474  28.434  29.025  1.00  0.00     0.037 A 
ATOM     52  C   UNL A   1      39.848  32.355  30.943  1.00  0.00     0.049 A 
ATOM     53  C   UNL A   1      44.570  29.941  29.025  1.00  0.00     0.074 A 
ATOM     54  C   UNL A   1      40.588  32.163  32.097  1.00  0.00     0.029 A 
ATOM     55  N   UNL A   1      40.745  32.771  29.962  1.00  0.00    -0.354 N 
ATOM     56  N   UNL A   1      43.640  30.730  29.486  1.00  0.00    -0.248 NA
ATOM     57  C   UNL A   1      45.702  30.677  28.470  1.00  0.00     0.031 C 
ATOM     58  C   UNL A   1      41.957  32.366  31.770  1.00  0.00     0.029 A 
ATOM     59  C   UNL A   1      42.040  32.730  30.436  1.00  0.00     0.049 A 
ATOM     60  H   UNL A   1      40.489  33.057  29.055  1.00  0.00     0.167 HD
ATOM     61  C   UNL A   1      43.993  32.034  29.259  1.00  0.00     0.074 A 
ATOM     62  C   UNL A   1      45.309  31.950  28.651  1.00  0.00     0.031 C 
ATOM     63  C   UNL A   1      43.160  33.071  29.567  1.00  0.00     0.037 A 
BRANCH  50  64
ATOM     64  C   UNL A   1      37.255  32.629  31.208  1.00  0.00     0.057 A 
ATOM     65  C   UNL A   1      36.814  32.157  32.462  1.00  0.00     0.134 A 
ATOM     66  C   UNL A   1      36.384  33.567  30.613  1.00  0.00     0.134 A 
ATOM     67  F   UNL A   1      37.520  31.251  33.155  1.00  0.00    -0.206 F 
ATOM     68  C   UNL A   1      35.612  32.570  33.059  1.00  0.00     0.040 A 
ATOM     69  C   UNL A   1      35.207  34.025  31.222  1.00  0.00     0.040 A 
ATOM     70  F   UNL A   1      36.578  34.053  29.384  1.00  0.00    -0.206 F 
ATOM     71  C   UNL A   1      34.806  33.515  32.444  1.00  0.00     0.006 A 
ENDBRANCH  50  64
BRANCH  51  72
ATOM     72  C   UNL A   1      44.746  27.567  27.852  1.00  0.00     0.057 A 
ATOM     73  C   UNL A   1      44.124  27.870  26.629  1.00  0.00     0.134 A 
ATOM     74  C   UNL A   1      45.842  26.702  27.811  1.00  0.00     0.134 A 
ATOM     75  F   UNL A   1      43.065  28.695  26.598  1.00  0.00    -0.206 F 
ATOM     76  C   UNL A   1      44.631  27.416  25.409  1.00  0.00     0.040 A 
ATOM     77  C   UNL A   1      46.357  26.236  26.595  1.00  0.00     0.040 A 
ATOM     78  F   UNL A   1      46.505  26.386  28.934  1.00  0.00    -0.206 F 
ATOM     79  C   UNL A   1      45.773  26.623  25.388  1.00  0.00     0.006 A 
ENDBRANCH  51  72
BRANCH  63  80
ATOM     80  C   UNL A   1      43.348  34.506  29.131  1.00  0.00     0.057 A 
ATOM     81  C   UNL A   1      43.513  35.585  30.012  1.00  0.00     0.134 A 
ATOM     82  C   UNL A   1      43.521  34.819  27.765  1.00  0.00     0.134 A 
ATOM     83  F   UNL A   1      43.495  35.418  31.342  1.00  0.00    -0.206 F 
ATOM     84  C   UNL A   1      43.766  36.891  29.566  1.00  0.00     0.040 A 
ATOM     85  C   UNL A   1      43.826  36.107  27.313  1.00  0.00     0.040 A 
ATOM     86  F   UNL A   1      43.423  33.881  26.811  1.00  0.00    -0.206 F 
ATOM     87  C   UNL A   1      43.934  37.154  28.213  1.00  0.00     0.006 A 
ENDBRANCH  63  80
ENDBRANCH  37  38
ENDBRANCH  29  32
ENDBRANCH  27  28
ENDBRANCH  26  27
ENDBRANCH  25  26
ENDBRANCH   1  25
TORSDOF 17
ENDMDL
MODEL 3
REMARK VINA RESULT:     -11.7      1.738      2.098
REMARK SMILES Cc1ccccc1[C@@H](CC(=O)NCCCCCCNC(=O)c1ccc(-c2c3nc(c(-c4c(F)cccc4F)c4ccc([nH]4)c(-c4c(F)cccc4F)c4nc(c(-c5c(F)cccc5F)c5ccc2[nH]5)C=C4)C=C3)cc1)NC(=O)C(F)(F)F
REMARK SMILES IDX 15 1 14 2 13 3 12 4 10 5 11 6 9 8 8 9 7 10 1 11 2 12 3 13
REMARK SMILES IDX 4 14 6 15 5 16 76 17 77 18 78 20 79 21 80 22 81 23 82 24
REMARK SMILES IDX 16 25 17 26 18 27 19 28 20 29 21 31 22 32 23 33 75 34 24 35
REMARK SMILES IDX 74 36 25 37 26 38 27 39 68 40 28 41 73 42 67 43 69 44 29 45
REMARK SMILES IDX 72 46 66 47 65 48 30 50 56 51 39 52 55 53 40 54 43 55 54 56
REMARK SMILES IDX 70 57 41 58 42 59 53 61 71 62 44 63 31 64 32 65 37 66 33 67
REMARK SMILES IDX 34 68 36 69 38 70 35 71 57 72 58 73 63 74 59 75 60 76 62 77
REMARK SMILES IDX 64 78 61 79 45 80 46 81 51 82 47 83 48 84 50 85 52 86 49 87
REMARK H PARENT 12 7 76 19 19 30 69 49 43 60
REMARK Flexibility Score: inf
ROOT
ATOM      1  C   UNL A   1      32.657  28.370  25.562  1.00  0.00     0.002 C 
ENDROOT
BRANCH   1   2
ATOM      2  C   UNL A   1      32.136  26.937  25.394  1.00  0.00     0.021 C 
BRANCH   2   3
ATOM      3  C   UNL A   1      32.869  25.840  26.179  1.00  0.00     0.116 C 
BRANCH   3   4
ATOM      4  N   UNL A   1      31.927  24.968  26.857  1.00  0.00    -0.356 N 
ATOM      5  C   UNL A   1      31.274  23.855  26.436  1.00  0.00     0.222 C 
ATOM      6  O   UNL A   1      30.488  23.325  27.226  1.00  0.00    -0.275 OA
ATOM      7  H   UNL A   1      31.728  25.230  27.784  1.00  0.00     0.163 HD
BRANCH   5   8
ATOM      8  C   UNL A   1      31.481  23.269  25.057  1.00  0.00     0.129 C 
BRANCH   8   9
ATOM      9  C   UNL A   1      32.431  22.054  24.981  1.00  0.00     0.122 C 
BRANCH   9  10
ATOM     10  C   UNL A   1      33.891  22.499  24.934  1.00  0.00    -0.022 A 
ATOM     11  C   UNL A   1      34.263  22.157  27.468  1.00  0.00     0.045 C 
ATOM     12  C   UNL A   1      34.676  22.649  26.103  1.00  0.00    -0.046 A 
ATOM     13  C   UNL A   1      35.967  23.204  26.005  1.00  0.00     0.004 A 
ATOM     14  C   UNL A   1      36.495  23.595  24.778  1.00  0.00     0.000 A 
ATOM     15  C   UNL A   1      34.469  22.854  23.699  1.00  0.00     0.006 A 
ATOM     16  C   UNL A   1      35.753  23.397  23.622  1.00  0.00     0.000 A 
ENDBRANCH   9  10
BRANCH   9  17
ATOM     17  N   UNL A   1      32.107  21.098  23.925  1.00  0.00    -0.341 N 
ATOM     18  C   UNL A   1      32.523  19.790  23.809  1.00  0.00     0.326 C 
ATOM     19  H   UNL A   1      31.518  21.429  23.208  1.00  0.00     0.164 HD
ATOM     20  O   UNL A   1      32.185  19.178  22.791  1.00  0.00    -0.265 OA
BRANCH  18  21
ATOM     21  C   UNL A   1      33.358  19.147  24.940  1.00  0.00     0.471 C 
ATOM     22  F   UNL A   1      32.905  19.487  26.180  1.00  0.00    -0.162 F 
ATOM     23  F   UNL A   1      33.321  17.783  24.890  1.00  0.00    -0.162 F 
ATOM     24  F   UNL A   1      34.674  19.493  24.905  1.00  0.00    -0.162 F 
ENDBRANCH  18  21
ENDBRANCH   9  17
ENDBRANCH   8   9
ENDBRANCH   5   8
ENDBRANCH   3   4
ENDBRANCH   2   3
ENDBRANCH   1   2
BRANCH   1  25
ATOM     25  C   UNL A   1      33.316  28.726  26.901  1.00  0.00     0.002 C 
BRANCH  25  26
ATOM     26  C   UNL A   1      33.014  30.118  27.451  1.00  0.00     0.021 C 
BRANCH  26  27
ATOM     27  C   UNL A   1      34.153  31.119  27.304  1.00  0.00     0.116 C 
BRANCH  27  28
ATOM     28  N   UNL A   1      34.537  31.729  28.573  1.00  0.00    -0.352 N 
ATOM     29  C   UNL A   1      35.540  31.375  29.456  1.00  0.00     0.251 C 
ATOM     30  H   UNL A   1      34.001  32.510  28.841  1.00  0.00     0.163 HD
ATOM     31  O   UNL A   1      35.768  32.067  30.444  1.00  0.00    -0.269 OA
BRANCH  29  32
ATOM     32  C   UNL A   1      36.428  30.239  29.130  1.00  0.00     0.039 A 
ATOM     33  C   UNL A   1      36.627  29.265  30.114  1.00  0.00     0.014 A 
ATOM     34  C   UNL A   1      37.207  30.245  27.974  1.00  0.00     0.014 A 
ATOM     35  C   UNL A   1      37.774  28.480  30.069  1.00  0.00     0.010 A 
ATOM     36  C   UNL A   1      38.388  29.531  27.969  1.00  0.00     0.010 A 
ATOM     37  C   UNL A   1      38.708  28.719  29.062  1.00  0.00    -0.014 A 
BRANCH  37  38
ATOM     38  C   UNL A   1      40.100  28.308  29.178  1.00  0.00     0.031 A 
ATOM     39  C   UNL A   1      40.546  26.985  28.699  1.00  0.00     0.074 A 
ATOM     40  C   UNL A   1      40.991  29.183  29.698  1.00  0.00     0.049 A 
ATOM     41  N   UNL A   1      41.659  26.436  29.051  1.00  0.00    -0.248 NA
ATOM     42  C   UNL A   1      39.725  26.121  27.854  1.00  0.00     0.031 C 
ATOM     43  C   UNL A   1      42.448  29.108  29.652  1.00  0.00     0.029 A 
ATOM     44  N   UNL A   1      40.724  30.227  30.599  1.00  0.00    -0.354 N 
ATOM     45  C   UNL A   1      41.836  25.315  28.280  1.00  0.00     0.074 A 
ATOM     46  C   UNL A   1      40.555  25.088  27.662  1.00  0.00     0.031 C 
ATOM     47  C   UNL A   1      42.951  29.841  30.658  1.00  0.00     0.029 A 
ATOM     48  C   UNL A   1      41.833  30.284  31.470  1.00  0.00     0.049 A 
ATOM     49  H   UNL A   1      39.925  30.802  30.619  1.00  0.00     0.167 HD
ATOM     50  C   UNL A   1      43.090  24.800  28.156  1.00  0.00     0.037 A 
ATOM     51  C   UNL A   1      41.705  30.048  32.808  1.00  0.00     0.037 A 
ATOM     52  C   UNL A   1      43.980  25.345  29.181  1.00  0.00     0.049 A 
ATOM     53  C   UNL A   1      42.542  28.898  33.317  1.00  0.00     0.074 A 
ATOM     54  C   UNL A   1      45.006  26.274  29.161  1.00  0.00     0.029 A 
ATOM     55  N   UNL A   1      43.688  25.105  30.522  1.00  0.00    -0.354 N 
ATOM     56  N   UNL A   1      43.059  27.979  32.551  1.00  0.00    -0.248 NA
ATOM     57  C   UNL A   1      42.828  28.673  34.731  1.00  0.00     0.031 C 
ATOM     58  C   UNL A   1      45.255  26.670  30.504  1.00  0.00     0.029 A 
ATOM     59  C   UNL A   1      44.419  25.944  31.338  1.00  0.00     0.049 A 
ATOM     60  H   UNL A   1      43.049  24.429  30.843  1.00  0.00     0.167 HD
ATOM     61  C   UNL A   1      43.683  27.037  33.325  1.00  0.00     0.074 A 
ATOM     62  C   UNL A   1      43.540  27.533  34.682  1.00  0.00     0.031 C 
ATOM     63  C   UNL A   1      44.241  25.914  32.785  1.00  0.00     0.037 A 
BRANCH  50  64
ATOM     64  C   UNL A   1      43.580  23.947  27.000  1.00  0.00     0.057 A 
ATOM     65  C   UNL A   1      44.175  24.555  25.875  1.00  0.00     0.134 A 
ATOM     66  C   UNL A   1      43.374  22.559  26.857  1.00  0.00     0.134 A 
ATOM     67  F   UNL A   1      44.427  25.872  25.843  1.00  0.00    -0.206 F 
ATOM     68  C   UNL A   1      44.517  23.847  24.710  1.00  0.00     0.040 A 
ATOM     69  C   UNL A   1      43.758  21.833  25.720  1.00  0.00     0.040 A 
ATOM     70  F   UNL A   1      42.735  21.825  27.773  1.00  0.00    -0.206 F 
ATOM     71  C   UNL A   1      44.317  22.478  24.632  1.00  0.00     0.006 A 
ENDBRANCH  50  64
BRANCH  51  72
ATOM     72  C   UNL A   1      40.389  30.451  33.366  1.00  0.00     0.057 A 
ATOM     73  C   UNL A   1      40.160  31.809  33.642  1.00  0.00     0.134 A 
ATOM     74  C   UNL A   1      39.270  29.618  33.291  1.00  0.00     0.134 A 
ATOM     75  F   UNL A   1      41.192  32.663  33.726  1.00  0.00    -0.206 F 
ATOM     76  C   UNL A   1      38.870  32.336  33.738  1.00  0.00     0.040 A 
ATOM     77  C   UNL A   1      37.971  30.134  33.392  1.00  0.00     0.040 A 
ATOM     78  F   UNL A   1      39.406  28.315  33.006  1.00  0.00    -0.206 F 
ATOM     79  C   UNL A   1      37.769  31.501  33.580  1.00  0.00     0.006 A 
ENDBRANCH  51  72
BRANCH  63  80
ATOM     80  C   UNL A   1      44.721  24.712  33.564  1.00  0.00     0.057 A 
ATOM     81  C   UNL A   1      46.067  24.340  33.695  1.00  0.00     0.134 A 
ATOM     82  C   UNL A   1      43.816  23.962  34.348  1.00  0.00     0.134 A 
ATOM     83  F   UNL A   1      47.050  25.034  33.105  1.00  0.00    -0.206 F 
ATOM     84  C   UNL A   1      46.478  23.263  34.495  1.00  0.00     0.040 A 
ATOM     85  C   UNL A   1      44.220  22.921  35.190  1.00  0.00     0.040 A 
ATOM     86  F   UNL A   1      42.501  24.226  34.347  1.00  0.00    -0.206 F 
ATOM     87  C   UNL A   1      45.555  22.556  35.254  1.00  0.00     0.006 A 
ENDBRANCH  63  80
ENDBRANCH  37  38
ENDBRANCH  29  32
ENDBRANCH  27  28
ENDBRANCH  26  27
ENDBRANCH  25  26
ENDBRANCH   1  25
TORSDOF 17
ENDMDL
