MODEL 1
REMARK VINA RESULT:     -12.1      0.000      0.000
REMARK SMILES COc1cc(S(=O)(=O)Nc2cccc(C(=O)NCCCCCCNC(=O)c3ccc(-c4c5nc(c(-c6c(F)cccc6F)c6ccc([nH]6)c(-c6c(F)cccc6F)c6nc(c(-c7c(F)cccc7F)c7ccc4[nH]7)C=C6)C=C5)cc3)c2)c(OC)cc1C
REMARK SMILES IDX 19 1 18 2 17 3 15 4 16 5 14 7 10 8 11 9 81 10 12 11 13 12
REMARK SMILES IDX 9 13 6 15 7 16 8 17 5 18 3 19 4 20 86 21 85 22 87 23 82 24
REMARK SMILES IDX 2 25 1 26 83 27 84 28 20 29 21 30 22 31 23 32 24 33 25 34
REMARK SMILES IDX 26 36 27 37 28 38 80 39 29 40 79 41 30 42 31 43 32 44 73 45
REMARK SMILES IDX 33 46 78 47 72 48 74 49 34 50 77 51 71 52 70 53 35 55 61 56
REMARK SMILES IDX 44 57 60 58 45 59 48 60 59 61 75 62 46 63 47 64 58 66 76 67
REMARK SMILES IDX 49 68 36 69 37 70 42 71 38 72 39 73 41 74 43 75 40 76 62 77
REMARK SMILES IDX 63 78 68 79 64 80 65 81 67 82 69 83 66 84 50 85 51 86 56 87
REMARK SMILES IDX 52 88 53 89 55 90 57 91 54 92
REMARK H PARENT 17 6 9 14 24 35 74 54 48 65
REMARK Flexibility Score: inf
ROOT
ATOM      1  C   UNL A   1      34.829  21.850  26.822  1.00  0.00     0.021 C 
ENDROOT
BRANCH   1   2
ATOM      2  C   UNL A   1      33.625  21.358  27.626  1.00  0.00     0.116 C 
BRANCH   2   3
ATOM      3  N   UNL A   1      32.641  22.415  27.755  1.00  0.00    -0.352 N 
ATOM      4  C   UNL A   1      32.067  23.254  26.838  1.00  0.00     0.251 C 
ATOM      5  O   UNL A   1      31.241  24.074  27.236  1.00  0.00    -0.269 OA
ATOM      6  H   UNL A   1      32.326  22.555  28.677  1.00  0.00     0.163 HD
BRANCH   4   7
ATOM      7  C   UNL A   1      32.309  23.126  25.382  1.00  0.00     0.041 A 
ATOM      8  C   UNL A   1      33.198  24.249  23.417  1.00  0.00     0.050 A 
ATOM      9  C   UNL A   1      32.705  23.227  22.609  1.00  0.00     0.027 A 
ATOM     10  C   UNL A   1      33.060  24.155  24.803  1.00  0.00     0.040 A 
ATOM     11  C   UNL A   1      32.013  22.156  23.189  1.00  0.00     0.003 A 
ATOM     12  C   UNL A   1      31.809  22.105  24.573  1.00  0.00     0.014 A 
BRANCH   8  13
ATOM     13  N   UNL A   1      33.797  25.442  22.936  1.00  0.00    -0.279 N 
ATOM     14  H   UNL A   1      34.780  25.495  22.977  1.00  0.00     0.180 HD
BRANCH  13  15
ATOM     15  S   UNL A   1      32.996  26.760  22.309  1.00  0.00     0.265 S 
ATOM     16  O   UNL A   1      31.845  26.268  21.578  1.00  0.00    -0.201 OA
ATOM     17  O   UNL A   1      34.020  27.528  21.626  1.00  0.00    -0.201 OA
BRANCH  15  18
ATOM     18  C   UNL A   1      32.356  27.824  23.583  1.00  0.00     0.133 A 
ATOM     19  C   UNL A   1      32.788  28.614  25.848  1.00  0.00     0.123 A 
ATOM     20  C   UNL A   1      33.054  27.732  24.805  1.00  0.00     0.073 A 
ATOM     21  C   UNL A   1      31.915  29.682  25.646  1.00  0.00    -0.005 A 
ATOM     22  C   UNL A   1      31.155  29.707  24.467  1.00  0.00     0.055 A 
ATOM     23  C   UNL A   1      31.742  30.791  26.641  1.00  0.00     0.048 C 
ATOM     24  C   UNL A   1      31.323  28.753  23.449  1.00  0.00     0.139 A 
BRANCH  19  25
ATOM     25  O   UNL A   1      33.483  28.414  27.009  1.00  0.00    -0.496 OA
ATOM     26  C   UNL A   1      34.780  29.018  26.978  1.00  0.00     0.278 C 
ENDBRANCH  19  25
BRANCH  24  27
ATOM     27  O   UNL A   1      30.481  28.676  22.380  1.00  0.00    -0.495 OA
ATOM     28  C   UNL A   1      29.773  29.853  22.001  1.00  0.00     0.278 C 
ENDBRANCH  24  27
ENDBRANCH  15  18
ENDBRANCH  13  15
ENDBRANCH   8  13
ENDBRANCH   4   7
ENDBRANCH   2   3
ENDBRANCH   1   2
BRANCH   1  29
ATOM     29  C   UNL A   1      35.138  21.011  25.571  1.00  0.00     0.002 C 
BRANCH  29  30
ATOM     30  C   UNL A   1      36.215  21.569  24.625  1.00  0.00     0.002 C 
BRANCH  30  31
ATOM     31  C   UNL A   1      37.661  21.424  25.101  1.00  0.00     0.021 C 
BRANCH  31  32
ATOM     32  C   UNL A   1      38.219  22.675  25.763  1.00  0.00     0.116 C 
BRANCH  32  33
ATOM     33  N   UNL A   1      39.353  22.434  26.643  1.00  0.00    -0.352 N 
ATOM     34  C   UNL A   1      40.180  23.323  27.308  1.00  0.00     0.251 C 
ATOM     35  H   UNL A   1      39.568  21.485  26.790  1.00  0.00     0.163 HD
ATOM     36  O   UNL A   1      41.170  22.890  27.894  1.00  0.00    -0.269 OA
BRANCH  34  37
ATOM     37  C   UNL A   1      39.804  24.752  27.470  1.00  0.00     0.039 A 
ATOM     38  C   UNL A   1      40.238  25.662  26.489  1.00  0.00     0.014 A 
ATOM     39  C   UNL A   1      39.271  25.235  28.655  1.00  0.00     0.014 A 
ATOM     40  C   UNL A   1      40.403  27.007  26.815  1.00  0.00     0.010 A 
ATOM     41  C   UNL A   1      39.562  26.522  29.030  1.00  0.00     0.010 A 
ATOM     42  C   UNL A   1      40.183  27.392  28.129  1.00  0.00    -0.014 A 
BRANCH  42  43
ATOM     43  C   UNL A   1      40.567  28.659  28.726  1.00  0.00     0.031 A 
ATOM     44  C   UNL A   1      39.521  29.666  28.988  1.00  0.00     0.074 A 
ATOM     45  C   UNL A   1      41.774  28.739  29.326  1.00  0.00     0.049 A 
ATOM     46  N   UNL A   1      39.745  30.823  29.502  1.00  0.00    -0.248 NA
ATOM     47  C   UNL A   1      38.118  29.457  28.643  1.00  0.00     0.031 C 
ATOM     48  C   UNL A   1      42.166  29.619  30.423  1.00  0.00     0.029 A 
ATOM     49  N   UNL A   1      42.976  28.143  28.919  1.00  0.00    -0.354 N 
ATOM     50  C   UNL A   1      38.532  31.391  29.816  1.00  0.00     0.074 A 
ATOM     51  C   UNL A   1      37.559  30.556  29.158  1.00  0.00     0.031 C 
ATOM     52  C   UNL A   1      43.503  29.729  30.437  1.00  0.00     0.029 A 
ATOM     53  C   UNL A   1      43.990  29.083  29.233  1.00  0.00     0.049 A 
ATOM     54  H   UNL A   1      43.090  27.258  28.503  1.00  0.00     0.167 HD
ATOM     55  C   UNL A   1      38.525  32.440  30.687  1.00  0.00     0.037 A 
ATOM     56  C   UNL A   1      44.682  29.719  28.238  1.00  0.00     0.037 A 
ATOM     57  C   UNL A   1      39.894  32.900  30.940  1.00  0.00     0.049 A 
ATOM     58  C   UNL A   1      44.520  31.227  28.206  1.00  0.00     0.074 A 
ATOM     59  C   UNL A   1      40.809  32.759  31.969  1.00  0.00     0.029 A 
ATOM     60  N   UNL A   1      40.596  33.430  29.876  1.00  0.00    -0.354 N 
ATOM     61  N   UNL A   1      43.701  31.893  28.971  1.00  0.00    -0.248 NA
ATOM     62  C   UNL A   1      45.206  32.096  27.248  1.00  0.00     0.031 C 
ATOM     63  C   UNL A   1      42.082  33.194  31.484  1.00  0.00     0.029 A 
ATOM     64  C   UNL A   1      41.926  33.616  30.176  1.00  0.00     0.049 A 
ATOM     65  H   UNL A   1      40.192  33.649  29.005  1.00  0.00     0.167 HD
ATOM     66  C   UNL A   1      43.669  33.204  28.580  1.00  0.00     0.074 A 
ATOM     67  C   UNL A   1      44.643  33.289  27.509  1.00  0.00     0.031 C 
ATOM     68  C   UNL A   1      42.803  34.106  29.125  1.00  0.00     0.037 A 
BRANCH  55  69
ATOM     69  C   UNL A   1      37.336  33.007  31.433  1.00  0.00     0.057 A 
ATOM     70  C   UNL A   1      36.375  33.771  30.735  1.00  0.00     0.134 A 
ATOM     71  C   UNL A   1      37.097  32.928  32.817  1.00  0.00     0.134 A 
ATOM     72  F   UNL A   1      36.421  33.915  29.403  1.00  0.00    -0.206 F 
ATOM     73  C   UNL A   1      35.316  34.440  31.364  1.00  0.00     0.040 A 
ATOM     74  C   UNL A   1      36.031  33.577  33.457  1.00  0.00     0.040 A 
ATOM     75  F   UNL A   1      37.876  32.238  33.650  1.00  0.00    -0.206 F 
ATOM     76  C   UNL A   1      35.144  34.352  32.734  1.00  0.00     0.006 A 
ENDBRANCH  55  69
BRANCH  56  77
ATOM     77  C   UNL A   1      44.839  28.854  27.037  1.00  0.00     0.057 A 
ATOM     78  C   UNL A   1      45.872  27.899  27.036  1.00  0.00     0.134 A 
ATOM     79  C   UNL A   1      43.765  28.640  26.167  1.00  0.00     0.134 A 
ATOM     80  F   UNL A   1      46.930  28.048  27.847  1.00  0.00    -0.206 F 
ATOM     81  C   UNL A   1      45.768  26.709  26.313  1.00  0.00     0.040 A 
ATOM     82  C   UNL A   1      43.661  27.458  25.425  1.00  0.00     0.040 A 
ATOM     83  F   UNL A   1      42.738  29.501  26.125  1.00  0.00    -0.206 F 
ATOM     84  C   UNL A   1      44.637  26.469  25.536  1.00  0.00     0.006 A 
ENDBRANCH  56  77
BRANCH  68  85
ATOM     85  C   UNL A   1      42.691  35.536  28.679  1.00  0.00     0.057 A 
ATOM     86  C   UNL A   1      42.292  35.890  27.386  1.00  0.00     0.134 A 
ATOM     87  C   UNL A   1      43.113  36.599  29.504  1.00  0.00     0.134 A 
ATOM     88  F   UNL A   1      41.903  34.957  26.506  1.00  0.00    -0.206 F 
ATOM     89  C   UNL A   1      42.302  37.220  26.945  1.00  0.00     0.040 A 
ATOM     90  C   UNL A   1      43.180  37.921  29.058  1.00  0.00     0.040 A 
ATOM     91  F   UNL A   1      43.454  36.405  30.786  1.00  0.00    -0.206 F 
ATOM     92  C   UNL A   1      42.766  38.237  27.774  1.00  0.00     0.006 A 
ENDBRANCH  68  85
ENDBRANCH  42  43
ENDBRANCH  34  37
ENDBRANCH  32  33
ENDBRANCH  31  32
ENDBRANCH  30  31
ENDBRANCH  29  30
ENDBRANCH   1  29
TORSDOF 18
ENDMDL
MODEL 2
REMARK VINA RESULT:     -12.1      3.805      9.462
REMARK SMILES COc1cc(S(=O)(=O)Nc2cccc(C(=O)NCCCCCCNC(=O)c3ccc(-c4c5nc(c(-c6c(F)cccc6F)c6ccc([nH]6)c(-c6c(F)cccc6F)c6nc(c(-c7c(F)cccc7F)c7ccc4[nH]7)C=C6)C=C5)cc3)c2)c(OC)cc1C
REMARK SMILES IDX 19 1 18 2 17 3 15 4 16 5 14 7 10 8 11 9 81 10 12 11 13 12
REMARK SMILES IDX 9 13 6 15 7 16 8 17 5 18 3 19 4 20 86 21 85 22 87 23 82 24
REMARK SMILES IDX 2 25 1 26 83 27 84 28 20 29 21 30 22 31 23 32 24 33 25 34
REMARK SMILES IDX 26 36 27 37 28 38 80 39 29 40 79 41 30 42 31 43 32 44 73 45
REMARK SMILES IDX 33 46 78 47 72 48 74 49 34 50 77 51 71 52 70 53 35 55 61 56
REMARK SMILES IDX 44 57 60 58 45 59 48 60 59 61 75 62 46 63 47 64 58 66 76 67
REMARK SMILES IDX 49 68 36 69 37 70 42 71 38 72 39 73 41 74 43 75 40 76 62 77
REMARK SMILES IDX 63 78 68 79 64 80 65 81 67 82 69 83 66 84 50 85 51 86 56 87
REMARK SMILES IDX 52 88 53 89 55 90 57 91 54 92
REMARK H PARENT 17 6 9 14 24 35 74 54 48 65
REMARK Flexibility Score: inf
ROOT
ATOM      1  C   UNL A   1      30.862  28.434  24.292  1.00  0.00     0.021 C 
ENDROOT
BRANCH   1   2
ATOM      2  C   UNL A   1      31.004  28.421  22.770  1.00  0.00     0.116 C 
BRANCH   2   3
ATOM      3  N   UNL A   1      32.378  28.683  22.390  1.00  0.00    -0.352 N 
ATOM      4  C   UNL A   1      33.474  27.871  22.286  1.00  0.00     0.251 C 
ATOM      5  O   UNL A   1      34.541  28.372  21.933  1.00  0.00    -0.269 OA
ATOM      6  H   UNL A   1      32.555  29.624  22.163  1.00  0.00     0.163 HD
BRANCH   4   7
ATOM      7  C   UNL A   1      33.394  26.401  22.463  1.00  0.00     0.041 A 
ATOM      8  C   UNL A   1      34.111  24.531  23.842  1.00  0.00     0.050 A 
ATOM      9  C   UNL A   1      33.571  23.642  22.916  1.00  0.00     0.027 A 
ATOM     10  C   UNL A   1      33.955  25.905  23.645  1.00  0.00     0.040 A 
ATOM     11  C   UNL A   1      32.944  24.133  21.764  1.00  0.00     0.003 A 
ATOM     12  C   UNL A   1      32.859  25.511  21.532  1.00  0.00     0.014 A 
BRANCH   8  13
ATOM     13  N   UNL A   1      34.879  24.154  24.974  1.00  0.00    -0.279 N 
ATOM     14  H   UNL A   1      34.558  24.461  25.853  1.00  0.00     0.180 HD
BRANCH  13  15
ATOM     15  S   UNL A   1      36.272  23.241  24.956  1.00  0.00     0.265 S 
ATOM     16  O   UNL A   1      37.022  23.560  26.154  1.00  0.00    -0.201 OA
ATOM     17  O   UNL A   1      36.854  23.476  23.647  1.00  0.00    -0.201 OA
BRANCH  15  18
ATOM     18  C   UNL A   1      35.931  21.497  25.033  1.00  0.00     0.133 A 
ATOM     19  C   UNL A   1      34.114  19.872  24.989  1.00  0.00     0.123 A 
ATOM     20  C   UNL A   1      34.556  21.188  25.092  1.00  0.00     0.073 A 
ATOM     21  C   UNL A   1      35.024  18.858  24.696  1.00  0.00    -0.005 A 
ATOM     22  C   UNL A   1      36.394  19.158  24.737  1.00  0.00     0.055 A 
ATOM     23  C   UNL A   1      34.602  17.458  24.359  1.00  0.00     0.048 C 
ATOM     24  C   UNL A   1      36.866  20.463  24.960  1.00  0.00     0.139 A 
BRANCH  19  25
ATOM     25  O   UNL A   1      32.767  19.670  25.106  1.00  0.00    -0.496 OA
ATOM     26  C   UNL A   1      32.029  20.895  25.090  1.00  0.00     0.278 C 
ENDBRANCH  19  25
BRANCH  24  27
ATOM     27  O   UNL A   1      38.186  20.733  25.162  1.00  0.00    -0.495 OA
ATOM     28  C   UNL A   1      39.048  19.646  25.491  1.00  0.00     0.278 C 
ENDBRANCH  24  27
ENDBRANCH  15  18
ENDBRANCH  13  15
ENDBRANCH   8  13
ENDBRANCH   4   7
ENDBRANCH   2   3
ENDBRANCH   1   2
BRANCH   1  29
ATOM     29  C   UNL A   1      31.903  29.306  25.015  1.00  0.00     0.002 C 
BRANCH  29  30
ATOM     30  C   UNL A   1      31.856  29.289  26.552  1.00  0.00     0.002 C 
BRANCH  30  31
ATOM     31  C   UNL A   1      32.723  30.334  27.258  1.00  0.00     0.021 C 
BRANCH  31  32
ATOM     32  C   UNL A   1      34.200  30.247  26.903  1.00  0.00     0.116 C 
BRANCH  32  33
ATOM     33  N   UNL A   1      35.012  31.329  27.441  1.00  0.00    -0.352 N 
ATOM     34  C   UNL A   1      36.173  31.292  28.193  1.00  0.00     0.251 C 
ATOM     35  H   UNL A   1      34.682  32.233  27.238  1.00  0.00     0.163 HD
ATOM     36  O   UNL A   1      36.615  32.342  28.657  1.00  0.00    -0.269 OA
BRANCH  34  37
ATOM     37  C   UNL A   1      36.982  30.049  28.304  1.00  0.00     0.039 A 
ATOM     38  C   UNL A   1      36.925  29.333  29.513  1.00  0.00     0.014 A 
ATOM     39  C   UNL A   1      37.954  29.727  27.369  1.00  0.00     0.014 A 
ATOM     40  C   UNL A   1      37.994  28.523  29.890  1.00  0.00     0.010 A 
ATOM     41  C   UNL A   1      39.071  29.050  27.790  1.00  0.00     0.010 A 
ATOM     42  C   UNL A   1      39.115  28.498  29.073  1.00  0.00    -0.014 A 
BRANCH  42  43
ATOM     43  C   UNL A   1      40.416  27.957  29.421  1.00  0.00     0.031 A 
ATOM     44  C   UNL A   1      40.804  26.640  28.882  1.00  0.00     0.074 A 
ATOM     45  C   UNL A   1      41.342  28.803  29.924  1.00  0.00     0.049 A 
ATOM     46  N   UNL A   1      41.925  26.060  29.130  1.00  0.00    -0.248 NA
ATOM     47  C   UNL A   1      39.923  25.840  28.038  1.00  0.00     0.031 C 
ATOM     48  C   UNL A   1      42.795  28.690  29.832  1.00  0.00     0.029 A 
ATOM     49  N   UNL A   1      41.137  29.872  30.808  1.00  0.00    -0.354 N 
ATOM     50  C   UNL A   1      42.041  24.980  28.287  1.00  0.00     0.074 A 
ATOM     51  C   UNL A   1      40.727  24.822  27.717  1.00  0.00     0.031 C 
ATOM     52  C   UNL A   1      43.353  29.433  30.799  1.00  0.00     0.029 A 
ATOM     53  C   UNL A   1      42.273  29.883  31.658  1.00  0.00     0.049 A 
ATOM     54  H   UNL A   1      40.367  30.484  30.833  1.00  0.00     0.167 HD
ATOM     55  C   UNL A   1      43.279  24.435  28.114  1.00  0.00     0.037 A 
ATOM     56  C   UNL A   1      42.154  29.567  32.984  1.00  0.00     0.037 A 
ATOM     57  C   UNL A   1      44.225  25.003  29.080  1.00  0.00     0.049 A 
ATOM     58  C   UNL A   1      42.932  28.341  33.423  1.00  0.00     0.074 A 
ATOM     59  C   UNL A   1      45.234  25.949  29.035  1.00  0.00     0.029 A 
ATOM     60  N   UNL A   1      43.997  24.752  30.419  1.00  0.00    -0.354 N 
ATOM     61  N   UNL A   1      43.578  27.552  32.611  1.00  0.00    -0.248 NA
ATOM     62  C   UNL A   1      42.970  27.858  34.805  1.00  0.00     0.031 C 
ATOM     63  C   UNL A   1      45.586  26.277  30.381  1.00  0.00     0.029 A 
ATOM     64  C   UNL A   1      44.806  25.513  31.231  1.00  0.00     0.049 A 
ATOM     65  H   UNL A   1      43.334  24.106  30.752  1.00  0.00     0.167 HD
ATOM     66  C   UNL A   1      44.027  26.455  33.295  1.00  0.00     0.074 A 
ATOM     67  C   UNL A   1      43.640  26.699  34.671  1.00  0.00     0.031 C 
ATOM     68  C   UNL A   1      44.630  25.403  32.670  1.00  0.00     0.037 A 
BRANCH  55  69
ATOM     69  C   UNL A   1      43.721  23.487  27.019  1.00  0.00     0.057 A 
ATOM     70  C   UNL A   1      43.160  22.193  26.950  1.00  0.00     0.134 A 
ATOM     71  C   UNL A   1      44.727  23.719  26.063  1.00  0.00     0.134 A 
ATOM     72  F   UNL A   1      42.159  21.814  27.756  1.00  0.00    -0.206 F 
ATOM     73  C   UNL A   1      43.600  21.209  26.054  1.00  0.00     0.040 A 
ATOM     74  C   UNL A   1      45.164  22.749  25.148  1.00  0.00     0.040 A 
ATOM     75  F   UNL A   1      45.365  24.883  25.949  1.00  0.00    -0.206 F 
ATOM     76  C   UNL A   1      44.614  21.482  25.152  1.00  0.00     0.006 A 
ENDBRANCH  55  69
BRANCH  56  77
ATOM     77  C   UNL A   1      40.832  29.977  33.531  1.00  0.00     0.057 A 
ATOM     78  C   UNL A   1      40.630  31.337  33.831  1.00  0.00     0.134 A 
ATOM     79  C   UNL A   1      39.696  29.191  33.316  1.00  0.00     0.134 A 
ATOM     80  F   UNL A   1      41.680  32.143  34.049  1.00  0.00    -0.206 F 
ATOM     81  C   UNL A   1      39.363  31.919  33.770  1.00  0.00     0.040 A 
ATOM     82  C   UNL A   1      38.419  29.763  33.270  1.00  0.00     0.040 A 
ATOM     83  F   UNL A   1      39.812  27.890  33.011  1.00  0.00    -0.206 F 
ATOM     84  C   UNL A   1      38.257  31.137  33.447  1.00  0.00     0.006 A 
ENDBRANCH  56  77
BRANCH  68  85
ATOM     85  C   UNL A   1      45.077  24.153  33.373  1.00  0.00     0.057 A 
ATOM     86  C   UNL A   1      44.185  23.140  33.744  1.00  0.00     0.134 A 
ATOM     87  C   UNL A   1      46.405  23.995  33.820  1.00  0.00     0.134 A 
ATOM     88  F   UNL A   1      42.890  23.205  33.403  1.00  0.00    -0.206 F 
ATOM     89  C   UNL A   1      44.593  22.035  34.502  1.00  0.00     0.040 A 
ATOM     90  C   UNL A   1      46.811  22.926  34.621  1.00  0.00     0.040 A 
ATOM     91  F   UNL A   1      47.373  24.856  33.475  1.00  0.00    -0.206 F 
ATOM     92  C   UNL A   1      45.903  21.935  34.959  1.00  0.00     0.006 A 
ENDBRANCH  68  85
ENDBRANCH  42  43
ENDBRANCH  34  37
ENDBRANCH  32  33
ENDBRANCH  31  32
ENDBRANCH  30  31
ENDBRANCH  29  30
ENDBRANCH   1  29
TORSDOF 18
ENDMDL
MODEL 3
REMARK VINA RESULT:     -12.0      3.608      9.164
REMARK SMILES COc1cc(S(=O)(=O)Nc2cccc(C(=O)NCCCCCCNC(=O)c3ccc(-c4c5nc(c(-c6c(F)cccc6F)c6ccc([nH]6)c(-c6c(F)cccc6F)c6nc(c(-c7c(F)cccc7F)c7ccc4[nH]7)C=C6)C=C5)cc3)c2)c(OC)cc1C
REMARK SMILES IDX 19 1 18 2 17 3 15 4 16 5 14 7 10 8 11 9 81 10 12 11 13 12
REMARK SMILES IDX 9 13 6 15 7 16 8 17 5 18 3 19 4 20 86 21 85 22 87 23 82 24
REMARK SMILES IDX 2 25 1 26 83 27 84 28 20 29 21 30 22 31 23 32 24 33 25 34
REMARK SMILES IDX 26 36 27 37 28 38 80 39 29 40 79 41 30 42 31 43 32 44 73 45
REMARK SMILES IDX 33 46 78 47 72 48 74 49 34 50 77 51 71 52 70 53 35 55 61 56
REMARK SMILES IDX 44 57 60 58 45 59 48 60 59 61 75 62 46 63 47 64 58 66 76 67
REMARK SMILES IDX 49 68 36 69 37 70 42 71 38 72 39 73 41 74 43 75 40 76 62 77
REMARK SMILES IDX 63 78 68 79 64 80 65 81 67 82 69 83 66 84 50 85 51 86 56 87
REMARK SMILES IDX 52 88 53 89 55 90 57 91 54 92
REMARK H PARENT 17 6 9 14 24 35 74 54 48 65
REMARK Flexibility Score: inf
ROOT
ATOM      1  C   UNL A   1      30.323  29.369  24.089  1.00  0.00     0.021 C 
ENDROOT
BRANCH   1   2
ATOM      2  C   UNL A   1      30.873  29.300  22.664  1.00  0.00     0.116 C 
BRANCH   2   3
ATOM      3  N   UNL A   1      32.323  29.317  22.684  1.00  0.00    -0.352 N 
ATOM      4  C   UNL A   1      33.254  28.314  22.700  1.00  0.00     0.251 C 
ATOM      5  O   UNL A   1      34.444  28.623  22.714  1.00  0.00    -0.269 OA
ATOM      6  H   UNL A   1      32.710  30.222  22.684  1.00  0.00     0.163 HD
BRANCH   4   7
ATOM      7  C   UNL A   1      32.884  26.884  22.577  1.00  0.00     0.041 A 
ATOM      8  C   UNL A   1      32.201  24.903  23.811  1.00  0.00     0.050 A 
ATOM      9  C   UNL A   1      32.338  24.136  22.656  1.00  0.00     0.027 A 
ATOM     10  C   UNL A   1      32.404  26.283  23.746  1.00  0.00     0.040 A 
ATOM     11  C   UNL A   1      32.750  24.745  21.463  1.00  0.00     0.003 A 
ATOM     12  C   UNL A   1      33.029  26.116  21.422  1.00  0.00     0.014 A 
BRANCH   8  13
ATOM     13  N   UNL A   1      31.918  24.381  25.100  1.00  0.00    -0.279 N 
ATOM     14  H   UNL A   1      30.969  24.297  25.348  1.00  0.00     0.180 HD
BRANCH  13  15
ATOM     15  S   UNL A   1      33.040  23.896  26.231  1.00  0.00     0.265 S 
ATOM     16  O   UNL A   1      32.323  23.261  27.317  1.00  0.00    -0.201 OA
ATOM     17  O   UNL A   1      33.849  25.075  26.480  1.00  0.00    -0.201 OA
BRANCH  15  18
ATOM     18  C   UNL A   1      34.154  22.668  25.585  1.00  0.00     0.133 A 
ATOM     19  C   UNL A   1      36.507  22.039  25.495  1.00  0.00     0.123 A 
ATOM     20  C   UNL A   1      35.515  22.970  25.790  1.00  0.00     0.073 A 
ATOM     21  C   UNL A   1      36.150  20.746  25.114  1.00  0.00    -0.005 A 
ATOM     22  C   UNL A   1      34.804  20.486  24.818  1.00  0.00     0.055 A 
ATOM     23  C   UNL A   1      37.145  19.631  24.988  1.00  0.00     0.048 C 
ATOM     24  C   UNL A   1      33.799  21.454  24.995  1.00  0.00     0.139 A 
BRANCH  19  25
ATOM     25  O   UNL A   1      37.799  22.442  25.684  1.00  0.00    -0.496 OA
ATOM     26  C   UNL A   1      37.905  23.855  25.885  1.00  0.00     0.278 C 
ENDBRANCH  19  25
BRANCH  24  27
ATOM     27  O   UNL A   1      32.522  21.263  24.559  1.00  0.00    -0.495 OA
ATOM     28  C   UNL A   1      32.329  20.496  23.373  1.00  0.00     0.278 C 
ENDBRANCH  24  27
ENDBRANCH  15  18
ENDBRANCH  13  15
ENDBRANCH   8  13
ENDBRANCH   4   7
ENDBRANCH   2   3
ENDBRANCH   1   2
BRANCH   1  29
ATOM     29  C   UNL A   1      31.267  30.043  25.098  1.00  0.00     0.002 C 
BRANCH  29  30
ATOM     30  C   UNL A   1      31.735  29.174  26.279  1.00  0.00     0.002 C 
BRANCH  30  31
ATOM     31  C   UNL A   1      32.694  29.846  27.263  1.00  0.00     0.021 C 
BRANCH  31  32
ATOM     32  C   UNL A   1      34.095  30.058  26.707  1.00  0.00     0.116 C 
BRANCH  32  33
ATOM     33  N   UNL A   1      34.804  31.193  27.279  1.00  0.00    -0.352 N 
ATOM     34  C   UNL A   1      35.933  31.238  28.077  1.00  0.00     0.251 C 
ATOM     35  H   UNL A   1      34.417  32.072  27.064  1.00  0.00     0.163 HD
ATOM     36  O   UNL A   1      36.278  32.315  28.560  1.00  0.00    -0.269 OA
BRANCH  34  37
ATOM     37  C   UNL A   1      36.825  30.057  28.219  1.00  0.00     0.039 A 
ATOM     38  C   UNL A   1      36.744  29.311  29.409  1.00  0.00     0.014 A 
ATOM     39  C   UNL A   1      37.878  29.829  27.346  1.00  0.00     0.014 A 
ATOM     40  C   UNL A   1      37.845  28.574  29.842  1.00  0.00     0.010 A 
ATOM     41  C   UNL A   1      39.013  29.228  27.828  1.00  0.00     0.010 A 
ATOM     42  C   UNL A   1      39.015  28.652  29.101  1.00  0.00    -0.014 A 
BRANCH  42  43
ATOM     43  C   UNL A   1      40.328  28.201  29.525  1.00  0.00     0.031 A 
ATOM     44  C   UNL A   1      40.862  26.945  28.966  1.00  0.00     0.074 A 
ATOM     45  C   UNL A   1      41.142  29.095  30.130  1.00  0.00     0.049 A 
ATOM     46  N   UNL A   1      42.006  26.446  29.276  1.00  0.00    -0.248 NA
ATOM     47  C   UNL A   1      40.114  26.116  28.028  1.00  0.00     0.031 C 
ATOM     48  C   UNL A   1      42.602  29.102  30.143  1.00  0.00     0.029 A 
ATOM     49  N   UNL A   1      40.785  30.103  31.036  1.00  0.00    -0.354 N 
ATOM     50  C   UNL A   1      42.272  25.418  28.403  1.00  0.00     0.074 A 
ATOM     51  C   UNL A   1      41.021  25.181  27.729  1.00  0.00     0.031 C 
ATOM     52  C   UNL A   1      43.025  29.843  31.178  1.00  0.00     0.029 A 
ATOM     53  C   UNL A   1      41.852  30.167  31.969  1.00  0.00     0.049 A 
ATOM     54  H   UNL A   1      39.967  30.651  31.027  1.00  0.00     0.167 HD
ATOM     55  C   UNL A   1      43.561  24.982  28.303  1.00  0.00     0.037 A 
ATOM     56  C   UNL A   1      41.664  29.783  33.269  1.00  0.00     0.037 A 
ATOM     57  C   UNL A   1      44.384  25.580  29.359  1.00  0.00     0.049 A 
ATOM     58  C   UNL A   1      42.508  28.605  33.719  1.00  0.00     0.074 A 
ATOM     59  C   UNL A   1      45.311  26.604  29.428  1.00  0.00     0.029 A 
ATOM     60  N   UNL A   1      44.081  25.251  30.666  1.00  0.00    -0.354 N 
ATOM     61  N   UNL A   1      43.274  27.908  32.927  1.00  0.00    -0.248 NA
ATOM     62  C   UNL A   1      42.486  28.064  35.079  1.00  0.00     0.031 C 
ATOM     63  C   UNL A   1      45.537  26.899  30.808  1.00  0.00     0.029 A 
ATOM     64  C   UNL A   1      44.764  26.037  31.566  1.00  0.00     0.049 A 
ATOM     65  H   UNL A   1      43.452  24.540  30.922  1.00  0.00     0.167 HD
ATOM     66  C   UNL A   1      43.762  26.820  33.600  1.00  0.00     0.074 A 
ATOM     67  C   UNL A   1      43.257  26.970  34.951  1.00  0.00     0.031 C 
ATOM     68  C   UNL A   1      44.494  25.849  32.982  1.00  0.00     0.037 A 
BRANCH  55  69
ATOM     69  C   UNL A   1      44.158  24.122  27.208  1.00  0.00     0.057 A 
ATOM     70  C   UNL A   1      43.736  22.782  27.067  1.00  0.00     0.134 A 
ATOM     71  C   UNL A   1      45.187  24.488  26.321  1.00  0.00     0.134 A 
ATOM     72  F   UNL A   1      42.734  22.276  27.800  1.00  0.00    -0.206 F 
ATOM     73  C   UNL A   1      44.324  21.879  26.171  1.00  0.00     0.040 A 
ATOM     74  C   UNL A   1      45.771  23.599  25.406  1.00  0.00     0.040 A 
ATOM     75  F   UNL A   1      45.709  25.713  26.281  1.00  0.00    -0.206 F 
ATOM     76  C   UNL A   1      45.354  22.284  25.339  1.00  0.00     0.006 A 
ENDBRANCH  55  69
BRANCH  56  77
ATOM     77  C   UNL A   1      40.277  30.061  33.730  1.00  0.00     0.057 A 
ATOM     78  C   UNL A   1      39.960  31.372  34.130  1.00  0.00     0.134 A 
ATOM     79  C   UNL A   1      39.217  29.233  33.346  1.00  0.00     0.134 A 
ATOM     80  F   UNL A   1      40.932  32.215  34.512  1.00  0.00    -0.206 F 
ATOM     81  C   UNL A   1      38.666  31.883  34.008  1.00  0.00     0.040 A 
ATOM     82  C   UNL A   1      37.914  29.731  33.237  1.00  0.00     0.040 A 
ATOM     83  F   UNL A   1      39.446  27.976  32.939  1.00  0.00    -0.206 F 
ATOM     84  C   UNL A   1      37.646  31.070  33.520  1.00  0.00     0.006 A 
ENDBRANCH  56  77
BRANCH  68  85
ATOM     85  C   UNL A   1      44.990  24.608  33.668  1.00  0.00     0.057 A 
ATOM     86  C   UNL A   1      46.349  24.379  33.914  1.00  0.00     0.134 A 
ATOM     87  C   UNL A   1      44.121  23.542  33.980  1.00  0.00     0.134 A 
ATOM     88  F   UNL A   1      47.268  25.310  33.623  1.00  0.00    -0.206 F 
ATOM     89  C   UNL A   1      46.811  23.168  34.448  1.00  0.00     0.040 A 
ATOM     90  C   UNL A   1      44.576  22.313  34.461  1.00  0.00     0.040 A 
ATOM     91  F   UNL A   1      42.791  23.657  33.859  1.00  0.00    -0.206 F 
ATOM     92  C   UNL A   1      45.927  22.125  34.704  1.00  0.00     0.006 A 
ENDBRANCH  68  85
ENDBRANCH  42  43
ENDBRANCH  34  37
ENDBRANCH  32  33
ENDBRANCH  31  32
ENDBRANCH  30  31
ENDBRANCH  29  30
ENDBRANCH   1  29
TORSDOF 18
ENDMDL
