MODEL 1
REMARK VINA RESULT:     -11.7      0.000      0.000
REMARK SMILES Cc1c(CC(=O)NCCCCCCNC(=O)c2ccc(-c3c4nc(c(-c5c(F)cccc5F)c5ccc([nH]5)c(-c5c(F)cccc5F)c5nc(c(-c6c(F)cccc6F)c6ccc3[nH]6)C=C5)C=C4)cc2)c(O)oc2cc(=O)cc(O)c1-2
REMARK SMILES IDX 10 1 9 2 8 3 7 4 5 5 6 6 4 8 3 9 1 10 2 11 81 12 71 13 74 14
REMARK SMILES IDX 79 15 73 16 75 17 78 18 76 19 77 20 72 21 80 23 11 25 12 26
REMARK SMILES IDX 13 27 14 28 15 29 16 31 17 32 18 33 70 34 19 35 69 36 20 37
REMARK SMILES IDX 21 38 22 39 63 40 23 41 68 42 62 43 64 44 24 45 67 46 61 47
REMARK SMILES IDX 60 48 25 50 51 51 34 52 50 53 35 54 38 55 49 56 65 57 36 58
REMARK SMILES IDX 37 59 48 61 66 62 39 63 26 64 27 65 32 66 28 67 29 68 31 69
REMARK SMILES IDX 33 70 30 71 52 72 53 73 58 74 54 75 55 76 57 77 59 78 56 79
REMARK SMILES IDX 40 80 41 81 46 82 42 83 43 84 45 85 47 86 44 87
REMARK H PARENT 7 7 72 22 80 24 14 30 64 49 38 60
REMARK Flexibility Score: inf
ROOT
ATOM      1  C   UNL A   1      36.738  22.254  24.264  1.00  0.00     0.002 C 
ENDROOT
BRANCH   1   2
ATOM      2  C   UNL A   1      36.492  23.486  25.149  1.00  0.00     0.021 C 
BRANCH   2   3
ATOM      3  C   UNL A   1      35.158  24.179  24.881  1.00  0.00     0.116 C 
BRANCH   3   4
ATOM      4  N   UNL A   1      34.815  24.117  23.475  1.00  0.00    -0.356 N 
ATOM      5  C   UNL A   1      33.707  23.595  22.880  1.00  0.00     0.224 C 
ATOM      6  O   UNL A   1      33.665  23.572  21.648  1.00  0.00    -0.275 OA
ATOM      7  H   UNL A   1      35.478  24.508  22.861  1.00  0.00     0.163 HD
BRANCH   5   8
ATOM      8  C   UNL A   1      32.516  23.140  23.722  1.00  0.00     0.143 C 
BRANCH   8   9
ATOM      9  C   UNL A   1      32.579  21.721  24.266  1.00  0.00     0.046 A 
ATOM     10  C   UNL A   1      31.874  20.847  21.969  1.00  0.00     0.046 C 
ATOM     11  C   UNL A   1      32.383  20.555  23.367  1.00  0.00    -0.026 A 
ATOM     12  C   UNL A   1      32.627  19.291  23.823  1.00  0.00     0.063 A 
ATOM     13  C   UNL A   1      32.844  21.489  25.573  1.00  0.00     0.286 A 
ATOM     14  C   UNL A   1      32.971  19.117  25.247  1.00  0.00     0.146 A 
ATOM     15  C   UNL A   1      32.569  18.060  23.001  1.00  0.00     0.130 A 
ATOM     16  O   UNL A   1      33.034  20.221  26.072  1.00  0.00    -0.425 OA
ATOM     17  C   UNL A   1      33.178  17.911  25.788  1.00  0.00     0.100 A 
ATOM     18  C   UNL A   1      32.769  16.848  23.538  1.00  0.00     0.099 A 
ATOM     19  C   UNL A   1      33.078  16.692  24.972  1.00  0.00     0.186 A 
ATOM     20  O   UNL A   1      33.259  15.583  25.459  1.00  0.00    -0.290 OA
BRANCH  13  21
ATOM     21  O   UNL A   1      32.985  22.498  26.502  1.00  0.00    -0.480 OA
ATOM     22  H   UNL A   1      33.695  22.476  27.114  1.00  0.00     0.297 HD
ENDBRANCH  13  21
BRANCH  15  23
ATOM     23  O   UNL A   1      32.358  18.196  21.646  1.00  0.00    -0.507 OA
ATOM     24  H   UNL A   1      31.663  17.726  21.229  1.00  0.00     0.293 HD
ENDBRANCH  15  23
ENDBRANCH   8   9
ENDBRANCH   5   8
ENDBRANCH   3   4
ENDBRANCH   2   3
ENDBRANCH   1   2
BRANCH   1  25
ATOM     25  C   UNL A   1      36.473  20.904  24.941  1.00  0.00     0.002 C 
BRANCH  25  26
ATOM     26  C   UNL A   1      37.658  19.937  24.935  1.00  0.00     0.021 C 
BRANCH  26  27
ATOM     27  C   UNL A   1      38.880  20.434  25.699  1.00  0.00     0.116 C 
BRANCH  27  28
ATOM     28  N   UNL A   1      39.910  19.412  25.802  1.00  0.00    -0.352 N 
ATOM     29  C   UNL A   1      41.239  19.552  26.113  1.00  0.00     0.251 C 
ATOM     30  H   UNL A   1      39.612  18.491  25.623  1.00  0.00     0.163 HD
ATOM     31  O   UNL A   1      42.018  18.616  25.957  1.00  0.00    -0.269 OA
BRANCH  29  32
ATOM     32  C   UNL A   1      41.735  20.848  26.619  1.00  0.00     0.039 A 
ATOM     33  C   UNL A   1      42.231  21.784  25.710  1.00  0.00     0.014 A 
ATOM     34  C   UNL A   1      41.700  21.136  27.986  1.00  0.00     0.014 A 
ATOM     35  C   UNL A   1      42.639  23.038  26.169  1.00  0.00     0.010 A 
ATOM     36  C   UNL A   1      42.040  22.408  28.433  1.00  0.00     0.010 A 
ATOM     37  C   UNL A   1      42.518  23.369  27.529  1.00  0.00    -0.014 A 
BRANCH  37  38
ATOM     38  C   UNL A   1      42.903  24.715  28.021  1.00  0.00     0.031 A 
ATOM     39  C   UNL A   1      41.852  25.765  28.242  1.00  0.00     0.074 A 
ATOM     40  C   UNL A   1      44.202  25.000  28.234  1.00  0.00     0.049 A 
ATOM     41  N   UNL A   1      41.992  26.999  28.653  1.00  0.00    -0.248 NA
ATOM     42  C   UNL A   1      40.461  25.384  27.946  1.00  0.00     0.031 C 
ATOM     43  C   UNL A   1      45.318  24.077  28.016  1.00  0.00     0.029 A 
ATOM     44  N   UNL A   1      44.804  26.148  28.684  1.00  0.00    -0.354 N 
ATOM     45  C   UNL A   1      40.714  27.539  28.664  1.00  0.00     0.074 A 
ATOM     46  C   UNL A   1      39.817  26.522  28.161  1.00  0.00     0.031 C 
ATOM     47  C   UNL A   1      46.463  24.682  28.369  1.00  0.00     0.029 A 
ATOM     48  C   UNL A   1      46.168  26.044  28.806  1.00  0.00     0.049 A 
ATOM     49  H   UNL A   1      44.304  26.969  28.901  1.00  0.00     0.167 HD
ATOM     50  C   UNL A   1      40.317  28.762  29.087  1.00  0.00     0.037 A 
ATOM     51  C   UNL A   1      47.077  26.944  29.227  1.00  0.00     0.037 A 
ATOM     52  C   UNL A   1      41.208  29.764  29.608  1.00  0.00     0.049 A 
ATOM     53  C   UNL A   1      46.616  28.307  29.664  1.00  0.00     0.074 A 
ATOM     54  C   UNL A   1      40.896  31.016  30.107  1.00  0.00     0.029 A 
ATOM     55  N   UNL A   1      42.585  29.627  29.696  1.00  0.00    -0.354 N 
ATOM     56  N   UNL A   1      45.397  28.783  29.727  1.00  0.00    -0.248 NA
ATOM     57  C   UNL A   1      47.655  29.257  30.087  1.00  0.00     0.031 C 
ATOM     58  C   UNL A   1      42.089  31.654  30.460  1.00  0.00     0.029 A 
ATOM     59  C   UNL A   1      43.139  30.782  30.220  1.00  0.00     0.049 A 
ATOM     60  H   UNL A   1      43.092  28.828  29.426  1.00  0.00     0.167 HD
ATOM     61  C   UNL A   1      45.518  30.078  30.214  1.00  0.00     0.074 A 
ATOM     62  C   UNL A   1      46.929  30.309  30.444  1.00  0.00     0.031 C 
ATOM     63  C   UNL A   1      44.547  30.994  30.447  1.00  0.00     0.037 A 
BRANCH  50  64
ATOM     64  C   UNL A   1      38.852  29.077  29.026  1.00  0.00     0.057 A 
ATOM     65  C   UNL A   1      38.029  28.950  30.152  1.00  0.00     0.134 A 
ATOM     66  C   UNL A   1      38.269  29.560  27.848  1.00  0.00     0.134 A 
ATOM     67  F   UNL A   1      38.525  28.481  31.307  1.00  0.00    -0.206 F 
ATOM     68  C   UNL A   1      36.673  29.276  30.106  1.00  0.00     0.040 A 
ATOM     69  C   UNL A   1      36.919  29.913  27.796  1.00  0.00     0.040 A 
ATOM     70  F   UNL A   1      39.003  29.711  26.736  1.00  0.00    -0.206 F 
ATOM     71  C   UNL A   1      36.116  29.767  28.926  1.00  0.00     0.006 A 
ENDBRANCH  50  64
BRANCH  51  72
ATOM     72  C   UNL A   1      48.511  26.568  29.295  1.00  0.00     0.057 A 
ATOM     73  C   UNL A   1      49.041  25.960  30.439  1.00  0.00     0.134 A 
ATOM     74  C   UNL A   1      49.382  26.788  28.221  1.00  0.00     0.134 A 
ATOM     75  F   UNL A   1      48.260  25.739  31.508  1.00  0.00    -0.206 F 
ATOM     76  C   UNL A   1      50.385  25.593  30.518  1.00  0.00     0.040 A 
ATOM     77  C   UNL A   1      50.724  26.406  28.277  1.00  0.00     0.040 A 
ATOM     78  F   UNL A   1      48.935  27.362  27.093  1.00  0.00    -0.206 F 
ATOM     79  C   UNL A   1      51.229  25.811  29.431  1.00  0.00     0.006 A 
ENDBRANCH  51  72
BRANCH  63  80
ATOM     80  C   UNL A   1      44.963  32.328  30.987  1.00  0.00     0.057 A 
ATOM     81  C   UNL A   1      45.229  33.411  30.139  1.00  0.00     0.134 A 
ATOM     82  C   UNL A   1      45.014  32.557  32.367  1.00  0.00     0.134 A 
ATOM     83  F   UNL A   1      45.207  33.252  28.807  1.00  0.00    -0.206 F 
ATOM     84  C   UNL A   1      45.534  34.674  30.646  1.00  0.00     0.040 A 
ATOM     85  C   UNL A   1      45.294  33.821  32.887  1.00  0.00     0.040 A 
ATOM     86  F   UNL A   1      44.760  31.564  33.233  1.00  0.00    -0.206 F 
ATOM     87  C   UNL A   1      45.555  34.885  32.024  1.00  0.00     0.006 A 
ENDBRANCH  63  80
ENDBRANCH  37  38
ENDBRANCH  29  32
ENDBRANCH  27  28
ENDBRANCH  26  27
ENDBRANCH  25  26
ENDBRANCH   1  25
TORSDOF 16
ENDMDL
MODEL 2
REMARK VINA RESULT:     -11.7      5.516      9.859
REMARK SMILES Cc1c(CC(=O)NCCCCCCNC(=O)c2ccc(-c3c4nc(c(-c5c(F)cccc5F)c5ccc([nH]5)c(-c5c(F)cccc5F)c5nc(c(-c6c(F)cccc6F)c6ccc3[nH]6)C=C5)C=C4)cc2)c(O)oc2cc(=O)cc(O)c1-2
REMARK SMILES IDX 10 1 9 2 8 3 7 4 5 5 6 6 4 8 3 9 1 10 2 11 81 12 71 13 74 14
REMARK SMILES IDX 79 15 73 16 75 17 78 18 76 19 77 20 72 21 80 23 11 25 12 26
REMARK SMILES IDX 13 27 14 28 15 29 16 31 17 32 18 33 70 34 19 35 69 36 20 37
REMARK SMILES IDX 21 38 22 39 63 40 23 41 68 42 62 43 64 44 24 45 67 46 61 47
REMARK SMILES IDX 60 48 25 50 51 51 34 52 50 53 35 54 38 55 49 56 65 57 36 58
REMARK SMILES IDX 37 59 48 61 66 62 39 63 26 64 27 65 32 66 28 67 29 68 31 69
REMARK SMILES IDX 33 70 30 71 52 72 53 73 58 74 54 75 55 76 57 77 59 78 56 79
REMARK SMILES IDX 40 80 41 81 46 82 42 83 43 84 45 85 47 86 44 87
REMARK H PARENT 7 7 72 22 80 24 14 30 64 49 38 60
REMARK Flexibility Score: inf
ROOT
ATOM      1  C   UNL A   1      32.407  29.993  26.597  1.00  0.00     0.002 C 
ENDROOT
BRANCH   1   2
ATOM      2  C   UNL A   1      31.779  28.785  27.307  1.00  0.00     0.021 C 
BRANCH   2   3
ATOM      3  C   UNL A   1      32.200  27.439  26.719  1.00  0.00     0.116 C 
BRANCH   3   4
ATOM      4  N   UNL A   1      31.190  26.430  26.962  1.00  0.00    -0.356 N 
ATOM      5  C   UNL A   1      30.512  25.657  26.070  1.00  0.00     0.224 C 
ATOM      6  O   UNL A   1      29.624  24.916  26.497  1.00  0.00    -0.275 OA
ATOM      7  H   UNL A   1      30.961  26.281  27.908  1.00  0.00     0.163 HD
BRANCH   5   8
ATOM      8  C   UNL A   1      30.911  25.643  24.594  1.00  0.00     0.143 C 
BRANCH   8   9
ATOM      9  C   UNL A   1      30.616  26.909  23.805  1.00  0.00     0.046 A 
ATOM     10  C   UNL A   1      28.127  26.332  23.878  1.00  0.00     0.046 C 
ATOM     11  C   UNL A   1      29.216  27.332  23.547  1.00  0.00    -0.026 A 
ATOM     12  C   UNL A   1      28.962  28.560  23.006  1.00  0.00     0.063 A 
ATOM     13  C   UNL A   1      31.620  27.692  23.346  1.00  0.00     0.286 A 
ATOM     14  C   UNL A   1      30.107  29.388  22.584  1.00  0.00     0.146 A 
ATOM     15  C   UNL A   1      27.614  29.139  22.797  1.00  0.00     0.130 A 
ATOM     16  O   UNL A   1      31.390  28.907  22.742  1.00  0.00    -0.425 OA
ATOM     17  C   UNL A   1      29.947  30.582  22.001  1.00  0.00     0.100 A 
ATOM     18  C   UNL A   1      27.447  30.331  22.208  1.00  0.00     0.099 A 
ATOM     19  C   UNL A   1      28.604  31.130  21.761  1.00  0.00     0.186 A 
ATOM     20  O   UNL A   1      28.447  32.218  21.222  1.00  0.00    -0.290 OA
BRANCH  13  21
ATOM     21  O   UNL A   1      32.953  27.363  23.480  1.00  0.00    -0.480 OA
ATOM     22  H   UNL A   1      33.271  27.019  24.292  1.00  0.00     0.297 HD
ENDBRANCH  13  21
BRANCH  15  23
ATOM     23  O   UNL A   1      26.528  28.441  23.279  1.00  0.00    -0.507 OA
ATOM     24  H   UNL A   1      26.296  28.502  24.185  1.00  0.00     0.293 HD
ENDBRANCH  15  23
ENDBRANCH   8   9
ENDBRANCH   5   8
ENDBRANCH   3   4
ENDBRANCH   2   3
ENDBRANCH   1   2
BRANCH   1  25
ATOM     25  C   UNL A   1      31.413  30.916  25.882  1.00  0.00     0.002 C 
BRANCH  25  26
ATOM     26  C   UNL A   1      31.264  32.307  26.502  1.00  0.00     0.021 C 
BRANCH  26  27
ATOM     27  C   UNL A   1      32.499  32.798  27.248  1.00  0.00     0.116 C 
BRANCH  27  28
ATOM     28  N   UNL A   1      32.385  34.199  27.626  1.00  0.00    -0.352 N 
ATOM     29  C   UNL A   1      33.070  34.892  28.592  1.00  0.00     0.251 C 
ATOM     30  H   UNL A   1      31.724  34.722  27.119  1.00  0.00     0.163 HD
ATOM     31  O   UNL A   1      32.711  36.018  28.924  1.00  0.00    -0.269 OA
BRANCH  29  32
ATOM     32  C   UNL A   1      34.235  34.265  29.249  1.00  0.00     0.039 A 
ATOM     33  C   UNL A   1      34.027  33.448  30.361  1.00  0.00     0.014 A 
ATOM     34  C   UNL A   1      35.527  34.482  28.760  1.00  0.00     0.014 A 
ATOM     35  C   UNL A   1      35.113  32.796  30.947  1.00  0.00     0.010 A 
ATOM     36  C   UNL A   1      36.597  33.777  29.300  1.00  0.00     0.010 A 
ATOM     37  C   UNL A   1      36.401  32.933  30.403  1.00  0.00    -0.014 A 
BRANCH  37  38
ATOM     38  C   UNL A   1      37.555  32.207  30.989  1.00  0.00     0.031 A 
ATOM     39  C   UNL A   1      38.057  32.570  32.357  1.00  0.00     0.074 A 
ATOM     40  C   UNL A   1      38.170  31.246  30.274  1.00  0.00     0.049 A 
ATOM     41  N   UNL A   1      39.058  32.063  33.029  1.00  0.00    -0.248 NA
ATOM     42  C   UNL A   1      37.354  33.660  33.055  1.00  0.00     0.031 C 
ATOM     43  C   UNL A   1      37.800  30.832  28.918  1.00  0.00     0.029 A 
ATOM     44  N   UNL A   1      39.236  30.441  30.587  1.00  0.00    -0.354 N 
ATOM     45  C   UNL A   1      39.104  32.769  34.224  1.00  0.00     0.074 A 
ATOM     46  C   UNL A   1      38.073  33.781  34.161  1.00  0.00     0.031 C 
ATOM     47  C   UNL A   1      38.601  29.825  28.533  1.00  0.00     0.029 A 
ATOM     48  C   UNL A   1      39.560  29.544  29.598  1.00  0.00     0.049 A 
ATOM     49  H   UNL A   1      39.722  30.500  31.442  1.00  0.00     0.167 HD
ATOM     50  C   UNL A   1      39.911  32.570  35.292  1.00  0.00     0.037 A 
ATOM     51  C   UNL A   1      40.519  28.600  29.557  1.00  0.00     0.037 A 
ATOM     52  C   UNL A   1      40.922  31.549  35.361  1.00  0.00     0.049 A 
ATOM     53  C   UNL A   1      41.423  28.418  30.744  1.00  0.00     0.074 A 
ATOM     54  C   UNL A   1      41.758  31.236  36.418  1.00  0.00     0.029 A 
ATOM     55  N   UNL A   1      41.231  30.674  34.330  1.00  0.00    -0.354 N 
ATOM     56  N   UNL A   1      41.416  29.051  31.891  1.00  0.00    -0.248 NA
ATOM     57  C   UNL A   1      42.470  27.391  30.631  1.00  0.00     0.031 C 
ATOM     58  C   UNL A   1      42.603  30.198  36.013  1.00  0.00     0.029 A 
ATOM     59  C   UNL A   1      42.263  29.837  34.719  1.00  0.00     0.049 A 
ATOM     60  H   UNL A   1      40.785  30.652  33.454  1.00  0.00     0.167 HD
ATOM     61  C   UNL A   1      42.438  28.490  32.644  1.00  0.00     0.074 A 
ATOM     62  C   UNL A   1      43.038  27.453  31.829  1.00  0.00     0.031 C 
ATOM     63  C   UNL A   1      42.845  28.807  33.897  1.00  0.00     0.037 A 
BRANCH  50  64
ATOM     64  C   UNL A   1      39.720  33.461  36.483  1.00  0.00     0.057 A 
ATOM     65  C   UNL A   1      40.409  34.674  36.607  1.00  0.00     0.134 A 
ATOM     66  C   UNL A   1      38.804  33.130  37.489  1.00  0.00     0.134 A 
ATOM     67  F   UNL A   1      41.309  35.042  35.683  1.00  0.00    -0.206 F 
ATOM     68  C   UNL A   1      40.207  35.520  37.698  1.00  0.00     0.040 A 
ATOM     69  C   UNL A   1      38.574  33.980  38.573  1.00  0.00     0.040 A 
ATOM     70  F   UNL A   1      38.107  31.986  37.428  1.00  0.00    -0.206 F 
ATOM     71  C   UNL A   1      39.280  35.177  38.681  1.00  0.00     0.006 A 
ENDBRANCH  50  64
BRANCH  51  72
ATOM     72  C   UNL A   1      40.644  27.726  28.363  1.00  0.00     0.057 A 
ATOM     73  C   UNL A   1      39.984  26.494  28.304  1.00  0.00     0.134 A 
ATOM     74  C   UNL A   1      41.406  28.103  27.251  1.00  0.00     0.134 A 
ATOM     75  F   UNL A   1      39.252  26.070  29.346  1.00  0.00    -0.206 F 
ATOM     76  C   UNL A   1      40.084  25.663  27.187  1.00  0.00     0.040 A 
ATOM     77  C   UNL A   1      41.498  27.293  26.118  1.00  0.00     0.040 A 
ATOM     78  F   UNL A   1      42.058  29.276  27.244  1.00  0.00    -0.206 F 
ATOM     79  C   UNL A   1      40.838  26.066  26.087  1.00  0.00     0.006 A 
ENDBRANCH  51  72
BRANCH  63  80
ATOM     80  C   UNL A   1      43.985  28.025  34.477  1.00  0.00     0.057 A 
ATOM     81  C   UNL A   1      45.303  28.493  34.414  1.00  0.00     0.134 A 
ATOM     82  C   UNL A   1      43.751  26.837  35.182  1.00  0.00     0.134 A 
ATOM     83  F   UNL A   1      45.592  29.619  33.744  1.00  0.00    -0.206 F 
ATOM     84  C   UNL A   1      46.350  27.806  35.029  1.00  0.00     0.040 A 
ATOM     85  C   UNL A   1      44.786  26.153  35.822  1.00  0.00     0.040 A 
ATOM     86  F   UNL A   1      42.510  26.340  35.288  1.00  0.00    -0.206 F 
ATOM     87  C   UNL A   1      46.091  26.639  35.745  1.00  0.00     0.006 A 
ENDBRANCH  63  80
ENDBRANCH  37  38
ENDBRANCH  29  32
ENDBRANCH  27  28
ENDBRANCH  26  27
ENDBRANCH  25  26
ENDBRANCH   1  25
TORSDOF 16
ENDMDL
MODEL 3
REMARK VINA RESULT:     -11.6      2.464      7.416
REMARK SMILES Cc1c(CC(=O)NCCCCCCNC(=O)c2ccc(-c3c4nc(c(-c5c(F)cccc5F)c5ccc([nH]5)c(-c5c(F)cccc5F)c5nc(c(-c6c(F)cccc6F)c6ccc3[nH]6)C=C5)C=C4)cc2)c(O)oc2cc(=O)cc(O)c1-2
REMARK SMILES IDX 10 1 9 2 8 3 7 4 5 5 6 6 4 8 3 9 1 10 2 11 81 12 71 13 74 14
REMARK SMILES IDX 79 15 73 16 75 17 78 18 76 19 77 20 72 21 80 23 11 25 12 26
REMARK SMILES IDX 13 27 14 28 15 29 16 31 17 32 18 33 70 34 19 35 69 36 20 37
REMARK SMILES IDX 21 38 22 39 63 40 23 41 68 42 62 43 64 44 24 45 67 46 61 47
REMARK SMILES IDX 60 48 25 50 51 51 34 52 50 53 35 54 38 55 49 56 65 57 36 58
REMARK SMILES IDX 37 59 48 61 66 62 39 63 26 64 27 65 32 66 28 67 29 68 31 69
REMARK SMILES IDX 33 70 30 71 52 72 53 73 58 74 54 75 55 76 57 77 59 78 56 79
REMARK SMILES IDX 40 80 41 81 46 82 42 83 43 84 45 85 47 86 44 87
REMARK H PARENT 7 7 72 22 80 24 14 30 64 49 38 60
REMARK Flexibility Score: inf
ROOT
ATOM      1  C   UNL A   1      36.939  21.954  24.329  1.00  0.00     0.002 C 
ENDROOT
BRANCH   1   2
ATOM      2  C   UNL A   1      35.865  23.020  24.593  1.00  0.00     0.021 C 
BRANCH   2   3
ATOM      3  C   UNL A   1      34.456  22.583  24.197  1.00  0.00     0.116 C 
BRANCH   3   4
ATOM      4  N   UNL A   1      34.103  23.097  22.889  1.00  0.00    -0.356 N 
ATOM      5  C   UNL A   1      33.549  24.295  22.555  1.00  0.00     0.224 C 
ATOM      6  O   UNL A   1      33.250  24.489  21.375  1.00  0.00    -0.275 OA
ATOM      7  H   UNL A   1      34.290  22.494  22.134  1.00  0.00     0.163 HD
BRANCH   5   8
ATOM      8  C   UNL A   1      33.394  25.398  23.602  1.00  0.00     0.143 C 
BRANCH   8   9
ATOM      9  C   UNL A   1      32.035  26.078  23.667  1.00  0.00     0.046 A 
ATOM     10  C   UNL A   1      33.078  28.178  22.647  1.00  0.00     0.046 C 
ATOM     11  C   UNL A   1      31.834  27.427  23.076  1.00  0.00    -0.026 A 
ATOM     12  C   UNL A   1      30.576  27.946  22.972  1.00  0.00     0.063 A 
ATOM     13  C   UNL A   1      30.974  25.461  24.236  1.00  0.00     0.286 A 
ATOM     14  C   UNL A   1      29.456  27.189  23.562  1.00  0.00     0.146 A 
ATOM     15  C   UNL A   1      30.233  29.228  22.313  1.00  0.00     0.130 A 
ATOM     16  O   UNL A   1      29.705  25.991  24.199  1.00  0.00    -0.425 OA
ATOM     17  C   UNL A   1      28.199  27.647  23.548  1.00  0.00     0.100 A 
ATOM     18  C   UNL A   1      28.977  29.696  22.300  1.00  0.00     0.099 A 
ATOM     19  C   UNL A   1      27.875  28.940  22.927  1.00  0.00     0.186 A 
ATOM     20  O   UNL A   1      26.729  29.372  22.914  1.00  0.00    -0.290 OA
BRANCH  13  21
ATOM     21  O   UNL A   1      31.065  24.235  24.863  1.00  0.00    -0.480 OA
ATOM     22  H   UNL A   1      31.828  24.019  25.361  1.00  0.00     0.297 HD
ENDBRANCH  13  21
BRANCH  15  23
ATOM     23  O   UNL A   1      31.236  29.907  21.656  1.00  0.00    -0.507 OA
ATOM     24  H   UNL A   1      31.028  30.479  20.944  1.00  0.00     0.293 HD
ENDBRANCH  15  23
ENDBRANCH   8   9
ENDBRANCH   5   8
ENDBRANCH   3   4
ENDBRANCH   2   3
ENDBRANCH   1   2
BRANCH   1  25
ATOM     25  C   UNL A   1      36.609  20.553  24.858  1.00  0.00     0.002 C 
BRANCH  25  26
ATOM     26  C   UNL A   1      37.803  19.602  24.953  1.00  0.00     0.021 C 
BRANCH  26  27
ATOM     27  C   UNL A   1      38.980  20.149  25.752  1.00  0.00     0.116 C 
BRANCH  27  28
ATOM     28  N   UNL A   1      40.074  19.193  25.832  1.00  0.00    -0.352 N 
ATOM     29  C   UNL A   1      41.400  19.417  26.102  1.00  0.00     0.251 C 
ATOM     30  H   UNL A   1      39.829  18.254  25.668  1.00  0.00     0.163 HD
ATOM     31  O   UNL A   1      42.231  18.529  25.931  1.00  0.00    -0.269 OA
BRANCH  29  32
ATOM     32  C   UNL A   1      41.830  20.745  26.584  1.00  0.00     0.039 A 
ATOM     33  C   UNL A   1      42.056  21.762  25.655  1.00  0.00     0.014 A 
ATOM     34  C   UNL A   1      42.000  20.983  27.951  1.00  0.00     0.014 A 
ATOM     35  C   UNL A   1      42.395  23.040  26.103  1.00  0.00     0.010 A 
ATOM     36  C   UNL A   1      42.269  22.272  28.400  1.00  0.00     0.010 A 
ATOM     37  C   UNL A   1      42.475  23.311  27.479  1.00  0.00    -0.014 A 
BRANCH  37  38
ATOM     38  C   UNL A   1      42.787  24.676  27.969  1.00  0.00     0.031 A 
ATOM     39  C   UNL A   1      44.212  25.076  28.226  1.00  0.00     0.074 A 
ATOM     40  C   UNL A   1      41.785  25.542  28.214  1.00  0.00     0.049 A 
ATOM     41  N   UNL A   1      44.682  26.214  28.667  1.00  0.00    -0.248 NA
ATOM     42  C   UNL A   1      45.244  24.057  27.972  1.00  0.00     0.031 C 
ATOM     43  C   UNL A   1      40.359  25.257  28.041  1.00  0.00     0.029 A 
ATOM     44  N   UNL A   1      41.812  26.840  28.658  1.00  0.00    -0.354 N 
ATOM     45  C   UNL A   1      46.059  26.048  28.743  1.00  0.00     0.074 A 
ATOM     46  C   UNL A   1      46.344  24.682  28.364  1.00  0.00     0.031 C 
ATOM     47  C   UNL A   1      39.652  26.359  28.339  1.00  0.00     0.029 A 
ATOM     48  C   UNL A   1      40.569  27.416  28.754  1.00  0.00     0.049 A 
ATOM     49  H   UNL A   1      42.645  27.314  28.885  1.00  0.00     0.167 HD
ATOM     50  C   UNL A   1      47.003  26.962  29.068  1.00  0.00     0.037 A 
ATOM     51  C   UNL A   1      40.210  28.658  29.131  1.00  0.00     0.037 A 
ATOM     52  C   UNL A   1      46.718  28.326  29.424  1.00  0.00     0.049 A 
ATOM     53  C   UNL A   1      41.276  29.647  29.516  1.00  0.00     0.074 A 
ATOM     54  C   UNL A   1      47.609  29.341  29.723  1.00  0.00     0.029 A 
ATOM     55  N   UNL A   1      45.444  28.864  29.529  1.00  0.00    -0.354 N 
ATOM     56  N   UNL A   1      42.577  29.495  29.524  1.00  0.00    -0.248 NA
ATOM     57  C   UNL A   1      40.824  30.979  29.946  1.00  0.00     0.031 C 
ATOM     58  C   UNL A   1      46.874  30.485  30.048  1.00  0.00     0.029 A 
ATOM     59  C   UNL A   1      45.526  30.193  29.911  1.00  0.00     0.049 A 
ATOM     60  H   UNL A   1      44.607  28.376  29.358  1.00  0.00     0.167 HD
ATOM     61  C   UNL A   1      43.101  30.712  29.938  1.00  0.00     0.074 A 
ATOM     62  C   UNL A   1      41.977  31.598  30.159  1.00  0.00     0.031 C 
ATOM     63  C   UNL A   1      44.397  31.063  30.122  1.00  0.00     0.037 A 
BRANCH  50  64
ATOM     64  C   UNL A   1      48.436  26.523  29.031  1.00  0.00     0.057 A 
ATOM     65  C   UNL A   1      49.231  26.715  27.895  1.00  0.00     0.134 A 
ATOM     66  C   UNL A   1      49.042  25.950  30.156  1.00  0.00     0.134 A 
ATOM     67  F   UNL A   1      48.708  27.248  26.780  1.00  0.00    -0.206 F 
ATOM     68  C   UNL A   1      50.575  26.338  27.871  1.00  0.00     0.040 A 
ATOM     69  C   UNL A   1      50.392  25.591  30.153  1.00  0.00     0.040 A 
ATOM     70  F   UNL A   1      48.338  25.743  31.279  1.00  0.00    -0.206 F 
ATOM     71  C   UNL A   1      51.161  25.781  29.007  1.00  0.00     0.006 A 
ENDBRANCH  50  64
BRANCH  51  72
ATOM     72  C   UNL A   1      38.778  29.048  29.120  1.00  0.00     0.057 A 
ATOM     73  C   UNL A   1      37.996  28.937  30.276  1.00  0.00     0.134 A 
ATOM     74  C   UNL A   1      38.160  29.553  27.970  1.00  0.00     0.134 A 
ATOM     75  F   UNL A   1      38.527  28.443  31.405  1.00  0.00    -0.206 F 
ATOM     76  C   UNL A   1      36.650  29.306  30.287  1.00  0.00     0.040 A 
ATOM     77  C   UNL A   1      36.821  29.947  27.972  1.00  0.00     0.040 A 
ATOM     78  F   UNL A   1      38.858  29.689  26.832  1.00  0.00    -0.206 F 
ATOM     79  C   UNL A   1      36.061  29.819  29.132  1.00  0.00     0.006 A 
ENDBRANCH  51  72
BRANCH  63  80
ATOM     80  C   UNL A   1      44.682  32.463  30.573  1.00  0.00     0.057 A 
ATOM     81  C   UNL A   1      44.813  33.515  29.659  1.00  0.00     0.134 A 
ATOM     82  C   UNL A   1      44.739  32.777  31.936  1.00  0.00     0.134 A 
ATOM     83  F   UNL A   1      44.779  33.277  28.338  1.00  0.00    -0.206 F 
ATOM     84  C   UNL A   1      44.994  34.831  30.084  1.00  0.00     0.040 A 
ATOM     85  C   UNL A   1      44.895  34.093  32.376  1.00  0.00     0.040 A 
ATOM     86  F   UNL A   1      44.611  31.816  32.864  1.00  0.00    -0.206 F 
ATOM     87  C   UNL A   1      45.023  35.124  31.446  1.00  0.00     0.006 A 
ENDBRANCH  63  80
ENDBRANCH  37  38
ENDBRANCH  29  32
ENDBRANCH  27  28
ENDBRANCH  26  27
ENDBRANCH  25  26
ENDBRANCH   1  25
TORSDOF 16
ENDMDL
