MODEL 1
REMARK VINA RESULT:     -11.5      0.000      0.000
REMARK SMILES O=C(NCCCCCCNC(=O)[C@H]1CC[C@@H](CNc2ccccc2C(F)(F)F)O1)c1ccc(-c2c3nc(c(-c4c(F)cccc4F)c4ccc([nH]4)c(-c4c(F)cccc4F)c4nc(c(-c5c(F)cccc5F)c5ccc2[nH]5)C=C4)C=C3)cc1
REMARK SMILES IDX 7 1 6 2 5 3 4 4 3 5 1 6 2 7 30 9 31 10 83 11 32 12 82 13
REMARK SMILES IDX 33 14 34 15 35 16 76 17 36 18 81 19 75 20 77 21 37 22 80 23
REMARK SMILES IDX 74 24 73 25 38 27 64 28 47 29 63 30 48 31 51 32 62 33 78 34
REMARK SMILES IDX 49 35 50 36 61 38 79 39 52 40 39 41 40 42 45 43 41 44 42 45
REMARK SMILES IDX 44 46 46 47 43 48 65 49 66 50 71 51 67 52 68 53 70 54 72 55
REMARK SMILES IDX 69 56 53 57 54 58 59 59 55 60 56 61 58 62 60 63 57 64 8 65
REMARK SMILES IDX 9 66 10 67 11 68 12 70 13 71 14 72 29 73 15 74 16 75 17 76
REMARK SMILES IDX 18 77 19 79 20 80 24 81 21 82 23 83 22 84 25 85 26 86 27 87
REMARK SMILES IDX 28 88
REMARK H PARENT 3 8 77 26 51 37 10 69 18 78
REMARK Flexibility Score: inf
ROOT
ATOM      1  C   UNL A   1      37.074  22.151  24.522  1.00  0.00     0.002 C 
ENDROOT
BRANCH   1   2
ATOM      2  C   UNL A   1      36.635  20.735  24.912  1.00  0.00     0.002 C 
BRANCH   2   3
ATOM      3  C   UNL A   1      37.761  19.702  24.982  1.00  0.00     0.021 C 
BRANCH   3   4
ATOM      4  C   UNL A   1      38.990  20.164  25.749  1.00  0.00     0.116 C 
BRANCH   4   5
ATOM      5  N   UNL A   1      39.994  19.119  25.835  1.00  0.00    -0.352 N 
ATOM      6  O   UNL A   1      42.091  18.288  25.859  1.00  0.00    -0.269 OA
ATOM      7  C   UNL A   1      41.344  19.242  26.037  1.00  0.00     0.251 C 
ATOM      8  H   UNL A   1      39.660  18.198  25.734  1.00  0.00     0.163 HD
BRANCH   7   9
ATOM      9  C   UNL A   1      41.893  20.544  26.472  1.00  0.00     0.039 A 
ATOM     10  C   UNL A   1      42.313  21.483  25.525  1.00  0.00     0.014 A 
ATOM     11  C   UNL A   1      41.952  20.839  27.835  1.00  0.00     0.014 A 
ATOM     12  C   UNL A   1      42.878  22.680  25.941  1.00  0.00     0.010 A 
ATOM     13  C   UNL A   1      42.440  22.079  28.251  1.00  0.00     0.010 A 
ATOM     14  C   UNL A   1      42.905  23.007  27.306  1.00  0.00    -0.014 A 
BRANCH  14  15
ATOM     15  C   UNL A   1      43.275  24.385  27.711  1.00  0.00     0.031 A 
ATOM     16  C   UNL A   1      42.234  25.400  28.071  1.00  0.00     0.074 A 
ATOM     17  C   UNL A   1      44.584  24.706  27.719  1.00  0.00     0.049 A 
ATOM     18  N   UNL A   1      42.396  26.659  28.391  1.00  0.00    -0.248 NA
ATOM     19  C   UNL A   1      40.831  24.958  28.067  1.00  0.00     0.031 C 
ATOM     20  C   UNL A   1      45.677  23.793  27.365  1.00  0.00     0.029 A 
ATOM     21  N   UNL A   1      45.221  25.879  28.024  1.00  0.00    -0.354 N 
ATOM     22  C   UNL A   1      41.121  27.166  28.603  1.00  0.00     0.074 A 
ATOM     23  C   UNL A   1      40.192  26.081  28.366  1.00  0.00     0.031 C 
ATOM     24  C   UNL A   1      46.846  24.434  27.490  1.00  0.00     0.029 A 
ATOM     25  C   UNL A   1      46.585  25.819  27.858  1.00  0.00     0.049 A 
ATOM     26  H   UNL A   1      44.750  26.686  28.333  1.00  0.00     0.167 HD
ATOM     27  C   UNL A   1      40.770  28.423  28.959  1.00  0.00     0.037 A 
ATOM     28  C   UNL A   1      47.519  26.781  27.945  1.00  0.00     0.037 A 
ATOM     29  C   UNL A   1      41.712  29.486  29.205  1.00  0.00     0.049 A 
ATOM     30  C   UNL A   1      47.088  28.175  28.298  1.00  0.00     0.074 A 
ATOM     31  C   UNL A   1      41.459  30.773  29.649  1.00  0.00     0.029 A 
ATOM     32  N   UNL A   1      43.082  29.393  29.009  1.00  0.00    -0.354 N 
ATOM     33  N   UNL A   1      45.886  28.620  28.577  1.00  0.00    -0.248 NA
ATOM     34  C   UNL A   1      48.136  29.202  28.340  1.00  0.00     0.031 C 
ATOM     35  C   UNL A   1      42.666  31.478  29.655  1.00  0.00     0.029 A 
ATOM     36  C   UNL A   1      43.680  30.615  29.274  1.00  0.00     0.049 A 
ATOM     37  H   UNL A   1      43.558  28.580  28.724  1.00  0.00     0.167 HD
ATOM     38  C   UNL A   1      46.036  29.974  28.837  1.00  0.00     0.074 A 
ATOM     39  C   UNL A   1      47.448  30.271  28.713  1.00  0.00     0.031 C 
ATOM     40  C   UNL A   1      45.087  30.892  29.143  1.00  0.00     0.037 A 
BRANCH  27  41
ATOM     41  C   UNL A   1      39.309  28.748  29.084  1.00  0.00     0.057 A 
ATOM     42  C   UNL A   1      38.616  28.604  30.291  1.00  0.00     0.134 A 
ATOM     43  C   UNL A   1      38.617  29.309  28.002  1.00  0.00     0.134 A 
ATOM     44  F   UNL A   1      39.218  28.067  31.363  1.00  0.00    -0.206 F 
ATOM     45  C   UNL A   1      37.282  29.002  30.417  1.00  0.00     0.040 A 
ATOM     46  C   UNL A   1      37.292  29.732  28.122  1.00  0.00     0.040 A 
ATOM     47  F   UNL A   1      39.226  29.482  26.820  1.00  0.00    -0.206 F 
ATOM     48  C   UNL A   1      36.621  29.579  29.333  1.00  0.00     0.006 A 
ENDBRANCH  27  41
BRANCH  28  49
ATOM     49  C   UNL A   1      48.939  26.474  27.636  1.00  0.00     0.057 A 
ATOM     50  C   UNL A   1      49.827  26.060  28.634  1.00  0.00     0.134 A 
ATOM     51  C   UNL A   1      49.445  26.605  26.337  1.00  0.00     0.134 A 
ATOM     52  F   UNL A   1      49.406  25.929  29.901  1.00  0.00    -0.206 F 
ATOM     53  C   UNL A   1      51.174  25.816  28.357  1.00  0.00     0.040 A 
ATOM     54  C   UNL A   1      50.780  26.332  26.039  1.00  0.00     0.040 A 
ATOM     55  F   UNL A   1      48.643  26.989  25.332  1.00  0.00    -0.206 F 
ATOM     56  C   UNL A   1      51.652  25.948  27.055  1.00  0.00     0.006 A 
ENDBRANCH  28  49
BRANCH  40  57
ATOM     57  C   UNL A   1      45.550  32.299  29.375  1.00  0.00     0.057 A 
ATOM     58  C   UNL A   1      45.994  32.728  30.632  1.00  0.00     0.134 A 
ATOM     59  C   UNL A   1      45.598  33.219  28.321  1.00  0.00     0.134 A 
ATOM     60  F   UNL A   1      45.956  31.899  31.686  1.00  0.00    -0.206 F 
ATOM     61  C   UNL A   1      46.453  34.030  30.836  1.00  0.00     0.040 A 
ATOM     62  C   UNL A   1      46.082  34.514  28.506  1.00  0.00     0.040 A 
ATOM     63  F   UNL A   1      45.192  32.868  27.091  1.00  0.00    -0.206 F 
ATOM     64  C   UNL A   1      46.507  34.923  29.768  1.00  0.00     0.006 A 
ENDBRANCH  40  57
ENDBRANCH  14  15
ENDBRANCH   7   9
ENDBRANCH   4   5
ENDBRANCH   3   4
ENDBRANCH   2   3
ENDBRANCH   1   2
BRANCH   1  65
ATOM     65  C   UNL A   1      35.992  23.012  23.865  1.00  0.00     0.021 C 
BRANCH  65  66
ATOM     66  C   UNL A   1      35.393  24.073  24.781  1.00  0.00     0.116 C 
BRANCH  66  67
ATOM     67  N   UNL A   1      34.465  24.927  24.077  1.00  0.00    -0.354 N 
ATOM     68  C   UNL A   1      33.334  25.589  24.415  1.00  0.00     0.249 C 
ATOM     69  H   UNL A   1      34.713  25.059  23.133  1.00  0.00     0.163 HD
ATOM     70  O   UNL A   1      32.789  26.189  23.475  1.00  0.00    -0.272 OA
BRANCH  68  71
ATOM     71  C   UNL A   1      32.718  25.701  25.832  1.00  0.00     0.207 C 
ATOM     72  C   UNL A   1      31.325  26.219  26.091  1.00  0.00     0.045 C 
ATOM     73  O   UNL A   1      32.759  24.406  26.463  1.00  0.00    -0.363 OA
ATOM     74  C   UNL A   1      30.486  24.961  26.062  1.00  0.00     0.037 C 
ATOM     75  C   UNL A   1      31.417  23.909  26.647  1.00  0.00     0.138 C 
BRANCH  75  76
ATOM     76  C   UNL A   1      31.332  22.482  26.064  1.00  0.00     0.145 C 
BRANCH  76  77
ATOM     77  N   UNL A   1      32.594  21.967  25.528  1.00  0.00    -0.382 N 
ATOM     78  H   UNL A   1      33.410  22.513  25.606  1.00  0.00     0.160 HD
BRANCH  77  79
ATOM     79  C   UNL A   1      32.662  20.724  24.911  1.00  0.00     0.046 A 
ATOM     80  C   UNL A   1      32.959  19.619  25.733  1.00  0.00     0.026 A 
ATOM     81  C   UNL A   1      32.374  20.478  23.558  1.00  0.00     0.079 A 
ATOM     82  C   UNL A   1      32.924  18.307  25.256  1.00  0.00     0.002 A 
ATOM     83  C   UNL A   1      32.319  19.140  23.093  1.00  0.00     0.015 A 
ATOM     84  C   UNL A   1      32.583  18.064  23.935  1.00  0.00     0.001 A 
BRANCH  81  85
ATOM     85  C   UNL A   1      32.177  21.550  22.510  1.00  0.00     0.418 C 
ATOM     86  F   UNL A   1      31.969  21.011  21.269  1.00  0.00    -0.166 F 
ATOM     87  F   UNL A   1      31.072  22.312  22.756  1.00  0.00    -0.166 F 
ATOM     88  F   UNL A   1      33.203  22.427  22.338  1.00  0.00    -0.166 F 
ENDBRANCH  81  85
ENDBRANCH  77  79
ENDBRANCH  76  77
ENDBRANCH  75  76
ENDBRANCH  68  71
ENDBRANCH  66  67
ENDBRANCH  65  66
ENDBRANCH   1  65
TORSDOF 17
ENDMDL
MODEL 2
REMARK VINA RESULT:     -11.3      1.450      1.895
REMARK SMILES O=C(NCCCCCCNC(=O)[C@H]1CC[C@@H](CNc2ccccc2C(F)(F)F)O1)c1ccc(-c2c3nc(c(-c4c(F)cccc4F)c4ccc([nH]4)c(-c4c(F)cccc4F)c4nc(c(-c5c(F)cccc5F)c5ccc2[nH]5)C=C4)C=C3)cc1
REMARK SMILES IDX 7 1 6 2 5 3 4 4 3 5 1 6 2 7 30 9 31 10 83 11 32 12 82 13
REMARK SMILES IDX 33 14 34 15 35 16 76 17 36 18 81 19 75 20 77 21 37 22 80 23
REMARK SMILES IDX 74 24 73 25 38 27 64 28 47 29 63 30 48 31 51 32 62 33 78 34
REMARK SMILES IDX 49 35 50 36 61 38 79 39 52 40 39 41 40 42 45 43 41 44 42 45
REMARK SMILES IDX 44 46 46 47 43 48 65 49 66 50 71 51 67 52 68 53 70 54 72 55
REMARK SMILES IDX 69 56 53 57 54 58 59 59 55 60 56 61 58 62 60 63 57 64 8 65
REMARK SMILES IDX 9 66 10 67 11 68 12 70 13 71 14 72 29 73 15 74 16 75 17 76
REMARK SMILES IDX 18 77 19 79 20 80 24 81 21 82 23 83 22 84 25 85 26 86 27 87
REMARK SMILES IDX 28 88
REMARK H PARENT 3 8 77 26 51 37 10 69 18 78
REMARK Flexibility Score: inf
ROOT
ATOM      1  C   UNL A   1      37.062  22.188  24.536  1.00  0.00     0.002 C 
ENDROOT
BRANCH   1   2
ATOM      2  C   UNL A   1      36.674  20.762  24.948  1.00  0.00     0.002 C 
BRANCH   2   3
ATOM      3  C   UNL A   1      37.827  19.758  24.979  1.00  0.00     0.021 C 
BRANCH   3   4
ATOM      4  C   UNL A   1      39.044  20.224  25.764  1.00  0.00     0.116 C 
BRANCH   4   5
ATOM      5  N   UNL A   1      40.065  19.195  25.833  1.00  0.00    -0.352 N 
ATOM      6  O   UNL A   1      42.177  18.400  25.852  1.00  0.00    -0.269 OA
ATOM      7  C   UNL A   1      41.412  19.337  26.046  1.00  0.00     0.251 C 
ATOM      8  H   UNL A   1      39.748  18.271  25.710  1.00  0.00     0.163 HD
BRANCH   7   9
ATOM      9  C   UNL A   1      41.936  20.638  26.513  1.00  0.00     0.039 A 
ATOM     10  C   UNL A   1      42.370  21.594  25.589  1.00  0.00     0.014 A 
ATOM     11  C   UNL A   1      41.957  20.915  27.881  1.00  0.00     0.014 A 
ATOM     12  C   UNL A   1      42.912  22.791  26.037  1.00  0.00     0.010 A 
ATOM     13  C   UNL A   1      42.421  22.154  28.326  1.00  0.00     0.010 A 
ATOM     14  C   UNL A   1      42.900  23.099  27.406  1.00  0.00    -0.014 A 
BRANCH  14  15
ATOM     15  C   UNL A   1      43.245  24.475  27.839  1.00  0.00     0.031 A 
ATOM     16  C   UNL A   1      42.184  25.482  28.164  1.00  0.00     0.074 A 
ATOM     17  C   UNL A   1      44.551  24.802  27.905  1.00  0.00     0.049 A 
ATOM     18  N   UNL A   1      42.326  26.738  28.502  1.00  0.00    -0.248 NA
ATOM     19  C   UNL A   1      40.786  25.032  28.096  1.00  0.00     0.031 C 
ATOM     20  C   UNL A   1      45.663  23.898  27.589  1.00  0.00     0.029 A 
ATOM     21  N   UNL A   1      45.169  25.975  28.248  1.00  0.00    -0.354 N 
ATOM     22  C   UNL A   1      41.041  27.236  28.664  1.00  0.00     0.074 A 
ATOM     23  C   UNL A   1      40.128  26.150  28.378  1.00  0.00     0.031 C 
ATOM     24  C   UNL A   1      46.823  24.544  27.770  1.00  0.00     0.029 A 
ATOM     25  C   UNL A   1      46.538  25.924  28.140  1.00  0.00     0.049 A 
ATOM     26  H   UNL A   1      44.680  26.778  28.544  1.00  0.00     0.167 HD
ATOM     27  C   UNL A   1      40.669  28.489  29.017  1.00  0.00     0.037 A 
ATOM     28  C   UNL A   1      47.463  26.890  28.275  1.00  0.00     0.037 A 
ATOM     29  C   UNL A   1      41.594  29.554  29.313  1.00  0.00     0.049 A 
ATOM     30  C   UNL A   1      47.010  28.278  28.623  1.00  0.00     0.074 A 
ATOM     31  C   UNL A   1      41.315  30.835  29.758  1.00  0.00     0.029 A 
ATOM     32  N   UNL A   1      42.971  29.470  29.174  1.00  0.00    -0.354 N 
ATOM     33  N   UNL A   1      45.795  28.714  28.855  1.00  0.00    -0.248 NA
ATOM     34  C   UNL A   1      48.050  29.310  28.719  1.00  0.00     0.031 C 
ATOM     35  C   UNL A   1      42.516  31.546  29.822  1.00  0.00     0.029 A 
ATOM     36  C   UNL A   1      43.550  30.692  29.476  1.00  0.00     0.049 A 
ATOM     37  H   UNL A   1      43.463  28.662  28.902  1.00  0.00     0.167 HD
ATOM     38  C   UNL A   1      45.927  30.066  29.134  1.00  0.00     0.074 A 
ATOM     39  C   UNL A   1      47.341  30.372  29.073  1.00  0.00     0.031 C 
ATOM     40  C   UNL A   1      44.960  30.977  29.407  1.00  0.00     0.037 A 
BRANCH  27  41
ATOM     41  C   UNL A   1      39.202  28.805  29.083  1.00  0.00     0.057 A 
ATOM     42  C   UNL A   1      38.466  28.679  30.267  1.00  0.00     0.134 A 
ATOM     43  C   UNL A   1      38.545  29.340  27.966  1.00  0.00     0.134 A 
ATOM     44  F   UNL A   1      39.032  28.167  31.370  1.00  0.00    -0.206 F 
ATOM     45  C   UNL A   1      37.126  29.069  30.337  1.00  0.00     0.040 A 
ATOM     46  C   UNL A   1      37.214  29.756  28.030  1.00  0.00     0.040 A 
ATOM     47  F   UNL A   1      39.196  29.494  26.804  1.00  0.00    -0.206 F 
ATOM     48  C   UNL A   1      36.501  29.620  29.218  1.00  0.00     0.006 A 
ENDBRANCH  27  41
BRANCH  28  49
ATOM     49  C   UNL A   1      48.896  26.593  28.025  1.00  0.00     0.057 A 
ATOM     50  C   UNL A   1      49.749  26.199  29.061  1.00  0.00     0.134 A 
ATOM     51  C   UNL A   1      49.450  26.713  26.744  1.00  0.00     0.134 A 
ATOM     52  F   UNL A   1      49.282  26.080  30.312  1.00  0.00    -0.206 F 
ATOM     53  C   UNL A   1      51.108  25.965  28.838  1.00  0.00     0.040 A 
ATOM     54  C   UNL A   1      50.798  26.449  26.500  1.00  0.00     0.040 A 
ATOM     55  F   UNL A   1      48.684  27.077  25.705  1.00  0.00    -0.206 F 
ATOM     56  C   UNL A   1      51.634  26.086  27.553  1.00  0.00     0.006 A 
ENDBRANCH  28  49
BRANCH  40  57
ATOM     57  C   UNL A   1      45.406  32.384  29.672  1.00  0.00     0.057 A 
ATOM     58  C   UNL A   1      45.775  32.808  30.955  1.00  0.00     0.134 A 
ATOM     59  C   UNL A   1      45.512  33.309  28.627  1.00  0.00     0.134 A 
ATOM     60  F   UNL A   1      45.678  31.974  32.001  1.00  0.00    -0.206 F 
ATOM     61  C   UNL A   1      46.218  34.110  31.191  1.00  0.00     0.040 A 
ATOM     62  C   UNL A   1      45.981  34.604  28.845  1.00  0.00     0.040 A 
ATOM     63  F   UNL A   1      45.179  32.963  27.374  1.00  0.00    -0.206 F 
ATOM     64  C   UNL A   1      46.332  35.008  30.131  1.00  0.00     0.006 A 
ENDBRANCH  40  57
ENDBRANCH  14  15
ENDBRANCH   7   9
ENDBRANCH   4   5
ENDBRANCH   3   4
ENDBRANCH   2   3
ENDBRANCH   1   2
BRANCH   1  65
ATOM     65  C   UNL A   1      36.095  22.872  23.567  1.00  0.00     0.021 C 
BRANCH  65  66
ATOM     66  C   UNL A   1      35.360  24.071  24.157  1.00  0.00     0.116 C 
BRANCH  66  67
ATOM     67  N   UNL A   1      34.364  24.589  23.248  1.00  0.00    -0.354 N 
ATOM     68  C   UNL A   1      33.566  25.682  23.231  1.00  0.00     0.249 C 
ATOM     69  H   UNL A   1      34.237  24.015  22.458  1.00  0.00     0.163 HD
ATOM     70  O   UNL A   1      32.789  25.735  22.265  1.00  0.00    -0.272 OA
BRANCH  68  71
ATOM     71  C   UNL A   1      33.582  26.852  24.245  1.00  0.00     0.207 C 
ATOM     72  C   UNL A   1      32.787  28.122  24.057  1.00  0.00     0.045 C 
ATOM     73  O   UNL A   1      33.190  26.355  25.539  1.00  0.00    -0.363 OA
ATOM     74  C   UNL A   1      31.485  27.813  24.763  1.00  0.00     0.037 C 
ATOM     75  C   UNL A   1      31.920  26.924  25.918  1.00  0.00     0.138 C 
BRANCH  75  76
ATOM     76  C   UNL A   1      30.968  25.780  26.332  1.00  0.00     0.145 C 
BRANCH  76  77
ATOM     77  N   UNL A   1      31.642  24.564  26.791  1.00  0.00    -0.382 N 
ATOM     78  H   UNL A   1      31.952  24.507  27.725  1.00  0.00     0.160 HD
BRANCH  77  79
ATOM     79  C   UNL A   1      31.850  23.488  25.937  1.00  0.00     0.046 A 
ATOM     80  C   UNL A   1      31.111  23.472  24.737  1.00  0.00     0.026 A 
ATOM     81  C   UNL A   1      32.797  22.469  26.139  1.00  0.00     0.079 A 
ATOM     82  C   UNL A   1      31.329  22.518  23.742  1.00  0.00     0.002 A 
ATOM     83  C   UNL A   1      33.025  21.522  25.109  1.00  0.00     0.015 A 
ATOM     84  C   UNL A   1      32.305  21.550  23.919  1.00  0.00     0.001 A 
BRANCH  81  85
ATOM     85  C   UNL A   1      33.569  22.252  27.420  1.00  0.00     0.418 C 
ATOM     86  F   UNL A   1      34.479  23.250  27.638  1.00  0.00    -0.166 F 
ATOM     87  F   UNL A   1      32.757  22.266  28.517  1.00  0.00    -0.166 F 
ATOM     88  F   UNL A   1      34.290  21.101  27.507  1.00  0.00    -0.166 F 
ENDBRANCH  81  85
ENDBRANCH  77  79
ENDBRANCH  76  77
ENDBRANCH  75  76
ENDBRANCH  68  71
ENDBRANCH  66  67
ENDBRANCH  65  66
ENDBRANCH   1  65
TORSDOF 17
ENDMDL
MODEL 3
REMARK VINA RESULT:     -11.3      1.723      3.053
REMARK SMILES O=C(NCCCCCCNC(=O)[C@H]1CC[C@@H](CNc2ccccc2C(F)(F)F)O1)c1ccc(-c2c3nc(c(-c4c(F)cccc4F)c4ccc([nH]4)c(-c4c(F)cccc4F)c4nc(c(-c5c(F)cccc5F)c5ccc2[nH]5)C=C4)C=C3)cc1
REMARK SMILES IDX 7 1 6 2 5 3 4 4 3 5 1 6 2 7 30 9 31 10 83 11 32 12 82 13
REMARK SMILES IDX 33 14 34 15 35 16 76 17 36 18 81 19 75 20 77 21 37 22 80 23
REMARK SMILES IDX 74 24 73 25 38 27 64 28 47 29 63 30 48 31 51 32 62 33 78 34
REMARK SMILES IDX 49 35 50 36 61 38 79 39 52 40 39 41 40 42 45 43 41 44 42 45
REMARK SMILES IDX 44 46 46 47 43 48 65 49 66 50 71 51 67 52 68 53 70 54 72 55
REMARK SMILES IDX 69 56 53 57 54 58 59 59 55 60 56 61 58 62 60 63 57 64 8 65
REMARK SMILES IDX 9 66 10 67 11 68 12 70 13 71 14 72 29 73 15 74 16 75 17 76
REMARK SMILES IDX 18 77 19 79 20 80 24 81 21 82 23 83 22 84 25 85 26 86 27 87
REMARK SMILES IDX 28 88
REMARK H PARENT 3 8 77 26 51 37 10 69 18 78
REMARK Flexibility Score: inf
ROOT
ATOM      1  C   UNL A   1      36.806  22.135  25.556  1.00  0.00     0.002 C 
ENDROOT
BRANCH   1   2
ATOM      2  C   UNL A   1      36.577  20.724  25.000  1.00  0.00     0.002 C 
BRANCH   2   3
ATOM      3  C   UNL A   1      37.843  19.887  24.810  1.00  0.00     0.021 C 
BRANCH   3   4
ATOM      4  C   UNL A   1      38.969  20.224  25.775  1.00  0.00     0.116 C 
BRANCH   4   5
ATOM      5  N   UNL A   1      39.970  19.174  25.820  1.00  0.00    -0.352 N 
ATOM      6  O   UNL A   1      42.062  18.332  25.752  1.00  0.00    -0.269 OA
ATOM      7  C   UNL A   1      41.329  19.291  25.958  1.00  0.00     0.251 C 
ATOM      8  H   UNL A   1      39.627  18.254  25.740  1.00  0.00     0.163 HD
BRANCH   7   9
ATOM      9  C   UNL A   1      41.904  20.592  26.361  1.00  0.00     0.039 A 
ATOM     10  C   UNL A   1      42.272  21.529  25.391  1.00  0.00     0.014 A 
ATOM     11  C   UNL A   1      42.040  20.888  27.718  1.00  0.00     0.014 A 
ATOM     12  C   UNL A   1      42.863  22.725  25.773  1.00  0.00     0.010 A 
ATOM     13  C   UNL A   1      42.553  22.128  28.104  1.00  0.00     0.010 A 
ATOM     14  C   UNL A   1      42.967  23.053  27.134  1.00  0.00    -0.014 A 
BRANCH  14  15
ATOM     15  C   UNL A   1      43.362  24.430  27.516  1.00  0.00     0.031 A 
ATOM     16  C   UNL A   1      42.344  25.453  27.920  1.00  0.00     0.074 A 
ATOM     17  C   UNL A   1      44.672  24.744  27.462  1.00  0.00     0.049 A 
ATOM     18  N   UNL A   1      42.527  26.712  28.227  1.00  0.00    -0.248 NA
ATOM     19  C   UNL A   1      40.941  25.017  27.982  1.00  0.00     0.031 C 
ATOM     20  C   UNL A   1      45.743  23.825  27.061  1.00  0.00     0.029 A 
ATOM     21  N   UNL A   1      45.329  25.915  27.733  1.00  0.00    -0.354 N 
ATOM     22  C   UNL A   1      41.266  27.226  28.495  1.00  0.00     0.074 A 
ATOM     23  C   UNL A   1      40.321  26.145  28.306  1.00  0.00     0.031 C 
ATOM     24  C   UNL A   1      46.920  24.460  27.130  1.00  0.00     0.029 A 
ATOM     25  C   UNL A   1      46.683  25.848  27.504  1.00  0.00     0.049 A 
ATOM     26  H   UNL A   1      44.876  26.727  28.060  1.00  0.00     0.167 HD
ATOM     27  C   UNL A   1      40.938  28.487  28.862  1.00  0.00     0.037 A 
ATOM     28  C   UNL A   1      47.625  26.806  27.544  1.00  0.00     0.037 A 
ATOM     29  C   UNL A   1      41.896  29.545  29.060  1.00  0.00     0.049 A 
ATOM     30  C   UNL A   1      47.218  28.203  27.911  1.00  0.00     0.074 A 
ATOM     31  C   UNL A   1      41.671  30.835  29.511  1.00  0.00     0.029 A 
ATOM     32  N   UNL A   1      43.255  29.445  28.801  1.00  0.00    -0.354 N 
ATOM     33  N   UNL A   1      46.032  28.655  28.244  1.00  0.00    -0.248 NA
ATOM     34  C   UNL A   1      48.272  29.225  27.901  1.00  0.00     0.031 C 
ATOM     35  C   UNL A   1      42.880  31.534  29.459  1.00  0.00     0.029 A 
ATOM     36  C   UNL A   1      43.871  30.664  29.034  1.00  0.00     0.049 A 
ATOM     37  H   UNL A   1      43.713  28.628  28.498  1.00  0.00     0.167 HD
ATOM     38  C   UNL A   1      46.201  30.009  28.492  1.00  0.00     0.074 A 
ATOM     39  C   UNL A   1      47.607  30.299  28.301  1.00  0.00     0.031 C 
ATOM     40  C   UNL A   1      45.271  30.933  28.837  1.00  0.00     0.037 A 
BRANCH  27  41
ATOM     41  C   UNL A   1      39.486  28.819  29.053  1.00  0.00     0.057 A 
ATOM     42  C   UNL A   1      38.862  28.733  30.302  1.00  0.00     0.134 A 
ATOM     43  C   UNL A   1      38.734  29.331  27.987  1.00  0.00     0.134 A 
ATOM     44  F   UNL A   1      39.523  28.245  31.363  1.00  0.00    -0.206 F 
ATOM     45  C   UNL A   1      37.537  29.139  30.484  1.00  0.00     0.040 A 
ATOM     46  C   UNL A   1      37.418  29.762  28.160  1.00  0.00     0.040 A 
ATOM     47  F   UNL A   1      39.277  29.448  26.766  1.00  0.00    -0.206 F 
ATOM     48  C   UNL A   1      36.815  29.666  29.412  1.00  0.00     0.006 A 
ENDBRANCH  27  41
BRANCH  28  49
ATOM     49  C   UNL A   1      49.027  26.489  27.172  1.00  0.00     0.057 A 
ATOM     50  C   UNL A   1      49.977  26.147  28.140  1.00  0.00     0.134 A 
ATOM     51  C   UNL A   1      49.454  26.541  25.839  1.00  0.00     0.134 A 
ATOM     52  F   UNL A   1      49.634  26.094  29.435  1.00  0.00    -0.206 F 
ATOM     53  C   UNL A   1      51.308  25.895  27.799  1.00  0.00     0.040 A 
ATOM     54  C   UNL A   1      50.773  26.259  25.480  1.00  0.00     0.040 A 
ATOM     55  F   UNL A   1      48.591  26.854  24.861  1.00  0.00    -0.206 F 
ATOM     56  C   UNL A   1      51.707  25.947  26.465  1.00  0.00     0.006 A 
ENDBRANCH  28  49
BRANCH  40  57
ATOM     57  C   UNL A   1      45.752  32.339  29.042  1.00  0.00     0.057 A 
ATOM     58  C   UNL A   1      46.253  32.771  30.276  1.00  0.00     0.134 A 
ATOM     59  C   UNL A   1      45.759  33.254  27.982  1.00  0.00     0.134 A 
ATOM     60  F   UNL A   1      46.256  31.947  31.335  1.00  0.00    -0.206 F 
ATOM     61  C   UNL A   1      46.728  34.071  30.455  1.00  0.00     0.040 A 
ATOM     62  C   UNL A   1      46.258  34.547  28.140  1.00  0.00     0.040 A 
ATOM     63  F   UNL A   1      45.298  32.899  26.774  1.00  0.00    -0.206 F 
ATOM     64  C   UNL A   1      46.740  34.959  29.380  1.00  0.00     0.006 A 
ENDBRANCH  40  57
ENDBRANCH  14  15
ENDBRANCH   7   9
ENDBRANCH   4   5
ENDBRANCH   3   4
ENDBRANCH   2   3
ENDBRANCH   1   2
BRANCH   1  65
ATOM     65  C   UNL A   1      36.658  23.269  24.538  1.00  0.00     0.021 C 
BRANCH  65  66
ATOM     66  C   UNL A   1      35.789  22.922  23.334  1.00  0.00     0.116 C 
BRANCH  66  67
ATOM     67  N   UNL A   1      34.618  23.763  23.258  1.00  0.00    -0.354 N 
ATOM     68  C   UNL A   1      33.360  23.693  23.752  1.00  0.00     0.249 C 
ATOM     69  H   UNL A   1      34.771  24.577  22.725  1.00  0.00     0.163 HD
ATOM     70  O   UNL A   1      32.618  24.624  23.403  1.00  0.00    -0.272 OA
BRANCH  68  71
ATOM     71  C   UNL A   1      32.808  22.619  24.722  1.00  0.00     0.207 C 
ATOM     72  C   UNL A   1      33.316  22.437  26.132  1.00  0.00     0.045 C 
ATOM     73  O   UNL A   1      31.385  22.799  24.858  1.00  0.00    -0.363 OA
ATOM     74  C   UNL A   1      32.397  23.328  26.939  1.00  0.00     0.037 C 
ATOM     75  C   UNL A   1      31.071  23.215  26.203  1.00  0.00     0.138 C 
BRANCH  75  76
ATOM     76  C   UNL A   1      30.186  24.479  26.136  1.00  0.00     0.145 C 
BRANCH  76  77
ATOM     77  N   UNL A   1      30.903  25.737  26.353  1.00  0.00    -0.382 N 
ATOM     78  H   UNL A   1      31.332  25.904  27.224  1.00  0.00     0.160 HD
BRANCH  77  79
ATOM     79  C   UNL A   1      30.990  26.700  25.356  1.00  0.00     0.046 A 
ATOM     80  C   UNL A   1      29.909  26.786  24.455  1.00  0.00     0.026 A 
ATOM     81  C   UNL A   1      32.025  27.643  25.232  1.00  0.00     0.079 A 
ATOM     82  C   UNL A   1      29.821  27.796  23.495  1.00  0.00     0.002 A 
ATOM     83  C   UNL A   1      31.909  28.677  24.269  1.00  0.00     0.015 A 
ATOM     84  C   UNL A   1      30.814  28.758  23.414  1.00  0.00     0.001 A 
BRANCH  81  85
ATOM     85  C   UNL A   1      33.318  27.610  26.014  1.00  0.00     0.418 C 
ATOM     86  F   UNL A   1      34.200  28.557  25.571  1.00  0.00    -0.166 F 
ATOM     87  F   UNL A   1      33.126  27.894  27.335  1.00  0.00    -0.166 F 
ATOM     88  F   UNL A   1      34.017  26.444  25.983  1.00  0.00    -0.166 F 
ENDBRANCH  81  85
ENDBRANCH  77  79
ENDBRANCH  76  77
ENDBRANCH  75  76
ENDBRANCH  68  71
ENDBRANCH  66  67
ENDBRANCH  65  66
ENDBRANCH   1  65
TORSDOF 17
ENDMDL
