MODEL 1
REMARK VINA RESULT:     -11.8      0.000      0.000
REMARK SMILES O=C(NCCCCCCNC(=O)[C@@H](Cc1c(F)cccc1Cl)c1ccc(Cl)cc1)c1ccc(-c2c3nc(c(-c4c(F)cccc4F)c4ccc([nH]4)c(-c4c(F)cccc4F)c4nc(c(-c5c(F)cccc5F)c5ccc2[nH]5)C=C4)C=C3)cc1
REMARK SMILES IDX 6 1 5 2 4 3 3 4 1 5 2 6 30 8 31 9 83 10 32 11 82 12 33 13
REMARK SMILES IDX 34 14 35 15 76 16 36 17 81 18 75 19 77 20 37 21 80 22 74 23
REMARK SMILES IDX 73 24 38 26 64 27 47 28 63 29 48 30 51 31 62 32 78 33 49 34
REMARK SMILES IDX 50 35 61 37 79 38 52 39 39 40 40 41 45 42 41 43 42 44 44 45
REMARK SMILES IDX 46 46 43 47 65 48 66 49 71 50 67 51 68 52 70 53 72 54 69 55
REMARK SMILES IDX 53 56 54 57 59 58 55 59 56 60 58 61 60 62 57 63 7 64 8 65
REMARK SMILES IDX 9 66 10 67 11 68 12 70 13 71 14 72 15 73 16 74 21 75 17 76
REMARK SMILES IDX 18 77 20 78 22 79 19 80 23 81 24 82 29 83 25 84 28 85 26 86
REMARK SMILES IDX 27 87
REMARK H PARENT 3 7 77 25 51 36 10 69
REMARK Flexibility Score: inf
ROOT
ATOM      1  C   UNL A   1      36.246  20.468  25.002  1.00  0.00     0.002 C 
ENDROOT
BRANCH   1   2
ATOM      2  C   UNL A   1      37.589  19.769  24.785  1.00  0.00     0.021 C 
BRANCH   2   3
ATOM      3  C   UNL A   1      38.740  20.282  25.641  1.00  0.00     0.116 C 
BRANCH   3   4
ATOM      4  N   UNL A   1      39.824  19.322  25.759  1.00  0.00    -0.352 N 
ATOM      5  O   UNL A   1      41.949  18.600  25.967  1.00  0.00    -0.269 OA
ATOM      6  C   UNL A   1      41.141  19.518  26.086  1.00  0.00     0.251 C 
ATOM      7  H   UNL A   1      39.574  18.387  25.577  1.00  0.00     0.163 HD
BRANCH   6   8
ATOM      8  C   UNL A   1      41.593  20.838  26.570  1.00  0.00     0.039 A 
ATOM      9  C   UNL A   1      41.839  21.876  25.671  1.00  0.00     0.014 A 
ATOM     10  C   UNL A   1      41.749  21.049  27.943  1.00  0.00     0.014 A 
ATOM     11  C   UNL A   1      42.377  23.071  26.127  1.00  0.00     0.010 A 
ATOM     12  C   UNL A   1      42.189  22.290  28.411  1.00  0.00     0.010 A 
ATOM     13  C   UNL A   1      42.526  23.307  27.505  1.00  0.00    -0.014 A 
BRANCH  13  14
ATOM     14  C   UNL A   1      42.930  24.662  27.954  1.00  0.00     0.031 A 
ATOM     15  C   UNL A   1      44.374  25.064  28.052  1.00  0.00     0.074 A 
ATOM     16  C   UNL A   1      41.957  25.553  28.232  1.00  0.00     0.049 A 
ATOM     17  N   UNL A   1      44.881  26.228  28.379  1.00  0.00    -0.248 NA
ATOM     18  C   UNL A   1      45.382  24.037  27.752  1.00  0.00     0.031 C 
ATOM     19  C   UNL A   1      40.519  25.265  28.195  1.00  0.00     0.029 A 
ATOM     20  N   UNL A   1      42.018  26.878  28.575  1.00  0.00    -0.354 N 
ATOM     21  C   UNL A   1      46.260  26.074  28.328  1.00  0.00     0.074 A 
ATOM     22  C   UNL A   1      46.514  24.693  27.972  1.00  0.00     0.031 C 
ATOM     23  C   UNL A   1      39.836  26.390  28.446  1.00  0.00     0.029 A 
ATOM     24  C   UNL A   1      40.783  27.459  28.734  1.00  0.00     0.049 A 
ATOM     25  H   UNL A   1      42.864  27.366  28.694  1.00  0.00     0.167 HD
ATOM     26  C   UNL A   1      47.222  27.002  28.547  1.00  0.00     0.037 A 
ATOM     27  C   UNL A   1      40.445  28.710  29.097  1.00  0.00     0.037 A 
ATOM     28  C   UNL A   1      46.958  28.375  28.905  1.00  0.00     0.049 A 
ATOM     29  C   UNL A   1      41.537  29.703  29.368  1.00  0.00     0.074 A 
ATOM     30  C   UNL A   1      47.867  29.396  29.133  1.00  0.00     0.029 A 
ATOM     31  N   UNL A   1      45.697  28.918  29.093  1.00  0.00    -0.354 N 
ATOM     32  N   UNL A   1      42.835  29.549  29.276  1.00  0.00    -0.248 NA
ATOM     33  C   UNL A   1      41.115  31.043  29.795  1.00  0.00     0.031 C 
ATOM     34  C   UNL A   1      47.156  30.542  29.505  1.00  0.00     0.029 A 
ATOM     35  C   UNL A   1      45.803  30.253  29.454  1.00  0.00     0.049 A 
ATOM     36  H   UNL A   1      44.849  28.428  28.986  1.00  0.00     0.167 HD
ATOM     37  C   UNL A   1      43.385  30.776  29.618  1.00  0.00     0.074 A 
ATOM     38  C   UNL A   1      42.278  31.671  29.884  1.00  0.00     0.031 C 
ATOM     39  C   UNL A   1      44.690  31.130  29.717  1.00  0.00     0.037 A 
BRANCH  26  40
ATOM     40  C   UNL A   1      48.656  26.575  28.414  1.00  0.00     0.057 A 
ATOM     41  C   UNL A   1      49.355  26.702  27.208  1.00  0.00     0.134 A 
ATOM     42  C   UNL A   1      49.370  26.105  29.526  1.00  0.00     0.134 A 
ATOM     43  F   UNL A   1      48.729  27.136  26.102  1.00  0.00    -0.206 F 
ATOM     44  C   UNL A   1      50.707  26.369  27.107  1.00  0.00     0.040 A 
ATOM     45  C   UNL A   1      50.728  25.792  29.443  1.00  0.00     0.040 A 
ATOM     46  F   UNL A   1      48.764  25.965  30.715  1.00  0.00    -0.206 F 
ATOM     47  C   UNL A   1      51.401  25.922  28.230  1.00  0.00     0.006 A 
ENDBRANCH  26  40
BRANCH  27  48
ATOM     48  C   UNL A   1      39.016  29.083  29.251  1.00  0.00     0.057 A 
ATOM     49  C   UNL A   1      38.358  28.961  30.480  1.00  0.00     0.134 A 
ATOM     50  C   UNL A   1      38.266  29.549  28.163  1.00  0.00     0.134 A 
ATOM     51  F   UNL A   1      39.017  28.508  31.556  1.00  0.00    -0.206 F 
ATOM     52  C   UNL A   1      37.001  29.256  30.614  1.00  0.00     0.040 A 
ATOM     53  C   UNL A   1      36.918  29.883  28.291  1.00  0.00     0.040 A 
ATOM     54  F   UNL A   1      38.840  29.701  26.960  1.00  0.00    -0.206 F 
ATOM     55  C   UNL A   1      36.278  29.723  29.517  1.00  0.00     0.006 A 
ENDBRANCH  27  48
BRANCH  39  56
ATOM     56  C   UNL A   1      44.977  32.552  30.100  1.00  0.00     0.057 A 
ATOM     57  C   UNL A   1      45.077  33.571  29.143  1.00  0.00     0.134 A 
ATOM     58  C   UNL A   1      45.163  32.906  31.443  1.00  0.00     0.134 A 
ATOM     59  F   UNL A   1      44.927  33.296  27.838  1.00  0.00    -0.206 F 
ATOM     60  C   UNL A   1      45.390  34.882  29.504  1.00  0.00     0.040 A 
ATOM     61  C   UNL A   1      45.443  34.220  31.818  1.00  0.00     0.040 A 
ATOM     62  F   UNL A   1      45.073  31.981  32.410  1.00  0.00    -0.206 F 
ATOM     63  C   UNL A   1      45.569  35.210  30.846  1.00  0.00     0.006 A 
ENDBRANCH  39  56
ENDBRANCH  13  14
ENDBRANCH   6   8
ENDBRANCH   3   4
ENDBRANCH   2   3
ENDBRANCH   1   2
BRANCH   1  64
ATOM     64  C   UNL A   1      36.306  21.918  25.494  1.00  0.00     0.002 C 
BRANCH  64  65
ATOM     65  C   UNL A   1      35.155  22.361  26.392  1.00  0.00     0.021 C 
BRANCH  65  66
ATOM     66  C   UNL A   1      34.141  23.292  25.742  1.00  0.00     0.116 C 
BRANCH  66  67
ATOM     67  N   UNL A   1      32.964  23.483  26.548  1.00  0.00    -0.356 N 
ATOM     68  C   UNL A   1      31.975  24.407  26.455  1.00  0.00     0.227 C 
ATOM     69  H   UNL A   1      32.861  22.840  27.288  1.00  0.00     0.163 HD
ATOM     70  O   UNL A   1      31.033  24.274  27.248  1.00  0.00    -0.274 OA
BRANCH  68  71
ATOM     71  C   UNL A   1      31.968  25.578  25.453  1.00  0.00     0.113 C 
BRANCH  71  72
ATOM     72  C   UNL A   1      30.958  25.463  24.270  1.00  0.00     0.058 C 
BRANCH  72  73
ATOM     73  C   UNL A   1      30.459  26.691  23.548  1.00  0.00     0.008 A 
ATOM     74  C   UNL A   1      29.114  27.065  23.677  1.00  0.00     0.127 A 
ATOM     75  C   UNL A   1      31.268  27.499  22.735  1.00  0.00     0.047 A 
ATOM     76  F   UNL A   1      28.270  26.292  24.376  1.00  0.00    -0.207 F 
ATOM     77  C   UNL A   1      28.620  28.255  23.143  1.00  0.00     0.039 A 
ATOM     78  C   UNL A   1      30.797  28.725  22.248  1.00  0.00     0.021 A 
ATOM     79  Cl  UNL A   1      32.857  27.022  22.253  1.00  0.00    -0.084 Cl
ATOM     80  C   UNL A   1      29.478  29.115  22.471  1.00  0.00     0.005 A 
ENDBRANCH  72  73
ENDBRANCH  71  72
BRANCH  71  81
ATOM     81  C   UNL A   1      32.327  26.942  26.051  1.00  0.00    -0.035 A 
ATOM     82  C   UNL A   1      31.464  27.721  26.835  1.00  0.00     0.006 A 
ATOM     83  C   UNL A   1      33.613  27.469  25.805  1.00  0.00     0.006 A 
ATOM     84  C   UNL A   1      31.843  28.976  27.326  1.00  0.00     0.021 A 
ATOM     85  C   UNL A   1      33.997  28.724  26.291  1.00  0.00     0.021 A 
ATOM     86  C   UNL A   1      33.106  29.476  27.045  1.00  0.00     0.041 A 
ATOM     87  Cl  UNL A   1      33.559  31.030  27.625  1.00  0.00    -0.084 Cl
ENDBRANCH  71  81
ENDBRANCH  68  71
ENDBRANCH  66  67
ENDBRANCH  65  66
ENDBRANCH  64  65
ENDBRANCH   1  64
TORSDOF 16
ENDMDL
MODEL 2
REMARK VINA RESULT:     -11.8      2.917      7.567
REMARK SMILES O=C(NCCCCCCNC(=O)[C@@H](Cc1c(F)cccc1Cl)c1ccc(Cl)cc1)c1ccc(-c2c3nc(c(-c4c(F)cccc4F)c4ccc([nH]4)c(-c4c(F)cccc4F)c4nc(c(-c5c(F)cccc5F)c5ccc2[nH]5)C=C4)C=C3)cc1
REMARK SMILES IDX 6 1 5 2 4 3 3 4 1 5 2 6 30 8 31 9 83 10 32 11 82 12 33 13
REMARK SMILES IDX 34 14 35 15 76 16 36 17 81 18 75 19 77 20 37 21 80 22 74 23
REMARK SMILES IDX 73 24 38 26 64 27 47 28 63 29 48 30 51 31 62 32 78 33 49 34
REMARK SMILES IDX 50 35 61 37 79 38 52 39 39 40 40 41 45 42 41 43 42 44 44 45
REMARK SMILES IDX 46 46 43 47 65 48 66 49 71 50 67 51 68 52 70 53 72 54 69 55
REMARK SMILES IDX 53 56 54 57 59 58 55 59 56 60 58 61 60 62 57 63 7 64 8 65
REMARK SMILES IDX 9 66 10 67 11 68 12 70 13 71 14 72 15 73 16 74 21 75 17 76
REMARK SMILES IDX 18 77 20 78 22 79 19 80 23 81 24 82 29 83 25 84 28 85 26 86
REMARK SMILES IDX 27 87
REMARK H PARENT 3 7 77 25 51 36 10 69
REMARK Flexibility Score: inf
ROOT
ATOM      1  C   UNL A   1      32.445  27.675  25.334  1.00  0.00     0.002 C 
ENDROOT
BRANCH   1   2
ATOM      2  C   UNL A   1      32.585  27.952  26.833  1.00  0.00     0.021 C 
BRANCH   2   3
ATOM      3  C   UNL A   1      33.925  28.529  27.269  1.00  0.00     0.116 C 
BRANCH   3   4
ATOM      4  N   UNL A   1      33.823  29.906  27.721  1.00  0.00    -0.352 N 
ATOM      5  O   UNL A   1      34.404  31.777  28.836  1.00  0.00    -0.269 OA
ATOM      6  C   UNL A   1      34.736  30.683  28.385  1.00  0.00     0.251 C 
ATOM      7  H   UNL A   1      32.967  30.348  27.519  1.00  0.00     0.163 HD
BRANCH   6   8
ATOM      8  C   UNL A   1      36.121  30.203  28.569  1.00  0.00     0.039 A 
ATOM      9  C   UNL A   1      37.070  30.375  27.560  1.00  0.00     0.014 A 
ATOM     10  C   UNL A   1      36.483  29.595  29.774  1.00  0.00     0.014 A 
ATOM     11  C   UNL A   1      38.332  29.813  27.697  1.00  0.00     0.010 A 
ATOM     12  C   UNL A   1      37.787  29.125  29.953  1.00  0.00     0.010 A 
ATOM     13  C   UNL A   1      38.718  29.213  28.908  1.00  0.00    -0.014 A 
BRANCH  13  14
ATOM     14  C   UNL A   1      40.132  28.792  29.073  1.00  0.00     0.031 A 
ATOM     15  C   UNL A   1      40.607  27.434  28.641  1.00  0.00     0.074 A 
ATOM     16  C   UNL A   1      41.002  29.686  29.584  1.00  0.00     0.049 A 
ATOM     17  N   UNL A   1      41.822  26.943  28.674  1.00  0.00    -0.248 NA
ATOM     18  C   UNL A   1      39.600  26.504  28.110  1.00  0.00     0.031 C 
ATOM     19  C   UNL A   1      40.646  31.027  30.061  1.00  0.00     0.029 A 
ATOM     20  N   UNL A   1      42.358  29.621  29.768  1.00  0.00    -0.354 N 
ATOM     21  C   UNL A   1      41.726  25.650  28.174  1.00  0.00     0.074 A 
ATOM     22  C   UNL A   1      40.328  25.419  27.876  1.00  0.00     0.031 C 
ATOM     23  C   UNL A   1      41.760  31.676  30.427  1.00  0.00     0.029 A 
ATOM     24  C   UNL A   1      42.896  30.775  30.284  1.00  0.00     0.049 A 
ATOM     25  H   UNL A   1      42.895  28.825  29.551  1.00  0.00     0.167 HD
ATOM     26  C   UNL A   1      42.717  24.748  27.973  1.00  0.00     0.037 A 
ATOM     27  C   UNL A   1      44.162  31.073  30.628  1.00  0.00     0.037 A 
ATOM     28  C   UNL A   1      44.107  24.987  28.277  1.00  0.00     0.049 A 
ATOM     29  C   UNL A   1      45.228  30.036  30.426  1.00  0.00     0.074 A 
ATOM     30  C   UNL A   1      45.187  24.139  28.094  1.00  0.00     0.029 A 
ATOM     31  N   UNL A   1      44.609  26.154  28.831  1.00  0.00    -0.354 N 
ATOM     32  N   UNL A   1      45.125  28.834  29.914  1.00  0.00    -0.248 NA
ATOM     33  C   UNL A   1      46.586  30.398  30.850  1.00  0.00     0.031 C 
ATOM     34  C   UNL A   1      46.333  24.775  28.581  1.00  0.00     0.029 A 
ATOM     35  C   UNL A   1      45.979  26.041  29.017  1.00  0.00     0.049 A 
ATOM     36  H   UNL A   1      44.072  26.947  29.060  1.00  0.00     0.167 HD
ATOM     37  C   UNL A   1      46.405  28.301  29.941  1.00  0.00     0.074 A 
ATOM     38  C   UNL A   1      47.273  29.326  30.485  1.00  0.00     0.031 C 
ATOM     39  C   UNL A   1      46.827  27.071  29.561  1.00  0.00     0.037 A 
BRANCH  26  40
ATOM     40  C   UNL A   1      42.343  23.410  27.402  1.00  0.00     0.057 A 
ATOM     41  C   UNL A   1      42.400  23.152  26.026  1.00  0.00     0.134 A 
ATOM     42  C   UNL A   1      41.999  22.342  28.243  1.00  0.00     0.134 A 
ATOM     43  F   UNL A   1      42.714  24.132  25.164  1.00  0.00    -0.206 F 
ATOM     44  C   UNL A   1      42.120  21.887  25.507  1.00  0.00     0.040 A 
ATOM     45  C   UNL A   1      41.740  21.067  27.737  1.00  0.00     0.040 A 
ATOM     46  F   UNL A   1      41.931  22.516  29.571  1.00  0.00    -0.206 F 
ATOM     47  C   UNL A   1      41.799  20.837  26.363  1.00  0.00     0.006 A 
ENDBRANCH  26  40
BRANCH  27  48
ATOM     48  C   UNL A   1      44.484  32.395  31.222  1.00  0.00     0.057 A 
ATOM     49  C   UNL A   1      44.897  33.471  30.429  1.00  0.00     0.134 A 
ATOM     50  C   UNL A   1      44.410  32.606  32.606  1.00  0.00     0.134 A 
ATOM     51  F   UNL A   1      45.002  33.329  29.100  1.00  0.00    -0.206 F 
ATOM     52  C   UNL A   1      45.256  34.697  30.991  1.00  0.00     0.040 A 
ATOM     53  C   UNL A   1      44.730  33.836  33.178  1.00  0.00     0.040 A 
ATOM     54  F   UNL A   1      44.010  31.619  33.421  1.00  0.00    -0.206 F 
ATOM     55  C   UNL A   1      45.168  34.883  32.370  1.00  0.00     0.006 A 
ENDBRANCH  27  48
BRANCH  39  56
ATOM     56  C   UNL A   1      48.294  26.787  29.698  1.00  0.00     0.057 A 
ATOM     57  C   UNL A   1      49.209  27.113  28.687  1.00  0.00     0.134 A 
ATOM     58  C   UNL A   1      48.798  26.174  30.853  1.00  0.00     0.134 A 
ATOM     59  F   UNL A   1      48.789  27.686  27.549  1.00  0.00    -0.206 F 
ATOM     60  C   UNL A   1      50.565  26.805  28.804  1.00  0.00     0.040 A 
ATOM     61  C   UNL A   1      50.157  25.891  30.994  1.00  0.00     0.040 A 
ATOM     62  F   UNL A   1      47.979  25.843  31.862  1.00  0.00    -0.206 F 
ATOM     63  C   UNL A   1      51.043  26.196  29.963  1.00  0.00     0.006 A 
ENDBRANCH  39  56
ENDBRANCH  13  14
ENDBRANCH   6   8
ENDBRANCH   3   4
ENDBRANCH   2   3
ENDBRANCH   1   2
BRANCH   1  64
ATOM     64  C   UNL A   1      33.712  27.851  24.490  1.00  0.00     0.002 C 
BRANCH  64  65
ATOM     65  C   UNL A   1      33.498  27.911  22.980  1.00  0.00     0.021 C 
BRANCH  65  66
ATOM     66  C   UNL A   1      32.348  27.064  22.450  1.00  0.00     0.116 C 
BRANCH  66  67
ATOM     67  N   UNL A   1      32.784  26.053  21.524  1.00  0.00    -0.356 N 
ATOM     68  C   UNL A   1      33.030  24.732  21.715  1.00  0.00     0.227 C 
ATOM     69  H   UNL A   1      32.928  26.371  20.602  1.00  0.00     0.163 HD
ATOM     70  O   UNL A   1      33.318  24.083  20.701  1.00  0.00    -0.274 OA
BRANCH  68  71
ATOM     71  C   UNL A   1      32.981  24.027  23.085  1.00  0.00     0.113 C 
BRANCH  71  72
ATOM     72  C   UNL A   1      31.821  23.005  23.289  1.00  0.00     0.058 C 
BRANCH  72  73
ATOM     73  C   UNL A   1      32.098  21.588  23.731  1.00  0.00     0.008 A 
ATOM     74  C   UNL A   1      32.139  20.566  22.772  1.00  0.00     0.127 A 
ATOM     75  C   UNL A   1      32.317  21.217  25.066  1.00  0.00     0.047 A 
ATOM     76  F   UNL A   1      31.861  20.841  21.490  1.00  0.00    -0.207 F 
ATOM     77  C   UNL A   1      32.515  19.262  23.094  1.00  0.00     0.039 A 
ATOM     78  C   UNL A   1      32.754  19.926  25.388  1.00  0.00     0.021 A 
ATOM     79  Cl  UNL A   1      32.022  22.297  26.382  1.00  0.00    -0.084 Cl
ATOM     80  C   UNL A   1      32.876  18.953  24.399  1.00  0.00     0.005 A 
ENDBRANCH  72  73
ENDBRANCH  71  72
BRANCH  71  81
ATOM     81  C   UNL A   1      34.346  23.812  23.749  1.00  0.00    -0.035 A 
ATOM     82  C   UNL A   1      35.406  23.093  23.178  1.00  0.00     0.006 A 
ATOM     83  C   UNL A   1      34.568  24.366  25.027  1.00  0.00     0.006 A 
ATOM     84  C   UNL A   1      36.618  22.906  23.852  1.00  0.00     0.021 A 
ATOM     85  C   UNL A   1      35.776  24.179  25.708  1.00  0.00     0.021 A 
ATOM     86  C   UNL A   1      36.796  23.444  25.119  1.00  0.00     0.041 A 
ATOM     87  Cl  UNL A   1      38.275  23.188  25.957  1.00  0.00    -0.084 Cl
ENDBRANCH  71  81
ENDBRANCH  68  71
ENDBRANCH  66  67
ENDBRANCH  65  66
ENDBRANCH  64  65
ENDBRANCH   1  64
TORSDOF 16
ENDMDL
MODEL 3
REMARK VINA RESULT:     -11.7      2.097      3.409
REMARK SMILES O=C(NCCCCCCNC(=O)[C@@H](Cc1c(F)cccc1Cl)c1ccc(Cl)cc1)c1ccc(-c2c3nc(c(-c4c(F)cccc4F)c4ccc([nH]4)c(-c4c(F)cccc4F)c4nc(c(-c5c(F)cccc5F)c5ccc2[nH]5)C=C4)C=C3)cc1
REMARK SMILES IDX 6 1 5 2 4 3 3 4 1 5 2 6 30 8 31 9 83 10 32 11 82 12 33 13
REMARK SMILES IDX 34 14 35 15 76 16 36 17 81 18 75 19 77 20 37 21 80 22 74 23
REMARK SMILES IDX 73 24 38 26 64 27 47 28 63 29 48 30 51 31 62 32 78 33 49 34
REMARK SMILES IDX 50 35 61 37 79 38 52 39 39 40 40 41 45 42 41 43 42 44 44 45
REMARK SMILES IDX 46 46 43 47 65 48 66 49 71 50 67 51 68 52 70 53 72 54 69 55
REMARK SMILES IDX 53 56 54 57 59 58 55 59 56 60 58 61 60 62 57 63 7 64 8 65
REMARK SMILES IDX 9 66 10 67 11 68 12 70 13 71 14 72 15 73 16 74 21 75 17 76
REMARK SMILES IDX 18 77 20 78 22 79 19 80 23 81 24 82 29 83 25 84 28 85 26 86
REMARK SMILES IDX 27 87
REMARK H PARENT 3 7 77 25 51 36 10 69
REMARK Flexibility Score: inf
ROOT
ATOM      1  C   UNL A   1      36.459  20.421  24.998  1.00  0.00     0.002 C 
ENDROOT
BRANCH   1   2
ATOM      2  C   UNL A   1      37.681  19.498  25.000  1.00  0.00     0.021 C 
BRANCH   2   3
ATOM      3  C   UNL A   1      38.909  20.041  25.720  1.00  0.00     0.116 C 
BRANCH   3   4
ATOM      4  N   UNL A   1      40.007  19.090  25.751  1.00  0.00    -0.352 N 
ATOM      5  O   UNL A   1      42.148  18.386  25.763  1.00  0.00    -0.269 OA
ATOM      6  C   UNL A   1      41.348  19.302  25.940  1.00  0.00     0.251 C 
ATOM      7  H   UNL A   1      39.748  18.150  25.616  1.00  0.00     0.163 HD
BRANCH   6   8
ATOM      8  C   UNL A   1      41.835  20.635  26.348  1.00  0.00     0.039 A 
ATOM      9  C   UNL A   1      42.126  21.606  25.389  1.00  0.00     0.014 A 
ATOM     10  C   UNL A   1      41.979  20.928  27.707  1.00  0.00     0.014 A 
ATOM     11  C   UNL A   1      42.696  22.811  25.777  1.00  0.00     0.010 A 
ATOM     12  C   UNL A   1      42.452  22.182  28.103  1.00  0.00     0.010 A 
ATOM     13  C   UNL A   1      42.833  23.128  27.139  1.00  0.00    -0.014 A 
BRANCH  13  14
ATOM     14  C   UNL A   1      43.274  24.497  27.509  1.00  0.00     0.031 A 
ATOM     15  C   UNL A   1      44.711  24.921  27.395  1.00  0.00     0.074 A 
ATOM     16  C   UNL A   1      42.336  25.377  27.910  1.00  0.00     0.049 A 
ATOM     17  N   UNL A   1      45.239  26.098  27.631  1.00  0.00    -0.248 NA
ATOM     18  C   UNL A   1      45.683  23.904  26.969  1.00  0.00     0.031 C 
ATOM     19  C   UNL A   1      40.912  25.067  28.082  1.00  0.00     0.029 A 
ATOM     20  N   UNL A   1      42.422  26.708  28.223  1.00  0.00    -0.354 N 
ATOM     21  C   UNL A   1      46.600  25.963  27.387  1.00  0.00     0.074 A 
ATOM     22  C   UNL A   1      46.824  24.581  27.017  1.00  0.00     0.031 C 
ATOM     23  C   UNL A   1      40.253  26.186  28.412  1.00  0.00     0.029 A 
ATOM     24  C   UNL A   1      41.213  27.273  28.549  1.00  0.00     0.049 A 
ATOM     25  H   UNL A   1      43.268  27.211  28.215  1.00  0.00     0.167 HD
ATOM     26  C   UNL A   1      47.567  26.909  27.455  1.00  0.00     0.037 A 
ATOM     27  C   UNL A   1      40.908  28.524  28.939  1.00  0.00     0.037 A 
ATOM     28  C   UNL A   1      47.333  28.283  27.829  1.00  0.00     0.049 A 
ATOM     29  C   UNL A   1      42.011  29.537  29.040  1.00  0.00     0.074 A 
ATOM     30  C   UNL A   1      48.248  29.320  27.912  1.00  0.00     0.029 A 
ATOM     31  N   UNL A   1      46.102  28.810  28.187  1.00  0.00    -0.354 N 
ATOM     32  N   UNL A   1      43.285  29.402  28.766  1.00  0.00    -0.248 NA
ATOM     33  C   UNL A   1      41.632  30.877  29.504  1.00  0.00     0.031 C 
ATOM     34  C   UNL A   1      47.578  30.462  28.366  1.00  0.00     0.029 A 
ATOM     35  C   UNL A   1      46.236  30.152  28.512  1.00  0.00     0.049 A 
ATOM     36  H   UNL A   1      45.256  28.306  28.207  1.00  0.00     0.167 HD
ATOM     37  C   UNL A   1      43.858  30.642  29.011  1.00  0.00     0.074 A 
ATOM     38  C   UNL A   1      42.784  31.524  29.419  1.00  0.00     0.031 C 
ATOM     39  C   UNL A   1      45.157  31.016  28.918  1.00  0.00     0.037 A 
BRANCH  26  40
ATOM     40  C   UNL A   1      48.974  26.500  27.126  1.00  0.00     0.057 A 
ATOM     41  C   UNL A   1      49.854  26.024  28.106  1.00  0.00     0.134 A 
ATOM     42  C   UNL A   1      49.431  26.508  25.800  1.00  0.00     0.134 A 
ATOM     43  F   UNL A   1      49.483  25.999  29.396  1.00  0.00    -0.206 F 
ATOM     44  C   UNL A   1      51.137  25.579  27.784  1.00  0.00     0.040 A 
ATOM     45  C   UNL A   1      50.704  26.043  25.463  1.00  0.00     0.040 A 
ATOM     46  F   UNL A   1      48.639  26.944  24.809  1.00  0.00    -0.206 F 
ATOM     47  C   UNL A   1      51.562  25.578  26.457  1.00  0.00     0.006 A 
ENDBRANCH  26  40
BRANCH  27  48
ATOM     48  C   UNL A   1      39.510  28.879  29.290  1.00  0.00     0.057 A 
ATOM     49  C   UNL A   1      39.007  28.678  30.580  1.00  0.00     0.134 A 
ATOM     50  C   UNL A   1      38.633  29.405  28.332  1.00  0.00     0.134 A 
ATOM     51  F   UNL A   1      39.792  28.164  31.538  1.00  0.00    -0.206 F 
ATOM     52  C   UNL A   1      37.677  28.956  30.898  1.00  0.00     0.040 A 
ATOM     53  C   UNL A   1      37.311  29.722  28.644  1.00  0.00     0.040 A 
ATOM     54  F   UNL A   1      39.055  29.632  27.080  1.00  0.00    -0.206 F 
ATOM     55  C   UNL A   1      36.826  29.484  29.928  1.00  0.00     0.006 A 
ENDBRANCH  27  48
BRANCH  39  56
ATOM     56  C   UNL A   1      45.472  32.448  29.237  1.00  0.00     0.057 A 
ATOM     57  C   UNL A   1      45.419  33.454  28.262  1.00  0.00     0.134 A 
ATOM     58  C   UNL A   1      45.839  32.825  30.535  1.00  0.00     0.134 A 
ATOM     59  F   UNL A   1      45.090  33.155  26.996  1.00  0.00    -0.206 F 
ATOM     60  C   UNL A   1      45.757  34.774  28.558  1.00  0.00     0.040 A 
ATOM     61  C   UNL A   1      46.147  34.149  30.850  1.00  0.00     0.040 A 
ATOM     62  F   UNL A   1      45.901  31.915  31.518  1.00  0.00    -0.206 F 
ATOM     63  C   UNL A   1      46.118  35.126  29.857  1.00  0.00     0.006 A 
ENDBRANCH  39  56
ENDBRANCH  13  14
ENDBRANCH   6   8
ENDBRANCH   3   4
ENDBRANCH   2   3
ENDBRANCH   1   2
BRANCH   1  64
ATOM     64  C   UNL A   1      36.727  21.903  24.715  1.00  0.00     0.002 C 
BRANCH  64  65
ATOM     65  C   UNL A   1      36.072  22.889  25.677  1.00  0.00     0.021 C 
BRANCH  65  66
ATOM     66  C   UNL A   1      35.283  24.014  25.020  1.00  0.00     0.116 C 
BRANCH  66  67
ATOM     67  N   UNL A   1      35.057  23.790  23.617  1.00  0.00    -0.356 N 
ATOM     68  C   UNL A   1      33.954  23.343  22.965  1.00  0.00     0.227 C 
ATOM     69  H   UNL A   1      35.827  23.991  23.037  1.00  0.00     0.163 HD
ATOM     70  O   UNL A   1      34.025  23.328  21.729  1.00  0.00    -0.274 OA
BRANCH  68  71
ATOM     71  C   UNL A   1      32.665  22.862  23.661  1.00  0.00     0.113 C 
BRANCH  71  72
ATOM     72  C   UNL A   1      31.341  23.548  23.203  1.00  0.00     0.058 C 
BRANCH  72  73
ATOM     73  C   UNL A   1      31.073  25.004  23.499  1.00  0.00     0.008 A 
ATOM     74  C   UNL A   1      31.294  25.960  22.498  1.00  0.00     0.127 A 
ATOM     75  C   UNL A   1      30.611  25.474  24.738  1.00  0.00     0.047 A 
ATOM     76  F   UNL A   1      31.809  25.585  21.319  1.00  0.00    -0.207 F 
ATOM     77  C   UNL A   1      30.946  27.300  22.663  1.00  0.00     0.039 A 
ATOM     78  C   UNL A   1      30.202  26.805  24.891  1.00  0.00     0.021 A 
ATOM     79  Cl  UNL A   1      30.561  24.471  26.144  1.00  0.00    -0.084 Cl
ATOM     80  C   UNL A   1      30.348  27.715  23.846  1.00  0.00     0.005 A 
ENDBRANCH  72  73
ENDBRANCH  71  72
BRANCH  71  81
ATOM     81  C   UNL A   1      32.679  21.395  24.103  1.00  0.00    -0.035 A 
ATOM     82  C   UNL A   1      32.869  20.963  25.424  1.00  0.00     0.006 A 
ATOM     83  C   UNL A   1      32.491  20.395  23.126  1.00  0.00     0.006 A 
ATOM     84  C   UNL A   1      32.903  19.603  25.757  1.00  0.00     0.021 A 
ATOM     85  C   UNL A   1      32.528  19.034  23.453  1.00  0.00     0.021 A 
ATOM     86  C   UNL A   1      32.740  18.644  24.768  1.00  0.00     0.041 A 
ATOM     87  Cl  UNL A   1      32.811  16.975  25.176  1.00  0.00    -0.084 Cl
ENDBRANCH  71  81
ENDBRANCH  68  71
ENDBRANCH  66  67
ENDBRANCH  65  66
ENDBRANCH  64  65
ENDBRANCH   1  64
TORSDOF 16
ENDMDL
