MODEL 1
REMARK VINA RESULT:     -12.1      0.000      0.000
REMARK SMILES CC[C@H](C)N1C(=O)c2ccccc2[C@@H](C(=O)NCCCCCCNC(=O)c2ccc(-c3c4nc(c(-c5c(F)cccc5F)c5ccc([nH]5)c(-c5c(F)cccc5F)c5nc(c(-c6c(F)cccc6F)c6ccc3[nH]6)C=C5)C=C4)cc2)C12CCCCC2
REMARK SMILES IDX 20 1 19 2 18 3 17 4 15 5 16 6 14 8 5 9 6 10 81 11 7 12 8 13
REMARK SMILES IDX 82 14 86 15 9 16 13 17 83 18 85 19 10 20 12 21 84 22 11 23
REMARK SMILES IDX 3 24 4 25 2 26 1 27 21 28 22 29 23 30 24 31 25 32 26 34
REMARK SMILES IDX 27 35 28 36 80 37 29 38 79 39 30 40 31 41 32 42 73 43 33 44
REMARK SMILES IDX 78 45 72 46 74 47 34 48 77 49 71 50 70 51 35 53 61 54 44 55
REMARK SMILES IDX 60 56 45 57 48 58 59 59 75 60 46 61 47 62 58 64 76 65 49 66
REMARK SMILES IDX 36 67 37 68 42 69 38 70 39 71 41 72 43 73 40 74 62 75 63 76
REMARK SMILES IDX 68 77 64 78 65 79 67 80 69 81 66 82 50 83 51 84 56 85 52 86
REMARK SMILES IDX 53 87 55 88 57 89 54 90
REMARK H PARENT 17 7 24 33 74 52 48 63
REMARK Flexibility Score: inf
ROOT
ATOM      1  C   UNL A   1      35.732  22.035  24.235  1.00  0.00     0.002 C 
ENDROOT
BRANCH   1   2
ATOM      2  C   UNL A   1      35.211  22.387  25.627  1.00  0.00     0.021 C 
BRANCH   2   3
ATOM      3  C   UNL A   1      34.812  23.850  25.829  1.00  0.00     0.116 C 
BRANCH   3   4
ATOM      4  N   UNL A   1      33.659  23.992  26.706  1.00  0.00    -0.355 N 
ATOM      5  C   UNL A   1      32.372  24.393  26.497  1.00  0.00     0.229 C 
ATOM      6  O   UNL A   1      31.633  24.358  27.487  1.00  0.00    -0.274 OA
ATOM      7  H   UNL A   1      33.845  23.747  27.641  1.00  0.00     0.163 HD
BRANCH   5   8
ATOM      8  C   UNL A   1      31.806  24.823  25.122  1.00  0.00     0.135 C 
ATOM      9  N   UNL A   1      32.221  26.418  23.106  1.00  0.00    -0.329 N 
ATOM     10  C   UNL A   1      32.854  25.357  22.427  1.00  0.00     0.254 C 
ATOM     11  C   UNL A   1      32.093  26.323  24.639  1.00  0.00     0.059 C 
ATOM     12  O   UNL A   1      33.565  25.475  21.434  1.00  0.00    -0.269 OA
ATOM     13  C   UNL A   1      32.583  23.973  22.882  1.00  0.00     0.044 A 
ATOM     14  C   UNL A   1      33.445  26.873  25.171  1.00  0.00     0.030 C 
ATOM     15  C   UNL A   1      30.908  27.192  25.185  1.00  0.00     0.030 C 
ATOM     16  C   UNL A   1      32.883  22.898  22.025  1.00  0.00     0.014 A 
ATOM     17  C   UNL A   1      32.012  23.717  24.117  1.00  0.00    -0.020 A 
ATOM     18  C   UNL A   1      33.511  27.293  26.637  1.00  0.00     0.002 C 
ATOM     19  C   UNL A   1      30.998  27.529  26.676  1.00  0.00     0.002 C 
ATOM     20  C   UNL A   1      32.587  21.584  22.390  1.00  0.00     0.001 A 
ATOM     21  C   UNL A   1      31.666  22.389  24.456  1.00  0.00     0.005 A 
ATOM     22  C   UNL A   1      32.333  28.154  27.053  1.00  0.00     0.000 C 
ATOM     23  C   UNL A   1      31.961  21.329  23.603  1.00  0.00     0.000 A 
BRANCH   9  24
ATOM     24  C   UNL A   1      31.884  27.699  22.346  1.00  0.00     0.082 C 
ATOM     25  C   UNL A   1      30.414  28.172  22.386  1.00  0.00     0.031 C 
BRANCH  24  26
ATOM     26  C   UNL A   1      32.768  28.938  22.694  1.00  0.00     0.021 C 
ATOM     27  C   UNL A   1      34.276  28.714  22.636  1.00  0.00     0.006 C 
ENDBRANCH  24  26
ENDBRANCH   9  24
ENDBRANCH   5   8
ENDBRANCH   3   4
ENDBRANCH   2   3
ENDBRANCH   1   2
BRANCH   1  28
ATOM     28  C   UNL A   1      37.235  21.786  24.161  1.00  0.00     0.002 C 
BRANCH  28  29
ATOM     29  C   UNL A   1      37.732  20.585  24.967  1.00  0.00     0.021 C 
BRANCH  29  30
ATOM     30  C   UNL A   1      39.009  20.823  25.766  1.00  0.00     0.116 C 
BRANCH  30  31
ATOM     31  N   UNL A   1      39.910  19.682  25.736  1.00  0.00    -0.352 N 
ATOM     32  C   UNL A   1      41.248  19.662  26.051  1.00  0.00     0.251 C 
ATOM     33  H   UNL A   1      39.516  18.824  25.458  1.00  0.00     0.163 HD
ATOM     34  O   UNL A   1      41.941  18.671  25.855  1.00  0.00    -0.269 OA
BRANCH  32  35
ATOM     35  C   UNL A   1      41.841  20.893  26.607  1.00  0.00     0.039 A 
ATOM     36  C   UNL A   1      41.767  21.131  27.984  1.00  0.00     0.014 A 
ATOM     37  C   UNL A   1      42.343  21.861  25.737  1.00  0.00     0.014 A 
ATOM     38  C   UNL A   1      42.065  22.397  28.471  1.00  0.00     0.010 A 
ATOM     39  C   UNL A   1      42.706  23.110  26.242  1.00  0.00     0.010 A 
ATOM     40  C   UNL A   1      42.526  23.404  27.605  1.00  0.00    -0.014 A 
BRANCH  40  41
ATOM     41  C   UNL A   1      42.796  24.764  28.134  1.00  0.00     0.031 A 
ATOM     42  C   UNL A   1      44.194  25.177  28.511  1.00  0.00     0.074 A 
ATOM     43  C   UNL A   1      41.781  25.640  28.247  1.00  0.00     0.049 A 
ATOM     44  N   UNL A   1      44.610  26.304  29.034  1.00  0.00    -0.248 NA
ATOM     45  C   UNL A   1      45.265  24.196  28.275  1.00  0.00     0.031 C 
ATOM     46  C   UNL A   1      40.386  25.364  27.897  1.00  0.00     0.029 A 
ATOM     47  N   UNL A   1      41.765  26.940  28.680  1.00  0.00    -0.354 N 
ATOM     48  C   UNL A   1      45.979  26.159  29.214  1.00  0.00     0.074 A 
ATOM     49  C   UNL A   1      46.325  24.828  28.761  1.00  0.00     0.031 C 
ATOM     50  C   UNL A   1      39.656  26.471  28.098  1.00  0.00     0.029 A 
ATOM     51  C   UNL A   1      40.516  27.511  28.651  1.00  0.00     0.049 A 
ATOM     52  H   UNL A   1      42.571  27.418  28.982  1.00  0.00     0.167 HD
ATOM     53  C   UNL A   1      46.868  27.056  29.706  1.00  0.00     0.037 A 
ATOM     54  C   UNL A   1      40.104  28.727  29.052  1.00  0.00     0.037 A 
ATOM     55  C   UNL A   1      46.527  28.390  30.128  1.00  0.00     0.049 A 
ATOM     56  C   UNL A   1      41.103  29.683  29.637  1.00  0.00     0.074 A 
ATOM     57  C   UNL A   1      47.362  29.386  30.604  1.00  0.00     0.029 A 
ATOM     58  N   UNL A   1      45.244  28.915  30.123  1.00  0.00    -0.354 N 
ATOM     59  N   UNL A   1      42.395  29.534  29.793  1.00  0.00    -0.248 NA
ATOM     60  C   UNL A   1      40.581  30.971  30.112  1.00  0.00     0.031 C 
ATOM     61  C   UNL A   1      46.578  30.500  30.926  1.00  0.00     0.029 A 
ATOM     62  C   UNL A   1      45.260  30.212  30.612  1.00  0.00     0.049 A 
ATOM     63  H   UNL A   1      44.439  28.437  29.818  1.00  0.00     0.167 HD
ATOM     64  C   UNL A   1      42.844  30.714  30.373  1.00  0.00     0.074 A 
ATOM     65  C   UNL A   1      41.688  31.574  30.521  1.00  0.00     0.031 C 
ATOM     66  C   UNL A   1      44.100  31.051  30.755  1.00  0.00     0.037 A 
BRANCH  53  67
ATOM     67  C   UNL A   1      48.298  26.619  29.835  1.00  0.00     0.057 A 
ATOM     68  C   UNL A   1      49.216  26.879  28.809  1.00  0.00     0.134 A 
ATOM     69  C   UNL A   1      48.760  25.906  30.949  1.00  0.00     0.134 A 
ATOM     70  F   UNL A   1      48.839  27.551  27.711  1.00  0.00    -0.206 F 
ATOM     71  C   UNL A   1      50.541  26.444  28.885  1.00  0.00     0.040 A 
ATOM     72  C   UNL A   1      50.088  25.485  31.046  1.00  0.00     0.040 A 
ATOM     73  F   UNL A   1      47.935  25.635  31.971  1.00  0.00    -0.206 F 
ATOM     74  C   UNL A   1      50.981  25.748  30.009  1.00  0.00     0.006 A 
ENDBRANCH  53  67
BRANCH  54  75
ATOM     75  C   UNL A   1      38.673  29.096  28.942  1.00  0.00     0.057 A 
ATOM     76  C   UNL A   1      38.131  29.566  27.739  1.00  0.00     0.134 A 
ATOM     77  C   UNL A   1      37.809  28.978  30.037  1.00  0.00     0.134 A 
ATOM     78  F   UNL A   1      38.910  29.703  26.656  1.00  0.00    -0.206 F 
ATOM     79  C   UNL A   1      36.786  29.914  27.631  1.00  0.00     0.040 A 
ATOM     80  C   UNL A   1      36.454  29.300  29.935  1.00  0.00     0.040 A 
ATOM     81  F   UNL A   1      38.266  28.515  31.210  1.00  0.00    -0.206 F 
ATOM     82  C   UNL A   1      35.941  29.774  28.730  1.00  0.00     0.006 A 
ENDBRANCH  54  75
BRANCH  66  83
ATOM     83  C   UNL A   1      44.282  32.416  31.348  1.00  0.00     0.057 A 
ATOM     84  C   UNL A   1      44.528  33.524  30.528  1.00  0.00     0.134 A 
ATOM     85  C   UNL A   1      44.226  32.629  32.730  1.00  0.00     0.134 A 
ATOM     86  F   UNL A   1      44.598  33.384  29.195  1.00  0.00    -0.206 F 
ATOM     87  C   UNL A   1      44.713  34.799  31.063  1.00  0.00     0.040 A 
ATOM     88  C   UNL A   1      44.386  33.904  33.276  1.00  0.00     0.040 A 
ATOM     89  F   UNL A   1      43.976  31.611  33.566  1.00  0.00    -0.206 F 
ATOM     90  C   UNL A   1      44.636  34.992  32.442  1.00  0.00     0.006 A 
ENDBRANCH  66  83
ENDBRANCH  40  41
ENDBRANCH  32  35
ENDBRANCH  30  31
ENDBRANCH  29  30
ENDBRANCH  28  29
ENDBRANCH   1  28
TORSDOF 15
ENDMDL
MODEL 2
REMARK VINA RESULT:     -11.9      1.243      1.671
REMARK SMILES CC[C@H](C)N1C(=O)c2ccccc2[C@@H](C(=O)NCCCCCCNC(=O)c2ccc(-c3c4nc(c(-c5c(F)cccc5F)c5ccc([nH]5)c(-c5c(F)cccc5F)c5nc(c(-c6c(F)cccc6F)c6ccc3[nH]6)C=C5)C=C4)cc2)C12CCCCC2
REMARK SMILES IDX 20 1 19 2 18 3 17 4 15 5 16 6 14 8 5 9 6 10 81 11 7 12 8 13
REMARK SMILES IDX 82 14 86 15 9 16 13 17 83 18 85 19 10 20 12 21 84 22 11 23
REMARK SMILES IDX 3 24 4 25 2 26 1 27 21 28 22 29 23 30 24 31 25 32 26 34
REMARK SMILES IDX 27 35 28 36 80 37 29 38 79 39 30 40 31 41 32 42 73 43 33 44
REMARK SMILES IDX 78 45 72 46 74 47 34 48 77 49 71 50 70 51 35 53 61 54 44 55
REMARK SMILES IDX 60 56 45 57 48 58 59 59 75 60 46 61 47 62 58 64 76 65 49 66
REMARK SMILES IDX 36 67 37 68 42 69 38 70 39 71 41 72 43 73 40 74 62 75 63 76
REMARK SMILES IDX 68 77 64 78 65 79 67 80 69 81 66 82 50 83 51 84 56 85 52 86
REMARK SMILES IDX 53 87 55 88 57 89 54 90
REMARK H PARENT 17 7 24 33 74 52 48 63
REMARK Flexibility Score: inf
ROOT
ATOM      1  C   UNL A   1      35.805  21.494  24.635  1.00  0.00     0.002 C 
ENDROOT
BRANCH   1   2
ATOM      2  C   UNL A   1      35.405  22.162  25.950  1.00  0.00     0.021 C 
BRANCH   2   3
ATOM      3  C   UNL A   1      34.827  23.573  25.822  1.00  0.00     0.116 C 
BRANCH   3   4
ATOM      4  N   UNL A   1      33.704  23.794  26.720  1.00  0.00    -0.355 N 
ATOM      5  C   UNL A   1      32.434  24.251  26.530  1.00  0.00     0.229 C 
ATOM      6  O   UNL A   1      31.718  24.278  27.539  1.00  0.00    -0.274 OA
ATOM      7  H   UNL A   1      33.902  23.565  27.658  1.00  0.00     0.163 HD
BRANCH   5   8
ATOM      8  C   UNL A   1      31.855  24.672  25.158  1.00  0.00     0.135 C 
ATOM      9  N   UNL A   1      32.240  26.268  23.137  1.00  0.00    -0.329 N 
ATOM     10  C   UNL A   1      32.882  25.213  22.456  1.00  0.00     0.254 C 
ATOM     11  C   UNL A   1      32.122  26.174  24.671  1.00  0.00     0.059 C 
ATOM     12  O   UNL A   1      33.587  25.338  21.459  1.00  0.00    -0.269 OA
ATOM     13  C   UNL A   1      32.631  23.827  22.915  1.00  0.00     0.044 A 
ATOM     14  C   UNL A   1      33.470  26.741  25.194  1.00  0.00     0.030 C 
ATOM     15  C   UNL A   1      30.929  27.031  25.221  1.00  0.00     0.030 C 
ATOM     16  C   UNL A   1      32.939  22.754  22.059  1.00  0.00     0.014 A 
ATOM     17  C   UNL A   1      32.068  23.566  24.154  1.00  0.00    -0.020 A 
ATOM     18  C   UNL A   1      33.540  27.164  26.659  1.00  0.00     0.002 C 
ATOM     19  C   UNL A   1      31.023  27.371  26.711  1.00  0.00     0.002 C 
ATOM     20  C   UNL A   1      32.659  21.437  22.427  1.00  0.00     0.001 A 
ATOM     21  C   UNL A   1      31.740  22.235  24.497  1.00  0.00     0.005 A 
ATOM     22  C   UNL A   1      32.353  28.013  27.080  1.00  0.00     0.000 C 
ATOM     23  C   UNL A   1      32.044  21.177  23.644  1.00  0.00     0.000 A 
BRANCH   9  24
ATOM     24  C   UNL A   1      31.885  27.544  22.376  1.00  0.00     0.082 C 
ATOM     25  C   UNL A   1      30.401  27.970  22.379  1.00  0.00     0.031 C 
BRANCH  24  26
ATOM     26  C   UNL A   1      32.720  28.806  22.757  1.00  0.00     0.021 C 
ATOM     27  C   UNL A   1      34.220  28.714  22.494  1.00  0.00     0.006 C 
ENDBRANCH  24  26
ENDBRANCH   9  24
ENDBRANCH   5   8
ENDBRANCH   3   4
ENDBRANCH   2   3
ENDBRANCH   1   2
BRANCH   1  28
ATOM     28  C   UNL A   1      37.309  21.389  24.406  1.00  0.00     0.002 C 
BRANCH  28  29
ATOM     29  C   UNL A   1      37.973  20.156  25.024  1.00  0.00     0.021 C 
BRANCH  29  30
ATOM     30  C   UNL A   1      39.284  20.423  25.756  1.00  0.00     0.116 C 
BRANCH  30  31
ATOM     31  N   UNL A   1      40.123  19.240  25.851  1.00  0.00    -0.352 N 
ATOM     32  C   UNL A   1      41.468  19.186  26.131  1.00  0.00     0.251 C 
ATOM     33  H   UNL A   1      39.677  18.376  25.696  1.00  0.00     0.163 HD
ATOM     34  O   UNL A   1      42.102  18.141  26.047  1.00  0.00    -0.269 OA
BRANCH  32  35
ATOM     35  C   UNL A   1      42.141  20.444  26.507  1.00  0.00     0.039 A 
ATOM     36  C   UNL A   1      42.105  20.872  27.838  1.00  0.00     0.014 A 
ATOM     37  C   UNL A   1      42.685  21.251  25.507  1.00  0.00     0.014 A 
ATOM     38  C   UNL A   1      42.484  22.173  28.144  1.00  0.00     0.010 A 
ATOM     39  C   UNL A   1      43.130  22.533  25.833  1.00  0.00     0.010 A 
ATOM     40  C   UNL A   1      42.989  23.021  27.143  1.00  0.00    -0.014 A 
BRANCH  40  41
ATOM     41  C   UNL A   1      43.348  24.422  27.478  1.00  0.00     0.031 A 
ATOM     42  C   UNL A   1      44.780  24.882  27.422  1.00  0.00     0.074 A 
ATOM     43  C   UNL A   1      42.373  25.291  27.804  1.00  0.00     0.049 A 
ATOM     44  N   UNL A   1      45.285  26.052  27.728  1.00  0.00    -0.248 NA
ATOM     45  C   UNL A   1      45.778  23.900  26.970  1.00  0.00     0.031 C 
ATOM     46  C   UNL A   1      40.946  24.970  27.875  1.00  0.00     0.029 A 
ATOM     47  N   UNL A   1      42.432  26.621  28.130  1.00  0.00    -0.354 N 
ATOM     48  C   UNL A   1      46.655  25.940  27.532  1.00  0.00     0.074 A 
ATOM     49  C   UNL A   1      46.909  24.582  27.098  1.00  0.00     0.031 C 
ATOM     50  C   UNL A   1      40.262  26.080  28.190  1.00  0.00     0.029 A 
ATOM     51  C   UNL A   1      41.205  27.171  28.406  1.00  0.00     0.049 A 
ATOM     52  H   UNL A   1      43.273  27.132  28.162  1.00  0.00     0.167 HD
ATOM     53  C   UNL A   1      47.614  26.884  27.693  1.00  0.00     0.037 A 
ATOM     54  C   UNL A   1      40.877  28.410  28.818  1.00  0.00     0.037 A 
ATOM     55  C   UNL A   1      47.356  28.243  28.096  1.00  0.00     0.049 A 
ATOM     56  C   UNL A   1      41.964  29.422  29.032  1.00  0.00     0.074 A 
ATOM     57  C   UNL A   1      48.255  29.284  28.249  1.00  0.00     0.029 A 
ATOM     58  N   UNL A   1      46.104  28.749  28.408  1.00  0.00    -0.354 N 
ATOM     59  N   UNL A   1      43.255  29.303  28.836  1.00  0.00    -0.248 NA
ATOM     60  C   UNL A   1      41.550  30.736  29.540  1.00  0.00     0.031 C 
ATOM     61  C   UNL A   1      47.552  30.410  28.695  1.00  0.00     0.029 A 
ATOM     62  C   UNL A   1      46.209  30.080  28.779  1.00  0.00     0.049 A 
ATOM     63  H   UNL A   1      45.262  28.238  28.372  1.00  0.00     0.167 HD
ATOM     64  C   UNL A   1      43.804  30.530  29.183  1.00  0.00     0.074 A 
ATOM     65  C   UNL A   1      42.705  31.383  29.582  1.00  0.00     0.031 C 
ATOM     66  C   UNL A   1      45.105  30.913  29.176  1.00  0.00     0.037 A 
BRANCH  53  67
ATOM     67  C   UNL A   1      49.038  26.478  27.452  1.00  0.00     0.057 A 
ATOM     68  C   UNL A   1      49.844  26.050  28.516  1.00  0.00     0.134 A 
ATOM     69  C   UNL A   1      49.628  26.548  26.183  1.00  0.00     0.134 A 
ATOM     70  F   UNL A   1      49.345  25.966  29.758  1.00  0.00    -0.206 F 
ATOM     71  C   UNL A   1      51.186  25.709  28.326  1.00  0.00     0.040 A 
ATOM     72  C   UNL A   1      50.961  26.189  25.978  1.00  0.00     0.040 A 
ATOM     73  F   UNL A   1      48.908  26.937  25.121  1.00  0.00    -0.206 F 
ATOM     74  C   UNL A   1      51.746  25.774  27.052  1.00  0.00     0.006 A 
ENDBRANCH  53  67
BRANCH  54  75
ATOM     75  C   UNL A   1      39.459  28.750  29.082  1.00  0.00     0.057 A 
ATOM     76  C   UNL A   1      38.642  29.296  28.084  1.00  0.00     0.134 A 
ATOM     77  C   UNL A   1      38.883  28.527  30.338  1.00  0.00     0.134 A 
ATOM     78  F   UNL A   1      39.138  29.535  26.861  1.00  0.00    -0.206 F 
ATOM     79  C   UNL A   1      37.308  29.618  28.327  1.00  0.00     0.040 A 
ATOM     80  C   UNL A   1      37.542  28.822  30.588  1.00  0.00     0.040 A 
ATOM     81  F   UNL A   1      39.611  27.988  31.327  1.00  0.00    -0.206 F 
ATOM     82  C   UNL A   1      36.752  29.373  29.581  1.00  0.00     0.006 A 
ENDBRANCH  54  75
BRANCH  66  83
ATOM     83  C   UNL A   1      45.396  32.322  29.596  1.00  0.00     0.057 A 
ATOM     84  C   UNL A   1      45.379  33.364  28.661  1.00  0.00     0.134 A 
ATOM     85  C   UNL A   1      45.704  32.644  30.923  1.00  0.00     0.134 A 
ATOM     86  F   UNL A   1      45.095  33.119  27.373  1.00  0.00    -0.206 F 
ATOM     87  C   UNL A   1      45.660  34.679  29.031  1.00  0.00     0.040 A 
ATOM     88  C   UNL A   1      45.964  33.959  31.311  1.00  0.00     0.040 A 
ATOM     89  F   UNL A   1      45.719  31.693  31.868  1.00  0.00    -0.206 F 
ATOM     90  C   UNL A   1      45.948  34.981  30.361  1.00  0.00     0.006 A 
ENDBRANCH  66  83
ENDBRANCH  40  41
ENDBRANCH  32  35
ENDBRANCH  30  31
ENDBRANCH  29  30
ENDBRANCH  28  29
ENDBRANCH   1  28
TORSDOF 15
ENDMDL
MODEL 3
REMARK VINA RESULT:     -11.9      0.467      6.002
REMARK SMILES CC[C@H](C)N1C(=O)c2ccccc2[C@@H](C(=O)NCCCCCCNC(=O)c2ccc(-c3c4nc(c(-c5c(F)cccc5F)c5ccc([nH]5)c(-c5c(F)cccc5F)c5nc(c(-c6c(F)cccc6F)c6ccc3[nH]6)C=C5)C=C4)cc2)C12CCCCC2
REMARK SMILES IDX 20 1 19 2 18 3 17 4 15 5 16 6 14 8 5 9 6 10 81 11 7 12 8 13
REMARK SMILES IDX 82 14 86 15 9 16 13 17 83 18 85 19 10 20 12 21 84 22 11 23
REMARK SMILES IDX 3 24 4 25 2 26 1 27 21 28 22 29 23 30 24 31 25 32 26 34
REMARK SMILES IDX 27 35 28 36 80 37 29 38 79 39 30 40 31 41 32 42 73 43 33 44
REMARK SMILES IDX 78 45 72 46 74 47 34 48 77 49 71 50 70 51 35 53 61 54 44 55
REMARK SMILES IDX 60 56 45 57 48 58 59 59 75 60 46 61 47 62 58 64 76 65 49 66
REMARK SMILES IDX 36 67 37 68 42 69 38 70 39 71 41 72 43 73 40 74 62 75 63 76
REMARK SMILES IDX 68 77 64 78 65 79 67 80 69 81 66 82 50 83 51 84 56 85 52 86
REMARK SMILES IDX 53 87 55 88 57 89 54 90
REMARK H PARENT 17 7 24 33 74 52 48 63
REMARK Flexibility Score: inf
ROOT
ATOM      1  C   UNL A   1      37.443  23.364  25.578  1.00  0.00     0.002 C 
ENDROOT
BRANCH   1   2
ATOM      2  C   UNL A   1      36.204  24.134  26.033  1.00  0.00     0.021 C 
BRANCH   2   3
ATOM      3  C   UNL A   1      34.865  23.562  25.562  1.00  0.00     0.116 C 
BRANCH   3   4
ATOM      4  N   UNL A   1      33.799  23.785  26.527  1.00  0.00    -0.355 N 
ATOM      5  C   UNL A   1      32.527  24.263  26.417  1.00  0.00     0.229 C 
ATOM      6  O   UNL A   1      31.871  24.285  27.465  1.00  0.00    -0.274 OA
ATOM      7  H   UNL A   1      34.047  23.540  27.448  1.00  0.00     0.163 HD
BRANCH   5   8
ATOM      8  C   UNL A   1      31.877  24.713  25.087  1.00  0.00     0.135 C 
ATOM      9  N   UNL A   1      32.165  26.341  23.074  1.00  0.00    -0.329 N 
ATOM     10  C   UNL A   1      32.757  25.292  22.341  1.00  0.00     0.254 C 
ATOM     11  C   UNL A   1      32.132  26.221  24.610  1.00  0.00     0.059 C 
ATOM     12  O   UNL A   1      33.406  25.427  21.308  1.00  0.00    -0.269 OA
ATOM     13  C   UNL A   1      32.517  23.900  22.789  1.00  0.00     0.044 A 
ATOM     14  C   UNL A   1      33.512  26.767  25.067  1.00  0.00     0.030 C 
ATOM     15  C   UNL A   1      30.980  27.079  25.242  1.00  0.00     0.030 C 
ATOM     16  C   UNL A   1      32.766  22.840  21.899  1.00  0.00     0.014 A 
ATOM     17  C   UNL A   1      32.022  23.623  24.054  1.00  0.00    -0.020 A 
ATOM     18  C   UNL A   1      33.668  27.164  26.532  1.00  0.00     0.002 C 
ATOM     19  C   UNL A   1      31.161  27.393  26.729  1.00  0.00     0.002 C 
ATOM     20  C   UNL A   1      32.494  21.519  22.261  1.00  0.00     0.001 A 
ATOM     21  C   UNL A   1      31.700  22.289  24.392  1.00  0.00     0.005 A 
ATOM     22  C   UNL A   1      32.515  28.016  27.033  1.00  0.00     0.000 C 
ATOM     23  C   UNL A   1      31.945  21.244  23.506  1.00  0.00     0.000 A 
BRANCH   9  24
ATOM     24  C   UNL A   1      31.780  27.633  22.356  1.00  0.00     0.082 C 
ATOM     25  C   UNL A   1      30.305  28.078  22.457  1.00  0.00     0.031 C 
BRANCH  24  26
ATOM     26  C   UNL A   1      32.654  28.878  22.703  1.00  0.00     0.021 C 
ATOM     27  C   UNL A   1      34.154  28.723  22.471  1.00  0.00     0.006 C 
ENDBRANCH  24  26
ENDBRANCH   9  24
ENDBRANCH   5   8
ENDBRANCH   3   4
ENDBRANCH   2   3
ENDBRANCH   1   2
BRANCH   1  28
ATOM     28  C   UNL A   1      37.169  22.252  24.571  1.00  0.00     0.002 C 
BRANCH  28  29
ATOM     29  C   UNL A   1      37.791  20.898  24.918  1.00  0.00     0.021 C 
BRANCH  29  30
ATOM     30  C   UNL A   1      38.949  20.950  25.909  1.00  0.00     0.116 C 
BRANCH  30  31
ATOM     31  N   UNL A   1      39.825  19.794  25.808  1.00  0.00    -0.352 N 
ATOM     32  C   UNL A   1      41.179  19.746  26.039  1.00  0.00     0.251 C 
ATOM     33  H   UNL A   1      39.399  18.947  25.543  1.00  0.00     0.163 HD
ATOM     34  O   UNL A   1      41.841  18.746  25.787  1.00  0.00    -0.269 OA
BRANCH  32  35
ATOM     35  C   UNL A   1      41.828  20.959  26.573  1.00  0.00     0.039 A 
ATOM     36  C   UNL A   1      41.852  21.173  27.955  1.00  0.00     0.014 A 
ATOM     37  C   UNL A   1      42.284  21.935  25.687  1.00  0.00     0.014 A 
ATOM     38  C   UNL A   1      42.202  22.426  28.443  1.00  0.00     0.010 A 
ATOM     39  C   UNL A   1      42.701  23.169  26.187  1.00  0.00     0.010 A 
ATOM     40  C   UNL A   1      42.618  23.441  27.564  1.00  0.00    -0.014 A 
BRANCH  40  41
ATOM     41  C   UNL A   1      42.946  24.787  28.096  1.00  0.00     0.031 A 
ATOM     42  C   UNL A   1      41.861  25.803  28.336  1.00  0.00     0.074 A 
ATOM     43  C   UNL A   1      44.225  25.084  28.393  1.00  0.00     0.049 A 
ATOM     44  N   UNL A   1      41.966  27.042  28.749  1.00  0.00    -0.248 NA
ATOM     45  C   UNL A   1      40.477  25.375  28.073  1.00  0.00     0.031 C 
ATOM     46  C   UNL A   1      45.362  24.178  28.223  1.00  0.00     0.029 A 
ATOM     47  N   UNL A   1      44.782  26.226  28.907  1.00  0.00    -0.354 N 
ATOM     48  C   UNL A   1      40.672  27.548  28.770  1.00  0.00     0.074 A 
ATOM     49  C   UNL A   1      39.798  26.489  28.311  1.00  0.00     0.031 C 
ATOM     50  C   UNL A   1      46.477  24.786  28.654  1.00  0.00     0.029 A 
ATOM     51  C   UNL A   1      46.143  26.144  29.070  1.00  0.00     0.049 A 
ATOM     52  H   UNL A   1      44.257  27.026  29.137  1.00  0.00     0.167 HD
ATOM     53  C   UNL A   1      40.252  28.781  29.144  1.00  0.00     0.037 A 
ATOM     54  C   UNL A   1      47.029  27.069  29.482  1.00  0.00     0.037 A 
ATOM     55  C   UNL A   1      41.120  29.823  29.628  1.00  0.00     0.049 A 
ATOM     56  C   UNL A   1      46.540  28.441  29.845  1.00  0.00     0.074 A 
ATOM     57  C   UNL A   1      40.784  31.092  30.068  1.00  0.00     0.029 A 
ATOM     58  N   UNL A   1      42.498  29.715  29.738  1.00  0.00    -0.354 N 
ATOM     59  N   UNL A   1      45.313  28.902  29.867  1.00  0.00    -0.248 NA
ATOM     60  C   UNL A   1      47.561  29.424  30.228  1.00  0.00     0.031 C 
ATOM     61  C   UNL A   1      41.964  31.766  30.405  1.00  0.00     0.029 A 
ATOM     62  C   UNL A   1      43.030  30.903  30.214  1.00  0.00     0.049 A 
ATOM     63  H   UNL A   1      43.021  28.912  29.512  1.00  0.00     0.167 HD
ATOM     64  C   UNL A   1      45.414  30.225  30.277  1.00  0.00     0.074 A 
ATOM     65  C   UNL A   1      46.819  30.484  30.513  1.00  0.00     0.031 C 
ATOM     66  C   UNL A   1      44.431  31.144  30.439  1.00  0.00     0.037 A 
BRANCH  53  67
ATOM     67  C   UNL A   1      38.786  29.081  29.025  1.00  0.00     0.057 A 
ATOM     68  C   UNL A   1      38.245  29.510  27.806  1.00  0.00     0.134 A 
ATOM     69  C   UNL A   1      37.918  28.991  30.121  1.00  0.00     0.134 A 
ATOM     70  F   UNL A   1      39.022  29.625  26.719  1.00  0.00    -0.206 F 
ATOM     71  C   UNL A   1      36.893  29.839  27.680  1.00  0.00     0.040 A 
ATOM     72  C   UNL A   1      36.560  29.296  30.002  1.00  0.00     0.040 A 
ATOM     73  F   UNL A   1      38.369  28.575  31.313  1.00  0.00    -0.206 F 
ATOM     74  C   UNL A   1      36.046  29.728  28.781  1.00  0.00     0.006 A 
ENDBRANCH  53  67
BRANCH  54  75
ATOM     75  C   UNL A   1      48.472  26.736  29.542  1.00  0.00     0.057 A 
ATOM     76  C   UNL A   1      49.029  26.111  30.664  1.00  0.00     0.134 A 
ATOM     77  C   UNL A   1      49.327  27.026  28.473  1.00  0.00     0.134 A 
ATOM     78  F   UNL A   1      48.262  25.810  31.722  1.00  0.00    -0.206 F 
ATOM     79  C   UNL A   1      50.386  25.796  30.726  1.00  0.00     0.040 A 
ATOM     80  C   UNL A   1      50.682  26.693  28.511  1.00  0.00     0.040 A 
ATOM     81  F   UNL A   1      48.846  27.607  27.363  1.00  0.00    -0.206 F 
ATOM     82  C   UNL A   1      51.215  26.080  29.643  1.00  0.00     0.006 A 
ENDBRANCH  54  75
BRANCH  66  83
ATOM     83  C   UNL A   1      44.848  32.503  30.911  1.00  0.00     0.057 A 
ATOM     84  C   UNL A   1      45.154  33.516  29.993  1.00  0.00     0.134 A 
ATOM     85  C   UNL A   1      44.960  32.806  32.274  1.00  0.00     0.134 A 
ATOM     86  F   UNL A   1      45.070  33.287  28.674  1.00  0.00    -0.206 F 
ATOM     87  C   UNL A   1      45.556  34.783  30.415  1.00  0.00     0.040 A 
ATOM     88  C   UNL A   1      45.339  34.077  32.708  1.00  0.00     0.040 A 
ATOM     89  F   UNL A   1      44.664  31.883  33.201  1.00  0.00    -0.206 F 
ATOM     90  C   UNL A   1      45.644  35.068  31.777  1.00  0.00     0.006 A 
ENDBRANCH  66  83
ENDBRANCH  40  41
ENDBRANCH  32  35
ENDBRANCH  30  31
ENDBRANCH  29  30
ENDBRANCH  28  29
ENDBRANCH   1  28
TORSDOF 15
ENDMDL
