MODEL 1
REMARK VINA RESULT:     -11.5      0.000      0.000
REMARK SMILES C[C@H]1CC=C(C2=NN=C(C(=O)NCCCCCCNC(=O)c3ccc(-c4c5nc(c(-c6c(F)cccc6F)c6ccc([nH]6)c(-c6c(F)cccc6F)c6nc(c(-c7c(F)cccc7F)c7ccc4[nH]7)C=C6)C=C5)cc3)C2)O1
REMARK SMILES IDX 16 1 15 2 14 3 13 4 12 5 10 6 11 7 9 9 6 10 7 11 76 12 8 13
REMARK SMILES IDX 5 14 1 15 2 16 3 17 77 18 4 19 17 20 18 21 19 22 20 23 21 25
REMARK SMILES IDX 22 26 23 27 75 28 24 29 74 30 25 31 26 32 27 33 68 34 28 35
REMARK SMILES IDX 73 36 67 37 69 38 29 39 72 40 66 41 65 42 30 44 56 45 39 46
REMARK SMILES IDX 55 47 40 48 43 49 54 50 70 51 41 52 42 53 53 55 71 56 44 57
REMARK SMILES IDX 31 58 32 59 37 60 33 61 34 62 36 63 38 64 35 65 57 66 58 67
REMARK SMILES IDX 63 68 59 69 60 70 62 71 64 72 61 73 45 74 46 75 51 76 47 77
REMARK SMILES IDX 48 78 50 79 52 80 49 81
REMARK H PARENT 12 8 19 24 69 43 43 54
REMARK Flexibility Score: inf
ROOT
ATOM      1  C   UNL A   1      31.541  30.407  25.912  1.00  0.00     0.002 C 
ENDROOT
BRANCH   1   2
ATOM      2  C   UNL A   1      31.832  29.322  26.960  1.00  0.00     0.002 C 
BRANCH   2   3
ATOM      3  C   UNL A   1      33.006  28.385  26.659  1.00  0.00     0.021 C 
BRANCH   3   4
ATOM      4  C   UNL A   1      33.679  28.611  25.306  1.00  0.00     0.116 C 
BRANCH   4   5
ATOM      5  N   UNL A   1      33.794  27.375  24.553  1.00  0.00    -0.351 N 
ATOM      6  C   UNL A   1      32.885  26.728  23.758  1.00  0.00     0.267 C 
ATOM      7  O   UNL A   1      33.176  25.661  23.224  1.00  0.00    -0.268 OA
ATOM      8  H   UNL A   1      34.669  26.929  24.626  1.00  0.00     0.163 HD
BRANCH   6   9
ATOM      9  C   UNL A   1      31.523  27.292  23.471  1.00  0.00     0.134 C 
ATOM     10  C   UNL A   1      29.905  28.724  22.923  1.00  0.00     0.111 C 
ATOM     11  N   UNL A   1      29.351  27.651  23.397  1.00  0.00    -0.151 NA
ATOM     12  C   UNL A   1      31.394  28.645  22.864  1.00  0.00     0.126 C 
ATOM     13  N   UNL A   1      30.383  26.737  23.744  1.00  0.00    -0.149 NA
BRANCH  10  14
ATOM     14  C   UNL A   1      29.203  29.952  22.537  1.00  0.00     0.139 C 
ATOM     15  C   UNL A   1      27.772  32.099  20.218  1.00  0.00     0.053 C 
ATOM     16  C   UNL A   1      28.712  31.774  21.367  1.00  0.00     0.174 C 
ATOM     17  C   UNL A   1      28.029  31.896  22.735  1.00  0.00     0.076 C 
ATOM     18  O   UNL A   1      29.219  30.424  21.233  1.00  0.00    -0.489 OA
ATOM     19  C   UNL A   1      28.584  30.717  23.432  1.00  0.00     0.025 C 
ENDBRANCH  10  14
ENDBRANCH   6   9
ENDBRANCH   4   5
ENDBRANCH   3   4
ENDBRANCH   2   3
ENDBRANCH   1   2
BRANCH   1  20
ATOM     20  C   UNL A   1      31.339  31.838  26.432  1.00  0.00     0.021 C 
BRANCH  20  21
ATOM     21  C   UNL A   1      32.492  32.380  27.262  1.00  0.00     0.116 C 
BRANCH  21  22
ATOM     22  N   UNL A   1      32.327  33.792  27.609  1.00  0.00    -0.352 N 
ATOM     23  C   UNL A   1      33.017  34.538  28.552  1.00  0.00     0.251 C 
ATOM     24  H   UNL A   1      31.634  34.278  27.105  1.00  0.00     0.163 HD
ATOM     25  O   UNL A   1      32.553  35.568  29.006  1.00  0.00    -0.269 OA
BRANCH  23  26
ATOM     26  C   UNL A   1      34.339  34.059  28.994  1.00  0.00     0.039 A 
ATOM     27  C   UNL A   1      34.526  33.452  30.239  1.00  0.00     0.014 A 
ATOM     28  C   UNL A   1      35.401  34.210  28.110  1.00  0.00     0.014 A 
ATOM     29  C   UNL A   1      35.778  32.922  30.547  1.00  0.00     0.010 A 
ATOM     30  C   UNL A   1      36.566  33.532  28.334  1.00  0.00     0.010 A 
ATOM     31  C   UNL A   1      36.791  32.953  29.577  1.00  0.00    -0.014 A 
BRANCH  31  32
ATOM     32  C   UNL A   1      38.073  32.288  29.784  1.00  0.00     0.031 A 
ATOM     33  C   UNL A   1      38.101  30.865  29.354  1.00  0.00     0.074 A 
ATOM     34  C   UNL A   1      39.198  32.986  30.067  1.00  0.00     0.049 A 
ATOM     35  N   UNL A   1      38.248  29.814  30.090  1.00  0.00    -0.248 NA
ATOM     36  C   UNL A   1      37.784  30.561  27.947  1.00  0.00     0.031 C 
ATOM     37  C   UNL A   1      39.340  34.446  30.176  1.00  0.00     0.029 A 
ATOM     38  N   UNL A   1      40.483  32.555  30.192  1.00  0.00    -0.354 N 
ATOM     39  C   UNL A   1      38.281  28.734  29.207  1.00  0.00     0.074 A 
ATOM     40  C   UNL A   1      37.771  29.226  27.958  1.00  0.00     0.031 C 
ATOM     41  C   UNL A   1      40.644  34.785  30.102  1.00  0.00     0.029 A 
ATOM     42  C   UNL A   1      41.434  33.571  30.137  1.00  0.00     0.049 A 
ATOM     43  H   UNL A   1      40.721  31.607  30.311  1.00  0.00     0.167 HD
ATOM     44  C   UNL A   1      39.018  27.625  29.498  1.00  0.00     0.037 A 
ATOM     45  C   UNL A   1      42.780  33.429  30.119  1.00  0.00     0.037 A 
ATOM     46  C   UNL A   1      39.408  27.639  30.888  1.00  0.00     0.049 A 
ATOM     47  C   UNL A   1      43.083  32.079  30.638  1.00  0.00     0.074 A 
ATOM     48  C   UNL A   1      38.784  27.509  32.110  1.00  0.00     0.029 A 
ATOM     49  N   UNL A   1      40.631  28.212  31.117  1.00  0.00    -0.354 N 
ATOM     50  N   UNL A   1      42.880  31.718  31.873  1.00  0.00    -0.248 NA
ATOM     51  C   UNL A   1      43.290  30.989  29.694  1.00  0.00     0.031 C 
ATOM     52  C   UNL A   1      39.570  28.269  33.029  1.00  0.00     0.029 A 
ATOM     53  C   UNL A   1      40.668  28.798  32.349  1.00  0.00     0.049 A 
ATOM     54  H   UNL A   1      41.381  28.202  30.479  1.00  0.00     0.167 HD
ATOM     55  C   UNL A   1      42.497  30.393  31.785  1.00  0.00     0.074 A 
ATOM     56  C   UNL A   1      42.947  29.955  30.469  1.00  0.00     0.031 C 
ATOM     57  C   UNL A   1      41.574  29.884  32.652  1.00  0.00     0.037 A 
BRANCH  44  58
ATOM     58  C   UNL A   1      39.832  26.824  28.489  1.00  0.00     0.057 A 
ATOM     59  C   UNL A   1      40.754  27.515  27.674  1.00  0.00     0.134 A 
ATOM     60  C   UNL A   1      39.529  25.519  28.048  1.00  0.00     0.134 A 
ATOM     61  F   UNL A   1      41.149  28.761  27.983  1.00  0.00    -0.206 F 
ATOM     62  C   UNL A   1      41.233  26.999  26.462  1.00  0.00     0.040 A 
ATOM     63  C   UNL A   1      40.039  24.978  26.862  1.00  0.00     0.040 A 
ATOM     64  F   UNL A   1      38.658  24.724  28.673  1.00  0.00    -0.206 F 
ATOM     65  C   UNL A   1      40.861  25.731  26.042  1.00  0.00     0.006 A 
ENDBRANCH  44  58
BRANCH  45  66
ATOM     66  C   UNL A   1      43.821  34.288  29.518  1.00  0.00     0.057 A 
ATOM     67  C   UNL A   1      44.088  34.247  28.141  1.00  0.00     0.134 A 
ATOM     68  C   UNL A   1      44.369  35.372  30.224  1.00  0.00     0.134 A 
ATOM     69  F   UNL A   1      43.587  33.263  27.380  1.00  0.00    -0.206 F 
ATOM     70  C   UNL A   1      44.818  35.251  27.494  1.00  0.00     0.040 A 
ATOM     71  C   UNL A   1      45.103  36.381  29.589  1.00  0.00     0.040 A 
ATOM     72  F   UNL A   1      44.129  35.535  31.533  1.00  0.00    -0.206 F 
ATOM     73  C   UNL A   1      45.313  36.333  28.217  1.00  0.00     0.006 A 
ENDBRANCH  45  66
BRANCH  57  74
ATOM     74  C   UNL A   1      41.360  30.628  33.936  1.00  0.00     0.057 A 
ATOM     75  C   UNL A   1      40.376  31.605  34.139  1.00  0.00     0.134 A 
ATOM     76  C   UNL A   1      42.135  30.269  35.043  1.00  0.00     0.134 A 
ATOM     77  F   UNL A   1      39.534  31.957  33.159  1.00  0.00    -0.206 F 
ATOM     78  C   UNL A   1      40.201  32.227  35.378  1.00  0.00     0.040 A 
ATOM     79  C   UNL A   1      41.949  30.857  36.294  1.00  0.00     0.040 A 
ATOM     80  F   UNL A   1      43.066  29.308  34.932  1.00  0.00    -0.206 F 
ATOM     81  C   UNL A   1      40.987  31.849  36.463  1.00  0.00     0.006 A 
ENDBRANCH  57  74
ENDBRANCH  31  32
ENDBRANCH  23  26
ENDBRANCH  21  22
ENDBRANCH  20  21
ENDBRANCH   1  20
TORSDOF 14
ENDMDL
MODEL 2
REMARK VINA RESULT:     -11.3      4.001      9.045
REMARK SMILES C[C@H]1CC=C(C2=NN=C(C(=O)NCCCCCCNC(=O)c3ccc(-c4c5nc(c(-c6c(F)cccc6F)c6ccc([nH]6)c(-c6c(F)cccc6F)c6nc(c(-c7c(F)cccc7F)c7ccc4[nH]7)C=C6)C=C5)cc3)C2)O1
REMARK SMILES IDX 16 1 15 2 14 3 13 4 12 5 10 6 11 7 9 9 6 10 7 11 76 12 8 13
REMARK SMILES IDX 5 14 1 15 2 16 3 17 77 18 4 19 17 20 18 21 19 22 20 23 21 25
REMARK SMILES IDX 22 26 23 27 75 28 24 29 74 30 25 31 26 32 27 33 68 34 28 35
REMARK SMILES IDX 73 36 67 37 69 38 29 39 72 40 66 41 65 42 30 44 56 45 39 46
REMARK SMILES IDX 55 47 40 48 43 49 54 50 70 51 41 52 42 53 53 55 71 56 44 57
REMARK SMILES IDX 31 58 32 59 37 60 33 61 34 62 36 63 38 64 35 65 57 66 58 67
REMARK SMILES IDX 63 68 59 69 60 70 62 71 64 72 61 73 45 74 46 75 51 76 47 77
REMARK SMILES IDX 48 78 50 79 52 80 49 81
REMARK H PARENT 12 8 19 24 69 43 43 54
REMARK Flexibility Score: inf
ROOT
ATOM      1  C   UNL A   1      40.424  21.041  26.883  1.00  0.00     0.002 C 
ENDROOT
BRANCH   1   2
ATOM      2  C   UNL A   1      39.432  21.796  25.986  1.00  0.00     0.002 C 
BRANCH   2   3
ATOM      3  C   UNL A   1      38.986  23.176  26.479  1.00  0.00     0.021 C 
BRANCH   3   4
ATOM      4  C   UNL A   1      37.541  23.542  26.147  1.00  0.00     0.116 C 
BRANCH   4   5
ATOM      5  N   UNL A   1      36.769  22.374  25.762  1.00  0.00    -0.351 N 
ATOM      6  C   UNL A   1      35.660  22.262  24.964  1.00  0.00     0.267 C 
ATOM      7  O   UNL A   1      35.134  21.167  24.785  1.00  0.00    -0.268 OA
ATOM      8  H   UNL A   1      37.096  21.523  26.134  1.00  0.00     0.163 HD
BRANCH   6   9
ATOM      9  C   UNL A   1      35.061  23.440  24.251  1.00  0.00     0.134 C 
ATOM     10  C   UNL A   1      34.065  25.399  23.882  1.00  0.00     0.111 C 
ATOM     11  N   UNL A   1      34.133  24.761  22.754  1.00  0.00    -0.151 NA
ATOM     12  C   UNL A   1      34.685  24.658  25.018  1.00  0.00     0.126 C 
ATOM     13  N   UNL A   1      34.770  23.513  22.989  1.00  0.00    -0.149 NA
BRANCH  10  14
ATOM     14  C   UNL A   1      33.394  26.684  24.100  1.00  0.00     0.139 C 
ATOM     15  C   UNL A   1      30.950  29.053  23.426  1.00  0.00     0.053 C 
ATOM     16  C   UNL A   1      32.390  28.604  23.612  1.00  0.00     0.174 C 
ATOM     17  C   UNL A   1      32.838  28.666  25.079  1.00  0.00     0.076 C 
ATOM     18  O   UNL A   1      32.555  27.243  23.147  1.00  0.00    -0.489 OA
ATOM     19  C   UNL A   1      33.618  27.417  25.187  1.00  0.00     0.025 C 
ENDBRANCH  10  14
ENDBRANCH   6   9
ENDBRANCH   4   5
ENDBRANCH   3   4
ENDBRANCH   2   3
ENDBRANCH   1   2
BRANCH   1  20
ATOM     20  C   UNL A   1      41.182  19.867  26.245  1.00  0.00     0.021 C 
BRANCH  20  21
ATOM     21  C   UNL A   1      42.578  19.635  26.804  1.00  0.00     0.116 C 
BRANCH  21  22
ATOM     22  N   UNL A   1      43.594  19.508  25.758  1.00  0.00    -0.352 N 
ATOM     23  C   UNL A   1      44.135  20.498  24.954  1.00  0.00     0.251 C 
ATOM     24  H   UNL A   1      43.939  18.598  25.606  1.00  0.00     0.163 HD
ATOM     25  O   UNL A   1      44.676  20.229  23.896  1.00  0.00    -0.269 OA
BRANCH  23  26
ATOM     26  C   UNL A   1      44.050  21.897  25.410  1.00  0.00     0.039 A 
ATOM     27  C   UNL A   1      43.078  22.776  24.923  1.00  0.00     0.014 A 
ATOM     28  C   UNL A   1      44.963  22.311  26.373  1.00  0.00     0.014 A 
ATOM     29  C   UNL A   1      42.984  24.051  25.478  1.00  0.00     0.010 A 
ATOM     30  C   UNL A   1      44.752  23.484  27.042  1.00  0.00     0.010 A 
ATOM     31  C   UNL A   1      43.818  24.391  26.554  1.00  0.00    -0.014 A 
BRANCH  31  32
ATOM     32  C   UNL A   1      43.670  25.652  27.272  1.00  0.00     0.031 A 
ATOM     33  C   UNL A   1      44.667  26.689  26.898  1.00  0.00     0.074 A 
ATOM     34  C   UNL A   1      42.557  25.936  27.987  1.00  0.00     0.049 A 
ATOM     35  N   UNL A   1      45.596  27.202  27.634  1.00  0.00    -0.248 NA
ATOM     36  C   UNL A   1      44.735  27.107  25.486  1.00  0.00     0.031 C 
ATOM     37  C   UNL A   1      41.353  25.103  28.137  1.00  0.00     0.029 A 
ATOM     38  N   UNL A   1      42.203  27.083  28.631  1.00  0.00    -0.354 N 
ATOM     39  C   UNL A   1      46.208  28.179  26.848  1.00  0.00     0.074 A 
ATOM     40  C   UNL A   1      45.796  27.917  25.497  1.00  0.00     0.031 C 
ATOM     41  C   UNL A   1      40.333  25.853  28.603  1.00  0.00     0.029 A 
ATOM     42  C   UNL A   1      40.853  27.156  28.965  1.00  0.00     0.049 A 
ATOM     43  H   UNL A   1      42.845  27.799  28.841  1.00  0.00     0.167 HD
ATOM     44  C   UNL A   1      46.738  29.297  27.421  1.00  0.00     0.037 A 
ATOM     45  C   UNL A   1      40.202  28.215  29.501  1.00  0.00     0.037 A 
ATOM     46  C   UNL A   1      46.854  29.115  28.849  1.00  0.00     0.049 A 
ATOM     47  C   UNL A   1      41.223  29.095  30.106  1.00  0.00     0.074 A 
ATOM     48  C   UNL A   1      47.612  28.349  29.707  1.00  0.00     0.029 A 
ATOM     49  N   UNL A   1      45.770  29.564  29.556  1.00  0.00    -0.354 N 
ATOM     50  N   UNL A   1      41.930  28.769  31.151  1.00  0.00    -0.248 NA
ATOM     51  C   UNL A   1      41.730  30.222  29.335  1.00  0.00     0.031 C 
ATOM     52  C   UNL A   1      46.799  28.146  30.864  1.00  0.00     0.029 A 
ATOM     53  C   UNL A   1      45.595  28.828  30.692  1.00  0.00     0.049 A 
ATOM     54  H   UNL A   1      45.196  30.316  29.282  1.00  0.00     0.167 HD
ATOM     55  C   UNL A   1      43.167  29.340  30.919  1.00  0.00     0.074 A 
ATOM     56  C   UNL A   1      42.930  30.361  29.906  1.00  0.00     0.031 C 
ATOM     57  C   UNL A   1      44.304  28.710  31.334  1.00  0.00     0.037 A 
BRANCH  44  58
ATOM     58  C   UNL A   1      46.659  30.703  26.838  1.00  0.00     0.057 A 
ATOM     59  C   UNL A   1      47.822  31.502  26.862  1.00  0.00     0.134 A 
ATOM     60  C   UNL A   1      45.468  31.413  26.579  1.00  0.00     0.134 A 
ATOM     61  F   UNL A   1      49.029  30.958  27.078  1.00  0.00    -0.206 F 
ATOM     62  C   UNL A   1      47.785  32.901  26.761  1.00  0.00     0.040 A 
ATOM     63  C   UNL A   1      45.428  32.805  26.432  1.00  0.00     0.040 A 
ATOM     64  F   UNL A   1      44.266  30.832  26.546  1.00  0.00    -0.206 F 
ATOM     65  C   UNL A   1      46.580  33.559  26.563  1.00  0.00     0.006 A 
ENDBRANCH  44  58
BRANCH  45  66
ATOM     66  C   UNL A   1      38.788  28.627  29.376  1.00  0.00     0.057 A 
ATOM     67  C   UNL A   1      37.946  28.674  30.497  1.00  0.00     0.134 A 
ATOM     68  C   UNL A   1      38.313  29.262  28.216  1.00  0.00     0.134 A 
ATOM     69  F   UNL A   1      38.325  28.116  31.656  1.00  0.00    -0.206 F 
ATOM     70  C   UNL A   1      36.723  29.355  30.481  1.00  0.00     0.040 A 
ATOM     71  C   UNL A   1      37.091  29.943  28.187  1.00  0.00     0.040 A 
ATOM     72  F   UNL A   1      39.063  29.322  27.107  1.00  0.00    -0.206 F 
ATOM     73  C   UNL A   1      36.300  30.008  29.327  1.00  0.00     0.006 A 
ENDBRANCH  45  66
BRANCH  57  74
ATOM     74  C   UNL A   1      44.159  27.679  32.415  1.00  0.00     0.057 A 
ATOM     75  C   UNL A   1      44.085  26.297  32.195  1.00  0.00     0.134 A 
ATOM     76  C   UNL A   1      44.184  28.110  33.745  1.00  0.00     0.134 A 
ATOM     77  F   UNL A   1      44.135  25.786  30.958  1.00  0.00    -0.206 F 
ATOM     78  C   UNL A   1      43.998  25.388  33.253  1.00  0.00     0.040 A 
ATOM     79  C   UNL A   1      44.132  27.212  34.810  1.00  0.00     0.040 A 
ATOM     80  F   UNL A   1      44.299  29.417  34.028  1.00  0.00    -0.206 F 
ATOM     81  C   UNL A   1      44.026  25.845  34.567  1.00  0.00     0.006 A 
ENDBRANCH  57  74
ENDBRANCH  31  32
ENDBRANCH  23  26
ENDBRANCH  21  22
ENDBRANCH  20  21
ENDBRANCH   1  20
TORSDOF 14
ENDMDL
MODEL 3
REMARK VINA RESULT:     -11.1      4.204      6.514
REMARK SMILES C[C@H]1CC=C(C2=NN=C(C(=O)NCCCCCCNC(=O)c3ccc(-c4c5nc(c(-c6c(F)cccc6F)c6ccc([nH]6)c(-c6c(F)cccc6F)c6nc(c(-c7c(F)cccc7F)c7ccc4[nH]7)C=C6)C=C5)cc3)C2)O1
REMARK SMILES IDX 16 1 15 2 14 3 13 4 12 5 10 6 11 7 9 9 6 10 7 11 76 12 8 13
REMARK SMILES IDX 5 14 1 15 2 16 3 17 77 18 4 19 17 20 18 21 19 22 20 23 21 25
REMARK SMILES IDX 22 26 23 27 75 28 24 29 74 30 25 31 26 32 27 33 68 34 28 35
REMARK SMILES IDX 73 36 67 37 69 38 29 39 72 40 66 41 65 42 30 44 56 45 39 46
REMARK SMILES IDX 55 47 40 48 43 49 54 50 70 51 41 52 42 53 53 55 71 56 44 57
REMARK SMILES IDX 31 58 32 59 37 60 33 61 34 62 36 63 38 64 35 65 57 66 58 67
REMARK SMILES IDX 63 68 59 69 60 70 62 71 64 72 61 73 45 74 46 75 51 76 47 77
REMARK SMILES IDX 48 78 50 79 52 80 49 81
REMARK H PARENT 12 8 19 24 69 43 43 54
REMARK Flexibility Score: inf
ROOT
ATOM      1  C   UNL A   1      32.325  28.935  27.380  1.00  0.00     0.002 C 
ENDROOT
BRANCH   1   2
ATOM      2  C   UNL A   1      31.375  27.752  27.141  1.00  0.00     0.002 C 
BRANCH   2   3
ATOM      3  C   UNL A   1      31.907  26.625  26.249  1.00  0.00     0.021 C 
BRANCH   3   4
ATOM      4  C   UNL A   1      30.830  25.777  25.574  1.00  0.00     0.116 C 
BRANCH   4   5
ATOM      5  N   UNL A   1      30.186  24.881  26.518  1.00  0.00    -0.351 N 
ATOM      6  C   UNL A   1      30.423  23.561  26.798  1.00  0.00     0.267 C 
ATOM      7  O   UNL A   1      29.735  22.969  27.625  1.00  0.00    -0.268 OA
ATOM      8  H   UNL A   1      29.459  25.290  27.043  1.00  0.00     0.163 HD
BRANCH   6   9
ATOM      9  C   UNL A   1      31.538  22.790  26.150  1.00  0.00     0.134 C 
ATOM     10  C   UNL A   1      33.563  22.234  25.403  1.00  0.00     0.111 C 
ATOM     11  N   UNL A   1      32.706  21.394  24.910  1.00  0.00    -0.151 NA
ATOM     12  C   UNL A   1      32.945  23.246  26.310  1.00  0.00     0.126 C 
ATOM     13  N   UNL A   1      31.415  21.747  25.388  1.00  0.00    -0.149 NA
BRANCH  10  14
ATOM     14  C   UNL A   1      34.993  22.286  25.085  1.00  0.00     0.139 C 
ATOM     15  C   UNL A   1      38.336  21.642  25.750  1.00  0.00     0.053 C 
ATOM     16  C   UNL A   1      37.175  22.556  25.399  1.00  0.00     0.174 C 
ATOM     17  C   UNL A   1      36.906  22.610  23.889  1.00  0.00     0.076 C 
ATOM     18  O   UNL A   1      35.966  22.105  26.057  1.00  0.00    -0.489 OA
ATOM     19  C   UNL A   1      35.429  22.588  23.865  1.00  0.00     0.025 C 
ENDBRANCH  10  14
ENDBRANCH   6   9
ENDBRANCH   4   5
ENDBRANCH   3   4
ENDBRANCH   2   3
ENDBRANCH   1   2
BRANCH   1  20
ATOM     20  C   UNL A   1      33.560  29.030  26.471  1.00  0.00     0.021 C 
BRANCH  20  21
ATOM     21  C   UNL A   1      34.891  28.916  27.197  1.00  0.00     0.116 C 
BRANCH  21  22
ATOM     22  N   UNL A   1      35.073  29.950  28.216  1.00  0.00    -0.352 N 
ATOM     23  C   UNL A   1      36.117  30.106  29.114  1.00  0.00     0.251 C 
ATOM     24  H   UNL A   1      34.359  30.626  28.271  1.00  0.00     0.163 HD
ATOM     25  O   UNL A   1      35.982  30.758  30.134  1.00  0.00    -0.269 OA
BRANCH  23  26
ATOM     26  C   UNL A   1      37.409  29.467  28.806  1.00  0.00     0.039 A 
ATOM     27  C   UNL A   1      38.130  29.780  27.650  1.00  0.00     0.014 A 
ATOM     28  C   UNL A   1      37.904  28.551  29.726  1.00  0.00     0.014 A 
ATOM     29  C   UNL A   1      39.396  29.223  27.476  1.00  0.00     0.010 A 
ATOM     30  C   UNL A   1      39.210  28.155  29.648  1.00  0.00     0.010 A 
ATOM     31  C   UNL A   1      39.936  28.422  28.492  1.00  0.00    -0.014 A 
BRANCH  31  32
ATOM     32  C   UNL A   1      41.308  27.929  28.436  1.00  0.00     0.031 A 
ATOM     33  C   UNL A   1      41.465  26.637  27.718  1.00  0.00     0.074 A 
ATOM     34  C   UNL A   1      42.360  28.720  28.751  1.00  0.00     0.049 A 
ATOM     35  N   UNL A   1      41.833  25.497  28.202  1.00  0.00    -0.248 NA
ATOM     36  C   UNL A   1      41.020  26.566  26.314  1.00  0.00     0.031 C 
ATOM     37  C   UNL A   1      42.327  30.137  29.147  1.00  0.00     0.029 A 
ATOM     38  N   UNL A   1      43.696  28.471  28.662  1.00  0.00    -0.354 N 
ATOM     39  C   UNL A   1      41.896  24.625  27.114  1.00  0.00     0.074 A 
ATOM     40  C   UNL A   1      41.179  25.268  26.048  1.00  0.00     0.031 C 
ATOM     41  C   UNL A   1      43.559  30.675  29.024  1.00  0.00     0.029 A 
ATOM     42  C   UNL A   1      44.495  29.609  28.731  1.00  0.00     0.049 A 
ATOM     43  H   UNL A   1      44.066  27.564  28.558  1.00  0.00     0.167 HD
ATOM     44  C   UNL A   1      42.799  23.604  27.097  1.00  0.00     0.037 A 
ATOM     45  C   UNL A   1      45.836  29.676  28.558  1.00  0.00     0.037 A 
ATOM     46  C   UNL A   1      43.351  23.408  28.417  1.00  0.00     0.049 A 
ATOM     47  C   UNL A   1      46.370  28.312  28.753  1.00  0.00     0.074 A 
ATOM     48  C   UNL A   1      42.902  22.953  29.637  1.00  0.00     0.029 A 
ATOM     49  N   UNL A   1      44.509  24.103  28.644  1.00  0.00    -0.354 N 
ATOM     50  N   UNL A   1      46.367  27.693  29.900  1.00  0.00    -0.248 NA
ATOM     51  C   UNL A   1      46.598  27.468  27.589  1.00  0.00     0.031 C 
ATOM     52  C   UNL A   1      43.691  23.630  30.617  1.00  0.00     0.029 A 
ATOM     53  C   UNL A   1      44.621  24.438  29.963  1.00  0.00     0.049 A 
ATOM     54  H   UNL A   1      45.171  24.328  27.951  1.00  0.00     0.167 HD
ATOM     55  C   UNL A   1      46.148  26.369  29.574  1.00  0.00     0.074 A 
ATOM     56  C   UNL A   1      46.487  26.265  28.159  1.00  0.00     0.031 C 
ATOM     57  C   UNL A   1      45.411  25.569  30.399  1.00  0.00     0.037 A 
BRANCH  44  58
ATOM     58  C   UNL A   1      43.580  23.144  25.871  1.00  0.00     0.057 A 
ATOM     59  C   UNL A   1      43.679  21.758  25.625  1.00  0.00     0.134 A 
ATOM     60  C   UNL A   1      44.491  23.933  25.140  1.00  0.00     0.134 A 
ATOM     61  F   UNL A   1      42.862  20.887  26.237  1.00  0.00    -0.206 F 
ATOM     62  C   UNL A   1      44.682  21.200  24.818  1.00  0.00     0.040 A 
ATOM     63  C   UNL A   1      45.465  23.388  24.297  1.00  0.00     0.040 A 
ATOM     64  F   UNL A   1      44.564  25.261  25.262  1.00  0.00    -0.206 F 
ATOM     65  C   UNL A   1      45.592  22.016  24.164  1.00  0.00     0.006 A 
ENDBRANCH  44  58
BRANCH  45  66
ATOM     66  C   UNL A   1      46.678  30.781  28.054  1.00  0.00     0.057 A 
ATOM     67  C   UNL A   1      46.377  31.427  26.846  1.00  0.00     0.134 A 
ATOM     68  C   UNL A   1      47.615  31.421  28.883  1.00  0.00     0.134 A 
ATOM     69  F   UNL A   1      45.477  30.905  26.001  1.00  0.00    -0.206 F 
ATOM     70  C   UNL A   1      46.940  32.662  26.502  1.00  0.00     0.040 A 
ATOM     71  C   UNL A   1      48.186  32.654  28.549  1.00  0.00     0.040 A 
ATOM     72  F   UNL A   1      47.932  30.915  30.084  1.00  0.00    -0.206 F 
ATOM     73  C   UNL A   1      47.835  33.288  27.364  1.00  0.00     0.006 A 
ENDBRANCH  45  66
BRANCH  57  74
ATOM     74  C   UNL A   1      45.262  26.011  31.824  1.00  0.00     0.057 A 
ATOM     75  C   UNL A   1      44.163  26.717  32.330  1.00  0.00     0.134 A 
ATOM     76  C   UNL A   1      46.243  25.621  32.741  1.00  0.00     0.134 A 
ATOM     77  F   UNL A   1      43.137  27.063  31.544  1.00  0.00    -0.206 F 
ATOM     78  C   UNL A   1      44.067  27.056  33.683  1.00  0.00     0.040 A 
ATOM     79  C   UNL A   1      46.143  25.923  34.099  1.00  0.00     0.040 A 
ATOM     80  F   UNL A   1      47.302  24.903  32.333  1.00  0.00    -0.206 F 
ATOM     81  C   UNL A   1      45.058  26.655  34.573  1.00  0.00     0.006 A 
ENDBRANCH  57  74
ENDBRANCH  31  32
ENDBRANCH  23  26
ENDBRANCH  21  22
ENDBRANCH  20  21
ENDBRANCH   1  20
TORSDOF 14
ENDMDL
