MODEL 1
REMARK VINA RESULT:     -11.9      0.000      0.000
REMARK SMILES COC[C@@H](C)Nc1cnn(-c2ccccc2C(=O)NCCCCCCNC(=O)c2ccc(-c3c4nc(c(-c5c(F)cccc5F)c5ccc([nH]5)c(-c5c(F)cccc5F)c5nc(c(-c6c(F)cccc6F)c6ccc3[nH]6)C=C5)C=C4)cc2)c(=O)c1Cl
REMARK SMILES IDX 21 1 20 2 19 3 17 4 18 5 16 7 11 8 12 9 13 10 15 11 14 12
REMARK SMILES IDX 10 13 7 14 8 15 85 16 9 17 83 18 86 19 84 20 6 21 4 23 5 24
REMARK SMILES IDX 3 25 2 26 1 27 22 28 23 29 24 30 25 31 26 32 27 33 28 35
REMARK SMILES IDX 29 36 30 37 82 38 31 39 81 40 32 41 33 42 34 43 75 44 35 45
REMARK SMILES IDX 80 46 74 47 76 48 36 49 79 50 73 51 72 52 37 54 63 55 46 56
REMARK SMILES IDX 62 57 47 58 50 59 61 60 77 61 48 62 49 63 60 65 78 66 51 67
REMARK SMILES IDX 38 68 39 69 44 70 40 71 41 72 43 73 45 74 42 75 64 76 65 77
REMARK SMILES IDX 70 78 66 79 67 80 69 81 71 82 68 83 52 84 53 85 58 86 54 87
REMARK SMILES IDX 55 88 57 89 59 90 56 91
REMARK H PARENT 19 6 6 22 26 34 76 53 50 64
REMARK Flexibility Score: inf
ROOT
ATOM      1  C   UNL A   1      34.720  30.830  28.002  1.00  0.00     0.021 C 
ENDROOT
BRANCH   1   2
ATOM      2  C   UNL A   1      33.641  30.324  27.040  1.00  0.00     0.116 C 
BRANCH   2   3
ATOM      3  N   UNL A   1      32.546  29.580  27.607  1.00  0.00    -0.352 N 
ATOM      4  C   UNL A   1      31.762  28.554  27.122  1.00  0.00     0.253 C 
ATOM      5  O   UNL A   1      31.127  27.949  27.999  1.00  0.00    -0.269 OA
ATOM      6  H   UNL A   1      32.311  29.859  28.521  1.00  0.00     0.163 HD
BRANCH   4   7
ATOM      7  C   UNL A   1      31.482  28.158  25.695  1.00  0.00     0.065 A 
ATOM      8  C   UNL A   1      31.352  26.903  25.069  1.00  0.00     0.081 A 
ATOM      9  C   UNL A   1      30.994  26.851  23.692  1.00  0.00     0.029 A 
ATOM     10  C   UNL A   1      30.838  27.986  22.907  1.00  0.00     0.002 A 
ATOM     11  C   UNL A   1      31.317  29.301  24.858  1.00  0.00     0.016 A 
ATOM     12  C   UNL A   1      31.020  29.221  23.491  1.00  0.00     0.001 A 
BRANCH   8  13
ATOM     13  N   UNL A   1      31.617  25.642  25.662  1.00  0.00    -0.195 N 
ATOM     14  C   UNL A   1      32.108  23.011  26.448  1.00  0.00     0.079 A 
ATOM     15  C   UNL A   1      33.138  24.045  26.126  1.00  0.00     0.161 A 
ATOM     16  C   UNL A   1      30.897  23.543  26.683  1.00  0.00     0.132 A 
ATOM     17  N   UNL A   1      32.926  25.254  25.715  1.00  0.00    -0.171 NA
ATOM     18  C   UNL A   1      30.566  24.917  26.238  1.00  0.00     0.292 A 
ATOM     19  Cl  UNL A   1      29.566  22.666  27.373  1.00  0.00    -0.076 Cl
ATOM     20  O   UNL A   1      29.392  25.296  26.279  1.00  0.00    -0.266 OA
BRANCH  14  21
ATOM     21  N   UNL A   1      32.520  21.687  26.473  1.00  0.00    -0.378 N 
ATOM     22  H   UNL A   1      32.446  21.209  27.331  1.00  0.00     0.161 HD
BRANCH  21  23
ATOM     23  C   UNL A   1      33.055  20.937  25.330  1.00  0.00     0.102 C 
ATOM     24  C   UNL A   1      32.169  21.176  24.118  1.00  0.00     0.033 C 
BRANCH  23  25
ATOM     25  C   UNL A   1      33.232  19.455  25.676  1.00  0.00     0.184 C 
BRANCH  25  26
ATOM     26  O   UNL A   1      32.101  18.706  25.220  1.00  0.00    -0.383 OA
ATOM     27  C   UNL A   1      32.401  17.380  24.801  1.00  0.00     0.194 C 
ENDBRANCH  25  26
ENDBRANCH  23  25
ENDBRANCH  21  23
ENDBRANCH  14  21
ENDBRANCH   8  13
ENDBRANCH   4   7
ENDBRANCH   2   3
ENDBRANCH   1   2
BRANCH   1  28
ATOM     28  C   UNL A   1      35.425  32.165  27.711  1.00  0.00     0.002 C 
BRANCH  28  29
ATOM     29  C   UNL A   1      34.963  33.469  28.391  1.00  0.00     0.002 C 
BRANCH  29  30
ATOM     30  C   UNL A   1      34.184  33.467  29.736  1.00  0.00     0.021 C 
BRANCH  30  31
ATOM     31  C   UNL A   1      34.751  34.306  30.902  1.00  0.00     0.116 C 
BRANCH  31  32
ATOM     32  N   UNL A   1      34.964  33.586  32.167  1.00  0.00    -0.352 N 
ATOM     33  C   UNL A   1      35.842  32.709  32.770  1.00  0.00     0.251 C 
ATOM     34  H   UNL A   1      34.236  33.802  32.794  1.00  0.00     0.163 HD
ATOM     35  O   UNL A   1      35.630  32.504  33.971  1.00  0.00    -0.269 OA
BRANCH  33  36
ATOM     36  C   UNL A   1      36.961  31.921  32.163  1.00  0.00     0.039 A 
ATOM     37  C   UNL A   1      37.862  31.115  32.840  1.00  0.00     0.014 A 
ATOM     38  C   UNL A   1      37.005  31.842  30.762  1.00  0.00     0.014 A 
ATOM     39  C   UNL A   1      38.919  30.445  32.159  1.00  0.00     0.010 A 
ATOM     40  C   UNL A   1      37.989  31.089  30.078  1.00  0.00     0.010 A 
ATOM     41  C   UNL A   1      39.039  30.453  30.757  1.00  0.00    -0.014 A 
BRANCH  41  42
ATOM     42  C   UNL A   1      40.253  29.912  30.007  1.00  0.00     0.031 A 
ATOM     43  C   UNL A   1      41.489  30.793  29.802  1.00  0.00     0.074 A 
ATOM     44  C   UNL A   1      40.343  28.650  29.517  1.00  0.00     0.049 A 
ATOM     45  N   UNL A   1      42.565  30.584  29.073  1.00  0.00    -0.248 NA
ATOM     46  C   UNL A   1      41.505  32.088  30.497  1.00  0.00     0.031 C 
ATOM     47  C   UNL A   1      39.310  27.621  29.595  1.00  0.00     0.029 A 
ATOM     48  N   UNL A   1      41.383  28.011  28.860  1.00  0.00    -0.354 N 
ATOM     49  C   UNL A   1      43.332  31.746  29.161  1.00  0.00     0.074 A 
ATOM     50  C   UNL A   1      42.590  32.662  30.000  1.00  0.00     0.031 C 
ATOM     51  C   UNL A   1      39.787  26.470  29.088  1.00  0.00     0.029 A 
ATOM     52  C   UNL A   1      41.137  26.686  28.569  1.00  0.00     0.049 A 
ATOM     53  H   UNL A   1      42.224  28.463  28.622  1.00  0.00     0.167 HD
ATOM     54  C   UNL A   1      44.543  32.042  28.623  1.00  0.00     0.037 A 
ATOM     55  C   UNL A   1      41.884  25.747  27.945  1.00  0.00     0.037 A 
ATOM     56  C   UNL A   1      45.372  31.137  27.868  1.00  0.00     0.049 A 
ATOM     57  C   UNL A   1      43.238  26.087  27.370  1.00  0.00     0.074 A 
ATOM     58  C   UNL A   1      46.618  31.374  27.305  1.00  0.00     0.029 A 
ATOM     59  N   UNL A   1      45.065  29.816  27.602  1.00  0.00    -0.354 N 
ATOM     60  N   UNL A   1      43.904  27.213  27.419  1.00  0.00    -0.248 NA
ATOM     61  C   UNL A   1      43.935  25.018  26.629  1.00  0.00     0.031 C 
ATOM     62  C   UNL A   1      47.057  30.199  26.683  1.00  0.00     0.029 A 
ATOM     63  C   UNL A   1      46.097  29.224  26.888  1.00  0.00     0.049 A 
ATOM     64  H   UNL A   1      44.236  29.362  27.878  1.00  0.00     0.167 HD
ATOM     65  C   UNL A   1      45.094  26.982  26.734  1.00  0.00     0.074 A 
ATOM     66  C   UNL A   1      45.078  25.603  26.304  1.00  0.00     0.031 C 
ATOM     67  C   UNL A   1      46.102  27.848  26.470  1.00  0.00     0.037 A 
BRANCH  54  68
ATOM     68  C   UNL A   1      45.062  33.439  28.825  1.00  0.00     0.057 A 
ATOM     69  C   UNL A   1      45.871  33.741  29.929  1.00  0.00     0.134 A 
ATOM     70  C   UNL A   1      44.739  34.488  27.954  1.00  0.00     0.134 A 
ATOM     71  F   UNL A   1      46.205  32.787  30.810  1.00  0.00    -0.206 F 
ATOM     72  C   UNL A   1      46.346  35.034  30.154  1.00  0.00     0.040 A 
ATOM     73  C   UNL A   1      45.229  35.779  28.155  1.00  0.00     0.040 A 
ATOM     74  F   UNL A   1      43.978  34.262  26.873  1.00  0.00    -0.206 F 
ATOM     75  C   UNL A   1      46.032  36.057  29.261  1.00  0.00     0.006 A 
ENDBRANCH  54  68
BRANCH  55  76
ATOM     76  C   UNL A   1      41.377  24.354  27.787  1.00  0.00     0.057 A 
ATOM     77  C   UNL A   1      40.420  24.025  26.820  1.00  0.00     0.134 A 
ATOM     78  C   UNL A   1      41.912  23.300  28.544  1.00  0.00     0.134 A 
ATOM     79  F   UNL A   1      39.880  24.982  26.052  1.00  0.00    -0.206 F 
ATOM     80  C   UNL A   1      40.008  22.707  26.616  1.00  0.00     0.040 A 
ATOM     81  C   UNL A   1      41.531  21.974  28.328  1.00  0.00     0.040 A 
ATOM     82  F   UNL A   1      42.867  23.541  29.455  1.00  0.00    -0.206 F 
ATOM     83  C   UNL A   1      40.573  21.676  27.363  1.00  0.00     0.006 A 
ENDBRANCH  55  76
BRANCH  67  84
ATOM     84  C   UNL A   1      47.291  27.325  25.716  1.00  0.00     0.057 A 
ATOM     85  C   UNL A   1      47.358  27.429  24.320  1.00  0.00     0.134 A 
ATOM     86  C   UNL A   1      48.371  26.715  26.367  1.00  0.00     0.134 A 
ATOM     87  F   UNL A   1      46.356  27.995  23.631  1.00  0.00    -0.206 F 
ATOM     88  C   UNL A   1      48.459  26.956  23.602  1.00  0.00     0.040 A 
ATOM     89  C   UNL A   1      49.488  26.257  25.663  1.00  0.00     0.040 A 
ATOM     90  F   UNL A   1      48.377  26.594  27.704  1.00  0.00    -0.206 F 
ATOM     91  C   UNL A   1      49.533  26.376  24.275  1.00  0.00     0.006 A 
ENDBRANCH  67  84
ENDBRANCH  41  42
ENDBRANCH  33  36
ENDBRANCH  31  32
ENDBRANCH  30  31
ENDBRANCH  29  30
ENDBRANCH  28  29
ENDBRANCH   1  28
TORSDOF 18
ENDMDL
MODEL 2
REMARK VINA RESULT:     -11.7      2.448      4.938
REMARK SMILES COC[C@@H](C)Nc1cnn(-c2ccccc2C(=O)NCCCCCCNC(=O)c2ccc(-c3c4nc(c(-c5c(F)cccc5F)c5ccc([nH]5)c(-c5c(F)cccc5F)c5nc(c(-c6c(F)cccc6F)c6ccc3[nH]6)C=C5)C=C4)cc2)c(=O)c1Cl
REMARK SMILES IDX 21 1 20 2 19 3 17 4 18 5 16 7 11 8 12 9 13 10 15 11 14 12
REMARK SMILES IDX 10 13 7 14 8 15 85 16 9 17 83 18 86 19 84 20 6 21 4 23 5 24
REMARK SMILES IDX 3 25 2 26 1 27 22 28 23 29 24 30 25 31 26 32 27 33 28 35
REMARK SMILES IDX 29 36 30 37 82 38 31 39 81 40 32 41 33 42 34 43 75 44 35 45
REMARK SMILES IDX 80 46 74 47 76 48 36 49 79 50 73 51 72 52 37 54 63 55 46 56
REMARK SMILES IDX 62 57 47 58 50 59 61 60 77 61 48 62 49 63 60 65 78 66 51 67
REMARK SMILES IDX 38 68 39 69 44 70 40 71 41 72 43 73 45 74 42 75 64 76 65 77
REMARK SMILES IDX 70 78 66 79 67 80 69 81 71 82 68 83 52 84 53 85 58 86 54 87
REMARK SMILES IDX 55 88 57 89 59 90 56 91
REMARK H PARENT 19 6 6 22 26 34 76 53 50 64
REMARK Flexibility Score: inf
ROOT
ATOM      1  C   UNL A   1      30.791  25.688  26.436  1.00  0.00     0.021 C 
ENDROOT
BRANCH   1   2
ATOM      2  C   UNL A   1      31.947  24.691  26.315  1.00  0.00     0.116 C 
BRANCH   2   3
ATOM      3  N   UNL A   1      31.684  23.454  25.626  1.00  0.00    -0.352 N 
ATOM      4  C   UNL A   1      32.509  22.512  25.047  1.00  0.00     0.253 C 
ATOM      5  O   UNL A   1      31.953  21.425  24.828  1.00  0.00    -0.269 OA
ATOM      6  H   UNL A   1      30.726  23.237  25.555  1.00  0.00     0.163 HD
BRANCH   4   7
ATOM      7  C   UNL A   1      33.921  22.658  24.545  1.00  0.00     0.065 A 
ATOM      8  C   UNL A   1      34.562  23.668  23.800  1.00  0.00     0.081 A 
ATOM      9  C   UNL A   1      35.959  23.560  23.547  1.00  0.00     0.029 A 
ATOM     10  C   UNL A   1      36.716  22.462  23.936  1.00  0.00     0.002 A 
ATOM     11  C   UNL A   1      34.729  21.546  24.925  1.00  0.00     0.016 A 
ATOM     12  C   UNL A   1      36.091  21.438  24.615  1.00  0.00     0.001 A 
BRANCH   8  13
ATOM     13  N   UNL A   1      33.933  24.785  23.192  1.00  0.00    -0.195 N 
ATOM     14  C   UNL A   1      32.369  26.880  22.221  1.00  0.00     0.079 A 
ATOM     15  C   UNL A   1      33.329  26.949  23.365  1.00  0.00     0.161 A 
ATOM     16  C   UNL A   1      32.570  25.806  21.441  1.00  0.00     0.132 A 
ATOM     17  N   UNL A   1      34.025  25.975  23.857  1.00  0.00    -0.171 NA
ATOM     18  C   UNL A   1      33.348  24.642  21.927  1.00  0.00     0.292 A 
ATOM     19  Cl  UNL A   1      31.843  25.586  19.880  1.00  0.00    -0.076 Cl
ATOM     20  O   UNL A   1      33.336  23.594  21.274  1.00  0.00    -0.266 OA
BRANCH  14  21
ATOM     21  N   UNL A   1      31.435  27.900  22.110  1.00  0.00    -0.378 N 
ATOM     22  H   UNL A   1      31.419  28.404  21.264  1.00  0.00     0.161 HD
BRANCH  21  23
ATOM     23  C   UNL A   1      30.471  28.292  23.144  1.00  0.00     0.102 C 
ATOM     24  C   UNL A   1      29.336  27.281  23.176  1.00  0.00     0.033 C 
BRANCH  23  25
ATOM     25  C   UNL A   1      29.999  29.736  22.941  1.00  0.00     0.184 C 
BRANCH  25  26
ATOM     26  O   UNL A   1      29.752  29.981  21.554  1.00  0.00    -0.383 OA
ATOM     27  C   UNL A   1      28.432  30.423  21.259  1.00  0.00     0.194 C 
ENDBRANCH  25  26
ENDBRANCH  23  25
ENDBRANCH  21  23
ENDBRANCH  14  21
ENDBRANCH   8  13
ENDBRANCH   4   7
ENDBRANCH   2   3
ENDBRANCH   1   2
BRANCH   1  28
ATOM     28  C   UNL A   1      31.070  27.191  26.272  1.00  0.00     0.002 C 
BRANCH  28  29
ATOM     29  C   UNL A   1      32.019  27.929  27.238  1.00  0.00     0.002 C 
BRANCH  29  30
ATOM     30  C   UNL A   1      32.272  29.459  27.138  1.00  0.00     0.021 C 
BRANCH  30  31
ATOM     31  C   UNL A   1      33.737  29.949  27.101  1.00  0.00     0.116 C 
BRANCH  31  32
ATOM     32  N   UNL A   1      34.225  30.603  28.326  1.00  0.00    -0.352 N 
ATOM     33  C   UNL A   1      35.375  30.769  29.070  1.00  0.00     0.251 C 
ATOM     34  H   UNL A   1      33.483  31.085  28.758  1.00  0.00     0.163 HD
ATOM     35  O   UNL A   1      35.280  31.577  30.002  1.00  0.00    -0.269 OA
BRANCH  33  36
ATOM     36  C   UNL A   1      36.689  30.061  28.956  1.00  0.00     0.039 A 
ATOM     37  C   UNL A   1      37.296  29.288  29.932  1.00  0.00     0.014 A 
ATOM     38  C   UNL A   1      37.290  30.023  27.687  1.00  0.00     0.014 A 
ATOM     39  C   UNL A   1      38.576  28.697  29.725  1.00  0.00     0.010 A 
ATOM     40  C   UNL A   1      38.509  29.345  27.448  1.00  0.00     0.010 A 
ATOM     41  C   UNL A   1      39.241  28.750  28.487  1.00  0.00    -0.014 A 
BRANCH  41  42
ATOM     42  C   UNL A   1      40.684  28.298  28.279  1.00  0.00     0.031 A 
ATOM     43  C   UNL A   1      41.840  29.277  28.508  1.00  0.00     0.074 A 
ATOM     44  C   UNL A   1      41.042  27.038  27.927  1.00  0.00     0.049 A 
ATOM     45  N   UNL A   1      43.123  29.144  28.250  1.00  0.00    -0.248 NA
ATOM     46  C   UNL A   1      41.499  30.584  29.088  1.00  0.00     0.031 C 
ATOM     47  C   UNL A   1      40.132  25.927  27.665  1.00  0.00     0.029 A 
ATOM     48  N   UNL A   1      42.296  26.475  27.745  1.00  0.00    -0.354 N 
ATOM     49  C   UNL A   1      43.715  30.369  28.559  1.00  0.00     0.074 A 
ATOM     50  C   UNL A   1      42.648  31.237  29.007  1.00  0.00     0.031 C 
ATOM     51  C   UNL A   1      40.846  24.809  27.437  1.00  0.00     0.029 A 
ATOM     52  C   UNL A   1      42.273  25.128  27.454  1.00  0.00     0.049 A 
ATOM     53  H   UNL A   1      43.130  26.992  27.818  1.00  0.00     0.167 HD
ATOM     54  C   UNL A   1      45.016  30.755  28.502  1.00  0.00     0.037 A 
ATOM     55  C   UNL A   1      43.265  24.242  27.208  1.00  0.00     0.037 A 
ATOM     56  C   UNL A   1      46.131  29.908  28.164  1.00  0.00     0.049 A 
ATOM     57  C   UNL A   1      44.709  24.684  27.169  1.00  0.00     0.074 A 
ATOM     58  C   UNL A   1      47.477  30.237  28.100  1.00  0.00     0.029 A 
ATOM     59  N   UNL A   1      46.042  28.559  27.873  1.00  0.00    -0.354 N 
ATOM     60  N   UNL A   1      45.225  25.864  27.405  1.00  0.00    -0.248 NA
ATOM     61  C   UNL A   1      45.708  23.662  26.803  1.00  0.00     0.031 C 
ATOM     62  C   UNL A   1      48.201  29.090  27.753  1.00  0.00     0.029 A 
ATOM     63  C   UNL A   1      47.307  28.042  27.633  1.00  0.00     0.049 A 
ATOM     64  H   UNL A   1      45.205  28.042  27.840  1.00  0.00     0.167 HD
ATOM     65  C   UNL A   1      46.599  25.720  27.232  1.00  0.00     0.074 A 
ATOM     66  C   UNL A   1      46.844  24.335  26.901  1.00  0.00     0.031 C 
ATOM     67  C   UNL A   1      47.568  26.663  27.322  1.00  0.00     0.037 A 
BRANCH  54  68
ATOM     68  C   UNL A   1      45.320  32.196  28.810  1.00  0.00     0.057 A 
ATOM     69  C   UNL A   1      45.274  33.161  27.795  1.00  0.00     0.134 A 
ATOM     70  C   UNL A   1      45.686  32.623  30.092  1.00  0.00     0.134 A 
ATOM     71  F   UNL A   1      44.947  32.816  26.541  1.00  0.00    -0.206 F 
ATOM     72  C   UNL A   1      45.576  34.500  28.046  1.00  0.00     0.040 A 
ATOM     73  C   UNL A   1      45.964  33.964  30.361  1.00  0.00     0.040 A 
ATOM     74  F   UNL A   1      45.737  31.751  31.110  1.00  0.00    -0.206 F 
ATOM     75  C   UNL A   1      45.914  34.907  29.335  1.00  0.00     0.006 A 
ENDBRANCH  54  68
BRANCH  55  76
ATOM     76  C   UNL A   1      42.955  22.808  26.946  1.00  0.00     0.057 A 
ATOM     77  C   UNL A   1      42.537  21.948  27.967  1.00  0.00     0.134 A 
ATOM     78  C   UNL A   1      42.981  22.290  25.641  1.00  0.00     0.134 A 
ATOM     79  F   UNL A   1      42.475  22.383  29.233  1.00  0.00    -0.206 F 
ATOM     80  C   UNL A   1      42.166  20.627  27.707  1.00  0.00     0.040 A 
ATOM     81  C   UNL A   1      42.581  20.981  25.364  1.00  0.00     0.040 A 
ATOM     82  F   UNL A   1      43.327  23.075  24.610  1.00  0.00    -0.206 F 
ATOM     83  C   UNL A   1      42.176  20.144  26.400  1.00  0.00     0.006 A 
ENDBRANCH  55  76
BRANCH  67  84
ATOM     84  C   UNL A   1      48.987  26.226  27.100  1.00  0.00     0.057 A 
ATOM     85  C   UNL A   1      49.773  25.770  28.167  1.00  0.00     0.134 A 
ATOM     86  C   UNL A   1      49.581  26.254  25.831  1.00  0.00     0.134 A 
ATOM     87  F   UNL A   1      49.272  25.723  29.410  1.00  0.00    -0.206 F 
ATOM     88  C   UNL A   1      51.093  25.352  27.978  1.00  0.00     0.040 A 
ATOM     89  C   UNL A   1      50.893  25.818  25.626  1.00  0.00     0.040 A 
ATOM     90  F   UNL A   1      48.881  26.667  24.763  1.00  0.00    -0.206 F 
ATOM     91  C   UNL A   1      51.653  25.366  26.703  1.00  0.00     0.006 A 
ENDBRANCH  67  84
ENDBRANCH  41  42
ENDBRANCH  33  36
ENDBRANCH  31  32
ENDBRANCH  30  31
ENDBRANCH  29  30
ENDBRANCH  28  29
ENDBRANCH   1  28
TORSDOF 18
ENDMDL
MODEL 3
REMARK VINA RESULT:     -11.6      3.838      7.992
REMARK SMILES COC[C@@H](C)Nc1cnn(-c2ccccc2C(=O)NCCCCCCNC(=O)c2ccc(-c3c4nc(c(-c5c(F)cccc5F)c5ccc([nH]5)c(-c5c(F)cccc5F)c5nc(c(-c6c(F)cccc6F)c6ccc3[nH]6)C=C5)C=C4)cc2)c(=O)c1Cl
REMARK SMILES IDX 21 1 20 2 19 3 17 4 18 5 16 7 11 8 12 9 13 10 15 11 14 12
REMARK SMILES IDX 10 13 7 14 8 15 85 16 9 17 83 18 86 19 84 20 6 21 4 23 5 24
REMARK SMILES IDX 3 25 2 26 1 27 22 28 23 29 24 30 25 31 26 32 27 33 28 35
REMARK SMILES IDX 29 36 30 37 82 38 31 39 81 40 32 41 33 42 34 43 75 44 35 45
REMARK SMILES IDX 80 46 74 47 76 48 36 49 79 50 73 51 72 52 37 54 63 55 46 56
REMARK SMILES IDX 62 57 47 58 50 59 61 60 77 61 48 62 49 63 60 65 78 66 51 67
REMARK SMILES IDX 38 68 39 69 44 70 40 71 41 72 43 73 45 74 42 75 64 76 65 77
REMARK SMILES IDX 70 78 66 79 67 80 69 81 71 82 68 83 52 84 53 85 58 86 54 87
REMARK SMILES IDX 55 88 57 89 59 90 56 91
REMARK H PARENT 19 6 6 22 26 34 76 53 50 64
REMARK Flexibility Score: inf
ROOT
ATOM      1  C   UNL A   1      34.051  26.552  25.175  1.00  0.00     0.021 C 
ENDROOT
BRANCH   1   2
ATOM      2  C   UNL A   1      33.962  26.618  23.647  1.00  0.00     0.116 C 
BRANCH   2   3
ATOM      3  N   UNL A   1      34.169  25.393  22.919  1.00  0.00    -0.352 N 
ATOM      4  C   UNL A   1      33.608  24.137  23.024  1.00  0.00     0.253 C 
ATOM      5  O   UNL A   1      33.796  23.419  22.030  1.00  0.00    -0.269 OA
ATOM      6  H   UNL A   1      34.843  25.467  22.206  1.00  0.00     0.163 HD
BRANCH   4   7
ATOM      7  C   UNL A   1      32.921  23.493  24.199  1.00  0.00     0.065 A 
ATOM      8  C   UNL A   1      33.414  22.793  25.318  1.00  0.00     0.081 A 
ATOM      9  C   UNL A   1      32.503  22.368  26.326  1.00  0.00     0.029 A 
ATOM     10  C   UNL A   1      31.129  22.544  26.226  1.00  0.00     0.002 A 
ATOM     11  C   UNL A   1      31.505  23.652  24.130  1.00  0.00     0.016 A 
ATOM     12  C   UNL A   1      30.624  23.175  25.109  1.00  0.00     0.001 A 
BRANCH   8  13
ATOM     13  N   UNL A   1      34.758  22.388  25.524  1.00  0.00    -0.195 N 
ATOM     14  C   UNL A   1      37.478  21.768  25.567  1.00  0.00     0.079 A 
ATOM     15  C   UNL A   1      36.833  22.964  26.190  1.00  0.00     0.161 A 
ATOM     16  C   UNL A   1      36.596  20.797  25.277  1.00  0.00     0.132 A 
ATOM     17  N   UNL A   1      35.581  23.289  26.138  1.00  0.00    -0.171 NA
ATOM     18  C   UNL A   1      35.144  21.084  25.188  1.00  0.00     0.292 A 
ATOM     19  Cl  UNL A   1      37.040  19.178  24.834  1.00  0.00    -0.076 Cl
ATOM     20  O   UNL A   1      34.390  20.228  24.716  1.00  0.00    -0.266 OA
BRANCH  14  21
ATOM     21  N   UNL A   1      38.852  21.806  25.385  1.00  0.00    -0.378 N 
ATOM     22  H   UNL A   1      39.182  22.165  24.529  1.00  0.00     0.161 HD
BRANCH  21  23
ATOM     23  C   UNL A   1      39.855  21.358  26.358  1.00  0.00     0.102 C 
ATOM     24  C   UNL A   1      41.041  22.309  26.324  1.00  0.00     0.033 C 
BRANCH  23  25
ATOM     25  C   UNL A   1      40.238  19.894  26.122  1.00  0.00     0.184 C 
BRANCH  25  26
ATOM     26  O   UNL A   1      41.529  19.816  25.510  1.00  0.00    -0.383 OA
ATOM     27  C   UNL A   1      42.402  18.856  26.094  1.00  0.00     0.194 C 
ENDBRANCH  25  26
ENDBRANCH  23  25
ENDBRANCH  21  23
ENDBRANCH  14  21
ENDBRANCH   8  13
ENDBRANCH   4   7
ENDBRANCH   2   3
ENDBRANCH   1   2
BRANCH   1  28
ATOM     28  C   UNL A   1      32.767  26.670  26.012  1.00  0.00     0.002 C 
BRANCH  28  29
ATOM     29  C   UNL A   1      31.398  26.885  25.334  1.00  0.00     0.002 C 
BRANCH  29  30
ATOM     30  C   UNL A   1      30.831  28.304  25.050  1.00  0.00     0.021 C 
BRANCH  30  31
ATOM     31  C   UNL A   1      31.838  29.457  24.841  1.00  0.00     0.116 C 
BRANCH  31  32
ATOM     32  N   UNL A   1      31.716  30.592  25.769  1.00  0.00    -0.352 N 
ATOM     33  C   UNL A   1      32.439  31.290  26.713  1.00  0.00     0.251 C 
ATOM     34  H   UNL A   1      30.817  30.986  25.688  1.00  0.00     0.163 HD
ATOM     35  O   UNL A   1      31.890  32.316  27.136  1.00  0.00    -0.269 OA
BRANCH  33  36
ATOM     36  C   UNL A   1      33.750  30.947  27.349  1.00  0.00     0.039 A 
ATOM     37  C   UNL A   1      34.304  29.682  27.464  1.00  0.00     0.014 A 
ATOM     38  C   UNL A   1      34.589  32.015  27.709  1.00  0.00     0.014 A 
ATOM     39  C   UNL A   1      35.544  29.470  28.132  1.00  0.00     0.010 A 
ATOM     40  C   UNL A   1      35.870  31.812  28.275  1.00  0.00     0.010 A 
ATOM     41  C   UNL A   1      36.341  30.531  28.600  1.00  0.00    -0.014 A 
BRANCH  41  42
ATOM     42  C   UNL A   1      37.573  30.342  29.481  1.00  0.00     0.031 A 
ATOM     43  C   UNL A   1      38.826  29.662  28.921  1.00  0.00     0.074 A 
ATOM     44  C   UNL A   1      37.663  30.775  30.763  1.00  0.00     0.049 A 
ATOM     45  N   UNL A   1      39.922  29.271  29.536  1.00  0.00    -0.248 NA
ATOM     46  C   UNL A   1      38.834  29.368  27.481  1.00  0.00     0.031 C 
ATOM     47  C   UNL A   1      36.616  31.459  31.516  1.00  0.00     0.029 A 
ATOM     48  N   UNL A   1      38.716  30.714  31.663  1.00  0.00    -0.354 N 
ATOM     49  C   UNL A   1      40.700  28.622  28.577  1.00  0.00     0.074 A 
ATOM     50  C   UNL A   1      39.943  28.656  27.345  1.00  0.00     0.031 C 
ATOM     51  C   UNL A   1      37.094  31.822  32.720  1.00  0.00     0.029 A 
ATOM     52  C   UNL A   1      38.463  31.330  32.870  1.00  0.00     0.049 A 
ATOM     53  H   UNL A   1      39.570  30.270  31.458  1.00  0.00     0.167 HD
ATOM     54  C   UNL A   1      41.932  28.060  28.680  1.00  0.00     0.037 A 
ATOM     55  C   UNL A   1      39.218  31.476  33.983  1.00  0.00     0.037 A 
ATOM     56  C   UNL A   1      42.775  28.086  29.849  1.00  0.00     0.049 A 
ATOM     57  C   UNL A   1      40.596  30.862  34.073  1.00  0.00     0.074 A 
ATOM     58  C   UNL A   1      44.041  27.544  30.012  1.00  0.00     0.029 A 
ATOM     59  N   UNL A   1      42.460  28.717  31.038  1.00  0.00    -0.354 N 
ATOM     60  N   UNL A   1      41.274  30.202  33.169  1.00  0.00    -0.248 NA
ATOM     61  C   UNL A   1      41.303  31.000  35.361  1.00  0.00     0.031 C 
ATOM     62  C   UNL A   1      44.485  27.833  31.308  1.00  0.00     0.029 A 
ATOM     63  C   UNL A   1      43.507  28.582  31.937  1.00  0.00     0.049 A 
ATOM     64  H   UNL A   1      41.617  29.192  31.220  1.00  0.00     0.167 HD
ATOM     65  C   UNL A   1      42.482  29.863  33.771  1.00  0.00     0.074 A 
ATOM     66  C   UNL A   1      42.463  30.414  35.106  1.00  0.00     0.031 C 
ATOM     67  C   UNL A   1      43.509  29.141  33.262  1.00  0.00     0.037 A 
BRANCH  54  68
ATOM     68  C   UNL A   1      42.462  27.339  27.470  1.00  0.00     0.057 A 
ATOM     69  C   UNL A   1      43.167  28.038  26.481  1.00  0.00     0.134 A 
ATOM     70  C   UNL A   1      42.249  25.969  27.267  1.00  0.00     0.134 A 
ATOM     71  F   UNL A   1      43.391  29.354  26.607  1.00  0.00    -0.206 F 
ATOM     72  C   UNL A   1      43.648  27.399  25.338  1.00  0.00     0.040 A 
ATOM     73  C   UNL A   1      42.748  25.315  26.140  1.00  0.00     0.040 A 
ATOM     74  F   UNL A   1      41.592  25.241  28.181  1.00  0.00    -0.206 F 
ATOM     75  C   UNL A   1      43.446  26.031  25.168  1.00  0.00     0.006 A 
ENDBRANCH  54  68
BRANCH  55  76
ATOM     76  C   UNL A   1      38.699  32.229  35.160  1.00  0.00     0.057 A 
ATOM     77  C   UNL A   1      38.180  31.573  36.281  1.00  0.00     0.134 A 
ATOM     78  C   UNL A   1      38.801  33.627  35.225  1.00  0.00     0.134 A 
ATOM     79  F   UNL A   1      38.071  30.237  36.291  1.00  0.00    -0.206 F 
ATOM     80  C   UNL A   1      37.773  32.274  37.418  1.00  0.00     0.040 A 
ATOM     81  C   UNL A   1      38.426  34.338  36.368  1.00  0.00     0.040 A 
ATOM     82  F   UNL A   1      39.333  34.314  34.203  1.00  0.00    -0.206 F 
ATOM     83  C   UNL A   1      37.906  33.660  37.467  1.00  0.00     0.006 A 
ENDBRANCH  55  76
BRANCH  67  84
ATOM     84  C   UNL A   1      44.715  28.936  34.133  1.00  0.00     0.057 A 
ATOM     85  C   UNL A   1      45.771  29.857  34.125  1.00  0.00     0.134 A 
ATOM     86  C   UNL A   1      44.836  27.827  34.981  1.00  0.00     0.134 A 
ATOM     87  F   UNL A   1      45.726  30.938  33.332  1.00  0.00    -0.206 F 
ATOM     88  C   UNL A   1      46.897  29.688  34.935  1.00  0.00     0.040 A 
ATOM     89  C   UNL A   1      45.948  27.658  35.812  1.00  0.00     0.040 A 
ATOM     90  F   UNL A   1      43.857  26.913  35.048  1.00  0.00    -0.206 F 
ATOM     91  C   UNL A   1      46.983  28.590  35.789  1.00  0.00     0.006 A 
ENDBRANCH  67  84
ENDBRANCH  41  42
ENDBRANCH  33  36
ENDBRANCH  31  32
ENDBRANCH  30  31
ENDBRANCH  29  30
ENDBRANCH  28  29
ENDBRANCH   1  28
TORSDOF 18
ENDMDL
