MODEL 1
REMARK VINA RESULT:     -11.9      0.000      0.000
REMARK SMILES CC1=C[C@H](C)[C@H](CN2C[C@]34C=C[C@@H](O3)[C@H](C(=O)NCCCCCCNC(=O)c3ccc(-c5c6nc(c(-c7c(F)cccc7F)c7ccc([nH]7)c(-c7c(F)cccc7F)c7nc(c(-c8c(F)cccc8F)c8ccc5[nH]8)C=C7)C=C6)cc3)[C@@H]4C2=O)[C@H](C)C1
REMARK SMILES IDX 21 1 20 2 19 3 18 4 16 5 17 6 15 8 8 9 9 10 83 11 10 12
REMARK SMILES IDX 82 13 84 14 11 15 14 16 12 17 13 18 7 19 6 20 1 21 2 22 3 23
REMARK SMILES IDX 87 24 4 25 85 26 5 27 86 28 22 29 23 30 24 31 25 32 26 33
REMARK SMILES IDX 27 35 28 36 29 37 81 38 30 39 80 40 31 41 32 42 33 43 74 44
REMARK SMILES IDX 34 45 79 46 73 47 75 48 35 49 78 50 72 51 71 52 36 54 62 55
REMARK SMILES IDX 45 56 61 57 46 58 49 59 60 60 76 61 47 62 48 63 59 65 77 66
REMARK SMILES IDX 50 67 37 68 38 69 43 70 39 71 40 72 42 73 44 74 41 75 63 76
REMARK SMILES IDX 64 77 69 78 65 79 66 80 68 81 70 82 67 83 51 84 52 85 57 86
REMARK SMILES IDX 53 87 54 88 56 89 58 90 55 91
REMARK H PARENT 18 7 25 34 75 53 49 64
REMARK Flexibility Score: inf
ROOT
ATOM      1  C   UNL A   1      37.625  23.170  25.864  1.00  0.00     0.002 C 
ENDROOT
BRANCH   1   2
ATOM      2  C   UNL A   1      36.412  22.478  25.234  1.00  0.00     0.021 C 
BRANCH   2   3
ATOM      3  C   UNL A   1      35.604  21.542  26.126  1.00  0.00     0.116 C 
BRANCH   3   4
ATOM      4  N   UNL A   1      34.762  22.137  27.142  1.00  0.00    -0.356 N 
ATOM      5  C   UNL A   1      33.404  22.321  27.134  1.00  0.00     0.227 C 
ATOM      6  O   UNL A   1      32.879  22.578  28.221  1.00  0.00    -0.275 OA
ATOM      7  H   UNL A   1      35.229  22.453  27.950  1.00  0.00     0.163 HD
BRANCH   5   8
ATOM      8  C   UNL A   1      32.567  22.376  25.854  1.00  0.00     0.127 C 
ATOM      9  N   UNL A   1      32.955  25.814  25.915  1.00  0.00    -0.339 N 
ATOM     10  C   UNL A   1      31.835  25.192  26.519  1.00  0.00     0.160 C 
ATOM     11  C   UNL A   1      33.547  24.864  25.100  1.00  0.00     0.230 C 
ATOM     12  C   UNL A   1      31.112  24.354  25.388  1.00  0.00     0.117 C 
ATOM     13  C   UNL A   1      32.572  23.703  25.045  1.00  0.00     0.132 C 
ATOM     14  O   UNL A   1      34.510  25.011  24.380  1.00  0.00    -0.274 OA
ATOM     15  C   UNL A   1      30.075  24.022  26.501  1.00  0.00     0.009 C 
ATOM     16  O   UNL A   1      30.670  23.071  24.825  1.00  0.00    -0.360 OA
ATOM     17  C   UNL A   1      30.162  22.741  26.858  1.00  0.00     0.004 C 
ATOM     18  C   UNL A   1      31.057  22.124  25.857  1.00  0.00     0.155 C 
BRANCH   9  19
ATOM     19  C   UNL A   1      32.994  27.244  25.631  1.00  0.00     0.124 C 
BRANCH  19  20
ATOM     20  C   UNL A   1      31.834  27.781  24.753  1.00  0.00     0.018 C 
ATOM     21  C   UNL A   1      29.329  30.307  22.102  1.00  0.00     0.039 C 
ATOM     22  C   UNL A   1      30.270  29.545  22.991  1.00  0.00    -0.077 C 
ATOM     23  C   UNL A   1      30.498  29.917  24.257  1.00  0.00    -0.025 C 
ATOM     24  C   UNL A   1      30.900  28.337  22.375  1.00  0.00     0.034 C 
ATOM     25  C   UNL A   1      31.402  29.204  25.221  1.00  0.00     0.014 C 
ATOM     26  C   UNL A   1      31.995  27.627  23.201  1.00  0.00    -0.005 C 
ATOM     27  C   UNL A   1      32.532  30.159  25.626  1.00  0.00     0.012 C 
ATOM     28  C   UNL A   1      33.383  27.930  22.618  1.00  0.00     0.008 C 
ENDBRANCH  19  20
ENDBRANCH   9  19
ENDBRANCH   5   8
ENDBRANCH   3   4
ENDBRANCH   2   3
ENDBRANCH   1   2
BRANCH   1  29
ATOM     29  C   UNL A   1      38.887  22.333  26.126  1.00  0.00     0.002 C 
BRANCH  29  30
ATOM     30  C   UNL A   1      39.077  21.036  25.331  1.00  0.00     0.021 C 
BRANCH  30  31
ATOM     31  C   UNL A   1      39.281  19.747  26.126  1.00  0.00     0.116 C 
BRANCH  31  32
ATOM     32  N   UNL A   1      40.543  19.082  25.850  1.00  0.00    -0.352 N 
ATOM     33  C   UNL A   1      41.839  19.525  25.958  1.00  0.00     0.251 C 
ATOM     34  H   UNL A   1      40.454  18.156  25.531  1.00  0.00     0.163 HD
ATOM     35  O   UNL A   1      42.753  18.790  25.589  1.00  0.00    -0.269 OA
BRANCH  33  36
ATOM     36  C   UNL A   1      42.170  20.877  26.480  1.00  0.00     0.039 A 
ATOM     37  C   UNL A   1      42.597  21.852  25.570  1.00  0.00     0.014 A 
ATOM     38  C   UNL A   1      42.126  21.187  27.841  1.00  0.00     0.014 A 
ATOM     39  C   UNL A   1      42.911  23.144  26.009  1.00  0.00     0.010 A 
ATOM     40  C   UNL A   1      42.384  22.492  28.274  1.00  0.00     0.010 A 
ATOM     41  C   UNL A   1      42.775  23.486  27.362  1.00  0.00    -0.014 A 
BRANCH  41  42
ATOM     42  C   UNL A   1      43.025  24.874  27.838  1.00  0.00     0.031 A 
ATOM     43  C   UNL A   1      44.415  25.315  28.208  1.00  0.00     0.074 A 
ATOM     44  C   UNL A   1      41.990  25.723  27.999  1.00  0.00     0.049 A 
ATOM     45  N   UNL A   1      44.811  26.447  28.736  1.00  0.00    -0.248 NA
ATOM     46  C   UNL A   1      45.499  24.350  27.974  1.00  0.00     0.031 C 
ATOM     47  C   UNL A   1      40.590  25.417  27.706  1.00  0.00     0.029 A 
ATOM     48  N   UNL A   1      41.957  27.016  28.464  1.00  0.00    -0.354 N 
ATOM     49  C   UNL A   1      46.184  26.325  28.913  1.00  0.00     0.074 A 
ATOM     50  C   UNL A   1      46.546  24.994  28.470  1.00  0.00     0.031 C 
ATOM     51  C   UNL A   1      39.836  26.492  27.988  1.00  0.00     0.029 A 
ATOM     52  C   UNL A   1      40.692  27.550  28.516  1.00  0.00     0.049 A 
ATOM     53  H   UNL A   1      42.762  27.511  28.736  1.00  0.00     0.167 HD
ATOM     54  C   UNL A   1      47.065  27.241  29.383  1.00  0.00     0.037 A 
ATOM     55  C   UNL A   1      40.266  28.752  28.951  1.00  0.00     0.037 A 
ATOM     56  C   UNL A   1      46.713  28.575  29.796  1.00  0.00     0.049 A 
ATOM     57  C   UNL A   1      41.264  29.749  29.474  1.00  0.00     0.074 A 
ATOM     58  C   UNL A   1      47.546  29.586  30.243  1.00  0.00     0.029 A 
ATOM     59  N   UNL A   1      45.424  29.084  29.809  1.00  0.00    -0.354 N 
ATOM     60  N   UNL A   1      42.564  29.631  29.593  1.00  0.00    -0.248 NA
ATOM     61  C   UNL A   1      40.735  31.046  29.919  1.00  0.00     0.031 C 
ATOM     62  C   UNL A   1      46.757  30.699  30.557  1.00  0.00     0.029 A 
ATOM     63  C   UNL A   1      45.438  30.391  30.267  1.00  0.00     0.049 A 
ATOM     64  H   UNL A   1      44.619  28.590  29.533  1.00  0.00     0.167 HD
ATOM     65  C   UNL A   1      43.010  30.846  30.096  1.00  0.00     0.074 A 
ATOM     66  C   UNL A   1      41.845  31.690  30.251  1.00  0.00     0.031 C 
ATOM     67  C   UNL A   1      44.274  31.227  30.402  1.00  0.00     0.037 A 
BRANCH  54  68
ATOM     68  C   UNL A   1      48.506  26.835  29.470  1.00  0.00     0.057 A 
ATOM     69  C   UNL A   1      49.413  27.112  28.439  1.00  0.00     0.134 A 
ATOM     70  C   UNL A   1      49.005  26.204  30.618  1.00  0.00     0.134 A 
ATOM     71  F   UNL A   1      48.996  27.705  27.309  1.00  0.00    -0.206 F 
ATOM     72  C   UNL A   1      50.759  26.759  28.536  1.00  0.00     0.040 A 
ATOM     73  C   UNL A   1      50.354  25.868  30.737  1.00  0.00     0.040 A 
ATOM     74  F   UNL A   1      48.192  25.918  31.646  1.00  0.00    -0.206 F 
ATOM     75  C   UNL A   1      51.235  26.141  29.692  1.00  0.00     0.006 A 
ENDBRANCH  54  68
BRANCH  55  76
ATOM     76  C   UNL A   1      38.823  29.094  28.902  1.00  0.00     0.057 A 
ATOM     77  C   UNL A   1      38.232  29.559  27.721  1.00  0.00     0.134 A 
ATOM     78  C   UNL A   1      38.006  28.986  30.034  1.00  0.00     0.134 A 
ATOM     79  F   UNL A   1      38.970  29.703  26.610  1.00  0.00    -0.206 F 
ATOM     80  C   UNL A   1      36.886  29.926  27.672  1.00  0.00     0.040 A 
ATOM     81  C   UNL A   1      36.653  29.328  29.993  1.00  0.00     0.040 A 
ATOM     82  F   UNL A   1      38.512  28.542  31.194  1.00  0.00    -0.206 F 
ATOM     83  C   UNL A   1      36.092  29.807  28.811  1.00  0.00     0.006 A 
ENDBRANCH  55  76
BRANCH  67  84
ATOM     84  C   UNL A   1      44.468  32.630  30.896  1.00  0.00     0.057 A 
ATOM     85  C   UNL A   1      44.678  33.700  30.016  1.00  0.00     0.134 A 
ATOM     86  C   UNL A   1      44.410  32.917  32.266  1.00  0.00     0.134 A 
ATOM     87  F   UNL A   1      44.758  33.488  28.694  1.00  0.00    -0.206 F 
ATOM     88  C   UNL A   1      44.841  35.005  30.484  1.00  0.00     0.040 A 
ATOM     89  C   UNL A   1      44.549  34.221  32.742  1.00  0.00     0.040 A 
ATOM     90  F   UNL A   1      44.207  31.937  33.158  1.00  0.00    -0.206 F 
ATOM     91  C   UNL A   1      44.769  35.268  31.850  1.00  0.00     0.006 A 
ENDBRANCH  67  84
ENDBRANCH  41  42
ENDBRANCH  33  36
ENDBRANCH  31  32
ENDBRANCH  30  31
ENDBRANCH  29  30
ENDBRANCH   1  29
TORSDOF 15
ENDMDL
MODEL 2
REMARK VINA RESULT:     -11.9      5.087     10.246
REMARK SMILES CC1=C[C@H](C)[C@H](CN2C[C@]34C=C[C@@H](O3)[C@H](C(=O)NCCCCCCNC(=O)c3ccc(-c5c6nc(c(-c7c(F)cccc7F)c7ccc([nH]7)c(-c7c(F)cccc7F)c7nc(c(-c8c(F)cccc8F)c8ccc5[nH]8)C=C7)C=C6)cc3)[C@@H]4C2=O)[C@H](C)C1
REMARK SMILES IDX 21 1 20 2 19 3 18 4 16 5 17 6 15 8 8 9 9 10 83 11 10 12
REMARK SMILES IDX 82 13 84 14 11 15 14 16 12 17 13 18 7 19 6 20 1 21 2 22 3 23
REMARK SMILES IDX 87 24 4 25 85 26 5 27 86 28 22 29 23 30 24 31 25 32 26 33
REMARK SMILES IDX 27 35 28 36 29 37 81 38 30 39 80 40 31 41 32 42 33 43 74 44
REMARK SMILES IDX 34 45 79 46 73 47 75 48 35 49 78 50 72 51 71 52 36 54 62 55
REMARK SMILES IDX 45 56 61 57 46 58 49 59 60 60 76 61 47 62 48 63 59 65 77 66
REMARK SMILES IDX 50 67 37 68 38 69 43 70 39 71 40 72 42 73 44 74 41 75 63 76
REMARK SMILES IDX 64 77 69 78 65 79 66 80 68 81 70 82 67 83 51 84 52 85 57 86
REMARK SMILES IDX 53 87 54 88 56 89 58 90 55 91
REMARK H PARENT 18 7 25 34 75 53 49 64
REMARK Flexibility Score: inf
ROOT
ATOM      1  C   UNL A   1      34.518  32.718  27.899  1.00  0.00     0.002 C 
ENDROOT
BRANCH   1   2
ATOM      2  C   UNL A   1      34.329  31.201  28.009  1.00  0.00     0.021 C 
BRANCH   2   3
ATOM      3  C   UNL A   1      33.284  30.563  27.101  1.00  0.00     0.116 C 
BRANCH   3   4
ATOM      4  N   UNL A   1      33.753  29.788  25.972  1.00  0.00    -0.356 N 
ATOM      5  C   UNL A   1      33.041  29.303  24.906  1.00  0.00     0.227 C 
ATOM      6  O   UNL A   1      33.700  28.928  23.932  1.00  0.00    -0.275 OA
ATOM      7  H   UNL A   1      34.716  29.580  25.970  1.00  0.00     0.163 HD
BRANCH   5   8
ATOM      8  C   UNL A   1      31.529  29.068  24.938  1.00  0.00     0.127 C 
ATOM      9  N   UNL A   1      32.197  25.673  24.934  1.00  0.00    -0.339 N 
ATOM     10  C   UNL A   1      31.977  26.378  23.726  1.00  0.00     0.160 C 
ATOM     11  C   UNL A   1      31.764  26.496  25.960  1.00  0.00     0.230 C 
ATOM     12  C   UNL A   1      30.547  27.048  23.841  1.00  0.00     0.117 C 
ATOM     13  C   UNL A   1      31.028  27.640  25.288  1.00  0.00     0.132 C 
ATOM     14  O   UNL A   1      31.745  26.245  27.145  1.00  0.00    -0.274 OA
ATOM     15  C   UNL A   1      30.822  27.538  22.389  1.00  0.00     0.009 C 
ATOM     16  O   UNL A   1      29.690  28.239  23.904  1.00  0.00    -0.360 OA
ATOM     17  C   UNL A   1      31.013  28.857  22.366  1.00  0.00     0.004 C 
ATOM     18  C   UNL A   1      30.640  29.322  23.717  1.00  0.00     0.155 C 
BRANCH   9  19
ATOM     19  C   UNL A   1      32.154  24.217  25.008  1.00  0.00     0.124 C 
BRANCH  19  20
ATOM     20  C   UNL A   1      33.528  23.517  25.178  1.00  0.00     0.018 C 
ATOM     21  C   UNL A   1      36.856  20.589  25.000  1.00  0.00     0.039 C 
ATOM     22  C   UNL A   1      35.658  21.495  24.990  1.00  0.00    -0.077 C 
ATOM     23  C   UNL A   1      34.579  21.243  25.743  1.00  0.00    -0.025 C 
ATOM     24  C   UNL A   1      35.771  22.701  24.112  1.00  0.00     0.034 C 
ATOM     25  C   UNL A   1      33.350  22.103  25.811  1.00  0.00     0.014 C 
ATOM     26  C   UNL A   1      34.500  23.563  23.949  1.00  0.00    -0.005 C 
ATOM     27  C   UNL A   1      32.153  21.281  25.317  1.00  0.00     0.012 C 
ATOM     28  C   UNL A   1      33.874  23.334  22.566  1.00  0.00     0.008 C 
ENDBRANCH  19  20
ENDBRANCH   9  19
ENDBRANCH   5   8
ENDBRANCH   3   4
ENDBRANCH   2   3
ENDBRANCH   1   2
BRANCH   1  29
ATOM     29  C   UNL A   1      34.047  33.597  29.067  1.00  0.00     0.002 C 
BRANCH  29  30
ATOM     30  C   UNL A   1      33.037  34.713  28.776  1.00  0.00     0.021 C 
BRANCH  30  31
ATOM     31  C   UNL A   1      33.277  36.070  29.438  1.00  0.00     0.116 C 
BRANCH  31  32
ATOM     32  N   UNL A   1      32.473  36.292  30.627  1.00  0.00    -0.352 N 
ATOM     33  C   UNL A   1      32.661  35.895  31.930  1.00  0.00     0.251 C 
ATOM     34  H   UNL A   1      31.655  36.815  30.474  1.00  0.00     0.163 HD
ATOM     35  O   UNL A   1      31.788  36.146  32.760  1.00  0.00    -0.269 OA
BRANCH  33  36
ATOM     36  C   UNL A   1      33.870  35.148  32.362  1.00  0.00     0.039 A 
ATOM     37  C   UNL A   1      33.707  33.839  32.833  1.00  0.00     0.014 A 
ATOM     38  C   UNL A   1      35.144  35.720  32.368  1.00  0.00     0.014 A 
ATOM     39  C   UNL A   1      34.815  33.088  33.242  1.00  0.00     0.010 A 
ATOM     40  C   UNL A   1      36.258  34.953  32.722  1.00  0.00     0.010 A 
ATOM     41  C   UNL A   1      36.107  33.627  33.158  1.00  0.00    -0.014 A 
BRANCH  41  42
ATOM     42  C   UNL A   1      37.307  32.819  33.510  1.00  0.00     0.031 A 
ATOM     43  C   UNL A   1      38.055  33.081  34.789  1.00  0.00     0.074 A 
ATOM     44  C   UNL A   1      37.765  31.889  32.648  1.00  0.00     0.049 A 
ATOM     45  N   UNL A   1      39.175  32.552  35.216  1.00  0.00    -0.248 NA
ATOM     46  C   UNL A   1      37.480  34.084  35.698  1.00  0.00     0.031 C 
ATOM     47  C   UNL A   1      37.154  31.553  31.362  1.00  0.00     0.029 A 
ATOM     48  N   UNL A   1      38.862  31.065  32.719  1.00  0.00    -0.354 N 
ATOM     49  C   UNL A   1      39.447  33.167  36.432  1.00  0.00     0.074 A 
ATOM     50  C   UNL A   1      38.395  34.137  36.656  1.00  0.00     0.031 C 
ATOM     51  C   UNL A   1      37.877  30.588  30.769  1.00  0.00     0.029 A 
ATOM     52  C   UNL A   1      39.022  30.263  31.615  1.00  0.00     0.049 A 
ATOM     53  H   UNL A   1      39.475  31.051  33.489  1.00  0.00     0.167 HD
ATOM     54  C   UNL A   1      40.469  32.936  37.291  1.00  0.00     0.037 A 
ATOM     55  C   UNL A   1      39.986  29.374  31.310  1.00  0.00     0.037 A 
ATOM     56  C   UNL A   1      41.501  31.953  37.087  1.00  0.00     0.049 A 
ATOM     57  C   UNL A   1      41.113  29.140  32.279  1.00  0.00     0.074 A 
ATOM     58  C   UNL A   1      42.550  31.618  37.925  1.00  0.00     0.029 A 
ATOM     59  N   UNL A   1      41.612  31.144  35.966  1.00  0.00    -0.354 N 
ATOM     60  N   UNL A   1      41.331  29.701  33.443  1.00  0.00    -0.248 NA
ATOM     61  C   UNL A   1      42.126  28.148  31.892  1.00  0.00     0.031 C 
ATOM     62  C   UNL A   1      43.315  30.627  37.299  1.00  0.00     0.029 A 
ATOM     63  C   UNL A   1      42.718  30.320  36.087  1.00  0.00     0.049 A 
ATOM     64  H   UNL A   1      40.995  31.155  35.199  1.00  0.00     0.167 HD
ATOM     65  C   UNL A   1      42.485  29.108  33.940  1.00  0.00     0.074 A 
ATOM     66  C   UNL A   1      42.915  28.138  32.956  1.00  0.00     0.031 C 
ATOM     67  C   UNL A   1      43.128  29.347  35.108  1.00  0.00     0.037 A 
BRANCH  54  68
ATOM     68  C   UNL A   1      40.520  33.758  38.545  1.00  0.00     0.057 A 
ATOM     69  C   UNL A   1      39.797  33.400  39.690  1.00  0.00     0.134 A 
ATOM     70  C   UNL A   1      41.338  34.894  38.625  1.00  0.00     0.134 A 
ATOM     71  F   UNL A   1      38.989  32.329  39.675  1.00  0.00    -0.206 F 
ATOM     72  C   UNL A   1      39.871  34.151  40.864  1.00  0.00     0.040 A 
ATOM     73  C   UNL A   1      41.437  35.639  39.801  1.00  0.00     0.040 A 
ATOM     74  F   UNL A   1      42.062  35.287  37.566  1.00  0.00    -0.206 F 
ATOM     75  C   UNL A   1      40.699  35.271  40.923  1.00  0.00     0.006 A 
ENDBRANCH  54  68
BRANCH  55  76
ATOM     76  C   UNL A   1      39.931  28.622  30.032  1.00  0.00     0.057 A 
ATOM     77  C   UNL A   1      39.213  27.425  29.931  1.00  0.00     0.134 A 
ATOM     78  C   UNL A   1      40.608  29.068  28.891  1.00  0.00     0.134 A 
ATOM     79  F   UNL A   1      38.562  26.937  30.998  1.00  0.00    -0.206 F 
ATOM     80  C   UNL A   1      39.189  26.684  28.748  1.00  0.00     0.040 A 
ATOM     81  C   UNL A   1      40.573  28.349  27.694  1.00  0.00     0.040 A 
ATOM     82  F   UNL A   1      41.309  30.211  28.922  1.00  0.00    -0.206 F 
ATOM     83  C   UNL A   1      39.868  27.150  27.624  1.00  0.00     0.006 A 
ENDBRANCH  55  76
BRANCH  67  84
ATOM     84  C   UNL A   1      44.342  28.519  35.406  1.00  0.00     0.057 A 
ATOM     85  C   UNL A   1      45.628  28.932  35.034  1.00  0.00     0.134 A 
ATOM     86  C   UNL A   1      44.225  27.310  36.105  1.00  0.00     0.134 A 
ATOM     87  F   UNL A   1      45.805  30.072  34.350  1.00  0.00    -0.206 F 
ATOM     88  C   UNL A   1      46.754  28.162  35.331  1.00  0.00     0.040 A 
ATOM     89  C   UNL A   1      45.346  26.544  36.427  1.00  0.00     0.040 A 
ATOM     90  F   UNL A   1      43.023  26.863  36.494  1.00  0.00    -0.206 F 
ATOM     91  C   UNL A   1      46.615  26.968  36.036  1.00  0.00     0.006 A 
ENDBRANCH  67  84
ENDBRANCH  41  42
ENDBRANCH  33  36
ENDBRANCH  31  32
ENDBRANCH  30  31
ENDBRANCH  29  30
ENDBRANCH   1  29
TORSDOF 15
ENDMDL
MODEL 3
REMARK VINA RESULT:     -11.8      3.662      4.896
REMARK SMILES CC1=C[C@H](C)[C@H](CN2C[C@]34C=C[C@@H](O3)[C@H](C(=O)NCCCCCCNC(=O)c3ccc(-c5c6nc(c(-c7c(F)cccc7F)c7ccc([nH]7)c(-c7c(F)cccc7F)c7nc(c(-c8c(F)cccc8F)c8ccc5[nH]8)C=C7)C=C6)cc3)[C@@H]4C2=O)[C@H](C)C1
REMARK SMILES IDX 21 1 20 2 19 3 18 4 16 5 17 6 15 8 8 9 9 10 83 11 10 12
REMARK SMILES IDX 82 13 84 14 11 15 14 16 12 17 13 18 7 19 6 20 1 21 2 22 3 23
REMARK SMILES IDX 87 24 4 25 85 26 5 27 86 28 22 29 23 30 24 31 25 32 26 33
REMARK SMILES IDX 27 35 28 36 29 37 81 38 30 39 80 40 31 41 32 42 33 43 74 44
REMARK SMILES IDX 34 45 79 46 73 47 75 48 35 49 78 50 72 51 71 52 36 54 62 55
REMARK SMILES IDX 45 56 61 57 46 58 49 59 60 60 76 61 47 62 48 63 59 65 77 66
REMARK SMILES IDX 50 67 37 68 38 69 43 70 39 71 40 72 42 73 44 74 41 75 63 76
REMARK SMILES IDX 64 77 69 78 65 79 66 80 68 81 70 82 67 83 51 84 52 85 57 86
REMARK SMILES IDX 53 87 54 88 56 89 58 90 55 91
REMARK H PARENT 18 7 25 34 75 53 49 64
REMARK Flexibility Score: inf
ROOT
ATOM      1  C   UNL A   1      40.039  20.353  26.352  1.00  0.00     0.002 C 
ENDROOT
BRANCH   1   2
ATOM      2  C   UNL A   1      39.188  19.532  25.375  1.00  0.00     0.021 C 
BRANCH   2   3
ATOM      3  C   UNL A   1      37.835  20.110  24.977  1.00  0.00     0.116 C 
BRANCH   3   4
ATOM      4  N   UNL A   1      37.574  21.498  25.294  1.00  0.00    -0.356 N 
ATOM      5  C   UNL A   1      36.393  22.090  25.660  1.00  0.00     0.227 C 
ATOM      6  O   UNL A   1      36.476  23.216  26.159  1.00  0.00    -0.275 OA
ATOM      7  H   UNL A   1      38.352  22.100  25.238  1.00  0.00     0.163 HD
BRANCH   5   8
ATOM      8  C   UNL A   1      35.019  21.499  25.340  1.00  0.00     0.127 C 
ATOM      9  N   UNL A   1      34.070  24.649  24.268  1.00  0.00    -0.339 N 
ATOM     10  C   UNL A   1      33.845  24.230  25.602  1.00  0.00     0.160 C 
ATOM     11  C   UNL A   1      34.369  23.511  23.538  1.00  0.00     0.230 C 
ATOM     12  C   UNL A   1      32.967  22.915  25.527  1.00  0.00     0.117 C 
ATOM     13  C   UNL A   1      34.060  22.341  24.454  1.00  0.00     0.132 C 
ATOM     14  O   UNL A   1      34.587  23.436  22.349  1.00  0.00    -0.274 OA
ATOM     15  C   UNL A   1      32.994  22.984  27.082  1.00  0.00     0.009 C 
ATOM     16  O   UNL A   1      32.791  21.475  25.759  1.00  0.00    -0.360 OA
ATOM     17  C   UNL A   1      33.737  21.998  27.584  1.00  0.00     0.004 C 
ATOM     18  C   UNL A   1      34.024  21.112  26.437  1.00  0.00     0.155 C 
BRANCH   9  19
ATOM     19  C   UNL A   1      33.405  25.813  23.693  1.00  0.00     0.124 C 
BRANCH  19  20
ATOM     20  C   UNL A   1      33.107  26.968  24.685  1.00  0.00     0.018 C 
ATOM     21  C   UNL A   1      31.817  30.830  26.446  1.00  0.00     0.039 C 
ATOM     22  C   UNL A   1      32.210  29.568  25.733  1.00  0.00    -0.077 C 
ATOM     23  C   UNL A   1      33.275  29.520  24.923  1.00  0.00    -0.025 C 
ATOM     24  C   UNL A   1      31.354  28.375  26.019  1.00  0.00     0.034 C 
ATOM     25  C   UNL A   1      33.752  28.299  24.190  1.00  0.00     0.014 C 
ATOM     26  C   UNL A   1      31.626  27.107  25.181  1.00  0.00    -0.005 C 
ATOM     27  C   UNL A   1      33.674  28.574  22.683  1.00  0.00     0.012 C 
ATOM     28  C   UNL A   1      30.526  26.917  24.127  1.00  0.00     0.008 C 
ENDBRANCH  19  20
ENDBRANCH   9  19
ENDBRANCH   5   8
ENDBRANCH   3   4
ENDBRANCH   2   3
ENDBRANCH   1   2
BRANCH   1  29
ATOM     29  C   UNL A   1      41.476  19.889  26.633  1.00  0.00     0.002 C 
BRANCH  29  30
ATOM     30  C   UNL A   1      42.633  20.749  26.110  1.00  0.00     0.021 C 
BRANCH  30  31
ATOM     31  C   UNL A   1      42.286  22.128  25.550  1.00  0.00     0.116 C 
BRANCH  31  32
ATOM     32  N   UNL A   1      43.402  22.795  24.903  1.00  0.00    -0.352 N 
ATOM     33  C   UNL A   1      43.942  24.045  25.095  1.00  0.00     0.251 C 
ATOM     34  H   UNL A   1      43.849  22.260  24.208  1.00  0.00     0.163 HD
ATOM     35  O   UNL A   1      44.855  24.418  24.361  1.00  0.00    -0.269 OA
BRANCH  33  36
ATOM     36  C   UNL A   1      43.436  24.970  26.142  1.00  0.00     0.039 A 
ATOM     37  C   UNL A   1      42.527  24.471  27.084  1.00  0.00     0.014 A 
ATOM     38  C   UNL A   1      43.788  26.321  26.184  1.00  0.00     0.014 A 
ATOM     39  C   UNL A   1      42.029  25.299  28.097  1.00  0.00     0.010 A 
ATOM     40  C   UNL A   1      43.336  27.134  27.228  1.00  0.00     0.010 A 
ATOM     41  C   UNL A   1      42.456  26.631  28.199  1.00  0.00    -0.014 A 
BRANCH  41  42
ATOM     42  C   UNL A   1      42.002  27.505  29.316  1.00  0.00     0.031 A 
ATOM     43  C   UNL A   1      42.689  27.453  30.653  1.00  0.00     0.074 A 
ATOM     44  C   UNL A   1      40.929  28.303  29.147  1.00  0.00     0.049 A 
ATOM     45  N   UNL A   1      42.373  28.061  31.770  1.00  0.00    -0.248 NA
ATOM     46  C   UNL A   1      43.873  26.588  30.756  1.00  0.00     0.031 C 
ATOM     47  C   UNL A   1      40.153  28.430  27.913  1.00  0.00     0.029 A 
ATOM     48  N   UNL A   1      40.295  29.149  30.025  1.00  0.00    -0.354 N 
ATOM     49  C   UNL A   1      43.307  27.641  32.709  1.00  0.00     0.074 A 
ATOM     50  C   UNL A   1      44.178  26.697  32.041  1.00  0.00     0.031 C 
ATOM     51  C   UNL A   1      39.155  29.308  28.109  1.00  0.00     0.029 A 
ATOM     52  C   UNL A   1      39.198  29.778  29.490  1.00  0.00     0.049 A 
ATOM     53  H   UNL A   1      40.599  29.291  30.951  1.00  0.00     0.167 HD
ATOM     54  C   UNL A   1      43.439  28.019  34.004  1.00  0.00     0.037 A 
ATOM     55  C   UNL A   1      38.316  30.629  30.050  1.00  0.00     0.037 A 
ATOM     56  C   UNL A   1      42.592  28.979  34.665  1.00  0.00     0.049 A 
ATOM     57  C   UNL A   1      38.481  31.027  31.491  1.00  0.00     0.074 A 
ATOM     58  C   UNL A   1      42.680  29.456  35.961  1.00  0.00     0.029 A 
ATOM     59  N   UNL A   1      41.507  29.611  34.079  1.00  0.00    -0.354 N 
ATOM     60  N   UNL A   1      39.395  30.652  32.351  1.00  0.00    -0.248 NA
ATOM     61  C   UNL A   1      37.493  31.969  32.036  1.00  0.00     0.031 C 
ATOM     62  C   UNL A   1      41.628  30.355  36.170  1.00  0.00     0.029 A 
ATOM     63  C   UNL A   1      40.910  30.465  34.991  1.00  0.00     0.049 A 
ATOM     64  H   UNL A   1      41.207  29.473  33.152  1.00  0.00     0.167 HD
ATOM     65  C   UNL A   1      39.111  31.335  33.527  1.00  0.00     0.074 A 
ATOM     66  C   UNL A   1      37.947  32.153  33.268  1.00  0.00     0.031 C 
ATOM     67  C   UNL A   1      39.760  31.286  34.716  1.00  0.00     0.037 A 
BRANCH  54  68
ATOM     68  C   UNL A   1      44.548  27.395  34.798  1.00  0.00     0.057 A 
ATOM     69  C   UNL A   1      45.748  28.075  35.044  1.00  0.00     0.134 A 
ATOM     70  C   UNL A   1      44.397  26.123  35.365  1.00  0.00     0.134 A 
ATOM     71  F   UNL A   1      45.959  29.293  34.522  1.00  0.00    -0.206 F 
ATOM     72  C   UNL A   1      46.767  27.503  35.809  1.00  0.00     0.040 A 
ATOM     73  C   UNL A   1      45.399  25.551  36.151  1.00  0.00     0.040 A 
ATOM     74  F   UNL A   1      43.269  25.422  35.175  1.00  0.00    -0.206 F 
ATOM     75  C   UNL A   1      46.590  26.240  36.371  1.00  0.00     0.006 A 
ENDBRANCH  54  68
BRANCH  55  76
ATOM     76  C   UNL A   1      37.196  31.178  29.245  1.00  0.00     0.057 A 
ATOM     77  C   UNL A   1      37.234  32.491  28.760  1.00  0.00     0.134 A 
ATOM     78  C   UNL A   1      36.056  30.417  28.962  1.00  0.00     0.134 A 
ATOM     79  F   UNL A   1      38.292  33.275  29.019  1.00  0.00    -0.206 F 
ATOM     80  C   UNL A   1      36.170  33.035  28.040  1.00  0.00     0.040 A 
ATOM     81  C   UNL A   1      34.994  30.941  28.222  1.00  0.00     0.040 A 
ATOM     82  F   UNL A   1      35.962  29.151  29.394  1.00  0.00    -0.206 F 
ATOM     83  C   UNL A   1      35.046  32.257  27.767  1.00  0.00     0.006 A 
ENDBRANCH  55  76
BRANCH  67  84
ATOM     84  C   UNL A   1      39.251  32.173  35.814  1.00  0.00     0.057 A 
ATOM     85  C   UNL A   1      39.668  33.504  35.941  1.00  0.00     0.134 A 
ATOM     86  C   UNL A   1      38.305  31.698  36.731  1.00  0.00     0.134 A 
ATOM     87  F   UNL A   1      40.582  34.014  35.103  1.00  0.00    -0.206 F 
ATOM     88  C   UNL A   1      39.175  34.327  36.956  1.00  0.00     0.040 A 
ATOM     89  C   UNL A   1      37.789  32.518  37.735  1.00  0.00     0.040 A 
ATOM     90  F   UNL A   1      37.862  30.435  36.659  1.00  0.00    -0.206 F 
ATOM     91  C   UNL A   1      38.227  33.835  37.851  1.00  0.00     0.006 A 
ENDBRANCH  67  84
ENDBRANCH  41  42
ENDBRANCH  33  36
ENDBRANCH  31  32
ENDBRANCH  30  31
ENDBRANCH  29  30
ENDBRANCH   1  29
TORSDOF 15
ENDMDL
