MODEL 1
REMARK VINA RESULT:     -10.9      0.000      0.000
REMARK SMILES O=C(NCCCCCCNC(=O)[C@@H](CCCCl)[P@TB4](=O)(c1ccccc1)c1ccccc1)c1ccc(-c2c3nc(c(-c4c(F)cccc4F)c4ccc([nH]4)c(-c4c(F)cccc4F)c4nc(c(-c5c(F)cccc5F)c5ccc2[nH]5)C=C4)C=C3)cc1
REMARK SMILES IDX 7 1 6 2 5 3 4 4 3 5 1 6 2 7 32 9 33 10 85 11 34 12 84 13
REMARK SMILES IDX 35 14 36 15 37 16 78 17 38 18 83 19 77 20 79 21 39 22 82 23
REMARK SMILES IDX 76 24 75 25 40 27 66 28 49 29 65 30 50 31 53 32 64 33 80 34
REMARK SMILES IDX 51 35 52 36 63 38 81 39 54 40 41 41 42 42 47 43 43 44 44 45
REMARK SMILES IDX 46 46 48 47 45 48 67 49 68 50 73 51 69 52 70 53 72 54 74 55
REMARK SMILES IDX 71 56 55 57 56 58 61 59 57 60 58 61 60 62 62 63 59 64 8 65
REMARK SMILES IDX 9 66 10 67 11 68 12 70 13 71 14 72 15 73 16 74 17 75 18 76
REMARK SMILES IDX 19 77 20 78 21 79 25 80 22 81 24 82 23 83 26 84 27 85 31 86
REMARK SMILES IDX 28 87 30 88 29 89
REMARK H PARENT 3 8 79 26 53 37 10 69
REMARK Flexibility Score: inf
ROOT
ATOM      1  C   UNL A   1      35.204  20.555  24.658  1.00  0.00       nan C 
ENDROOT
BRANCH   1   2
ATOM      2  C   UNL A   1      36.334  19.563  24.981  1.00  0.00       nan C 
BRANCH   2   3
ATOM      3  C   UNL A   1      37.746  19.995  24.580  1.00  0.00       nan C 
BRANCH   3   4
ATOM      4  C   UNL A   1      38.686  20.301  25.736  1.00  0.00       nan C 
BRANCH   4   5
ATOM      5  N   UNL A   1      39.791  19.359  25.815  1.00  0.00       nan N 
ATOM      6  O   UNL A   1      41.920  18.640  25.921  1.00  0.00       inf OA
ATOM      7  C   UNL A   1      41.116  19.567  26.090  1.00  0.00       nan C 
ATOM      8  H   UNL A   1      39.548  18.421  25.642  1.00  0.00       nan HD
BRANCH   7   9
ATOM      9  C   UNL A   1      41.611  20.873  26.580  1.00  0.00       inf A 
ATOM     10  C   UNL A   1      41.991  21.883  25.696  1.00  0.00     0.014 A 
ATOM     11  C   UNL A   1      41.630  21.119  27.958  1.00  0.00     0.014 A 
ATOM     12  C   UNL A   1      42.501  23.083  26.182  1.00  0.00     0.010 A 
ATOM     13  C   UNL A   1      42.049  22.361  28.446  1.00  0.00     0.010 A 
ATOM     14  C   UNL A   1      42.499  23.350  27.560  1.00  0.00    -0.014 A 
BRANCH  14  15
ATOM     15  C   UNL A   1      42.866  24.710  28.035  1.00  0.00     0.031 A 
ATOM     16  C   UNL A   1      44.298  25.111  28.234  1.00  0.00     0.074 A 
ATOM     17  C   UNL A   1      41.875  25.592  28.273  1.00  0.00     0.049 A 
ATOM     18  N   UNL A   1      44.782  26.256  28.645  1.00  0.00    -0.248 NA
ATOM     19  C   UNL A   1      45.323  24.097  27.942  1.00  0.00     0.031 C 
ATOM     20  C   UNL A   1      40.444  25.308  28.126  1.00  0.00     0.029 A 
ATOM     21  N   UNL A   1      41.912  26.903  28.667  1.00  0.00    -0.354 N 
ATOM     22  C   UNL A   1      46.162  26.100  28.675  1.00  0.00     0.074 A 
ATOM     23  C   UNL A   1      46.438  24.739  28.265  1.00  0.00     0.031 C 
ATOM     24  C   UNL A   1      39.745  26.423  28.376  1.00  0.00     0.029 A 
ATOM     25  C   UNL A   1      40.668  27.480  28.770  1.00  0.00     0.049 A 
ATOM     26  H   UNL A   1      42.748  27.387  28.859  1.00  0.00     0.167 HD
ATOM     27  C   UNL A   1      47.107  27.013  29.007  1.00  0.00     0.037 A 
ATOM     28  C   UNL A   1      40.306  28.715  29.158  1.00  0.00     0.037 A 
ATOM     29  C   UNL A   1      46.820  28.367  29.409  1.00  0.00     0.049 A 
ATOM     30  C   UNL A   1      41.373  29.691  29.558  1.00  0.00     0.074 A 
ATOM     31  C   UNL A   1      47.709  29.375  29.743  1.00  0.00     0.029 A 
ATOM     32  N   UNL A   1      45.546  28.903  29.535  1.00  0.00    -0.354 N 
ATOM     33  N   UNL A   1      42.674  29.535  29.558  1.00  0.00    -0.248 NA
ATOM     34  C   UNL A   1      40.920  31.010  30.018  1.00  0.00     0.031 C 
ATOM     35  C   UNL A   1      46.972  30.504  30.116  1.00  0.00     0.029 A 
ATOM     36  C   UNL A   1      45.625  30.218  29.965  1.00  0.00     0.049 A 
ATOM     37  H   UNL A   1      44.709  28.420  29.347  1.00  0.00     0.167 HD
ATOM     38  C   UNL A   1      43.198  30.740  30.003  1.00  0.00     0.074 A 
ATOM     39  C   UNL A   1      42.075  31.623  30.241  1.00  0.00     0.031 C 
ATOM     40  C   UNL A   1      44.496  31.082  30.199  1.00  0.00     0.037 A 
BRANCH  27  41
ATOM     41  C   UNL A   1      48.543  26.573  28.967  1.00  0.00     0.057 A 
ATOM     42  C   UNL A   1      49.163  25.965  30.066  1.00  0.00     0.134 A 
ATOM     43  C   UNL A   1      49.304  26.721  27.799  1.00  0.00     0.134 A 
ATOM     44  F   UNL A   1      48.495  25.803  31.219  1.00  0.00    -0.206 F 
ATOM     45  C   UNL A   1      50.491  25.538  30.013  1.00  0.00     0.040 A 
ATOM     46  C   UNL A   1      50.625  26.275  27.725  1.00  0.00     0.040 A 
ATOM     47  F   UNL A   1      48.770  27.288  26.706  1.00  0.00    -0.206 F 
ATOM     48  C   UNL A   1      51.224  25.686  28.837  1.00  0.00     0.006 A 
ENDBRANCH  27  41
BRANCH  28  49
ATOM     49  C   UNL A   1      38.870  29.086  29.196  1.00  0.00     0.057 A 
ATOM     50  C   UNL A   1      38.214  29.562  28.056  1.00  0.00     0.134 A 
ATOM     51  C   UNL A   1      38.114  28.958  30.369  1.00  0.00     0.134 A 
ATOM     52  F   UNL A   1      38.888  29.721  26.908  1.00  0.00    -0.206 F 
ATOM     53  C   UNL A   1      36.862  29.908  28.082  1.00  0.00     0.040 A 
ATOM     54  C   UNL A   1      36.756  29.273  30.402  1.00  0.00     0.040 A 
ATOM     55  F   UNL A   1      38.682  28.499  31.494  1.00  0.00    -0.206 F 
ATOM     56  C   UNL A   1      36.127  29.756  29.257  1.00  0.00     0.006 A 
ENDBRANCH  28  49
BRANCH  40  57
ATOM     57  C   UNL A   1      44.763  32.482  30.668  1.00  0.00     0.057 A 
ATOM     58  C   UNL A   1      44.915  33.546  29.770  1.00  0.00     0.134 A 
ATOM     59  C   UNL A   1      44.844  32.771  32.036  1.00  0.00     0.134 A 
ATOM     60  F   UNL A   1      44.863  33.331  28.447  1.00  0.00    -0.206 F 
ATOM     61  C   UNL A   1      45.163  34.844  30.216  1.00  0.00     0.040 A 
ATOM     62  C   UNL A   1      45.066  34.070  32.494  1.00  0.00     0.040 A 
ATOM     63  F   UNL A   1      44.702  31.797  32.948  1.00  0.00    -0.206 F 
ATOM     64  C   UNL A   1      45.232  35.110  31.583  1.00  0.00     0.006 A 
ENDBRANCH  40  57
ENDBRANCH  14  15
ENDBRANCH   7   9
ENDBRANCH   4   5
ENDBRANCH   3   4
ENDBRANCH   2   3
ENDBRANCH   1   2
BRANCH   1  65
ATOM     65  C   UNL A   1      33.769  20.006  24.675  1.00  0.00       nan C 
BRANCH  65  66
ATOM     66  C   UNL A   1      32.700  21.023  25.055  1.00  0.00       nan C 
BRANCH  66  67
ATOM     67  N   UNL A   1      32.609  21.371  26.459  1.00  0.00       nan N 
ATOM     68  C   UNL A   1      32.492  22.627  26.993  1.00  0.00       nan C 
ATOM     69  H   UNL A   1      32.635  20.623  27.098  1.00  0.00       nan HD
ATOM     70  O   UNL A   1      31.803  22.737  28.013  1.00  0.00       nan OA
BRANCH  68  71
ATOM     71  C   UNL A   1      33.188  23.856  26.429  1.00  0.00       nan C 
BRANCH  71  72
ATOM     72  C   UNL A   1      34.724  23.618  26.143  1.00  0.00       nan C 
BRANCH  72  73
ATOM     73  C   UNL A   1      35.495  24.152  24.903  1.00  0.00       nan C 
BRANCH  73  74
ATOM     74  C   UNL A   1      36.916  23.690  24.559  1.00  0.00       nan C 
ATOM     75  Cl  UNL A   1      38.034  23.807  25.940  1.00  0.00       nan Cl
ENDBRANCH  73  74
ENDBRANCH  72  73
ENDBRANCH  71  72
BRANCH  71  76
ATOM     76  P   UNL A   1      32.254  25.007  25.355  1.00  0.00       nan P 
ATOM     77  O   UNL A   1      30.966  24.245  25.660  1.00  0.00       nan OA
BRANCH  76  78
ATOM     78  C   UNL A   1      32.579  26.620  26.342  1.00  0.00       nan A 
ATOM     79  C   UNL A   1      33.787  27.304  26.100  1.00  0.00       nan A 
ATOM     80  C   UNL A   1      31.538  27.285  27.022  1.00  0.00       nan A 
ATOM     81  C   UNL A   1      33.951  28.616  26.545  1.00  0.00       nan A 
ATOM     82  C   UNL A   1      31.708  28.601  27.450  1.00  0.00       nan A 
ATOM     83  C   UNL A   1      32.914  29.264  27.216  1.00  0.00       nan A 
ENDBRANCH  76  78
BRANCH  76  84
ATOM     84  C   UNL A   1      31.320  26.158  24.281  1.00  0.00       nan A 
ATOM     85  C   UNL A   1      29.924  26.346  24.328  1.00  0.00       nan A 
ATOM     86  C   UNL A   1      32.037  26.847  23.281  1.00  0.00       nan A 
ATOM     87  C   UNL A   1      29.282  27.226  23.454  1.00  0.00       nan A 
ATOM     88  C   UNL A   1      31.395  27.734  22.414  1.00  0.00       nan A 
ATOM     89  C   UNL A   1      30.020  27.927  22.504  1.00  0.00       nan A 
ENDBRANCH  76  84
ENDBRANCH  71  76
ENDBRANCH  68  71
ENDBRANCH  66  67
ENDBRANCH  65  66
ENDBRANCH   1  65
TORSDOF 19
ENDMDL
MODEL 2
REMARK VINA RESULT:     -10.9      0.225      5.962
REMARK SMILES O=C(NCCCCCCNC(=O)[C@@H](CCCCl)[P@TB4](=O)(c1ccccc1)c1ccccc1)c1ccc(-c2c3nc(c(-c4c(F)cccc4F)c4ccc([nH]4)c(-c4c(F)cccc4F)c4nc(c(-c5c(F)cccc5F)c5ccc2[nH]5)C=C4)C=C3)cc1
REMARK SMILES IDX 7 1 6 2 5 3 4 4 3 5 1 6 2 7 32 9 33 10 85 11 34 12 84 13
REMARK SMILES IDX 35 14 36 15 37 16 78 17 38 18 83 19 77 20 79 21 39 22 82 23
REMARK SMILES IDX 76 24 75 25 40 27 66 28 49 29 65 30 50 31 53 32 64 33 80 34
REMARK SMILES IDX 51 35 52 36 63 38 81 39 54 40 41 41 42 42 47 43 43 44 44 45
REMARK SMILES IDX 46 46 48 47 45 48 67 49 68 50 73 51 69 52 70 53 72 54 74 55
REMARK SMILES IDX 71 56 55 57 56 58 61 59 57 60 58 61 60 62 62 63 59 64 8 65
REMARK SMILES IDX 9 66 10 67 11 68 12 70 13 71 14 72 15 73 16 74 17 75 18 76
REMARK SMILES IDX 19 77 20 78 21 79 25 80 22 81 24 82 23 83 26 84 27 85 31 86
REMARK SMILES IDX 28 87 30 88 29 89
REMARK H PARENT 3 8 79 26 53 37 10 69
REMARK Flexibility Score: inf
ROOT
ATOM      1  C   UNL A   1      35.252  20.492  25.040  1.00  0.00       nan C 
ENDROOT
BRANCH   1   2
ATOM      2  C   UNL A   1      36.388  19.466  24.888  1.00  0.00       nan C 
BRANCH   2   3
ATOM      3  C   UNL A   1      37.767  20.032  24.544  1.00  0.00       nan C 
BRANCH   3   4
ATOM      4  C   UNL A   1      38.675  20.306  25.733  1.00  0.00       nan C 
BRANCH   4   5
ATOM      5  N   UNL A   1      39.781  19.366  25.814  1.00  0.00       nan N 
ATOM      6  O   UNL A   1      41.910  18.649  25.926  1.00  0.00       inf OA
ATOM      7  C   UNL A   1      41.105  19.575  26.094  1.00  0.00       nan C 
ATOM      8  H   UNL A   1      39.540  18.428  25.639  1.00  0.00       nan HD
BRANCH   7   9
ATOM      9  C   UNL A   1      41.596  20.881  26.588  1.00  0.00       inf A 
ATOM     10  C   UNL A   1      41.990  21.888  25.707  1.00  0.00     0.014 A 
ATOM     11  C   UNL A   1      41.596  21.130  27.966  1.00  0.00     0.014 A 
ATOM     12  C   UNL A   1      42.497  23.087  26.197  1.00  0.00     0.010 A 
ATOM     13  C   UNL A   1      42.011  22.373  28.456  1.00  0.00     0.010 A 
ATOM     14  C   UNL A   1      42.476  23.359  27.574  1.00  0.00    -0.014 A 
BRANCH  14  15
ATOM     15  C   UNL A   1      42.840  24.718  28.051  1.00  0.00     0.031 A 
ATOM     16  C   UNL A   1      41.793  25.758  28.325  1.00  0.00     0.074 A 
ATOM     17  C   UNL A   1      44.143  24.998  28.249  1.00  0.00     0.049 A 
ATOM     18  N   UNL A   1      41.947  26.990  28.743  1.00  0.00    -0.248 NA
ATOM     19  C   UNL A   1      40.392  25.373  28.097  1.00  0.00     0.031 C 
ATOM     20  C   UNL A   1      45.249  24.069  28.003  1.00  0.00     0.029 A 
ATOM     21  N   UNL A   1      44.760  26.128  28.718  1.00  0.00    -0.354 N 
ATOM     22  C   UNL A   1      40.670  27.532  28.815  1.00  0.00     0.074 A 
ATOM     23  C   UNL A   1      39.752  26.502  28.371  1.00  0.00     0.031 C 
ATOM     24  C   UNL A   1      46.401  24.646  28.370  1.00  0.00     0.029 A 
ATOM     25  C   UNL A   1      46.126  26.009  28.808  1.00  0.00     0.049 A 
ATOM     26  H   UNL A   1      44.273  26.947  28.966  1.00  0.00     0.167 HD
ATOM     27  C   UNL A   1      40.301  28.771  29.220  1.00  0.00     0.037 A 
ATOM     28  C   UNL A   1      47.059  26.902  29.182  1.00  0.00     0.037 A 
ATOM     29  C   UNL A   1      41.223  29.786  29.664  1.00  0.00     0.049 A 
ATOM     30  C   UNL A   1      46.624  28.279  29.588  1.00  0.00     0.074 A 
ATOM     31  C   UNL A   1      40.946  31.066  30.115  1.00  0.00     0.029 A 
ATOM     32  N   UNL A   1      42.603  29.639  29.707  1.00  0.00    -0.354 N 
ATOM     33  N   UNL A   1      45.411  28.768  29.673  1.00  0.00    -0.248 NA
ATOM     34  C   UNL A   1      47.687  29.228  29.942  1.00  0.00     0.031 C 
ATOM     35  C   UNL A   1      42.160  31.707  30.388  1.00  0.00     0.029 A 
ATOM     36  C   UNL A   1      43.191  30.812  30.155  1.00  0.00     0.049 A 
ATOM     37  H   UNL A   1      43.092  28.822  29.457  1.00  0.00     0.167 HD
ATOM     38  C   UNL A   1      45.561  30.077  30.104  1.00  0.00     0.074 A 
ATOM     39  C   UNL A   1      46.982  30.298  30.285  1.00  0.00     0.031 C 
ATOM     40  C   UNL A   1      44.607  31.014  30.328  1.00  0.00     0.037 A 
BRANCH  27  41
ATOM     41  C   UNL A   1      38.837  29.108  29.187  1.00  0.00     0.057 A 
ATOM     42  C   UNL A   1      38.025  28.998  30.322  1.00  0.00     0.134 A 
ATOM     43  C   UNL A   1      38.242  29.591  28.013  1.00  0.00     0.134 A 
ATOM     44  F   UNL A   1      38.528  28.532  31.475  1.00  0.00    -0.206 F 
ATOM     45  C   UNL A   1      36.671  29.336  30.288  1.00  0.00     0.040 A 
ATOM     46  C   UNL A   1      36.895  29.957  27.973  1.00  0.00     0.040 A 
ATOM     47  F   UNL A   1      38.964  29.729  26.890  1.00  0.00    -0.206 F 
ATOM     48  C   UNL A   1      36.103  29.824  29.112  1.00  0.00     0.006 A 
ENDBRANCH  27  41
BRANCH  28  49
ATOM     49  C   UNL A   1      48.493  26.518  29.176  1.00  0.00     0.057 A 
ATOM     50  C   UNL A   1      49.304  26.764  28.063  1.00  0.00     0.134 A 
ATOM     51  C   UNL A   1      49.091  25.912  30.290  1.00  0.00     0.134 A 
ATOM     52  F   UNL A   1      48.786  27.327  26.963  1.00  0.00    -0.206 F 
ATOM     53  C   UNL A   1      50.654  26.410  28.051  1.00  0.00     0.040 A 
ATOM     54  C   UNL A   1      50.445  25.580  30.302  1.00  0.00     0.040 A 
ATOM     55  F   UNL A   1      48.369  25.658  31.391  1.00  0.00    -0.206 F 
ATOM     56  C   UNL A   1      51.230  25.823  29.177  1.00  0.00     0.006 A 
ENDBRANCH  28  49
BRANCH  40  57
ATOM     57  C   UNL A   1      45.074  32.352  30.821  1.00  0.00     0.057 A 
ATOM     58  C   UNL A   1      45.447  33.375  29.940  1.00  0.00     0.134 A 
ATOM     59  C   UNL A   1      45.127  32.626  32.194  1.00  0.00     0.134 A 
ATOM     60  F   UNL A   1      45.434  33.169  28.614  1.00  0.00    -0.206 F 
ATOM     61  C   UNL A   1      45.880  34.616  30.408  1.00  0.00     0.040 A 
ATOM     62  C   UNL A   1      45.533  33.872  32.672  1.00  0.00     0.040 A 
ATOM     63  F   UNL A   1      44.777  31.691  33.089  1.00  0.00    -0.206 F 
ATOM     64  C   UNL A   1      45.917  34.869  31.778  1.00  0.00     0.006 A 
ENDBRANCH  40  57
ENDBRANCH  14  15
ENDBRANCH   7   9
ENDBRANCH   4   5
ENDBRANCH   3   4
ENDBRANCH   2   3
ENDBRANCH   1   2
BRANCH   1  65
ATOM     65  C   UNL A   1      33.830  20.011  24.717  1.00  0.00       nan C 
BRANCH  65  66
ATOM     66  C   UNL A   1      32.727  21.010  25.044  1.00  0.00       nan C 
BRANCH  66  67
ATOM     67  N   UNL A   1      32.569  21.363  26.441  1.00  0.00       nan N 
ATOM     68  C   UNL A   1      32.413  22.619  26.964  1.00  0.00       nan C 
ATOM     69  H   UNL A   1      32.574  20.617  27.084  1.00  0.00       nan HD
ATOM     70  O   UNL A   1      31.678  22.726  27.951  1.00  0.00       nan OA
BRANCH  68  71
ATOM     71  C   UNL A   1      33.120  23.854  26.427  1.00  0.00       nan C 
BRANCH  71  72
ATOM     72  C   UNL A   1      34.662  23.617  26.166  1.00  0.00       nan C 
BRANCH  72  73
ATOM     73  C   UNL A   1      35.471  24.221  24.984  1.00  0.00       nan C 
BRANCH  73  74
ATOM     74  C   UNL A   1      36.835  23.667  24.556  1.00  0.00       nan C 
ATOM     75  Cl  UNL A   1      38.065  23.790  25.837  1.00  0.00       nan Cl
ENDBRANCH  73  74
ENDBRANCH  72  73
ENDBRANCH  71  72
BRANCH  71  76
ATOM     76  P   UNL A   1      32.207  25.018  25.349  1.00  0.00       nan P 
ATOM     77  O   UNL A   1      30.909  24.270  25.643  1.00  0.00       nan OA
BRANCH  76  78
ATOM     78  C   UNL A   1      32.544  26.625  26.342  1.00  0.00       nan A 
ATOM     79  C   UNL A   1      33.736  27.324  26.072  1.00  0.00       nan A 
ATOM     80  C   UNL A   1      31.516  27.270  27.059  1.00  0.00       nan A 
ATOM     81  C   UNL A   1      33.899  28.634  26.525  1.00  0.00       nan A 
ATOM     82  C   UNL A   1      31.684  28.585  27.495  1.00  0.00       nan A 
ATOM     83  C   UNL A   1      32.875  29.263  27.233  1.00  0.00       nan A 
ENDBRANCH  76  78
BRANCH  76  84
ATOM     84  C   UNL A   1      31.295  26.181  24.272  1.00  0.00       nan A 
ATOM     85  C   UNL A   1      29.893  26.332  24.256  1.00  0.00       nan A 
ATOM     86  C   UNL A   1      32.039  26.925  23.332  1.00  0.00       nan A 
ATOM     87  C   UNL A   1      29.270  27.225  23.383  1.00  0.00       nan A 
ATOM     88  C   UNL A   1      31.415  27.825  22.465  1.00  0.00       nan A 
ATOM     89  C   UNL A   1      30.032  27.979  22.495  1.00  0.00       nan A 
ENDBRANCH  76  84
ENDBRANCH  71  76
ENDBRANCH  68  71
ENDBRANCH  66  67
ENDBRANCH  65  66
ENDBRANCH   1  65
TORSDOF 19
ENDMDL
MODEL 3
REMARK VINA RESULT:     -10.9      1.016      2.448
REMARK SMILES O=C(NCCCCCCNC(=O)[C@@H](CCCCl)[P@TB4](=O)(c1ccccc1)c1ccccc1)c1ccc(-c2c3nc(c(-c4c(F)cccc4F)c4ccc([nH]4)c(-c4c(F)cccc4F)c4nc(c(-c5c(F)cccc5F)c5ccc2[nH]5)C=C4)C=C3)cc1
REMARK SMILES IDX 7 1 6 2 5 3 4 4 3 5 1 6 2 7 32 9 33 10 85 11 34 12 84 13
REMARK SMILES IDX 35 14 36 15 37 16 78 17 38 18 83 19 77 20 79 21 39 22 82 23
REMARK SMILES IDX 76 24 75 25 40 27 66 28 49 29 65 30 50 31 53 32 64 33 80 34
REMARK SMILES IDX 51 35 52 36 63 38 81 39 54 40 41 41 42 42 47 43 43 44 44 45
REMARK SMILES IDX 46 46 48 47 45 48 67 49 68 50 73 51 69 52 70 53 72 54 74 55
REMARK SMILES IDX 71 56 55 57 56 58 61 59 57 60 58 61 60 62 62 63 59 64 8 65
REMARK SMILES IDX 9 66 10 67 11 68 12 70 13 71 14 72 15 73 16 74 17 75 18 76
REMARK SMILES IDX 19 77 20 78 21 79 25 80 22 81 24 82 23 83 26 84 27 85 31 86
REMARK SMILES IDX 28 87 30 88 29 89
REMARK H PARENT 3 8 79 26 53 37 10 69
REMARK Flexibility Score: inf
ROOT
ATOM      1  C   UNL A   1      35.644  21.020  24.802  1.00  0.00       nan C 
ENDROOT
BRANCH   1   2
ATOM      2  C   UNL A   1      37.157  21.193  24.589  1.00  0.00       nan C 
BRANCH   2   3
ATOM      3  C   UNL A   1      38.025  19.968  24.882  1.00  0.00       nan C 
BRANCH   3   4
ATOM      4  C   UNL A   1      38.983  20.114  26.055  1.00  0.00       nan C 
BRANCH   4   5
ATOM      5  N   UNL A   1      40.138  19.238  25.937  1.00  0.00       nan N 
ATOM      6  O   UNL A   1      42.296  18.646  25.704  1.00  0.00       inf OA
ATOM      7  C   UNL A   1      41.476  19.519  26.022  1.00  0.00       nan C 
ATOM      8  H   UNL A   1      39.925  18.293  25.770  1.00  0.00       nan HD
BRANCH   7   9
ATOM      9  C   UNL A   1      41.965  20.838  26.479  1.00  0.00       inf A 
ATOM     10  C   UNL A   1      42.250  21.860  25.572  1.00  0.00     0.014 A 
ATOM     11  C   UNL A   1      42.074  21.084  27.853  1.00  0.00     0.014 A 
ATOM     12  C   UNL A   1      42.757  23.074  26.024  1.00  0.00     0.010 A 
ATOM     13  C   UNL A   1      42.489  22.339  28.313  1.00  0.00     0.010 A 
ATOM     14  C   UNL A   1      42.845  23.341  27.399  1.00  0.00    -0.014 A 
BRANCH  14  15
ATOM     15  C   UNL A   1      43.203  24.711  27.850  1.00  0.00     0.031 A 
ATOM     16  C   UNL A   1      44.634  25.149  27.966  1.00  0.00     0.074 A 
ATOM     17  C   UNL A   1      42.206  25.568  28.143  1.00  0.00     0.049 A 
ATOM     18  N   UNL A   1      45.111  26.308  28.347  1.00  0.00    -0.248 NA
ATOM     19  C   UNL A   1      45.666  24.161  27.617  1.00  0.00     0.031 C 
ATOM     20  C   UNL A   1      40.777  25.247  28.080  1.00  0.00     0.029 A 
ATOM     21  N   UNL A   1      42.232  26.881  28.533  1.00  0.00    -0.354 N 
ATOM     22  C   UNL A   1      46.494  26.187  28.297  1.00  0.00     0.074 A 
ATOM     23  C   UNL A   1      46.782  24.832  27.875  1.00  0.00     0.031 C 
ATOM     24  C   UNL A   1      40.064  26.345  28.368  1.00  0.00     0.029 A 
ATOM     25  C   UNL A   1      40.981  27.426  28.706  1.00  0.00     0.049 A 
ATOM     26  H   UNL A   1      43.064  27.386  28.675  1.00  0.00     0.167 HD
ATOM     27  C   UNL A   1      47.433  27.124  28.573  1.00  0.00     0.037 A 
ATOM     28  C   UNL A   1      40.611  28.653  29.113  1.00  0.00     0.037 A 
ATOM     29  C   UNL A   1      47.136  28.472  28.988  1.00  0.00     0.049 A 
ATOM     30  C   UNL A   1      41.673  29.657  29.449  1.00  0.00     0.074 A 
ATOM     31  C   UNL A   1      48.016  29.503  29.270  1.00  0.00     0.029 A 
ATOM     32  N   UNL A   1      45.857  28.975  29.187  1.00  0.00    -0.354 N 
ATOM     33  N   UNL A   1      42.976  29.535  29.375  1.00  0.00    -0.248 NA
ATOM     34  C   UNL A   1      41.215  30.966  29.933  1.00  0.00     0.031 C 
ATOM     35  C   UNL A   1      47.273  30.614  29.683  1.00  0.00     0.029 A 
ATOM     36  C   UNL A   1      45.927  30.294  29.610  1.00  0.00     0.049 A 
ATOM     37  H   UNL A   1      45.023  28.471  29.048  1.00  0.00     0.167 HD
ATOM     38  C   UNL A   1      43.494  30.753  29.787  1.00  0.00     0.074 A 
ATOM     39  C   UNL A   1      42.364  31.609  30.088  1.00  0.00     0.031 C 
ATOM     40  C   UNL A   1      44.791  31.129  29.907  1.00  0.00     0.037 A 
BRANCH  27  41
ATOM     41  C   UNL A   1      48.876  26.721  28.451  1.00  0.00     0.057 A 
ATOM     42  C   UNL A   1      49.588  26.866  27.254  1.00  0.00     0.134 A 
ATOM     43  C   UNL A   1      49.574  26.224  29.560  1.00  0.00     0.134 A 
ATOM     44  F   UNL A   1      48.977  27.326  26.151  1.00  0.00    -0.206 F 
ATOM     45  C   UNL A   1      50.935  26.512  27.157  1.00  0.00     0.040 A 
ATOM     46  C   UNL A   1      50.928  25.890  29.482  1.00  0.00     0.040 A 
ATOM     47  F   UNL A   1      48.956  26.068  30.741  1.00  0.00    -0.206 F 
ATOM     48  C   UNL A   1      51.611  26.028  28.276  1.00  0.00     0.006 A 
ENDBRANCH  27  41
BRANCH  28  49
ATOM     49  C   UNL A   1      39.170  28.987  29.233  1.00  0.00     0.057 A 
ATOM     50  C   UNL A   1      38.452  29.499  28.147  1.00  0.00     0.134 A 
ATOM     51  C   UNL A   1      38.472  28.788  30.432  1.00  0.00     0.134 A 
ATOM     52  F   UNL A   1      39.068  29.727  26.978  1.00  0.00    -0.206 F 
ATOM     53  C   UNL A   1      37.096  29.811  28.250  1.00  0.00     0.040 A 
ATOM     54  C   UNL A   1      37.110  29.068  30.541  1.00  0.00     0.040 A 
ATOM     55  F   UNL A   1      39.102  28.292  31.508  1.00  0.00    -0.206 F 
ATOM     56  C   UNL A   1      36.420  29.588  29.449  1.00  0.00     0.006 A 
ENDBRANCH  28  49
BRANCH  40  57
ATOM     57  C   UNL A   1      45.049  32.537  30.358  1.00  0.00     0.057 A 
ATOM     58  C   UNL A   1      45.237  32.858  31.708  1.00  0.00     0.134 A 
ATOM     59  C   UNL A   1      45.135  33.579  29.425  1.00  0.00     0.134 A 
ATOM     60  F   UNL A   1      45.151  31.907  32.651  1.00  0.00    -0.206 F 
ATOM     61  C   UNL A   1      45.476  34.170  32.117  1.00  0.00     0.040 A 
ATOM     62  C   UNL A   1      45.400  34.890  29.820  1.00  0.00     0.040 A 
ATOM     63  F   UNL A   1      44.971  33.336  28.116  1.00  0.00    -0.206 F 
ATOM     64  C   UNL A   1      45.565  35.189  31.170  1.00  0.00     0.006 A 
ENDBRANCH  40  57
ENDBRANCH  14  15
ENDBRANCH   7   9
ENDBRANCH   4   5
ENDBRANCH   3   4
ENDBRANCH   2   3
ENDBRANCH   1   2
BRANCH   1  65
ATOM     65  C   UNL A   1      35.066  21.515  26.136  1.00  0.00       nan C 
BRANCH  65  66
ATOM     66  C   UNL A   1      33.661  21.015  26.450  1.00  0.00       nan C 
BRANCH  66  67
ATOM     67  N   UNL A   1      32.857  21.850  27.320  1.00  0.00       nan N 
ATOM     68  C   UNL A   1      31.977  22.830  26.944  1.00  0.00       nan C 
ATOM     69  H   UNL A   1      32.956  21.696  28.288  1.00  0.00       nan HD
ATOM     70  O   UNL A   1      30.964  22.967  27.639  1.00  0.00       nan OA
BRANCH  68  71
ATOM     71  C   UNL A   1      32.202  23.764  25.766  1.00  0.00       nan C 
BRANCH  71  72
ATOM     72  C   UNL A   1      31.426  23.315  24.464  1.00  0.00       nan C 
BRANCH  72  73
ATOM     73  C   UNL A   1      32.079  22.658  23.216  1.00  0.00       nan C 
BRANCH  73  74
ATOM     74  C   UNL A   1      33.017  23.430  22.280  1.00  0.00       nan C 
ATOM     75  Cl  UNL A   1      34.567  23.853  23.048  1.00  0.00       nan Cl
ENDBRANCH  73  74
ENDBRANCH  72  73
ENDBRANCH  71  72
BRANCH  71  76
ATOM     76  P   UNL A   1      32.463  25.551  26.070  1.00  0.00       nan P 
ATOM     77  O   UNL A   1      33.972  25.350  25.950  1.00  0.00       nan OA
BRANCH  76  78
ATOM     78  C   UNL A   1      31.537  26.224  24.530  1.00  0.00       nan A 
ATOM     79  C   UNL A   1      30.139  26.374  24.619  1.00  0.00       nan A 
ATOM     80  C   UNL A   1      32.231  26.859  23.480  1.00  0.00       nan A 
ATOM     81  C   UNL A   1      29.453  27.129  23.667  1.00  0.00       nan A 
ATOM     82  C   UNL A   1      31.536  27.623  22.542  1.00  0.00       nan A 
ATOM     83  C   UNL A   1      30.150  27.753  22.633  1.00  0.00       nan A 
ENDBRANCH  76  78
BRANCH  76  84
ATOM     84  C   UNL A   1      32.722  27.336  26.374  1.00  0.00       nan A 
ATOM     85  C   UNL A   1      33.950  28.009  26.209  1.00  0.00       nan A 
ATOM     86  C   UNL A   1      31.638  28.078  26.888  1.00  0.00       nan A 
ATOM     87  C   UNL A   1      34.073  29.372  26.489  1.00  0.00       nan A 
ATOM     88  C   UNL A   1      31.760  29.443  27.159  1.00  0.00       nan A 
ATOM     89  C   UNL A   1      32.975  30.090  26.954  1.00  0.00       nan A 
ENDBRANCH  76  84
ENDBRANCH  71  76
ENDBRANCH  68  71
ENDBRANCH  66  67
ENDBRANCH  65  66
ENDBRANCH   1  65
TORSDOF 19
ENDMDL
