MODEL 1
REMARK VINA RESULT:     -11.2      0.000      0.000
REMARK SMILES CC(C)Cc1ccc([C@H](CF)C(=O)NCCCCCCNC(=O)c2ccc(-c3c4nc(c(-c5c(F)cccc5F)c5ccc([nH]5)c(-c5c(F)cccc5F)c5nc(c(-c6c(F)cccc6F)c6ccc3[nH]6)C=C5)C=C4)cc2)cc1
REMARK SMILES IDX 17 1 16 2 15 3 14 4 12 5 13 6 9 8 8 9 5 10 6 11 79 12 7 13
REMARK SMILES IDX 78 14 4 15 2 16 1 17 3 18 10 19 11 20 18 21 19 22 20 23
REMARK SMILES IDX 21 24 22 25 23 27 24 28 25 29 77 30 26 31 76 32 27 33 28 34
REMARK SMILES IDX 29 35 70 36 30 37 75 38 69 39 71 40 31 41 74 42 68 43 67 44
REMARK SMILES IDX 32 46 58 47 41 48 57 49 42 50 45 51 56 52 72 53 43 54 44 55
REMARK SMILES IDX 55 57 73 58 46 59 33 60 34 61 39 62 35 63 36 64 38 65 40 66
REMARK SMILES IDX 37 67 59 68 60 69 65 70 61 71 62 72 64 73 66 74 63 75 47 76
REMARK SMILES IDX 48 77 53 78 49 79 50 80 52 81 54 82 51 83
REMARK H PARENT 14 7 21 26 71 45 45 56
REMARK Flexibility Score: inf
ROOT
ATOM      1  C   UNL A   1      32.431  29.896  26.871  1.00  0.00     0.002 C 
ENDROOT
BRANCH   1   2
ATOM      2  C   UNL A   1      31.791  28.649  27.483  1.00  0.00     0.021 C 
BRANCH   2   3
ATOM      3  C   UNL A   1      32.251  27.328  26.874  1.00  0.00     0.116 C 
BRANCH   3   4
ATOM      4  N   UNL A   1      31.262  26.281  26.995  1.00  0.00    -0.355 N 
ATOM      5  C   UNL A   1      30.723  25.466  26.047  1.00  0.00     0.230 C 
ATOM      6  O   UNL A   1      29.931  24.602  26.445  1.00  0.00    -0.274 OA
ATOM      7  H   UNL A   1      30.926  26.132  27.908  1.00  0.00     0.163 HD
BRANCH   5   8
ATOM      8  C   UNL A   1      31.036  25.575  24.551  1.00  0.00     0.139 C 
BRANCH   8   9
ATOM      9  C   UNL A   1      30.459  26.814  23.877  1.00  0.00    -0.033 A 
ATOM     10  C   UNL A   1      29.514  29.221  22.712  1.00  0.00    -0.048 A 
ATOM     11  C   UNL A   1      28.621  28.233  23.135  1.00  0.00     0.004 A 
ATOM     12  C   UNL A   1      30.885  28.973  22.825  1.00  0.00     0.004 A 
ATOM     13  C   UNL A   1      29.090  27.028  23.672  1.00  0.00     0.005 A 
ATOM     14  C   UNL A   1      31.349  27.803  23.427  1.00  0.00     0.005 A 
BRANCH  10  15
ATOM     15  C   UNL A   1      29.014  30.535  22.161  1.00  0.00     0.038 C 
BRANCH  15  16
ATOM     16  C   UNL A   1      28.754  31.608  23.240  1.00  0.00    -0.013 C 
ATOM     17  C   UNL A   1      28.904  33.036  22.706  1.00  0.00     0.008 C 
ATOM     18  C   UNL A   1      27.345  31.432  23.813  1.00  0.00     0.008 C 
ENDBRANCH  15  16
ENDBRANCH  10  15
ENDBRANCH   8   9
BRANCH   8  19
ATOM     19  C   UNL A   1      30.922  24.246  23.806  1.00  0.00     0.232 C 
ATOM     20  F   UNL A   1      31.491  24.280  22.577  1.00  0.00    -0.250 F 
ENDBRANCH   8  19
ENDBRANCH   5   8
ENDBRANCH   3   4
ENDBRANCH   2   3
ENDBRANCH   1   2
BRANCH   1  21
ATOM     21  C   UNL A   1      31.499  30.762  26.014  1.00  0.00     0.002 C 
BRANCH  21  22
ATOM     22  C   UNL A   1      31.309  32.205  26.487  1.00  0.00     0.021 C 
BRANCH  22  23
ATOM     23  C   UNL A   1      32.472  32.787  27.284  1.00  0.00     0.116 C 
BRANCH  23  24
ATOM     24  N   UNL A   1      32.272  34.187  27.618  1.00  0.00    -0.352 N 
ATOM     25  C   UNL A   1      32.932  34.971  28.530  1.00  0.00     0.251 C 
ATOM     26  H   UNL A   1      31.557  34.639  27.115  1.00  0.00     0.163 HD
ATOM     27  O   UNL A   1      32.515  36.093  28.795  1.00  0.00    -0.269 OA
BRANCH  25  28
ATOM     28  C   UNL A   1      34.138  34.455  29.213  1.00  0.00     0.039 A 
ATOM     29  C   UNL A   1      33.996  33.856  30.467  1.00  0.00     0.014 A 
ATOM     30  C   UNL A   1      35.403  34.571  28.628  1.00  0.00     0.014 A 
ATOM     31  C   UNL A   1      35.114  33.320  31.108  1.00  0.00     0.010 A 
ATOM     32  C   UNL A   1      36.503  33.970  29.234  1.00  0.00     0.010 A 
ATOM     33  C   UNL A   1      36.371  33.342  30.483  1.00  0.00    -0.014 A 
BRANCH  33  34
ATOM     34  C   UNL A   1      37.559  32.717  31.119  1.00  0.00     0.031 A 
ATOM     35  C   UNL A   1      38.215  31.522  30.485  1.00  0.00     0.074 A 
ATOM     36  C   UNL A   1      38.008  33.188  32.299  1.00  0.00     0.049 A 
ATOM     37  N   UNL A   1      39.214  30.798  30.923  1.00  0.00    -0.248 NA
ATOM     38  C   UNL A   1      37.659  31.063  29.202  1.00  0.00     0.031 C 
ATOM     39  C   UNL A   1      37.432  34.314  33.034  1.00  0.00     0.029 A 
ATOM     40  N   UNL A   1      39.047  32.770  33.091  1.00  0.00    -0.354 N 
ATOM     41  C   UNL A   1      39.396  29.796  29.978  1.00  0.00     0.074 A 
ATOM     42  C   UNL A   1      38.370  29.970  28.974  1.00  0.00     0.031 C 
ATOM     43  C   UNL A   1      38.138  34.512  34.159  1.00  0.00     0.029 A 
ATOM     44  C   UNL A   1      39.188  33.503  34.245  1.00  0.00     0.049 A 
ATOM     45  H   UNL A   1      39.635  32.017  32.856  1.00  0.00     0.167 HD
ATOM     46  C   UNL A   1      40.346  28.831  29.940  1.00  0.00     0.037 A 
ATOM     47  C   UNL A   1      40.060  33.369  35.262  1.00  0.00     0.037 A 
ATOM     48  C   UNL A   1      41.377  28.671  30.932  1.00  0.00     0.049 A 
ATOM     49  C   UNL A   1      41.093  32.277  35.205  1.00  0.00     0.074 A 
ATOM     50  C   UNL A   1      42.417  27.759  30.956  1.00  0.00     0.029 A 
ATOM     51  N   UNL A   1      41.493  29.440  32.081  1.00  0.00    -0.354 N 
ATOM     52  N   UNL A   1      41.295  31.377  34.274  1.00  0.00    -0.248 NA
ATOM     53  C   UNL A   1      42.024  32.187  36.340  1.00  0.00     0.031 C 
ATOM     54  C   UNL A   1      43.134  27.943  32.143  1.00  0.00     0.029 A 
ATOM     55  C   UNL A   1      42.573  29.006  32.832  1.00  0.00     0.049 A 
ATOM     56  H   UNL A   1      40.896  30.184  32.327  1.00  0.00     0.167 HD
ATOM     57  C   UNL A   1      42.393  30.636  34.693  1.00  0.00     0.074 A 
ATOM     58  C   UNL A   1      42.821  31.200  35.956  1.00  0.00     0.031 C 
ATOM     59  C   UNL A   1      42.993  29.583  34.084  1.00  0.00     0.037 A 
BRANCH  46  60
ATOM     60  C   UNL A   1      40.314  27.871  28.786  1.00  0.00     0.057 A 
ATOM     61  C   UNL A   1      41.018  28.115  27.599  1.00  0.00     0.134 A 
ATOM     62  C   UNL A   1      39.596  26.670  28.872  1.00  0.00     0.134 A 
ATOM     63  F   UNL A   1      41.717  29.251  27.445  1.00  0.00    -0.206 F 
ATOM     64  C   UNL A   1      40.988  27.215  26.532  1.00  0.00     0.040 A 
ATOM     65  C   UNL A   1      39.583  25.749  27.823  1.00  0.00     0.040 A 
ATOM     66  F   UNL A   1      38.905  26.369  29.982  1.00  0.00    -0.206 F 
ATOM     67  C   UNL A   1      40.274  26.025  26.646  1.00  0.00     0.006 A 
ENDBRANCH  46  60
BRANCH  47  68
ATOM     68  C   UNL A   1      40.007  34.302  36.417  1.00  0.00     0.057 A 
ATOM     69  C   UNL A   1      39.348  33.952  37.600  1.00  0.00     0.134 A 
ATOM     70  C   UNL A   1      40.604  35.567  36.363  1.00  0.00     0.134 A 
ATOM     71  F   UNL A   1      38.741  32.760  37.706  1.00  0.00    -0.206 F 
ATOM     72  C   UNL A   1      39.263  34.832  38.680  1.00  0.00     0.040 A 
ATOM     73  C   UNL A   1      40.551  36.449  37.444  1.00  0.00     0.040 A 
ATOM     74  F   UNL A   1      41.259  35.963  35.261  1.00  0.00    -0.206 F 
ATOM     75  C   UNL A   1      39.870  36.084  38.605  1.00  0.00     0.006 A 
ENDBRANCH  47  68
BRANCH  59  76
ATOM     76  C   UNL A   1      44.203  29.000  34.754  1.00  0.00     0.057 A 
ATOM     77  C   UNL A   1      44.111  27.934  35.658  1.00  0.00     0.134 A 
ATOM     78  C   UNL A   1      45.484  29.483  34.455  1.00  0.00     0.134 A 
ATOM     79  F   UNL A   1      42.913  27.434  35.998  1.00  0.00    -0.206 F 
ATOM     80  C   UNL A   1      45.246  27.388  36.259  1.00  0.00     0.040 A 
ATOM     81  C   UNL A   1      46.628  28.925  35.025  1.00  0.00     0.040 A 
ATOM     82  F   UNL A   1      45.646  30.495  33.588  1.00  0.00    -0.206 F 
ATOM     83  C   UNL A   1      46.510  27.878  35.937  1.00  0.00     0.006 A 
ENDBRANCH  59  76
ENDBRANCH  33  34
ENDBRANCH  25  28
ENDBRANCH  23  24
ENDBRANCH  22  23
ENDBRANCH  21  22
ENDBRANCH   1  21
TORSDOF 17
ENDMDL
MODEL 2
REMARK VINA RESULT:     -11.2      1.141      6.295
REMARK SMILES CC(C)Cc1ccc([C@H](CF)C(=O)NCCCCCCNC(=O)c2ccc(-c3c4nc(c(-c5c(F)cccc5F)c5ccc([nH]5)c(-c5c(F)cccc5F)c5nc(c(-c6c(F)cccc6F)c6ccc3[nH]6)C=C5)C=C4)cc2)cc1
REMARK SMILES IDX 17 1 16 2 15 3 14 4 12 5 13 6 9 8 8 9 5 10 6 11 79 12 7 13
REMARK SMILES IDX 78 14 4 15 2 16 1 17 3 18 10 19 11 20 18 21 19 22 20 23
REMARK SMILES IDX 21 24 22 25 23 27 24 28 25 29 77 30 26 31 76 32 27 33 28 34
REMARK SMILES IDX 29 35 70 36 30 37 75 38 69 39 71 40 31 41 74 42 68 43 67 44
REMARK SMILES IDX 32 46 58 47 41 48 57 49 42 50 45 51 56 52 72 53 43 54 44 55
REMARK SMILES IDX 55 57 73 58 46 59 33 60 34 61 39 62 35 63 36 64 38 65 40 66
REMARK SMILES IDX 37 67 59 68 60 69 65 70 61 71 62 72 64 73 66 74 63 75 47 76
REMARK SMILES IDX 48 77 53 78 49 79 50 80 52 81 54 82 51 83
REMARK H PARENT 14 7 21 26 71 45 45 56
REMARK Flexibility Score: inf
ROOT
ATOM      1  C   UNL A   1      32.136  30.042  25.983  1.00  0.00     0.002 C 
ENDROOT
BRANCH   1   2
ATOM      2  C   UNL A   1      31.835  28.966  27.028  1.00  0.00     0.021 C 
BRANCH   2   3
ATOM      3  C   UNL A   1      32.281  27.559  26.644  1.00  0.00     0.116 C 
BRANCH   3   4
ATOM      4  N   UNL A   1      31.260  26.563  26.881  1.00  0.00    -0.355 N 
ATOM      5  C   UNL A   1      30.628  25.728  26.011  1.00  0.00     0.230 C 
ATOM      6  O   UNL A   1      29.828  24.921  26.502  1.00  0.00    -0.274 OA
ATOM      7  H   UNL A   1      30.976  26.475  27.819  1.00  0.00     0.163 HD
BRANCH   5   8
ATOM      8  C   UNL A   1      30.849  25.748  24.496  1.00  0.00     0.139 C 
BRANCH   8   9
ATOM      9  C   UNL A   1      30.240  26.953  23.788  1.00  0.00    -0.033 A 
ATOM     10  C   UNL A   1      28.973  29.081  22.408  1.00  0.00    -0.048 A 
ATOM     11  C   UNL A   1      30.366  28.969  22.423  1.00  0.00     0.004 A 
ATOM     12  C   UNL A   1      28.221  28.154  23.133  1.00  0.00     0.004 A 
ATOM     13  C   UNL A   1      30.992  27.940  23.139  1.00  0.00     0.005 A 
ATOM     14  C   UNL A   1      28.843  27.089  23.786  1.00  0.00     0.005 A 
BRANCH  10  15
ATOM     15  C   UNL A   1      28.292  30.169  21.613  1.00  0.00     0.038 C 
BRANCH  15  16
ATOM     16  C   UNL A   1      28.450  31.581  22.218  1.00  0.00    -0.013 C 
ATOM     17  C   UNL A   1      28.004  32.692  21.262  1.00  0.00     0.008 C 
ATOM     18  C   UNL A   1      27.640  31.680  23.514  1.00  0.00     0.008 C 
ENDBRANCH  15  16
ENDBRANCH  10  15
ENDBRANCH   8   9
BRANCH   8  19
ATOM     19  C   UNL A   1      30.682  24.380  23.837  1.00  0.00     0.232 C 
ATOM     20  F   UNL A   1      31.423  24.242  22.712  1.00  0.00    -0.250 F 
ENDBRANCH   8  19
ENDBRANCH   5   8
ENDBRANCH   3   4
ENDBRANCH   2   3
ENDBRANCH   1   2
BRANCH   1  21
ATOM     21  C   UNL A   1      30.997  31.031  25.709  1.00  0.00     0.002 C 
BRANCH  21  22
ATOM     22  C   UNL A   1      31.093  32.376  26.434  1.00  0.00     0.021 C 
BRANCH  22  23
ATOM     23  C   UNL A   1      32.485  32.746  26.936  1.00  0.00     0.116 C 
BRANCH  23  24
ATOM     24  N   UNL A   1      32.531  34.077  27.517  1.00  0.00    -0.352 N 
ATOM     25  C   UNL A   1      33.344  34.572  28.505  1.00  0.00     0.251 C 
ATOM     26  H   UNL A   1      31.883  34.718  27.147  1.00  0.00     0.163 HD
ATOM     27  O   UNL A   1      33.127  35.679  28.985  1.00  0.00    -0.269 OA
BRANCH  25  28
ATOM     28  C   UNL A   1      34.473  33.761  29.009  1.00  0.00     0.039 A 
ATOM     29  C   UNL A   1      35.777  34.177  28.730  1.00  0.00     0.014 A 
ATOM     30  C   UNL A   1      34.250  32.591  29.742  1.00  0.00     0.014 A 
ATOM     31  C   UNL A   1      36.858  33.452  29.236  1.00  0.00     0.010 A 
ATOM     32  C   UNL A   1      35.325  31.912  30.307  1.00  0.00     0.010 A 
ATOM     33  C   UNL A   1      36.642  32.333  30.057  1.00  0.00    -0.014 A 
BRANCH  33  34
ATOM     34  C   UNL A   1      37.777  31.590  30.660  1.00  0.00     0.031 A 
ATOM     35  C   UNL A   1      38.212  31.885  32.067  1.00  0.00     0.074 A 
ATOM     36  C   UNL A   1      38.454  30.692  29.917  1.00  0.00     0.049 A 
ATOM     37  N   UNL A   1      39.221  31.394  32.742  1.00  0.00    -0.248 NA
ATOM     38  C   UNL A   1      37.427  32.885  32.808  1.00  0.00     0.031 C 
ATOM     39  C   UNL A   1      38.156  30.347  28.527  1.00  0.00     0.029 A 
ATOM     40  N   UNL A   1      39.541  29.913  30.227  1.00  0.00    -0.354 N 
ATOM     41  C   UNL A   1      39.197  32.032  33.976  1.00  0.00     0.074 A 
ATOM     42  C   UNL A   1      38.111  32.985  33.937  1.00  0.00     0.031 C 
ATOM     43  C   UNL A   1      39.024  29.410  28.111  1.00  0.00     0.029 A 
ATOM     44  C   UNL A   1      39.964  29.121  29.187  1.00  0.00     0.049 A 
ATOM     45  H   UNL A   1      39.977  29.923  31.110  1.00  0.00     0.167 HD
ATOM     46  C   UNL A   1      39.995  31.825  35.051  1.00  0.00     0.037 A 
ATOM     47  C   UNL A   1      40.999  28.263  29.110  1.00  0.00     0.037 A 
ATOM     48  C   UNL A   1      41.064  30.862  35.092  1.00  0.00     0.049 A 
ATOM     49  C   UNL A   1      41.882  28.066  30.312  1.00  0.00     0.074 A 
ATOM     50  C   UNL A   1      41.894  30.540  36.151  1.00  0.00     0.029 A 
ATOM     51  N   UNL A   1      41.454  30.070  34.023  1.00  0.00    -0.354 N 
ATOM     52  N   UNL A   1      41.808  28.628  31.494  1.00  0.00    -0.248 NA
ATOM     53  C   UNL A   1      42.990  27.110  30.170  1.00  0.00     0.031 C 
ATOM     54  C   UNL A   1      42.819  29.589  35.709  1.00  0.00     0.029 A 
ATOM     55  C   UNL A   1      42.529  29.277  34.390  1.00  0.00     0.049 A 
ATOM     56  H   UNL A   1      41.030  30.070  33.134  1.00  0.00     0.167 HD
ATOM     57  C   UNL A   1      42.835  28.072  32.245  1.00  0.00     0.074 A 
ATOM     58  C   UNL A   1      43.511  27.119  31.388  1.00  0.00     0.031 C 
ATOM     59  C   UNL A   1      43.187  28.326  33.530  1.00  0.00     0.037 A 
BRANCH  46  60
ATOM     60  C   UNL A   1      39.740  32.659  36.274  1.00  0.00     0.057 A 
ATOM     61  C   UNL A   1      40.455  33.837  36.529  1.00  0.00     0.134 A 
ATOM     62  C   UNL A   1      38.744  32.299  37.192  1.00  0.00     0.134 A 
ATOM     63  F   UNL A   1      41.431  34.234  35.697  1.00  0.00    -0.206 F 
ATOM     64  C   UNL A   1      40.209  34.611  37.666  1.00  0.00     0.040 A 
ATOM     65  C   UNL A   1      38.469  33.081  38.316  1.00  0.00     0.040 A 
ATOM     66  F   UNL A   1      38.016  31.188  37.006  1.00  0.00    -0.206 F 
ATOM     67  C   UNL A   1      39.208  34.236  38.559  1.00  0.00     0.006 A 
ENDBRANCH  46  60
BRANCH  47  68
ATOM     68  C   UNL A   1      41.252  27.511  27.853  1.00  0.00     0.057 A 
ATOM     69  C   UNL A   1      40.731  26.226  27.663  1.00  0.00     0.134 A 
ATOM     70  C   UNL A   1      42.024  28.053  26.819  1.00  0.00     0.134 A 
ATOM     71  F   UNL A   1      39.998  25.646  28.626  1.00  0.00    -0.206 F 
ATOM     72  C   UNL A   1      40.988  25.496  26.502  1.00  0.00     0.040 A 
ATOM     73  C   UNL A   1      42.267  27.345  25.640  1.00  0.00     0.040 A 
ATOM     74  F   UNL A   1      42.545  29.283  26.933  1.00  0.00    -0.206 F 
ATOM     75  C   UNL A   1      41.755  26.058  25.483  1.00  0.00     0.006 A 
ENDBRANCH  47  68
BRANCH  59  76
ATOM     76  C   UNL A   1      44.326  27.534  34.102  1.00  0.00     0.057 A 
ATOM     77  C   UNL A   1      44.137  26.274  34.683  1.00  0.00     0.134 A 
ATOM     78  C   UNL A   1      45.638  28.022  34.030  1.00  0.00     0.134 A 
ATOM     79  F   UNL A   1      42.904  25.756  34.796  1.00  0.00    -0.206 F 
ATOM     80  C   UNL A   1      45.208  25.539  35.194  1.00  0.00     0.040 A 
ATOM     81  C   UNL A   1      46.720  27.283  34.509  1.00  0.00     0.040 A 
ATOM     82  F   UNL A   1      45.891  29.217  33.475  1.00  0.00    -0.206 F 
ATOM     83  C   UNL A   1      46.505  26.040  35.100  1.00  0.00     0.006 A 
ENDBRANCH  59  76
ENDBRANCH  33  34
ENDBRANCH  25  28
ENDBRANCH  23  24
ENDBRANCH  22  23
ENDBRANCH  21  22
ENDBRANCH   1  21
TORSDOF 17
ENDMDL
MODEL 3
REMARK VINA RESULT:     -11.0      5.066      9.897
REMARK SMILES CC(C)Cc1ccc([C@H](CF)C(=O)NCCCCCCNC(=O)c2ccc(-c3c4nc(c(-c5c(F)cccc5F)c5ccc([nH]5)c(-c5c(F)cccc5F)c5nc(c(-c6c(F)cccc6F)c6ccc3[nH]6)C=C5)C=C4)cc2)cc1
REMARK SMILES IDX 17 1 16 2 15 3 14 4 12 5 13 6 9 8 8 9 5 10 6 11 79 12 7 13
REMARK SMILES IDX 78 14 4 15 2 16 1 17 3 18 10 19 11 20 18 21 19 22 20 23
REMARK SMILES IDX 21 24 22 25 23 27 24 28 25 29 77 30 26 31 76 32 27 33 28 34
REMARK SMILES IDX 29 35 70 36 30 37 75 38 69 39 71 40 31 41 74 42 68 43 67 44
REMARK SMILES IDX 32 46 58 47 41 48 57 49 42 50 45 51 56 52 72 53 43 54 44 55
REMARK SMILES IDX 55 57 73 58 46 59 33 60 34 61 39 62 35 63 36 64 38 65 40 66
REMARK SMILES IDX 37 67 59 68 60 69 65 70 61 71 62 72 64 73 66 74 63 75 47 76
REMARK SMILES IDX 48 77 53 78 49 79 50 80 52 81 54 82 51 83
REMARK H PARENT 14 7 21 26 71 45 45 56
REMARK Flexibility Score: inf
ROOT
ATOM      1  C   UNL A   1      36.667  21.954  25.271  1.00  0.00     0.002 C 
ENDROOT
BRANCH   1   2
ATOM      2  C   UNL A   1      36.533  22.943  24.113  1.00  0.00     0.021 C 
BRANCH   2   3
ATOM      3  C   UNL A   1      35.102  23.352  23.781  1.00  0.00     0.116 C 
BRANCH   3   4
ATOM      4  N   UNL A   1      34.404  23.918  24.914  1.00  0.00    -0.355 N 
ATOM      5  C   UNL A   1      33.112  23.770  25.315  1.00  0.00     0.230 C 
ATOM      6  O   UNL A   1      32.793  24.328  26.373  1.00  0.00    -0.274 OA
ATOM      7  H   UNL A   1      34.951  24.504  25.487  1.00  0.00     0.163 HD
BRANCH   5   8
ATOM      8  C   UNL A   1      32.062  22.975  24.533  1.00  0.00     0.139 C 
BRANCH   8   9
ATOM      9  C   UNL A   1      32.359  21.484  24.420  1.00  0.00    -0.033 A 
ATOM     10  C   UNL A   1      32.768  18.697  24.092  1.00  0.00    -0.048 A 
ATOM     11  C   UNL A   1      32.915  19.298  25.345  1.00  0.00     0.004 A 
ATOM     12  C   UNL A   1      32.469  19.508  22.994  1.00  0.00     0.004 A 
ATOM     13  C   UNL A   1      32.753  20.681  25.498  1.00  0.00     0.005 A 
ATOM     14  C   UNL A   1      32.237  20.874  23.161  1.00  0.00     0.005 A 
BRANCH  10  15
ATOM     15  C   UNL A   1      32.910  17.203  23.927  1.00  0.00     0.038 C 
BRANCH  15  16
ATOM     16  C   UNL A   1      33.447  16.482  25.183  1.00  0.00    -0.013 C 
ATOM     17  C   UNL A   1      32.715  15.167  25.471  1.00  0.00     0.008 C 
ATOM     18  C   UNL A   1      34.942  16.198  25.015  1.00  0.00     0.008 C 
ENDBRANCH  15  16
ENDBRANCH  10  15
ENDBRANCH   8   9
BRANCH   8  19
ATOM     19  C   UNL A   1      31.559  23.694  23.283  1.00  0.00     0.232 C 
ATOM     20  F   UNL A   1      30.242  23.482  23.047  1.00  0.00    -0.250 F 
ENDBRANCH   8  19
ENDBRANCH   5   8
ENDBRANCH   3   4
ENDBRANCH   2   3
ENDBRANCH   1   2
BRANCH   1  21
ATOM     21  C   UNL A   1      36.433  20.482  24.912  1.00  0.00     0.002 C 
BRANCH  21  22
ATOM     22  C   UNL A   1      37.670  19.581  24.958  1.00  0.00     0.021 C 
BRANCH  22  23
ATOM     23  C   UNL A   1      38.878  20.170  25.677  1.00  0.00     0.116 C 
BRANCH  23  24
ATOM     24  N   UNL A   1      39.996  19.244  25.738  1.00  0.00    -0.352 N 
ATOM     25  C   UNL A   1      41.309  19.477  26.063  1.00  0.00     0.251 C 
ATOM     26  H   UNL A   1      39.779  18.310  25.513  1.00  0.00     0.163 HD
ATOM     27  O   UNL A   1      42.149  18.600  25.899  1.00  0.00    -0.269 OA
BRANCH  25  28
ATOM     28  C   UNL A   1      41.716  20.797  26.592  1.00  0.00     0.039 A 
ATOM     29  C   UNL A   1      42.235  21.744  25.707  1.00  0.00     0.014 A 
ATOM     30  C   UNL A   1      41.598  21.096  27.953  1.00  0.00     0.014 A 
ATOM     31  C   UNL A   1      42.581  23.013  26.176  1.00  0.00     0.010 A 
ATOM     32  C   UNL A   1      41.873  22.383  28.405  1.00  0.00     0.010 A 
ATOM     33  C   UNL A   1      42.372  23.354  27.522  1.00  0.00    -0.014 A 
BRANCH  33  34
ATOM     34  C   UNL A   1      42.671  24.719  28.026  1.00  0.00     0.031 A 
ATOM     35  C   UNL A   1      44.070  25.085  28.434  1.00  0.00     0.074 A 
ATOM     36  C   UNL A   1      41.670  25.609  28.172  1.00  0.00     0.049 A 
ATOM     37  N   UNL A   1      44.514  26.198  28.962  1.00  0.00    -0.248 NA
ATOM     38  C   UNL A   1      45.105  24.054  28.252  1.00  0.00     0.031 C 
ATOM     39  C   UNL A   1      40.264  25.361  27.851  1.00  0.00     0.029 A 
ATOM     40  N   UNL A   1      41.681  26.899  28.640  1.00  0.00    -0.354 N 
ATOM     41  C   UNL A   1      45.871  25.997  29.183  1.00  0.00     0.074 A 
ATOM     42  C   UNL A   1      46.166  24.638  28.787  1.00  0.00     0.031 C 
ATOM     43  C   UNL A   1      39.552  26.470  28.110  1.00  0.00     0.029 A 
ATOM     44  C   UNL A   1      40.441  27.490  28.654  1.00  0.00     0.049 A 
ATOM     45  H   UNL A   1      42.500  27.357  28.938  1.00  0.00     0.167 HD
ATOM     46  C   UNL A   1      46.791  26.873  29.653  1.00  0.00     0.037 A 
ATOM     47  C   UNL A   1      40.062  28.714  29.068  1.00  0.00     0.037 A 
ATOM     48  C   UNL A   1      46.496  28.231  30.028  1.00  0.00     0.049 A 
ATOM     49  C   UNL A   1      41.101  29.662  29.604  1.00  0.00     0.074 A 
ATOM     50  C   UNL A   1      47.368  29.213  30.465  1.00  0.00     0.029 A 
ATOM     51  N   UNL A   1      45.230  28.797  30.018  1.00  0.00    -0.354 N 
ATOM     52  N   UNL A   1      42.391  29.481  29.747  1.00  0.00    -0.248 NA
ATOM     53  C   UNL A   1      40.629  30.987  30.032  1.00  0.00     0.031 C 
ATOM     54  C   UNL A   1      46.623  30.358  30.766  1.00  0.00     0.029 A 
ATOM     55  C   UNL A   1      45.294  30.107  30.464  1.00  0.00     0.049 A 
ATOM     56  H   UNL A   1      44.407  28.335  29.736  1.00  0.00     0.167 HD
ATOM     57  C   UNL A   1      42.890  30.676  30.248  1.00  0.00     0.074 A 
ATOM     58  C   UNL A   1      41.764  31.579  30.374  1.00  0.00     0.031 C 
ATOM     59  C   UNL A   1      44.167  30.997  30.575  1.00  0.00     0.037 A 
BRANCH  46  60
ATOM     60  C   UNL A   1      48.205  26.388  29.787  1.00  0.00     0.057 A 
ATOM     61  C   UNL A   1      49.146  26.551  28.760  1.00  0.00     0.134 A 
ATOM     62  C   UNL A   1      48.644  25.778  30.970  1.00  0.00     0.134 A 
ATOM     63  F   UNL A   1      48.789  27.117  27.596  1.00  0.00    -0.206 F 
ATOM     64  C   UNL A   1      50.461  26.102  28.894  1.00  0.00     0.040 A 
ATOM     65  C   UNL A   1      49.965  25.352  31.127  1.00  0.00     0.040 A 
ATOM     66  F   UNL A   1      47.800  25.596  31.996  1.00  0.00    -0.206 F 
ATOM     67  C   UNL A   1      50.875  25.507  30.084  1.00  0.00     0.006 A 
ENDBRANCH  46  60
BRANCH  47  68
ATOM     68  C   UNL A   1      38.637  29.124  28.979  1.00  0.00     0.057 A 
ATOM     69  C   UNL A   1      37.795  29.058  30.095  1.00  0.00     0.134 A 
ATOM     70  C   UNL A   1      38.081  29.581  27.779  1.00  0.00     0.134 A 
ATOM     71  F   UNL A   1      38.266  28.611  31.269  1.00  0.00    -0.206 F 
ATOM     72  C   UNL A   1      36.447  29.408  30.016  1.00  0.00     0.040 A 
ATOM     73  C   UNL A   1      36.740  29.960  27.691  1.00  0.00     0.040 A 
ATOM     74  F   UNL A   1      38.835  29.676  26.674  1.00  0.00    -0.206 F 
ATOM     75  C   UNL A   1      35.916  29.866  28.812  1.00  0.00     0.006 A 
ENDBRANCH  47  68
BRANCH  59  76
ATOM     76  C   UNL A   1      44.423  32.395  31.058  1.00  0.00     0.057 A 
ATOM     77  C   UNL A   1      44.412  32.725  32.419  1.00  0.00     0.134 A 
ATOM     78  C   UNL A   1      44.727  33.417  30.148  1.00  0.00     0.134 A 
ATOM     79  F   UNL A   1      44.113  31.797  33.340  1.00  0.00    -0.206 F 
ATOM     80  C   UNL A   1      44.671  34.025  32.856  1.00  0.00     0.040 A 
ATOM     81  C   UNL A   1      45.018  34.713  30.575  1.00  0.00     0.040 A 
ATOM     82  F   UNL A   1      44.765  33.168  28.830  1.00  0.00    -0.206 F 
ATOM     83  C   UNL A   1      44.983  35.021  31.933  1.00  0.00     0.006 A 
ENDBRANCH  59  76
ENDBRANCH  33  34
ENDBRANCH  25  28
ENDBRANCH  23  24
ENDBRANCH  22  23
ENDBRANCH  21  22
ENDBRANCH   1  21
TORSDOF 17
ENDMDL
