MODEL 1
REMARK VINA RESULT:     -12.6      0.000      0.000
REMARK SMILES [NH3+][C@H]1CN(C(=O)OCC2c3ccccc3-c3ccccc32)C[C@@H]1C(=O)NCCCCCCNC(=O)c1ccc(-c2c3nc(c(-c4c(F)cccc4F)c4ccc([nH]4)c(-c4c(F)cccc4F)c4nc(c(-c5c(F)cccc5F)c5ccc2[nH]5)C=C4)C=C3)cc1
REMARK SMILES IDX 28 1 27 2 26 3 24 4 25 5 23 7 2 8 3 9 4 10 22 11 1 12 5 16
REMARK SMILES IDX 6 17 7 18 8 19 9 20 10 21 21 22 11 23 15 24 16 25 20 26
REMARK SMILES IDX 12 27 14 28 17 29 19 30 13 31 18 32 29 33 30 34 31 35 32 36
REMARK SMILES IDX 33 37 34 38 35 40 36 41 37 42 89 43 38 44 88 45 39 46 40 47
REMARK SMILES IDX 41 48 82 49 42 50 87 51 81 52 83 53 43 54 86 55 80 56 79 57
REMARK SMILES IDX 44 59 70 60 53 61 69 62 54 63 57 64 68 65 84 66 55 67 56 68
REMARK SMILES IDX 67 70 85 71 58 72 45 73 46 74 51 75 47 76 48 77 50 78 52 79
REMARK SMILES IDX 49 80 71 81 72 82 77 83 73 84 74 85 76 86 78 87 75 88 59 89
REMARK SMILES IDX 60 90 65 91 61 92 62 93 64 94 66 95 63 96
REMARK H PARENT 26 6 1 13 1 14 1 15 33 39 83 58 57 69
REMARK Flexibility Score: inf
ROOT
ATOM      1  C   UNL A   1      33.263  29.244  27.461  1.00  0.00     0.021 C 
ENDROOT
BRANCH   1   2
ATOM      2  C   UNL A   1      34.120  28.706  26.316  1.00  0.00     0.116 C 
BRANCH   2   3
ATOM      3  N   UNL A   1      33.694  27.369  25.956  1.00  0.00    -0.356 N 
ATOM      4  C   UNL A   1      33.036  26.934  24.849  1.00  0.00     0.231 C 
ATOM      5  O   UNL A   1      32.491  25.831  24.900  1.00  0.00    -0.274 OA
ATOM      6  H   UNL A   1      33.914  26.669  26.613  1.00  0.00     0.163 HD
BRANCH   4   7
ATOM      7  C   UNL A   1      33.033  27.788  23.598  1.00  0.00     0.158 C 
ATOM      8  C   UNL A   1      31.605  28.025  23.086  1.00  0.00     0.215 C 
ATOM      9  C   UNL A   1      31.339  26.826  22.142  1.00  0.00     0.188 C 
ATOM     10  N   UNL A   1      32.645  26.271  21.843  1.00  0.00    -0.301 N 
ATOM     11  C   UNL A   1      33.709  27.003  22.490  1.00  0.00     0.143 C 
BRANCH   8  12
ATOM     12  N   UNL A   1      31.535  29.331  22.400  1.00  0.00    -0.353 N 
ATOM     13  H   UNL A   1      31.941  30.051  22.997  1.00  0.00     0.344 HD
ATOM     14  H   UNL A   1      30.560  29.561  22.205  1.00  0.00     0.344 HD
ATOM     15  H   UNL A   1      32.054  29.283  21.523  1.00  0.00     0.344 HD
ENDBRANCH   8  12
BRANCH  10  16
ATOM     16  C   UNL A   1      32.860  25.034  21.299  1.00  0.00     0.410 C 
ATOM     17  O   UNL A   1      33.098  24.851  20.109  1.00  0.00    -0.224 OA
BRANCH  16  18
ATOM     18  O   UNL A   1      32.630  24.041  22.199  1.00  0.00    -0.448 OA
BRANCH  18  19
ATOM     19  C   UNL A   1      33.792  23.258  22.532  1.00  0.00     0.248 C 
BRANCH  19  20
ATOM     20  C   UNL A   1      33.738  22.703  23.975  1.00  0.00     0.088 C 
ATOM     21  C   UNL A   1      33.480  21.198  24.077  1.00  0.00    -0.029 A 
ATOM     22  C   UNL A   1      35.117  22.807  24.630  1.00  0.00    -0.029 A 
ATOM     23  C   UNL A   1      32.323  20.489  23.794  1.00  0.00     0.005 A 
ATOM     24  C   UNL A   1      34.629  20.533  24.550  1.00  0.00    -0.014 A 
ATOM     25  C   UNL A   1      35.616  21.520  24.928  1.00  0.00    -0.014 A 
ATOM     26  C   UNL A   1      35.844  23.946  24.938  1.00  0.00     0.005 A 
ATOM     27  C   UNL A   1      32.361  19.095  23.850  1.00  0.00     0.000 A 
ATOM     28  C   UNL A   1      34.666  19.149  24.623  1.00  0.00     0.009 A 
ATOM     29  C   UNL A   1      36.845  21.364  25.546  1.00  0.00     0.009 A 
ATOM     30  C   UNL A   1      37.085  23.788  25.560  1.00  0.00     0.000 A 
ATOM     31  C   UNL A   1      33.530  18.428  24.244  1.00  0.00     0.001 A 
ATOM     32  C   UNL A   1      37.580  22.509  25.864  1.00  0.00     0.001 A 
ENDBRANCH  19  20
ENDBRANCH  18  19
ENDBRANCH  16  18
ENDBRANCH  10  16
ENDBRANCH   4   7
ENDBRANCH   2   3
ENDBRANCH   1   2
BRANCH   1  33
ATOM     33  C   UNL A   1      31.811  29.544  27.069  1.00  0.00     0.002 C 
BRANCH  33  34
ATOM     34  C   UNL A   1      31.638  30.678  26.053  1.00  0.00     0.002 C 
BRANCH  34  35
ATOM     35  C   UNL A   1      31.429  32.063  26.667  1.00  0.00     0.021 C 
BRANCH  35  36
ATOM     36  C   UNL A   1      32.703  32.733  27.168  1.00  0.00     0.116 C 
BRANCH  36  37
ATOM     37  N   UNL A   1      32.451  34.061  27.703  1.00  0.00    -0.352 N 
ATOM     38  C   UNL A   1      33.111  34.735  28.701  1.00  0.00     0.251 C 
ATOM     39  H   UNL A   1      31.700  34.546  27.293  1.00  0.00     0.163 HD
ATOM     40  O   UNL A   1      32.647  35.776  29.154  1.00  0.00    -0.269 OA
BRANCH  38  41
ATOM     41  C   UNL A   1      34.370  34.189  29.249  1.00  0.00     0.039 A 
ATOM     42  C   UNL A   1      34.322  33.426  30.419  1.00  0.00     0.014 A 
ATOM     43  C   UNL A   1      35.593  34.428  28.616  1.00  0.00     0.014 A 
ATOM     44  C   UNL A   1      35.491  32.850  30.918  1.00  0.00     0.010 A 
ATOM     45  C   UNL A   1      36.745  33.790  29.072  1.00  0.00     0.010 A 
ATOM     46  C   UNL A   1      36.707  32.996  30.228  1.00  0.00    -0.014 A 
BRANCH  46  47
ATOM     47  C   UNL A   1      37.942  32.317  30.698  1.00  0.00     0.031 A 
ATOM     48  C   UNL A   1      38.763  32.916  31.808  1.00  0.00     0.074 A 
ATOM     49  C   UNL A   1      38.359  31.193  30.082  1.00  0.00     0.049 A 
ATOM     50  N   UNL A   1      39.902  32.505  32.306  1.00  0.00    -0.248 NA
ATOM     51  C   UNL A   1      38.250  34.151  32.424  1.00  0.00     0.031 C 
ATOM     52  C   UNL A   1      37.679  30.540  28.960  1.00  0.00     0.029 A 
ATOM     53  N   UNL A   1      39.462  30.406  30.301  1.00  0.00    -0.354 N 
ATOM     54  C   UNL A   1      40.248  33.436  33.277  1.00  0.00     0.074 A 
ATOM     55  C   UNL A   1      39.225  34.458  33.269  1.00  0.00     0.031 C 
ATOM     56  C   UNL A   1      38.370  29.446  28.602  1.00  0.00     0.029 A 
ATOM     57  C   UNL A   1      39.562  29.342  29.437  1.00  0.00     0.049 A 
ATOM     58  H   UNL A   1      40.121  30.588  31.010  1.00  0.00     0.167 HD
ATOM     59  C   UNL A   1      41.312  33.428  34.115  1.00  0.00     0.037 A 
ATOM     60  C   UNL A   1      40.515  28.397  29.321  1.00  0.00     0.037 A 
ATOM     61  C   UNL A   1      42.314  32.395  34.142  1.00  0.00     0.049 A 
ATOM     62  C   UNL A   1      41.689  28.417  30.263  1.00  0.00     0.074 A 
ATOM     63  C   UNL A   1      43.388  32.262  35.003  1.00  0.00     0.029 A 
ATOM     64  N   UNL A   1      42.367  31.320  33.268  1.00  0.00    -0.354 N 
ATOM     65  N   UNL A   1      41.957  29.259  31.230  1.00  0.00    -0.248 NA
ATOM     66  C   UNL A   1      42.687  27.351  30.101  1.00  0.00     0.031 C 
ATOM     67  C   UNL A   1      44.124  31.139  34.615  1.00  0.00     0.029 A 
ATOM     68  C   UNL A   1      43.474  30.537  33.552  1.00  0.00     0.049 A 
ATOM     69  H   UNL A   1      41.714  31.140  32.552  1.00  0.00     0.167 HD
ATOM     70  C   UNL A   1      43.135  28.805  31.813  1.00  0.00     0.074 A 
ATOM     71  C   UNL A   1      43.519  27.606  31.101  1.00  0.00     0.031 C 
ATOM     72  C   UNL A   1      43.836  29.337  32.844  1.00  0.00     0.037 A 
BRANCH  59  73
ATOM     73  C   UNL A   1      41.457  34.570  35.079  1.00  0.00     0.057 A 
ATOM     74  C   UNL A   1      40.903  34.528  36.364  1.00  0.00     0.134 A 
ATOM     75  C   UNL A   1      42.228  35.690  34.745  1.00  0.00     0.134 A 
ATOM     76  F   UNL A   1      40.145  33.488  36.745  1.00  0.00    -0.206 F 
ATOM     77  C   UNL A   1      41.097  35.567  37.278  1.00  0.00     0.040 A 
ATOM     78  C   UNL A   1      42.454  36.722  35.658  1.00  0.00     0.040 A 
ATOM     79  F   UNL A   1      42.795  35.792  33.533  1.00  0.00    -0.206 F 
ATOM     80  C   UNL A   1      41.884  36.662  36.929  1.00  0.00     0.006 A 
ENDBRANCH  59  73
BRANCH  60  81
ATOM     81  C   UNL A   1      40.410  27.348  28.272  1.00  0.00     0.057 A 
ATOM     82  C   UNL A   1      39.721  26.152  28.506  1.00  0.00     0.134 A 
ATOM     83  C   UNL A   1      41.031  27.498  27.026  1.00  0.00     0.134 A 
ATOM     84  F   UNL A   1      39.120  25.939  29.687  1.00  0.00    -0.206 F 
ATOM     85  C   UNL A   1      39.683  25.131  27.555  1.00  0.00     0.040 A 
ATOM     86  C   UNL A   1      40.974  26.498  26.054  1.00  0.00     0.040 A 
ATOM     87  F   UNL A   1      41.699  28.623  26.733  1.00  0.00    -0.206 F 
ATOM     88  C   UNL A   1      40.309  25.303  26.323  1.00  0.00     0.006 A 
ENDBRANCH  60  81
BRANCH  72  89
ATOM     89  C   UNL A   1      45.064  28.599  33.296  1.00  0.00     0.057 A 
ATOM     90  C   UNL A   1      46.337  28.900  32.799  1.00  0.00     0.134 A 
ATOM     91  C   UNL A   1      44.972  27.600  34.275  1.00  0.00     0.134 A 
ATOM     92  F   UNL A   1      46.494  29.838  31.852  1.00  0.00    -0.206 F 
ATOM     93  C   UNL A   1      47.472  28.217  33.239  1.00  0.00     0.040 A 
ATOM     94  C   UNL A   1      46.102  26.932  34.745  1.00  0.00     0.040 A 
ATOM     95  F   UNL A   1      43.783  27.269  34.802  1.00  0.00    -0.206 F 
ATOM     96  C   UNL A   1      47.357  27.234  34.221  1.00  0.00     0.006 A 
ENDBRANCH  72  89
ENDBRANCH  46  47
ENDBRANCH  38  41
ENDBRANCH  36  37
ENDBRANCH  35  36
ENDBRANCH  34  35
ENDBRANCH  33  34
ENDBRANCH   1  33
TORSDOF 18
ENDMDL
MODEL 2
REMARK VINA RESULT:     -12.6      1.055      5.965
REMARK SMILES [NH3+][C@H]1CN(C(=O)OCC2c3ccccc3-c3ccccc32)C[C@@H]1C(=O)NCCCCCCNC(=O)c1ccc(-c2c3nc(c(-c4c(F)cccc4F)c4ccc([nH]4)c(-c4c(F)cccc4F)c4nc(c(-c5c(F)cccc5F)c5ccc2[nH]5)C=C4)C=C3)cc1
REMARK SMILES IDX 28 1 27 2 26 3 24 4 25 5 23 7 2 8 3 9 4 10 22 11 1 12 5 16
REMARK SMILES IDX 6 17 7 18 8 19 9 20 10 21 21 22 11 23 15 24 16 25 20 26
REMARK SMILES IDX 12 27 14 28 17 29 19 30 13 31 18 32 29 33 30 34 31 35 32 36
REMARK SMILES IDX 33 37 34 38 35 40 36 41 37 42 89 43 38 44 88 45 39 46 40 47
REMARK SMILES IDX 41 48 82 49 42 50 87 51 81 52 83 53 43 54 86 55 80 56 79 57
REMARK SMILES IDX 44 59 70 60 53 61 69 62 54 63 57 64 68 65 84 66 55 67 56 68
REMARK SMILES IDX 67 70 85 71 58 72 45 73 46 74 51 75 47 76 48 77 50 78 52 79
REMARK SMILES IDX 49 80 71 81 72 82 77 83 73 84 74 85 76 86 78 87 75 88 59 89
REMARK SMILES IDX 60 90 65 91 61 92 62 93 64 94 66 95 63 96
REMARK H PARENT 26 6 1 13 1 14 1 15 33 39 83 58 57 69
REMARK Flexibility Score: inf
ROOT
ATOM      1  C   UNL A   1      33.560  29.100  27.003  1.00  0.00     0.021 C 
ENDROOT
BRANCH   1   2
ATOM      2  C   UNL A   1      33.758  28.236  25.759  1.00  0.00     0.116 C 
BRANCH   2   3
ATOM      3  N   UNL A   1      33.460  26.849  26.058  1.00  0.00    -0.356 N 
ATOM      4  C   UNL A   1      32.326  26.135  25.833  1.00  0.00     0.231 C 
ATOM      5  O   UNL A   1      32.177  25.083  26.456  1.00  0.00    -0.274 OA
ATOM      6  H   UNL A   1      34.190  26.350  26.491  1.00  0.00     0.163 HD
BRANCH   4   7
ATOM      7  C   UNL A   1      31.324  26.626  24.809  1.00  0.00     0.158 C 
ATOM      8  C   UNL A   1      30.327  25.522  24.428  1.00  0.00     0.215 C 
ATOM      9  C   UNL A   1      31.012  24.786  23.250  1.00  0.00     0.188 C 
ATOM     10  N   UNL A   1      32.043  25.689  22.775  1.00  0.00    -0.301 N 
ATOM     11  C   UNL A   1      32.071  26.924  23.523  1.00  0.00     0.143 C 
BRANCH   8  12
ATOM     12  N   UNL A   1      29.033  26.129  24.060  1.00  0.00    -0.353 N 
ATOM     13  H   UNL A   1      29.100  27.144  24.131  1.00  0.00     0.344 HD
ATOM     14  H   UNL A   1      28.306  25.792  24.693  1.00  0.00     0.344 HD
ATOM     15  H   UNL A   1      28.795  25.871  23.102  1.00  0.00     0.344 HD
ENDBRANCH   8  12
BRANCH  10  16
ATOM     16  C   UNL A   1      33.078  25.328  21.956  1.00  0.00     0.410 C 
ATOM     17  O   UNL A   1      33.023  25.389  20.732  1.00  0.00    -0.224 OA
BRANCH  16  18
ATOM     18  O   UNL A   1      34.098  24.762  22.654  1.00  0.00    -0.448 OA
BRANCH  18  19
ATOM     19  C   UNL A   1      34.073  23.322  22.682  1.00  0.00     0.248 C 
BRANCH  19  20
ATOM     20  C   UNL A   1      34.052  22.759  24.123  1.00  0.00     0.088 C 
ATOM     21  C   UNL A   1      33.670  21.282  24.232  1.00  0.00    -0.029 A 
ATOM     22  C   UNL A   1      35.470  22.737  24.699  1.00  0.00    -0.029 A 
ATOM     23  C   UNL A   1      32.441  20.679  24.012  1.00  0.00     0.005 A 
ATOM     24  C   UNL A   1      34.781  20.514  24.636  1.00  0.00    -0.014 A 
ATOM     25  C   UNL A   1      35.870  21.408  24.962  1.00  0.00    -0.014 A 
ATOM     26  C   UNL A   1      36.309  23.805  24.972  1.00  0.00     0.005 A 
ATOM     27  C   UNL A   1      32.361  19.286  24.059  1.00  0.00     0.000 A 
ATOM     28  C   UNL A   1      34.701  19.131  24.699  1.00  0.00     0.009 A 
ATOM     29  C   UNL A   1      37.114  21.140  25.508  1.00  0.00     0.009 A 
ATOM     30  C   UNL A   1      37.565  23.533  25.521  1.00  0.00     0.000 A 
ATOM     31  C   UNL A   1      33.487  18.516  24.382  1.00  0.00     0.001 A 
ATOM     32  C   UNL A   1      37.963  22.213  25.789  1.00  0.00     0.001 A 
ENDBRANCH  19  20
ENDBRANCH  18  19
ENDBRANCH  16  18
ENDBRANCH  10  16
ENDBRANCH   4   7
ENDBRANCH   2   3
ENDBRANCH   1   2
BRANCH   1  33
ATOM     33  C   UNL A   1      32.134  29.638  27.172  1.00  0.00     0.002 C 
BRANCH  33  34
ATOM     34  C   UNL A   1      31.672  30.598  26.071  1.00  0.00     0.002 C 
BRANCH  34  35
ATOM     35  C   UNL A   1      31.433  32.036  26.532  1.00  0.00     0.021 C 
BRANCH  35  36
ATOM     36  C   UNL A   1      32.612  32.673  27.259  1.00  0.00     0.116 C 
BRANCH  36  37
ATOM     37  N   UNL A   1      32.347  34.053  27.633  1.00  0.00    -0.352 N 
ATOM     38  C   UNL A   1      32.975  34.835  28.570  1.00  0.00     0.251 C 
ATOM     39  H   UNL A   1      31.611  34.488  27.145  1.00  0.00     0.163 HD
ATOM     40  O   UNL A   1      32.500  35.921  28.887  1.00  0.00    -0.269 OA
BRANCH  38  41
ATOM     41  C   UNL A   1      34.215  34.355  29.216  1.00  0.00     0.039 A 
ATOM     42  C   UNL A   1      34.122  33.697  30.445  1.00  0.00     0.014 A 
ATOM     43  C   UNL A   1      35.462  34.553  28.617  1.00  0.00     0.014 A 
ATOM     44  C   UNL A   1      35.274  33.182  31.043  1.00  0.00     0.010 A 
ATOM     45  C   UNL A   1      36.598  33.972  29.176  1.00  0.00     0.010 A 
ATOM     46  C   UNL A   1      36.517  33.282  30.395  1.00  0.00    -0.014 A 
BRANCH  46  47
ATOM     47  C   UNL A   1      37.736  32.662  30.975  1.00  0.00     0.031 A 
ATOM     48  C   UNL A   1      38.349  31.446  30.335  1.00  0.00     0.074 A 
ATOM     49  C   UNL A   1      38.257  33.159  32.114  1.00  0.00     0.049 A 
ATOM     50  N   UNL A   1      39.370  30.730  30.732  1.00  0.00    -0.248 NA
ATOM     51  C   UNL A   1      37.717  30.954  29.099  1.00  0.00     0.031 C 
ATOM     52  C   UNL A   1      37.727  34.304  32.860  1.00  0.00     0.029 A 
ATOM     53  N   UNL A   1      39.340  32.757  32.856  1.00  0.00    -0.354 N 
ATOM     54  C   UNL A   1      39.492  29.699  29.809  1.00  0.00     0.074 A 
ATOM     55  C   UNL A   1      38.415  29.852  28.857  1.00  0.00     0.031 C 
ATOM     56  C   UNL A   1      38.495  34.521  33.939  1.00  0.00     0.029 A 
ATOM     57  C   UNL A   1      39.544  33.508  33.989  1.00  0.00     0.049 A 
ATOM     58  H   UNL A   1      39.917  32.001  32.600  1.00  0.00     0.167 HD
ATOM     59  C   UNL A   1      40.430  28.724  29.750  1.00  0.00     0.037 A 
ATOM     60  C   UNL A   1      40.463  33.386  34.966  1.00  0.00     0.037 A 
ATOM     61  C   UNL A   1      41.519  28.589  30.682  1.00  0.00     0.049 A 
ATOM     62  C   UNL A   1      41.490  32.289  34.874  1.00  0.00     0.074 A 
ATOM     63  C   UNL A   1      42.560  27.679  30.662  1.00  0.00     0.029 A 
ATOM     64  N   UNL A   1      41.705  29.385  31.802  1.00  0.00    -0.354 N 
ATOM     65  N   UNL A   1      41.641  31.373  33.950  1.00  0.00    -0.248 NA
ATOM     66  C   UNL A   1      42.480  32.215  35.958  1.00  0.00     0.031 C 
ATOM     67  C   UNL A   1      43.345  27.885  31.800  1.00  0.00     0.029 A 
ATOM     68  C   UNL A   1      42.828  28.965  32.496  1.00  0.00     0.049 A 
ATOM     69  H   UNL A   1      41.125  30.137  32.065  1.00  0.00     0.167 HD
ATOM     70  C   UNL A   1      42.759  30.636  34.323  1.00  0.00     0.074 A 
ATOM     71  C   UNL A   1      43.257  31.223  35.548  1.00  0.00     0.031 C 
ATOM     72  C   UNL A   1      43.321  29.568  33.707  1.00  0.00     0.037 A 
BRANCH  59  73
ATOM     73  C   UNL A   1      40.331  27.718  28.640  1.00  0.00     0.057 A 
ATOM     74  C   UNL A   1      41.001  27.891  27.423  1.00  0.00     0.134 A 
ATOM     75  C   UNL A   1      39.619  26.525  28.822  1.00  0.00     0.134 A 
ATOM     76  F   UNL A   1      41.692  29.015  27.180  1.00  0.00    -0.206 F 
ATOM     77  C   UNL A   1      40.955  26.920  26.420  1.00  0.00     0.040 A 
ATOM     78  C   UNL A   1      39.589  25.535  27.838  1.00  0.00     0.040 A 
ATOM     79  F   UNL A   1      38.960  26.292  29.967  1.00  0.00    -0.206 F 
ATOM     80  C   UNL A   1      40.257  25.733  26.632  1.00  0.00     0.006 A 
ENDBRANCH  59  73
BRANCH  60  81
ATOM     81  C   UNL A   1      40.462  34.321  36.121  1.00  0.00     0.057 A 
ATOM     82  C   UNL A   1      39.749  34.031  37.291  1.00  0.00     0.134 A 
ATOM     83  C   UNL A   1      41.138  35.546  36.069  1.00  0.00     0.134 A 
ATOM     84  F   UNL A   1      39.064  32.881  37.397  1.00  0.00    -0.206 F 
ATOM     85  C   UNL A   1      39.679  34.937  38.350  1.00  0.00     0.040 A 
ATOM     86  C   UNL A   1      41.104  36.448  37.132  1.00  0.00     0.040 A 
ATOM     87  F   UNL A   1      41.848  35.882  34.982  1.00  0.00    -0.206 F 
ATOM     88  C   UNL A   1      40.361  36.150  38.274  1.00  0.00     0.006 A 
ENDBRANCH  60  81
BRANCH  72  89
ATOM     89  C   UNL A   1      44.567  28.994  34.320  1.00  0.00     0.057 A 
ATOM     90  C   UNL A   1      45.843  29.471  33.995  1.00  0.00     0.134 A 
ATOM     91  C   UNL A   1      44.482  27.977  35.279  1.00  0.00     0.134 A 
ATOM     92  F   UNL A   1      45.995  30.437  33.076  1.00  0.00    -0.206 F 
ATOM     93  C   UNL A   1      46.991  28.939  34.584  1.00  0.00     0.040 A 
ATOM     94  C   UNL A   1      45.620  27.458  35.897  1.00  0.00     0.040 A 
ATOM     95  F   UNL A   1      43.289  27.481  35.645  1.00  0.00    -0.206 F 
ATOM     96  C   UNL A   1      46.881  27.934  35.544  1.00  0.00     0.006 A 
ENDBRANCH  72  89
ENDBRANCH  46  47
ENDBRANCH  38  41
ENDBRANCH  36  37
ENDBRANCH  35  36
ENDBRANCH  34  35
ENDBRANCH  33  34
ENDBRANCH   1  33
TORSDOF 18
ENDMDL
MODEL 3
REMARK VINA RESULT:     -12.4      3.865      9.029
REMARK SMILES [NH3+][C@H]1CN(C(=O)OCC2c3ccccc3-c3ccccc32)C[C@@H]1C(=O)NCCCCCCNC(=O)c1ccc(-c2c3nc(c(-c4c(F)cccc4F)c4ccc([nH]4)c(-c4c(F)cccc4F)c4nc(c(-c5c(F)cccc5F)c5ccc2[nH]5)C=C4)C=C3)cc1
REMARK SMILES IDX 28 1 27 2 26 3 24 4 25 5 23 7 2 8 3 9 4 10 22 11 1 12 5 16
REMARK SMILES IDX 6 17 7 18 8 19 9 20 10 21 21 22 11 23 15 24 16 25 20 26
REMARK SMILES IDX 12 27 14 28 17 29 19 30 13 31 18 32 29 33 30 34 31 35 32 36
REMARK SMILES IDX 33 37 34 38 35 40 36 41 37 42 89 43 38 44 88 45 39 46 40 47
REMARK SMILES IDX 41 48 82 49 42 50 87 51 81 52 83 53 43 54 86 55 80 56 79 57
REMARK SMILES IDX 44 59 70 60 53 61 69 62 54 63 57 64 68 65 84 66 55 67 56 68
REMARK SMILES IDX 67 70 85 71 58 72 45 73 46 74 51 75 47 76 48 77 50 78 52 79
REMARK SMILES IDX 49 80 71 81 72 82 77 83 73 84 74 85 76 86 78 87 75 88 59 89
REMARK SMILES IDX 60 90 65 91 61 92 62 93 64 94 66 95 63 96
REMARK H PARENT 26 6 1 13 1 14 1 15 33 39 83 58 57 69
REMARK Flexibility Score: inf
ROOT
ATOM      1  C   UNL A   1      37.809  23.714  25.570  1.00  0.00     0.021 C 
ENDROOT
BRANCH   1   2
ATOM      2  C   UNL A   1      36.413  23.863  26.173  1.00  0.00     0.116 C 
BRANCH   2   3
ATOM      3  N   UNL A   1      35.410  23.844  25.127  1.00  0.00    -0.356 N 
ATOM      4  C   UNL A   1      34.438  22.929  24.870  1.00  0.00     0.231 C 
ATOM      5  O   UNL A   1      33.917  22.943  23.754  1.00  0.00    -0.274 OA
ATOM      6  H   UNL A   1      35.437  24.610  24.509  1.00  0.00     0.163 HD
BRANCH   4   7
ATOM      7  C   UNL A   1      34.006  21.971  25.960  1.00  0.00     0.158 C 
ATOM      8  C   UNL A   1      33.050  20.899  25.417  1.00  0.00     0.215 C 
ATOM      9  C   UNL A   1      31.646  21.536  25.566  1.00  0.00     0.188 C 
ATOM     10  N   UNL A   1      31.815  22.633  26.501  1.00  0.00    -0.301 N 
ATOM     11  C   UNL A   1      33.177  22.745  26.968  1.00  0.00     0.143 C 
BRANCH   8  12
ATOM     12  N   UNL A   1      33.209  19.654  26.194  1.00  0.00    -0.353 N 
ATOM     13  H   UNL A   1      34.186  19.363  26.175  1.00  0.00     0.344 HD
ATOM     14  H   UNL A   1      32.628  18.921  25.785  1.00  0.00     0.344 HD
ATOM     15  H   UNL A   1      32.921  19.816  27.160  1.00  0.00     0.344 HD
ENDBRANCH   8  12
BRANCH  10  16
ATOM     16  C   UNL A   1      30.912  23.643  26.688  1.00  0.00     0.410 C 
ATOM     17  O   UNL A   1      29.869  23.510  27.322  1.00  0.00    -0.224 OA
BRANCH  16  18
ATOM     18  O   UNL A   1      31.238  24.749  25.968  1.00  0.00    -0.448 OA
BRANCH  18  19
ATOM     19  C   UNL A   1      30.153  25.676  25.775  1.00  0.00     0.248 C 
BRANCH  19  20
ATOM     20  C   UNL A   1      30.592  26.952  25.018  1.00  0.00     0.088 C 
ATOM     21  C   UNL A   1      31.617  27.817  25.754  1.00  0.00    -0.029 A 
ATOM     22  C   UNL A   1      31.380  26.573  23.762  1.00  0.00    -0.029 A 
ATOM     23  C   UNL A   1      31.452  28.588  26.895  1.00  0.00     0.005 A 
ATOM     24  C   UNL A   1      32.863  27.773  25.095  1.00  0.00    -0.014 A 
ATOM     25  C   UNL A   1      32.707  27.047  23.855  1.00  0.00    -0.014 A 
ATOM     26  C   UNL A   1      30.942  25.882  22.643  1.00  0.00     0.005 A 
ATOM     27  C   UNL A   1      32.572  29.204  27.455  1.00  0.00     0.000 A 
ATOM     28  C   UNL A   1      33.974  28.397  25.640  1.00  0.00     0.009 A 
ATOM     29  C   UNL A   1      33.605  26.839  22.822  1.00  0.00     0.009 A 
ATOM     30  C   UNL A   1      31.850  25.671  21.602  1.00  0.00     0.000 A 
ATOM     31  C   UNL A   1      33.828  29.094  26.843  1.00  0.00     0.001 A 
ATOM     32  C   UNL A   1      33.169  26.147  21.689  1.00  0.00     0.001 A 
ENDBRANCH  19  20
ENDBRANCH  18  19
ENDBRANCH  16  18
ENDBRANCH  10  16
ENDBRANCH   4   7
ENDBRANCH   2   3
ENDBRANCH   1   2
BRANCH   1  33
ATOM     33  C   UNL A   1      38.430  22.325  25.761  1.00  0.00     0.002 C 
BRANCH  33  34
ATOM     34  C   UNL A   1      37.751  21.201  24.972  1.00  0.00     0.002 C 
BRANCH  34  35
ATOM     35  C   UNL A   1      38.552  19.900  24.891  1.00  0.00     0.021 C 
BRANCH  35  36
ATOM     36  C   UNL A   1      39.298  19.534  26.169  1.00  0.00     0.116 C 
BRANCH  36  37
ATOM     37  N   UNL A   1      40.561  18.868  25.895  1.00  0.00    -0.352 N 
ATOM     38  C   UNL A   1      41.833  19.385  25.896  1.00  0.00     0.251 C 
ATOM     39  H   UNL A   1      40.496  17.910  25.678  1.00  0.00     0.163 HD
ATOM     40  O   UNL A   1      42.769  18.723  25.460  1.00  0.00    -0.269 OA
BRANCH  38  41
ATOM     41  C   UNL A   1      42.070  20.754  26.400  1.00  0.00     0.039 A 
ATOM     42  C   UNL A   1      42.123  20.964  27.780  1.00  0.00     0.014 A 
ATOM     43  C   UNL A   1      42.235  21.827  25.519  1.00  0.00     0.014 A 
ATOM     44  C   UNL A   1      42.407  22.239  28.276  1.00  0.00     0.010 A 
ATOM     45  C   UNL A   1      42.593  23.079  26.012  1.00  0.00     0.010 A 
ATOM     46  C   UNL A   1      42.681  23.299  27.395  1.00  0.00    -0.014 A 
BRANCH  46  47
ATOM     47  C   UNL A   1      43.070  24.639  27.906  1.00  0.00     0.031 A 
ATOM     48  C   UNL A   1      42.018  25.670  28.213  1.00  0.00     0.074 A 
ATOM     49  C   UNL A   1      44.376  24.949  28.034  1.00  0.00     0.049 A 
ATOM     50  N   UNL A   1      42.167  26.911  28.603  1.00  0.00    -0.248 NA
ATOM     51  C   UNL A   1      40.614  25.262  28.038  1.00  0.00     0.031 C 
ATOM     52  C   UNL A   1      45.493  24.055  27.720  1.00  0.00     0.029 A 
ATOM     53  N   UNL A   1      44.987  26.106  28.447  1.00  0.00    -0.354 N 
ATOM     54  C   UNL A   1      40.884  27.434  28.702  1.00  0.00     0.074 A 
ATOM     55  C   UNL A   1      39.969  26.393  28.288  1.00  0.00     0.031 C 
ATOM     56  C   UNL A   1      46.649  24.690  27.969  1.00  0.00     0.029 A 
ATOM     57  C   UNL A   1      46.360  26.048  28.417  1.00  0.00     0.049 A 
ATOM     58  H   UNL A   1      44.488  26.905  28.738  1.00  0.00     0.167 HD
ATOM     59  C   UNL A   1      40.503  28.664  29.120  1.00  0.00     0.037 A 
ATOM     60  C   UNL A   1      47.281  26.988  28.702  1.00  0.00     0.037 A 
ATOM     61  C   UNL A   1      41.413  29.689  29.559  1.00  0.00     0.049 A 
ATOM     62  C   UNL A   1      46.826  28.348  29.160  1.00  0.00     0.074 A 
ATOM     63  C   UNL A   1      41.117  30.941  30.069  1.00  0.00     0.029 A 
ATOM     64  N   UNL A   1      42.795  29.583  29.537  1.00  0.00    -0.354 N 
ATOM     65  N   UNL A   1      45.608  28.799  29.328  1.00  0.00    -0.248 NA
ATOM     66  C   UNL A   1      47.876  29.327  29.476  1.00  0.00     0.031 C 
ATOM     67  C   UNL A   1      42.320  31.614  30.303  1.00  0.00     0.029 A 
ATOM     68  C   UNL A   1      43.365  30.759  29.997  1.00  0.00     0.049 A 
ATOM     69  H   UNL A   1      43.297  28.789  29.239  1.00  0.00     0.167 HD
ATOM     70  C   UNL A   1      45.745  30.099  29.799  1.00  0.00     0.074 A 
ATOM     71  C   UNL A   1      47.164  30.358  29.906  1.00  0.00     0.031 C 
ATOM     72  C   UNL A   1      44.780  30.998  30.112  1.00  0.00     0.037 A 
BRANCH  59  73
ATOM     73  C   UNL A   1      39.035  28.981  29.128  1.00  0.00     0.057 A 
ATOM     74  C   UNL A   1      38.255  28.845  30.283  1.00  0.00     0.134 A 
ATOM     75  C   UNL A   1      38.413  29.503  27.986  1.00  0.00     0.134 A 
ATOM     76  F   UNL A   1      38.787  28.343  31.408  1.00  0.00    -0.206 F 
ATOM     77  C   UNL A   1      36.905  29.203  30.299  1.00  0.00     0.040 A 
ATOM     78  C   UNL A   1      37.072  29.891  27.997  1.00  0.00     0.040 A 
ATOM     79  F   UNL A   1      39.104  29.666  26.847  1.00  0.00    -0.206 F 
ATOM     80  C   UNL A   1      36.314  29.739  29.157  1.00  0.00     0.006 A 
ENDBRANCH  59  73
BRANCH  60  81
ATOM     81  C   UNL A   1      48.731  26.686  28.565  1.00  0.00     0.057 A 
ATOM     82  C   UNL A   1      49.413  26.924  27.366  1.00  0.00     0.134 A 
ATOM     83  C   UNL A   1      49.459  26.113  29.615  1.00  0.00     0.134 A 
ATOM     84  F   UNL A   1      48.767  27.454  26.316  1.00  0.00    -0.206 F 
ATOM     85  C   UNL A   1      50.754  26.573  27.204  1.00  0.00     0.040 A 
ATOM     86  C   UNL A   1      50.808  25.786  29.478  1.00  0.00     0.040 A 
ATOM     87  F   UNL A   1      48.868  25.868  30.794  1.00  0.00    -0.206 F 
ATOM     88  C   UNL A   1      51.457  26.004  28.264  1.00  0.00     0.006 A 
ENDBRANCH  60  81
BRANCH  72  89
ATOM     89  C   UNL A   1      45.225  32.329  30.647  1.00  0.00     0.057 A 
ATOM     90  C   UNL A   1      45.447  33.430  29.811  1.00  0.00     0.134 A 
ATOM     91  C   UNL A   1      45.395  32.520  32.025  1.00  0.00     0.134 A 
ATOM     92  F   UNL A   1      45.314  33.312  28.481  1.00  0.00    -0.206 F 
ATOM     93  C   UNL A   1      45.846  34.666  30.323  1.00  0.00     0.040 A 
ATOM     94  C   UNL A   1      45.764  33.758  32.552  1.00  0.00     0.040 A 
ATOM     95  F   UNL A   1      45.188  31.510  32.884  1.00  0.00    -0.206 F 
ATOM     96  C   UNL A   1      45.998  34.834  31.698  1.00  0.00     0.006 A 
ENDBRANCH  72  89
ENDBRANCH  46  47
ENDBRANCH  38  41
ENDBRANCH  36  37
ENDBRANCH  35  36
ENDBRANCH  34  35
ENDBRANCH  33  34
ENDBRANCH   1  33
TORSDOF 18
ENDMDL
