MODEL 1
REMARK VINA RESULT:     -10.3      0.000      0.000
REMARK SMILES C#CCN(CC(=O)NCCCCCCNC(=O)c1ccc(-c2c3nc(c(-c4c(F)cccc4F)c4ccc([nH]4)c(-c4c(F)cccc4F)c4nc(c(-c5c(F)cccc5F)c5ccc2[nH]5)C=C4)C=C3)cc1)C(=O)NCc1ccnc(C)n1
REMARK SMILES IDX 10 1 9 2 8 3 6 4 7 5 5 7 4 8 3 9 2 10 1 11 72 12 73 13 74 14
REMARK SMILES IDX 75 16 76 17 77 18 82 19 78 20 80 21 79 22 81 23 11 24 12 25
REMARK SMILES IDX 13 26 14 27 15 28 16 29 17 31 18 32 19 33 71 34 20 35 70 36
REMARK SMILES IDX 21 37 22 38 23 39 64 40 24 41 69 42 63 43 65 44 25 45 68 46
REMARK SMILES IDX 62 47 61 48 26 50 52 51 35 52 51 53 36 54 39 55 50 56 66 57
REMARK SMILES IDX 37 58 38 59 49 61 67 62 40 63 27 64 28 65 33 66 29 67 30 68
REMARK SMILES IDX 32 69 34 70 31 71 53 72 54 73 59 74 55 75 56 76 58 77 60 78
REMARK SMILES IDX 57 79 41 80 42 81 47 82 43 83 44 84 46 85 48 86 45 87
REMARK H PARENT 8 6 74 15 15 30 65 49 39 60
REMARK Flexibility Score: inf
ROOT
ATOM      1  C   UNL A   1      34.376  32.312  27.780  1.00  0.00     0.021 C 
ENDROOT
BRANCH   1   2
ATOM      2  C   UNL A   1      34.852  30.866  27.644  1.00  0.00     0.116 C 
BRANCH   2   3
ATOM      3  N   UNL A   1      33.853  29.874  27.966  1.00  0.00    -0.355 N 
ATOM      4  C   UNL A   1      33.119  29.070  27.148  1.00  0.00     0.239 C 
ATOM      5  O   UNL A   1      32.678  28.027  27.647  1.00  0.00    -0.273 OA
ATOM      6  H   UNL A   1      33.674  29.760  28.928  1.00  0.00     0.163 HD
BRANCH   4   7
ATOM      7  C   UNL A   1      32.924  29.326  25.644  1.00  0.00     0.222 C 
BRANCH   7   8
ATOM      8  N   UNL A   1      32.471  28.202  24.839  1.00  0.00    -0.304 N 
BRANCH   8   9
ATOM      9  C   UNL A   1      33.519  27.459  24.149  1.00  0.00     0.211 C 
BRANCH   9  10
ATOM     10  C   UNL A   1      33.949  26.189  24.866  1.00  0.00    -0.085 C 
ATOM     11  C   UNL A   1      34.317  25.099  25.481  1.00  0.00     0.006 C 
ENDBRANCH   9  10
ENDBRANCH   8   9
BRANCH   8  12
ATOM     12  C   UNL A   1      31.189  27.775  24.654  1.00  0.00     0.318 C 
ATOM     13  O   UNL A   1      30.640  27.042  25.484  1.00  0.00    -0.249 OA
ATOM     14  N   UNL A   1      30.441  28.057  23.580  1.00  0.00    -0.332 N 
ATOM     15  H   UNL A   1      29.580  27.583  23.637  1.00  0.00     0.165 HD
BRANCH  14  16
ATOM     16  C   UNL A   1      30.497  28.839  22.353  1.00  0.00     0.174 C 
BRANCH  16  17
ATOM     17  C   UNL A   1      29.567  30.032  22.422  1.00  0.00     0.063 A 
ATOM     18  C   UNL A   1      29.163  30.549  23.639  1.00  0.00     0.046 A 
ATOM     19  N   UNL A   1      29.169  30.582  21.250  1.00  0.00    -0.236 NA
ATOM     20  C   UNL A   1      28.348  31.653  23.602  1.00  0.00     0.115 A 
ATOM     21  C   UNL A   1      28.350  31.652  21.320  1.00  0.00     0.125 A 
ATOM     22  N   UNL A   1      27.925  32.222  22.463  1.00  0.00    -0.242 NA
ATOM     23  C   UNL A   1      27.839  32.224  20.036  1.00  0.00     0.089 C 
ENDBRANCH  16  17
ENDBRANCH  14  16
ENDBRANCH   8  12
ENDBRANCH   7   8
ENDBRANCH   4   7
ENDBRANCH   2   3
ENDBRANCH   1   2
BRANCH   1  24
ATOM     24  C   UNL A   1      34.820  33.037  29.055  1.00  0.00     0.002 C 
BRANCH  24  25
ATOM     25  C   UNL A   1      35.260  34.494  28.879  1.00  0.00     0.002 C 
BRANCH  25  26
ATOM     26  C   UNL A   1      34.140  35.537  28.929  1.00  0.00     0.021 C 
BRANCH  26  27
ATOM     27  C   UNL A   1      32.862  35.072  29.616  1.00  0.00     0.116 C 
BRANCH  27  28
ATOM     28  N   UNL A   1      32.425  36.001  30.645  1.00  0.00    -0.352 N 
ATOM     29  C   UNL A   1      32.800  36.071  31.966  1.00  0.00     0.251 C 
ATOM     30  H   UNL A   1      31.769  36.676  30.355  1.00  0.00     0.163 HD
ATOM     31  O   UNL A   1      32.197  36.794  32.748  1.00  0.00    -0.269 OA
BRANCH  29  32
ATOM     32  C   UNL A   1      33.931  35.245  32.446  1.00  0.00     0.039 A 
ATOM     33  C   UNL A   1      33.679  33.956  32.924  1.00  0.00     0.014 A 
ATOM     34  C   UNL A   1      35.235  35.744  32.421  1.00  0.00     0.014 A 
ATOM     35  C   UNL A   1      34.744  33.140  33.314  1.00  0.00     0.010 A 
ATOM     36  C   UNL A   1      36.300  34.909  32.747  1.00  0.00     0.010 A 
ATOM     37  C   UNL A   1      36.066  33.600  33.196  1.00  0.00    -0.014 A 
BRANCH  37  38
ATOM     38  C   UNL A   1      37.229  32.750  33.556  1.00  0.00     0.031 A 
ATOM     39  C   UNL A   1      37.973  33.017  34.835  1.00  0.00     0.074 A 
ATOM     40  C   UNL A   1      37.673  31.809  32.700  1.00  0.00     0.049 A 
ATOM     41  N   UNL A   1      39.116  32.530  35.247  1.00  0.00    -0.248 NA
ATOM     42  C   UNL A   1      37.361  33.984  35.761  1.00  0.00     0.031 C 
ATOM     43  C   UNL A   1      37.054  31.465  31.419  1.00  0.00     0.029 A 
ATOM     44  N   UNL A   1      38.770  30.986  32.769  1.00  0.00    -0.354 N 
ATOM     45  C   UNL A   1      39.368  33.145  36.466  1.00  0.00     0.074 A 
ATOM     46  C   UNL A   1      38.285  34.073  36.707  1.00  0.00     0.031 C 
ATOM     47  C   UNL A   1      37.781  30.506  30.822  1.00  0.00     0.029 A 
ATOM     48  C   UNL A   1      38.939  30.198  31.655  1.00  0.00     0.049 A 
ATOM     49  H   UNL A   1      39.377  30.962  33.544  1.00  0.00     0.167 HD
ATOM     50  C   UNL A   1      40.400  32.941  37.320  1.00  0.00     0.037 A 
ATOM     51  C   UNL A   1      39.931  29.345  31.331  1.00  0.00     0.037 A 
ATOM     52  C   UNL A   1      41.464  32.001  37.091  1.00  0.00     0.049 A 
ATOM     53  C   UNL A   1      41.075  29.148  32.290  1.00  0.00     0.074 A 
ATOM     54  C   UNL A   1      42.547  31.711  37.902  1.00  0.00     0.029 A 
ATOM     55  N   UNL A   1      41.570  31.188  35.973  1.00  0.00    -0.354 N 
ATOM     56  N   UNL A   1      41.289  29.721  33.449  1.00  0.00    -0.248 NA
ATOM     57  C   UNL A   1      42.112  28.183  31.897  1.00  0.00     0.031 C 
ATOM     58  C   UNL A   1      43.322  30.738  37.263  1.00  0.00     0.029 A 
ATOM     59  C   UNL A   1      42.700  30.396  36.073  1.00  0.00     0.049 A 
ATOM     60  H   UNL A   1      40.936  31.177  35.220  1.00  0.00     0.167 HD
ATOM     61  C   UNL A   1      42.463  29.159  33.939  1.00  0.00     0.074 A 
ATOM     62  C   UNL A   1      42.911  28.198  32.955  1.00  0.00     0.031 C 
ATOM     63  C   UNL A   1      43.110  29.419  35.101  1.00  0.00     0.037 A 
BRANCH  50  64
ATOM     64  C   UNL A   1      40.417  33.741  38.588  1.00  0.00     0.057 A 
ATOM     65  C   UNL A   1      39.651  33.368  39.700  1.00  0.00     0.134 A 
ATOM     66  C   UNL A   1      41.238  34.868  38.716  1.00  0.00     0.134 A 
ATOM     67  F   UNL A   1      38.835  32.305  39.637  1.00  0.00    -0.206 F 
ATOM     68  C   UNL A   1      39.686  34.098  40.888  1.00  0.00     0.040 A 
ATOM     69  C   UNL A   1      41.301  35.592  39.908  1.00  0.00     0.040 A 
ATOM     70  F   UNL A   1      42.002  35.276  37.691  1.00  0.00    -0.206 F 
ATOM     71  C   UNL A   1      40.518  35.210  40.997  1.00  0.00     0.006 A 
ENDBRANCH  50  64
BRANCH  51  72
ATOM     72  C   UNL A   1      39.897  28.609  30.043  1.00  0.00     0.057 A 
ATOM     73  C   UNL A   1      39.233  27.383  29.927  1.00  0.00     0.134 A 
ATOM     74  C   UNL A   1      40.556  29.094  28.907  1.00  0.00     0.134 A 
ATOM     75  F   UNL A   1      38.599  26.858  30.986  1.00  0.00    -0.206 F 
ATOM     76  C   UNL A   1      39.249  26.650  28.739  1.00  0.00     0.040 A 
ATOM     77  C   UNL A   1      40.560  28.383  27.705  1.00  0.00     0.040 A 
ATOM     78  F   UNL A   1      41.206  30.266  28.947  1.00  0.00    -0.206 F 
ATOM     79  C   UNL A   1      39.913  27.152  27.623  1.00  0.00     0.006 A 
ENDBRANCH  51  72
BRANCH  63  80
ATOM     80  C   UNL A   1      44.333  28.608  35.405  1.00  0.00     0.057 A 
ATOM     81  C   UNL A   1      44.266  27.396  36.101  1.00  0.00     0.134 A 
ATOM     82  C   UNL A   1      45.588  29.019  34.935  1.00  0.00     0.134 A 
ATOM     83  F   UNL A   1      43.096  26.954  36.586  1.00  0.00    -0.206 F 
ATOM     84  C   UNL A   1      45.407  26.626  36.331  1.00  0.00     0.040 A 
ATOM     85  C   UNL A   1      46.731  28.248  35.139  1.00  0.00     0.040 A 
ATOM     86  F   UNL A   1      45.717  30.168  34.254  1.00  0.00    -0.206 F 
ATOM     87  C   UNL A   1      46.643  27.048  35.842  1.00  0.00     0.006 A 
ENDBRANCH  63  80
ENDBRANCH  37  38
ENDBRANCH  29  32
ENDBRANCH  27  28
ENDBRANCH  26  27
ENDBRANCH  25  26
ENDBRANCH  24  25
ENDBRANCH   1  24
TORSDOF 19
ENDMDL
MODEL 2
REMARK VINA RESULT:     -10.1      1.614      3.179
REMARK SMILES C#CCN(CC(=O)NCCCCCCNC(=O)c1ccc(-c2c3nc(c(-c4c(F)cccc4F)c4ccc([nH]4)c(-c4c(F)cccc4F)c4nc(c(-c5c(F)cccc5F)c5ccc2[nH]5)C=C4)C=C3)cc1)C(=O)NCc1ccnc(C)n1
REMARK SMILES IDX 10 1 9 2 8 3 6 4 7 5 5 7 4 8 3 9 2 10 1 11 72 12 73 13 74 14
REMARK SMILES IDX 75 16 76 17 77 18 82 19 78 20 80 21 79 22 81 23 11 24 12 25
REMARK SMILES IDX 13 26 14 27 15 28 16 29 17 31 18 32 19 33 71 34 20 35 70 36
REMARK SMILES IDX 21 37 22 38 23 39 64 40 24 41 69 42 63 43 65 44 25 45 68 46
REMARK SMILES IDX 62 47 61 48 26 50 52 51 35 52 51 53 36 54 39 55 50 56 66 57
REMARK SMILES IDX 37 58 38 59 49 61 67 62 40 63 27 64 28 65 33 66 29 67 30 68
REMARK SMILES IDX 32 69 34 70 31 71 53 72 54 73 59 74 55 75 56 76 58 77 60 78
REMARK SMILES IDX 57 79 41 80 42 81 47 82 43 83 44 84 46 85 48 86 45 87
REMARK H PARENT 8 6 74 15 15 30 65 49 39 60
REMARK Flexibility Score: inf
ROOT
ATOM      1  C   UNL A   1      33.675  31.952  27.744  1.00  0.00     0.021 C 
ENDROOT
BRANCH   1   2
ATOM      2  C   UNL A   1      33.764  30.557  27.127  1.00  0.00     0.116 C 
BRANCH   2   3
ATOM      3  N   UNL A   1      32.790  29.616  27.631  1.00  0.00    -0.355 N 
ATOM      4  C   UNL A   1      31.892  28.839  26.964  1.00  0.00     0.239 C 
ATOM      5  O   UNL A   1      31.497  27.824  27.551  1.00  0.00    -0.273 OA
ATOM      6  H   UNL A   1      32.773  29.522  28.612  1.00  0.00     0.163 HD
BRANCH   4   7
ATOM      7  C   UNL A   1      31.456  29.089  25.511  1.00  0.00     0.222 C 
BRANCH   7   8
ATOM      8  N   UNL A   1      31.867  28.103  24.523  1.00  0.00    -0.304 N 
BRANCH   8   9
ATOM      9  C   UNL A   1      33.307  27.935  24.362  1.00  0.00     0.211 C 
BRANCH   9  10
ATOM     10  C   UNL A   1      33.814  26.554  24.745  1.00  0.00    -0.085 C 
ATOM     11  C   UNL A   1      34.248  25.369  25.073  1.00  0.00     0.006 C 
ENDBRANCH   9  10
ENDBRANCH   8   9
BRANCH   8  12
ATOM     12  C   UNL A   1      31.064  27.332  23.735  1.00  0.00     0.318 C 
ATOM     13  O   UNL A   1      30.966  27.553  22.523  1.00  0.00    -0.249 OA
ATOM     14  N   UNL A   1      30.297  26.330  24.181  1.00  0.00    -0.332 N 
ATOM     15  H   UNL A   1      29.755  25.967  23.444  1.00  0.00     0.165 HD
BRANCH  14  16
ATOM     16  C   UNL A   1      30.008  25.606  25.412  1.00  0.00     0.174 C 
BRANCH  16  17
ATOM     17  C   UNL A   1      30.857  24.356  25.522  1.00  0.00     0.063 A 
ATOM     18  C   UNL A   1      31.316  23.915  26.748  1.00  0.00     0.046 A 
ATOM     19  N   UNL A   1      31.125  23.681  24.379  1.00  0.00    -0.236 NA
ATOM     20  C   UNL A   1      32.048  22.753  26.753  1.00  0.00     0.115 A 
ATOM     21  C   UNL A   1      31.872  22.562  24.487  1.00  0.00     0.125 A 
ATOM     22  N   UNL A   1      32.342  22.060  25.644  1.00  0.00    -0.242 NA
ATOM     23  C   UNL A   1      32.243  21.848  23.226  1.00  0.00     0.089 C 
ENDBRANCH  16  17
ENDBRANCH  14  16
ENDBRANCH   8  12
ENDBRANCH   7   8
ENDBRANCH   4   7
ENDBRANCH   2   3
ENDBRANCH   1   2
BRANCH   1  24
ATOM     24  C   UNL A   1      34.738  32.277  28.799  1.00  0.00     0.002 C 
BRANCH  24  25
ATOM     25  C   UNL A   1      34.703  33.697  29.372  1.00  0.00     0.002 C 
BRANCH  25  26
ATOM     26  C   UNL A   1      33.361  34.426  29.261  1.00  0.00     0.021 C 
BRANCH  26  27
ATOM     27  C   UNL A   1      33.428  35.929  29.497  1.00  0.00     0.116 C 
BRANCH  27  28
ATOM     28  N   UNL A   1      32.575  36.348  30.597  1.00  0.00    -0.352 N 
ATOM     29  C   UNL A   1      32.613  35.967  31.918  1.00  0.00     0.251 C 
ATOM     30  H   UNL A   1      31.872  36.997  30.364  1.00  0.00     0.163 HD
ATOM     31  O   UNL A   1      31.704  36.267  32.680  1.00  0.00    -0.269 OA
BRANCH  29  32
ATOM     32  C   UNL A   1      33.756  35.166  32.412  1.00  0.00     0.039 A 
ATOM     33  C   UNL A   1      33.529  33.867  32.874  1.00  0.00     0.014 A 
ATOM     34  C   UNL A   1      35.047  35.698  32.414  1.00  0.00     0.014 A 
ATOM     35  C   UNL A   1      34.607  33.075  33.277  1.00  0.00     0.010 A 
ATOM     36  C   UNL A   1      36.127  34.888  32.752  1.00  0.00     0.010 A 
ATOM     37  C   UNL A   1      35.919  33.569  33.186  1.00  0.00    -0.014 A 
BRANCH  37  38
ATOM     38  C   UNL A   1      37.098  32.746  33.560  1.00  0.00     0.031 A 
ATOM     39  C   UNL A   1      37.829  33.040  34.840  1.00  0.00     0.074 A 
ATOM     40  C   UNL A   1      37.564  31.807  32.715  1.00  0.00     0.049 A 
ATOM     41  N   UNL A   1      38.979  32.580  35.262  1.00  0.00    -0.248 NA
ATOM     42  C   UNL A   1      37.193  34.002  35.754  1.00  0.00     0.031 C 
ATOM     43  C   UNL A   1      36.960  31.439  31.433  1.00  0.00     0.029 A 
ATOM     44  N   UNL A   1      38.678  31.006  32.796  1.00  0.00    -0.354 N 
ATOM     45  C   UNL A   1      39.212  33.210  36.477  1.00  0.00     0.074 A 
ATOM     46  C   UNL A   1      38.109  34.118  36.704  1.00  0.00     0.031 C 
ATOM     47  C   UNL A   1      37.709  30.489  30.849  1.00  0.00     0.029 A 
ATOM     48  C   UNL A   1      38.869  30.213  31.690  1.00  0.00     0.049 A 
ATOM     49  H   UNL A   1      39.281  31.002  33.575  1.00  0.00     0.167 HD
ATOM     50  C   UNL A   1      40.243  33.034  37.338  1.00  0.00     0.037 A 
ATOM     51  C   UNL A   1      39.879  29.377  31.380  1.00  0.00     0.037 A 
ATOM     52  C   UNL A   1      41.327  32.114  37.124  1.00  0.00     0.049 A 
ATOM     53  C   UNL A   1      41.021  29.212  32.346  1.00  0.00     0.074 A 
ATOM     54  C   UNL A   1      42.412  31.854  37.943  1.00  0.00     0.029 A 
ATOM     55  N   UNL A   1      41.455  31.294  36.013  1.00  0.00    -0.354 N 
ATOM     56  N   UNL A   1      41.218  29.799  33.501  1.00  0.00    -0.248 NA
ATOM     57  C   UNL A   1      42.080  28.265  31.967  1.00  0.00     0.031 C 
ATOM     58  C   UNL A   1      43.210  30.891  37.316  1.00  0.00     0.029 A 
ATOM     59  C   UNL A   1      42.601  30.526  36.126  1.00  0.00     0.049 A 
ATOM     60  H   UNL A   1      40.826  31.264  35.257  1.00  0.00     0.167 HD
ATOM     61  C   UNL A   1      42.400  29.266  34.002  1.00  0.00     0.074 A 
ATOM     62  C   UNL A   1      42.874  28.305  33.029  1.00  0.00     0.031 C 
ATOM     63  C   UNL A   1      43.035  29.548  35.165  1.00  0.00     0.037 A 
BRANCH  50  64
ATOM     64  C   UNL A   1      40.238  33.846  38.599  1.00  0.00     0.057 A 
ATOM     65  C   UNL A   1      40.888  35.084  38.676  1.00  0.00     0.134 A 
ATOM     66  C   UNL A   1      39.541  33.409  39.733  1.00  0.00     0.134 A 
ATOM     67  F   UNL A   1      41.583  35.553  37.629  1.00  0.00    -0.206 F 
ATOM     68  C   UNL A   1      40.863  35.850  39.842  1.00  0.00     0.040 A 
ATOM     69  C   UNL A   1      39.487  34.177  40.897  1.00  0.00     0.040 A 
ATOM     70  F   UNL A   1      38.891  32.234  39.724  1.00  0.00    -0.206 F 
ATOM     71  C   UNL A   1      40.155  35.400  40.955  1.00  0.00     0.006 A 
ENDBRANCH  50  64
BRANCH  51  72
ATOM     72  C   UNL A   1      39.867  28.629  30.097  1.00  0.00     0.057 A 
ATOM     73  C   UNL A   1      39.225  27.391  29.989  1.00  0.00     0.134 A 
ATOM     74  C   UNL A   1      40.525  29.115  28.962  1.00  0.00     0.134 A 
ATOM     75  F   UNL A   1      38.594  26.864  31.048  1.00  0.00    -0.206 F 
ATOM     76  C   UNL A   1      39.262  26.647  28.808  1.00  0.00     0.040 A 
ATOM     77  C   UNL A   1      40.550  28.394  27.766  1.00  0.00     0.040 A 
ATOM     78  F   UNL A   1      41.154  30.299  28.996  1.00  0.00    -0.206 F 
ATOM     79  C   UNL A   1      39.925  27.151  27.691  1.00  0.00     0.006 A 
ENDBRANCH  51  72
BRANCH  63  80
ATOM     80  C   UNL A   1      44.274  28.766  35.483  1.00  0.00     0.057 A 
ATOM     81  C   UNL A   1      45.547  29.205  35.102  1.00  0.00     0.134 A 
ATOM     82  C   UNL A   1      44.191  27.589  36.238  1.00  0.00     0.134 A 
ATOM     83  F   UNL A   1      45.691  30.318  34.369  1.00  0.00    -0.206 F 
ATOM     84  C   UNL A   1      46.695  28.493  35.451  1.00  0.00     0.040 A 
ATOM     85  C   UNL A   1      45.333  26.881  36.612  1.00  0.00     0.040 A 
ATOM     86  F   UNL A   1      43.000  27.120  36.640  1.00  0.00    -0.206 F 
ATOM     87  C   UNL A   1      46.590  27.332  36.216  1.00  0.00     0.006 A 
ENDBRANCH  63  80
ENDBRANCH  37  38
ENDBRANCH  29  32
ENDBRANCH  27  28
ENDBRANCH  26  27
ENDBRANCH  25  26
ENDBRANCH  24  25
ENDBRANCH   1  24
TORSDOF 19
ENDMDL
MODEL 3
REMARK VINA RESULT:     -10.1      1.915      6.755
REMARK SMILES C#CCN(CC(=O)NCCCCCCNC(=O)c1ccc(-c2c3nc(c(-c4c(F)cccc4F)c4ccc([nH]4)c(-c4c(F)cccc4F)c4nc(c(-c5c(F)cccc5F)c5ccc2[nH]5)C=C4)C=C3)cc1)C(=O)NCc1ccnc(C)n1
REMARK SMILES IDX 10 1 9 2 8 3 6 4 7 5 5 7 4 8 3 9 2 10 1 11 72 12 73 13 74 14
REMARK SMILES IDX 75 16 76 17 77 18 82 19 78 20 80 21 79 22 81 23 11 24 12 25
REMARK SMILES IDX 13 26 14 27 15 28 16 29 17 31 18 32 19 33 71 34 20 35 70 36
REMARK SMILES IDX 21 37 22 38 23 39 64 40 24 41 69 42 63 43 65 44 25 45 68 46
REMARK SMILES IDX 62 47 61 48 26 50 52 51 35 52 51 53 36 54 39 55 50 56 66 57
REMARK SMILES IDX 37 58 38 59 49 61 67 62 40 63 27 64 28 65 33 66 29 67 30 68
REMARK SMILES IDX 32 69 34 70 31 71 53 72 54 73 59 74 55 75 56 76 58 77 60 78
REMARK SMILES IDX 57 79 41 80 42 81 47 82 43 83 44 84 46 85 48 86 45 87
REMARK H PARENT 8 6 74 15 15 30 65 49 39 60
REMARK Flexibility Score: inf
ROOT
ATOM      1  C   UNL A   1      31.818  28.542  27.399  1.00  0.00     0.021 C 
ENDROOT
BRANCH   1   2
ATOM      2  C   UNL A   1      31.288  27.657  26.272  1.00  0.00     0.116 C 
BRANCH   2   3
ATOM      3  N   UNL A   1      31.564  26.248  26.437  1.00  0.00    -0.355 N 
ATOM      4  C   UNL A   1      32.357  25.417  25.706  1.00  0.00     0.239 C 
ATOM      5  O   UNL A   1      32.778  24.406  26.282  1.00  0.00    -0.273 OA
ATOM      6  H   UNL A   1      31.108  25.822  27.199  1.00  0.00     0.163 HD
BRANCH   4   7
ATOM      7  C   UNL A   1      32.843  25.730  24.281  1.00  0.00     0.222 C 
BRANCH   7   8
ATOM      8  N   UNL A   1      31.886  25.536  23.203  1.00  0.00    -0.304 N 
BRANCH   8   9
ATOM      9  C   UNL A   1      30.994  24.391  23.350  1.00  0.00     0.211 C 
BRANCH   9  10
ATOM     10  C   UNL A   1      31.679  23.048  23.159  1.00  0.00    -0.085 C 
ATOM     11  C   UNL A   1      32.267  21.895  22.995  1.00  0.00     0.006 C 
ENDBRANCH   9  10
ENDBRANCH   8   9
BRANCH   8  12
ATOM     12  C   UNL A   1      31.735  26.295  22.079  1.00  0.00     0.318 C 
ATOM     13  O   UNL A   1      31.823  25.787  20.956  1.00  0.00    -0.249 OA
ATOM     14  N   UNL A   1      31.532  27.618  22.077  1.00  0.00    -0.332 N 
ATOM     15  H   UNL A   1      31.525  27.955  21.152  1.00  0.00     0.165 HD
BRANCH  14  16
ATOM     16  C   UNL A   1      31.319  28.718  23.007  1.00  0.00     0.174 C 
BRANCH  16  17
ATOM     17  C   UNL A   1      29.869  29.155  23.014  1.00  0.00     0.063 A 
ATOM     18  C   UNL A   1      28.847  28.228  23.092  1.00  0.00     0.046 A 
ATOM     19  N   UNL A   1      29.618  30.485  22.965  1.00  0.00    -0.236 NA
ATOM     20  C   UNL A   1      27.566  28.721  23.128  1.00  0.00     0.115 A 
ATOM     21  C   UNL A   1      28.324  30.868  22.983  1.00  0.00     0.125 A 
ATOM     22  N   UNL A   1      27.276  30.029  23.073  1.00  0.00    -0.242 NA
ATOM     23  C   UNL A   1      28.028  32.328  22.850  1.00  0.00     0.089 C 
ENDBRANCH  16  17
ENDBRANCH  14  16
ENDBRANCH   8  12
ENDBRANCH   7   8
ENDBRANCH   4   7
ENDBRANCH   2   3
ENDBRANCH   1   2
BRANCH   1  24
ATOM     24  C   UNL A   1      32.349  29.914  26.968  1.00  0.00     0.002 C 
BRANCH  24  25
ATOM     25  C   UNL A   1      31.399  30.764  26.118  1.00  0.00     0.002 C 
BRANCH  25  26
ATOM     26  C   UNL A   1      31.312  32.245  26.499  1.00  0.00     0.021 C 
BRANCH  26  27
ATOM     27  C   UNL A   1      32.581  32.823  27.114  1.00  0.00     0.116 C 
BRANCH  27  28
ATOM     28  N   UNL A   1      32.376  34.169  27.624  1.00  0.00    -0.352 N 
ATOM     29  C   UNL A   1      33.025  34.815  28.651  1.00  0.00     0.251 C 
ATOM     30  H   UNL A   1      31.677  34.692  27.170  1.00  0.00     0.163 HD
ATOM     31  O   UNL A   1      32.604  35.880  29.081  1.00  0.00    -0.269 OA
BRANCH  29  32
ATOM     32  C   UNL A   1      34.229  34.198  29.253  1.00  0.00     0.039 A 
ATOM     33  C   UNL A   1      35.489  34.537  28.754  1.00  0.00     0.014 A 
ATOM     34  C   UNL A   1      34.109  33.291  30.308  1.00  0.00     0.014 A 
ATOM     35  C   UNL A   1      36.637  34.018  29.358  1.00  0.00     0.010 A 
ATOM     36  C   UNL A   1      35.253  32.827  30.951  1.00  0.00     0.010 A 
ATOM     37  C   UNL A   1      36.527  33.185  30.483  1.00  0.00    -0.014 A 
BRANCH  37  38
ATOM     38  C   UNL A   1      37.722  32.647  31.184  1.00  0.00     0.031 A 
ATOM     39  C   UNL A   1      38.423  31.438  30.630  1.00  0.00     0.074 A 
ATOM     40  C   UNL A   1      38.117  33.180  32.357  1.00  0.00     0.049 A 
ATOM     41  N   UNL A   1      39.354  30.698  31.174  1.00  0.00    -0.248 NA
ATOM     42  C   UNL A   1      37.999  30.988  29.295  1.00  0.00     0.031 C 
ATOM     43  C   UNL A   1      37.509  34.339  33.013  1.00  0.00     0.029 A 
ATOM     44  N   UNL A   1      39.111  32.794  33.222  1.00  0.00    -0.354 N 
ATOM     45  C   UNL A   1      39.612  29.685  30.259  1.00  0.00     0.074 A 
ATOM     46  C   UNL A   1      38.709  29.879  29.146  1.00  0.00     0.031 C 
ATOM     47  C   UNL A   1      38.141  34.568  34.176  1.00  0.00     0.029 A 
ATOM     48  C   UNL A   1      39.167  33.548  34.370  1.00  0.00     0.049 A 
ATOM     49  H   UNL A   1      39.727  32.048  33.036  1.00  0.00     0.167 HD
ATOM     50  C   UNL A   1      40.532  28.694  30.331  1.00  0.00     0.037 A 
ATOM     51  C   UNL A   1      39.939  33.415  35.466  1.00  0.00     0.037 A 
ATOM     52  C   UNL A   1      41.446  28.517  31.427  1.00  0.00     0.049 A 
ATOM     53  C   UNL A   1      40.943  32.295  35.527  1.00  0.00     0.074 A 
ATOM     54  C   UNL A   1      42.424  27.551  31.586  1.00  0.00     0.029 A 
ATOM     55  N   UNL A   1      41.501  29.333  32.546  1.00  0.00    -0.354 N 
ATOM     56  N   UNL A   1      41.190  31.358  34.645  1.00  0.00    -0.248 NA
ATOM     57  C   UNL A   1      41.779  32.217  36.734  1.00  0.00     0.031 C 
ATOM     58  C   UNL A   1      43.057  27.769  32.813  1.00  0.00     0.029 A 
ATOM     59  C   UNL A   1      42.498  28.894  33.400  1.00  0.00     0.049 A 
ATOM     60  H   UNL A   1      40.917  30.109  32.709  1.00  0.00     0.167 HD
ATOM     61  C   UNL A   1      42.231  30.603  35.173  1.00  0.00     0.074 A 
ATOM     62  C   UNL A   1      42.574  31.195  36.449  1.00  0.00     0.031 C 
ATOM     63  C   UNL A   1      42.848  29.518  34.647  1.00  0.00     0.037 A 
BRANCH  50  64
ATOM     64  C   UNL A   1      40.604  27.733  29.181  1.00  0.00     0.057 A 
ATOM     65  C   UNL A   1      41.536  27.896  28.148  1.00  0.00     0.134 A 
ATOM     66  C   UNL A   1      39.767  26.612  29.127  1.00  0.00     0.134 A 
ATOM     67  F   UNL A   1      42.358  28.957  28.135  1.00  0.00    -0.206 F 
ATOM     68  C   UNL A   1      41.619  26.989  27.091  1.00  0.00     0.040 A 
ATOM     69  C   UNL A   1      39.857  25.684  28.089  1.00  0.00     0.040 A 
ATOM     70  F   UNL A   1      38.856  26.394  30.089  1.00  0.00    -0.206 F 
ATOM     71  C   UNL A   1      40.783  25.875  27.064  1.00  0.00     0.006 A 
ENDBRANCH  50  64
BRANCH  51  72
ATOM     72  C   UNL A   1      39.801  34.362  36.601  1.00  0.00     0.057 A 
ATOM     73  C   UNL A   1      40.494  35.576  36.619  1.00  0.00     0.134 A 
ATOM     74  C   UNL A   1      39.002  34.060  37.711  1.00  0.00     0.134 A 
ATOM     75  F   UNL A   1      41.291  35.913  35.593  1.00  0.00    -0.206 F 
ATOM     76  C   UNL A   1      40.424  36.445  37.710  1.00  0.00     0.040 A 
ATOM     77  C   UNL A   1      38.903  34.930  38.798  1.00  0.00     0.040 A 
ATOM     78  F   UNL A   1      38.305  32.915  37.754  1.00  0.00    -0.206 F 
ATOM     79  C   UNL A   1      39.624  36.122  38.803  1.00  0.00     0.006 A 
ENDBRANCH  51  72
BRANCH  63  80
ATOM     80  C   UNL A   1      43.997  28.937  35.414  1.00  0.00     0.057 A 
ATOM     81  C   UNL A   1      45.312  29.376  35.226  1.00  0.00     0.134 A 
ATOM     82  C   UNL A   1      43.770  27.970  36.403  1.00  0.00     0.134 A 
ATOM     83  F   UNL A   1      45.595  30.292  34.287  1.00  0.00    -0.206 F 
ATOM     84  C   UNL A   1      46.365  28.864  35.985  1.00  0.00     0.040 A 
ATOM     85  C   UNL A   1      44.811  27.467  37.183  1.00  0.00     0.040 A 
ATOM     86  F   UNL A   1      42.530  27.514  36.637  1.00  0.00    -0.206 F 
ATOM     87  C   UNL A   1      46.114  27.912  36.973  1.00  0.00     0.006 A 
ENDBRANCH  63  80
ENDBRANCH  37  38
ENDBRANCH  29  32
ENDBRANCH  27  28
ENDBRANCH  26  27
ENDBRANCH  25  26
ENDBRANCH  24  25
ENDBRANCH   1  24
TORSDOF 19
ENDMDL
