MODEL 1
REMARK VINA RESULT:     -11.5      0.000      0.000
REMARK SMILES O=C(NCCCCCCNC(=O)[C@H]1CC[C@H]2CCCC[C@@H]2[N@H+]1[C@@H]1CCCSC1)c1ccc(-c2c3nc(c(-c4c(F)cccc4F)c4ccc([nH]4)c(-c4c(F)cccc4F)c4nc(c(-c5c(F)cccc5F)c5ccc2[nH]5)C=C4)C=C3)cc1
REMARK SMILES IDX 6 1 5 2 4 3 3 4 1 5 2 6 29 8 30 9 82 10 31 11 81 12 32 13
REMARK SMILES IDX 33 14 34 15 75 16 35 17 80 18 74 19 76 20 36 21 79 22 73 23
REMARK SMILES IDX 72 24 37 26 63 27 46 28 62 29 47 30 50 31 61 32 77 33 48 34
REMARK SMILES IDX 49 35 60 37 78 38 51 39 38 40 39 41 44 42 40 43 41 44 43 45
REMARK SMILES IDX 45 46 42 47 64 48 65 49 70 50 66 51 67 52 69 53 71 54 68 55
REMARK SMILES IDX 52 56 53 57 58 58 54 59 55 60 57 61 59 62 56 63 7 64 8 65
REMARK SMILES IDX 9 66 10 67 11 68 12 70 13 71 14 72 22 73 15 74 21 75 16 77
REMARK SMILES IDX 20 78 17 79 19 80 18 81 23 82 24 83 28 84 25 85 27 86 26 87
REMARK H PARENT 3 7 76 25 50 36 10 69 22 76
REMARK Flexibility Score: inf
ROOT
ATOM      1  C   UNL A   1      34.497  33.975  28.728  1.00  0.00     0.002 C 
ENDROOT
BRANCH   1   2
ATOM      2  C   UNL A   1      33.200  34.767  28.904  1.00  0.00     0.021 C 
BRANCH   2   3
ATOM      3  C   UNL A   1      33.390  36.195  29.403  1.00  0.00     0.116 C 
BRANCH   3   4
ATOM      4  N   UNL A   1      32.566  36.477  30.571  1.00  0.00    -0.352 N 
ATOM      5  O   UNL A   1      31.673  36.085  32.607  1.00  0.00    -0.269 OA
ATOM      6  C   UNL A   1      32.604  35.912  31.819  1.00  0.00     0.251 C 
ATOM      7  H   UNL A   1      31.883  37.175  30.445  1.00  0.00     0.163 HD
BRANCH   6   8
ATOM      8  C   UNL A   1      33.763  35.091  32.222  1.00  0.00     0.039 A 
ATOM      9  C   UNL A   1      35.029  35.670  32.314  1.00  0.00     0.014 A 
ATOM     10  C   UNL A   1      33.585  33.741  32.540  1.00  0.00     0.014 A 
ATOM     11  C   UNL A   1      36.134  34.873  32.572  1.00  0.00     0.010 A 
ATOM     12  C   UNL A   1      34.687  32.962  32.910  1.00  0.00     0.010 A 
ATOM     13  C   UNL A   1      35.976  33.519  32.909  1.00  0.00    -0.014 A 
BRANCH  13  14
ATOM     14  C   UNL A   1      37.174  32.756  33.344  1.00  0.00     0.031 A 
ATOM     15  C   UNL A   1      37.821  31.729  32.462  1.00  0.00     0.074 A 
ATOM     16  C   UNL A   1      37.713  33.059  34.543  1.00  0.00     0.049 A 
ATOM     17  N   UNL A   1      38.914  31.038  32.673  1.00  0.00    -0.248 NA
ATOM     18  C   UNL A   1      37.160  31.427  31.183  1.00  0.00     0.031 C 
ATOM     19  C   UNL A   1      37.153  34.023  35.496  1.00  0.00     0.029 A 
ATOM     20  N   UNL A   1      38.859  32.621  35.152  1.00  0.00    -0.354 N 
ATOM     21  C   UNL A   1      39.073  30.223  31.560  1.00  0.00     0.074 A 
ATOM     22  C   UNL A   1      37.941  30.473  30.693  1.00  0.00     0.031 C 
ATOM     23  C   UNL A   1      37.985  34.148  36.537  1.00  0.00     0.029 A 
ATOM     24  C   UNL A   1      39.098  33.225  36.364  1.00  0.00     0.049 A 
ATOM     25  H   UNL A   1      39.453  31.942  34.761  1.00  0.00     0.167 HD
ATOM     26  C   UNL A   1      40.080  29.360  31.283  1.00  0.00     0.037 A 
ATOM     27  C   UNL A   1      40.093  33.042  37.251  1.00  0.00     0.037 A 
ATOM     28  C   UNL A   1      41.202  29.114  32.156  1.00  0.00     0.049 A 
ATOM     29  C   UNL A   1      41.177  32.058  36.926  1.00  0.00     0.074 A 
ATOM     30  C   UNL A   1      42.276  28.260  31.963  1.00  0.00     0.029 A 
ATOM     31  N   UNL A   1      41.393  29.719  33.390  1.00  0.00    -0.354 N 
ATOM     32  N   UNL A   1      41.329  31.320  35.854  1.00  0.00    -0.248 NA
ATOM     33  C   UNL A   1      42.231  31.884  37.934  1.00  0.00     0.031 C 
ATOM     34  C   UNL A   1      43.090  28.315  33.099  1.00  0.00     0.029 A 
ATOM     35  C   UNL A   1      42.557  29.245  33.976  1.00  0.00     0.049 A 
ATOM     36  H   UNL A   1      40.791  30.386  33.791  1.00  0.00     0.167 HD
ATOM     37  C   UNL A   1      42.500  30.602  36.051  1.00  0.00     0.074 A 
ATOM     38  C   UNL A   1      43.036  31.023  37.330  1.00  0.00     0.031 C 
ATOM     39  C   UNL A   1      43.075  29.671  35.252  1.00  0.00     0.037 A 
BRANCH  26  40
ATOM     40  C   UNL A   1      40.017  28.609  29.982  1.00  0.00     0.057 A 
ATOM     41  C   UNL A   1      40.696  29.055  28.840  1.00  0.00     0.134 A 
ATOM     42  C   UNL A   1      39.323  27.396  29.885  1.00  0.00     0.134 A 
ATOM     43  F   UNL A   1      41.373  30.213  28.860  1.00  0.00    -0.206 F 
ATOM     44  C   UNL A   1      40.670  28.333  27.645  1.00  0.00     0.040 A 
ATOM     45  C   UNL A   1      39.312  26.652  28.703  1.00  0.00     0.040 A 
ATOM     46  F   UNL A   1      38.659  26.904  30.941  1.00  0.00    -0.206 F 
ATOM     47  C   UNL A   1      39.984  27.122  27.577  1.00  0.00     0.006 A 
ENDBRANCH  26  40
BRANCH  27  48
ATOM     48  C   UNL A   1      40.090  33.789  38.533  1.00  0.00     0.057 A 
ATOM     49  C   UNL A   1      40.852  34.950  38.709  1.00  0.00     0.134 A 
ATOM     50  C   UNL A   1      39.327  33.350  39.624  1.00  0.00     0.134 A 
ATOM     51  F   UNL A   1      41.615  35.414  37.707  1.00  0.00    -0.206 F 
ATOM     52  C   UNL A   1      40.879  35.630  39.927  1.00  0.00     0.040 A 
ATOM     53  C   UNL A   1      39.315  34.039  40.836  1.00  0.00     0.040 A 
ATOM     54  F   UNL A   1      38.565  32.252  39.519  1.00  0.00    -0.206 F 
ATOM     55  C   UNL A   1      40.103  35.177  40.994  1.00  0.00     0.006 A 
ENDBRANCH  27  48
BRANCH  39  56
ATOM     56  C   UNL A   1      44.364  29.072  35.734  1.00  0.00     0.057 A 
ATOM     57  C   UNL A   1      44.393  27.919  36.530  1.00  0.00     0.134 A 
ATOM     58  C   UNL A   1      45.592  29.658  35.402  1.00  0.00     0.134 A 
ATOM     59  F   UNL A   1      43.252  27.317  36.898  1.00  0.00    -0.206 F 
ATOM     60  C   UNL A   1      45.594  27.393  37.011  1.00  0.00     0.040 A 
ATOM     61  C   UNL A   1      46.801  29.123  35.849  1.00  0.00     0.040 A 
ATOM     62  F   UNL A   1      45.637  30.758  34.636  1.00  0.00    -0.206 F 
ATOM     63  C   UNL A   1      46.802  27.994  36.666  1.00  0.00     0.006 A 
ENDBRANCH  39  56
ENDBRANCH  13  14
ENDBRANCH   6   8
ENDBRANCH   3   4
ENDBRANCH   2   3
ENDBRANCH   1   2
BRANCH   1  64
ATOM     64  C   UNL A   1      34.380  32.464  28.943  1.00  0.00     0.002 C 
BRANCH  64  65
ATOM     65  C   UNL A   1      35.067  31.615  27.877  1.00  0.00     0.021 C 
BRANCH  65  66
ATOM     66  C   UNL A   1      34.317  30.343  27.441  1.00  0.00     0.116 C 
BRANCH  66  67
ATOM     67  N   UNL A   1      32.983  30.695  27.001  1.00  0.00    -0.351 N 
ATOM     68  C   UNL A   1      32.154  30.225  26.041  1.00  0.00     0.278 C 
ATOM     69  H   UNL A   1      32.595  31.441  27.513  1.00  0.00     0.163 HD
ATOM     70  O   UNL A   1      31.245  31.028  25.758  1.00  0.00    -0.268 OA
BRANCH  68  71
ATOM     71  C   UNL A   1      32.102  28.803  25.408  1.00  0.00     0.274 C 
ATOM     72  C   UNL A   1      31.447  27.828  26.420  1.00  0.00     0.076 C 
ATOM     73  N   UNL A   1      31.670  28.580  24.005  1.00  0.00    -0.319 N 
ATOM     74  C   UNL A   1      31.233  26.409  25.882  1.00  0.00     0.016 C 
ATOM     75  C   UNL A   1      31.932  27.182  23.579  1.00  0.00     0.188 C 
ATOM     76  H   UNL A   1      32.263  29.226  23.484  1.00  0.00     0.349 HD
ATOM     77  C   UNL A   1      32.174  26.159  24.714  1.00  0.00     0.048 C 
ATOM     78  C   UNL A   1      33.146  27.087  22.637  1.00  0.00     0.065 C 
ATOM     79  C   UNL A   1      32.048  24.755  24.116  1.00  0.00     0.010 C 
ATOM     80  C   UNL A   1      33.215  25.682  22.021  1.00  0.00     0.006 C 
ATOM     81  C   UNL A   1      33.121  24.543  23.045  1.00  0.00     0.001 C 
BRANCH  73  82
ATOM     82  C   UNL A   1      30.315  29.042  23.603  1.00  0.00     0.194 C 
ATOM     83  C   UNL A   1      29.225  28.007  23.280  1.00  0.00     0.067 C 
ATOM     84  C   UNL A   1      30.451  30.069  22.440  1.00  0.00     0.134 C 
ATOM     85  C   UNL A   1      27.852  28.665  23.111  1.00  0.00     0.017 C 
ATOM     86  S   UNL A   1      28.924  30.979  22.033  1.00  0.00    -0.156 SA
ATOM     87  C   UNL A   1      27.770  29.589  21.907  1.00  0.00     0.070 C 
ENDBRANCH  73  82
ENDBRANCH  68  71
ENDBRANCH  66  67
ENDBRANCH  65  66
ENDBRANCH  64  65
ENDBRANCH   1  64
TORSDOF 14
ENDMDL
MODEL 2
REMARK VINA RESULT:     -11.4      2.749      7.118
REMARK SMILES O=C(NCCCCCCNC(=O)[C@H]1CC[C@H]2CCCC[C@@H]2[N@H+]1[C@@H]1CCCSC1)c1ccc(-c2c3nc(c(-c4c(F)cccc4F)c4ccc([nH]4)c(-c4c(F)cccc4F)c4nc(c(-c5c(F)cccc5F)c5ccc2[nH]5)C=C4)C=C3)cc1
REMARK SMILES IDX 6 1 5 2 4 3 3 4 1 5 2 6 29 8 30 9 82 10 31 11 81 12 32 13
REMARK SMILES IDX 33 14 34 15 75 16 35 17 80 18 74 19 76 20 36 21 79 22 73 23
REMARK SMILES IDX 72 24 37 26 63 27 46 28 62 29 47 30 50 31 61 32 77 33 48 34
REMARK SMILES IDX 49 35 60 37 78 38 51 39 38 40 39 41 44 42 40 43 41 44 43 45
REMARK SMILES IDX 45 46 42 47 64 48 65 49 70 50 66 51 67 52 69 53 71 54 68 55
REMARK SMILES IDX 52 56 53 57 58 58 54 59 55 60 57 61 59 62 56 63 7 64 8 65
REMARK SMILES IDX 9 66 10 67 11 68 12 70 13 71 14 72 22 73 15 74 21 75 16 77
REMARK SMILES IDX 20 78 17 79 19 80 18 81 23 82 24 83 28 84 25 85 27 86 26 87
REMARK H PARENT 3 7 76 25 50 36 10 69 22 76
REMARK Flexibility Score: inf
ROOT
ATOM      1  C   UNL A   1      31.317  30.818  25.955  1.00  0.00     0.002 C 
ENDROOT
BRANCH   1   2
ATOM      2  C   UNL A   1      31.269  32.225  26.556  1.00  0.00     0.021 C 
BRANCH   2   3
ATOM      3  C   UNL A   1      32.569  32.682  27.207  1.00  0.00     0.116 C 
BRANCH   3   4
ATOM      4  N   UNL A   1      32.454  34.021  27.770  1.00  0.00    -0.352 N 
ATOM      5  O   UNL A   1      32.796  35.655  29.291  1.00  0.00    -0.269 OA
ATOM      6  C   UNL A   1      33.190  34.613  28.763  1.00  0.00     0.251 C 
ATOM      7  H   UNL A   1      31.744  34.581  27.381  1.00  0.00     0.163 HD
BRANCH   6   8
ATOM      8  C   UNL A   1      34.460  34.002  29.205  1.00  0.00     0.039 A 
ATOM      9  C   UNL A   1      35.636  34.253  28.499  1.00  0.00     0.014 A 
ATOM     10  C   UNL A   1      34.486  33.196  30.347  1.00  0.00     0.014 A 
ATOM     11  C   UNL A   1      36.801  33.583  28.840  1.00  0.00     0.010 A 
ATOM     12  C   UNL A   1      35.688  32.608  30.756  1.00  0.00     0.010 A 
ATOM     13  C   UNL A   1      36.853  32.781  29.993  1.00  0.00    -0.014 A 
BRANCH  13  14
ATOM     14  C   UNL A   1      38.167  32.226  30.406  1.00  0.00     0.031 A 
ATOM     15  C   UNL A   1      38.984  32.857  31.495  1.00  0.00     0.074 A 
ATOM     16  C   UNL A   1      38.584  31.088  29.815  1.00  0.00     0.049 A 
ATOM     17  N   UNL A   1      40.114  32.443  32.017  1.00  0.00    -0.248 NA
ATOM     18  C   UNL A   1      38.483  34.113  32.072  1.00  0.00     0.031 C 
ATOM     19  C   UNL A   1      37.883  30.402  28.725  1.00  0.00     0.029 A 
ATOM     20  N   UNL A   1      39.671  30.290  30.062  1.00  0.00    -0.354 N 
ATOM     21  C   UNL A   1      40.458  33.383  32.979  1.00  0.00     0.074 A 
ATOM     22  C   UNL A   1      39.440  34.413  32.940  1.00  0.00     0.031 C 
ATOM     23  C   UNL A   1      38.521  29.259  28.440  1.00  0.00     0.029 A 
ATOM     24  C   UNL A   1      39.712  29.166  29.272  1.00  0.00     0.049 A 
ATOM     25  H   UNL A   1      40.354  30.501  30.737  1.00  0.00     0.167 HD
ATOM     26  C   UNL A   1      41.516  33.377  33.825  1.00  0.00     0.037 A 
ATOM     27  C   UNL A   1      40.620  28.175  29.209  1.00  0.00     0.037 A 
ATOM     28  C   UNL A   1      42.528  32.349  33.852  1.00  0.00     0.049 A 
ATOM     29  C   UNL A   1      41.795  28.212  30.140  1.00  0.00     0.074 A 
ATOM     30  C   UNL A   1      43.637  32.251  34.675  1.00  0.00     0.029 A 
ATOM     31  N   UNL A   1      42.555  31.242  33.015  1.00  0.00    -0.354 N 
ATOM     32  N   UNL A   1      42.088  29.093  31.066  1.00  0.00    -0.248 NA
ATOM     33  C   UNL A   1      42.765  27.117  30.020  1.00  0.00     0.031 C 
ATOM     34  C   UNL A   1      44.359  31.111  34.305  1.00  0.00     0.029 A 
ATOM     35  C   UNL A   1      43.670  30.466  33.291  1.00  0.00     0.049 A 
ATOM     36  H   UNL A   1      41.882  31.038  32.327  1.00  0.00     0.167 HD
ATOM     37  C   UNL A   1      43.268  28.652  31.647  1.00  0.00     0.074 A 
ATOM     38  C   UNL A   1      43.616  27.407  30.993  1.00  0.00     0.031 C 
ATOM     39  C   UNL A   1      44.005  29.231  32.628  1.00  0.00     0.037 A 
BRANCH  26  40
ATOM     40  C   UNL A   1      41.642  34.520  34.794  1.00  0.00     0.057 A 
ATOM     41  C   UNL A   1      42.315  35.702  34.458  1.00  0.00     0.134 A 
ATOM     42  C   UNL A   1      41.031  34.463  36.054  1.00  0.00     0.134 A 
ATOM     43  F   UNL A   1      42.929  35.820  33.270  1.00  0.00    -0.206 F 
ATOM     44  C   UNL A   1      42.393  36.777  35.345  1.00  0.00     0.040 A 
ATOM     45  C   UNL A   1      41.081  35.543  36.940  1.00  0.00     0.040 A 
ATOM     46  F   UNL A   1      40.362  33.367  36.439  1.00  0.00    -0.206 F 
ATOM     47  C   UNL A   1      41.766  36.703  36.588  1.00  0.00     0.006 A 
ENDBRANCH  26  40
BRANCH  27  48
ATOM     48  C   UNL A   1      40.461  27.086  28.213  1.00  0.00     0.057 A 
ATOM     49  C   UNL A   1      41.091  27.135  26.964  1.00  0.00     0.134 A 
ATOM     50  C   UNL A   1      39.661  25.968  28.486  1.00  0.00     0.134 A 
ATOM     51  F   UNL A   1      41.859  28.185  26.636  1.00  0.00    -0.206 F 
ATOM     52  C   UNL A   1      40.910  26.128  26.014  1.00  0.00     0.040 A 
ATOM     53  C   UNL A   1      39.499  24.938  27.561  1.00  0.00     0.040 A 
ATOM     54  F   UNL A   1      39.039  25.853  29.669  1.00  0.00    -0.206 F 
ATOM     55  C   UNL A   1      40.116  25.022  26.315  1.00  0.00     0.006 A 
ENDBRANCH  27  48
BRANCH  39  56
ATOM     56  C   UNL A   1      45.241  28.500  33.062  1.00  0.00     0.057 A 
ATOM     57  C   UNL A   1      45.215  27.540  34.083  1.00  0.00     0.134 A 
ATOM     58  C   UNL A   1      46.476  28.762  32.454  1.00  0.00     0.134 A 
ATOM     59  F   UNL A   1      44.068  27.253  34.717  1.00  0.00    -0.206 F 
ATOM     60  C   UNL A   1      46.378  26.896  34.510  1.00  0.00     0.040 A 
ATOM     61  C   UNL A   1      47.639  28.101  32.850  1.00  0.00     0.040 A 
ATOM     62  F   UNL A   1      46.570  29.662  31.465  1.00  0.00    -0.206 F 
ATOM     63  C   UNL A   1      47.593  27.174  33.889  1.00  0.00     0.006 A 
ENDBRANCH  39  56
ENDBRANCH  13  14
ENDBRANCH   6   8
ENDBRANCH   3   4
ENDBRANCH   2   3
ENDBRANCH   1   2
BRANCH   1  64
ATOM     64  C   UNL A   1      32.287  29.847  26.633  1.00  0.00     0.002 C 
BRANCH  64  65
ATOM     65  C   UNL A   1      31.649  28.549  27.122  1.00  0.00     0.021 C 
BRANCH  65  66
ATOM     66  C   UNL A   1      32.276  27.247  26.592  1.00  0.00     0.116 C 
BRANCH  66  67
ATOM     67  N   UNL A   1      31.405  26.132  26.897  1.00  0.00    -0.351 N 
ATOM     68  C   UNL A   1      31.392  24.825  26.549  1.00  0.00     0.278 C 
ATOM     69  H   UNL A   1      30.657  26.380  27.487  1.00  0.00     0.163 HD
ATOM     70  O   UNL A   1      30.283  24.291  26.735  1.00  0.00    -0.268 OA
BRANCH  68  71
ATOM     71  C   UNL A   1      32.585  23.915  26.131  1.00  0.00     0.274 C 
ATOM     72  C   UNL A   1      32.091  22.447  26.048  1.00  0.00     0.076 C 
ATOM     73  N   UNL A   1      33.516  24.289  25.037  1.00  0.00    -0.319 N 
ATOM     74  C   UNL A   1      33.142  21.455  25.540  1.00  0.00     0.016 C 
ATOM     75  C   UNL A   1      34.688  23.378  24.995  1.00  0.00     0.188 C 
ATOM     76  H   UNL A   1      33.808  25.229  25.304  1.00  0.00     0.349 HD
ATOM     77  C   UNL A   1      34.532  22.034  25.745  1.00  0.00     0.048 C 
ATOM     78  C   UNL A   1      35.956  24.049  25.555  1.00  0.00     0.065 C 
ATOM     79  C   UNL A   1      35.657  21.104  25.281  1.00  0.00     0.010 C 
ATOM     80  C   UNL A   1      37.182  23.175  25.250  1.00  0.00     0.006 C 
ATOM     81  C   UNL A   1      37.017  21.703  25.651  1.00  0.00     0.001 C 
BRANCH  73  82
ATOM     82  C   UNL A   1      32.952  24.535  23.684  1.00  0.00     0.194 C 
ATOM     83  C   UNL A   1      33.596  23.866  22.459  1.00  0.00     0.067 C 
ATOM     84  C   UNL A   1      32.819  26.071  23.458  1.00  0.00     0.134 C 
ATOM     85  C   UNL A   1      32.746  24.054  21.199  1.00  0.00     0.017 C 
ATOM     86  S   UNL A   1      31.853  26.552  21.988  1.00  0.00    -0.156 SA
ATOM     87  C   UNL A   1      32.648  25.502  20.747  1.00  0.00     0.070 C 
ENDBRANCH  73  82
ENDBRANCH  68  71
ENDBRANCH  66  67
ENDBRANCH  65  66
ENDBRANCH  64  65
ENDBRANCH   1  64
TORSDOF 14
ENDMDL
MODEL 3
REMARK VINA RESULT:     -11.3      3.425      8.208
REMARK SMILES O=C(NCCCCCCNC(=O)[C@H]1CC[C@H]2CCCC[C@@H]2[N@H+]1[C@@H]1CCCSC1)c1ccc(-c2c3nc(c(-c4c(F)cccc4F)c4ccc([nH]4)c(-c4c(F)cccc4F)c4nc(c(-c5c(F)cccc5F)c5ccc2[nH]5)C=C4)C=C3)cc1
REMARK SMILES IDX 6 1 5 2 4 3 3 4 1 5 2 6 29 8 30 9 82 10 31 11 81 12 32 13
REMARK SMILES IDX 33 14 34 15 75 16 35 17 80 18 74 19 76 20 36 21 79 22 73 23
REMARK SMILES IDX 72 24 37 26 63 27 46 28 62 29 47 30 50 31 61 32 77 33 48 34
REMARK SMILES IDX 49 35 60 37 78 38 51 39 38 40 39 41 44 42 40 43 41 44 43 45
REMARK SMILES IDX 45 46 42 47 64 48 65 49 70 50 66 51 67 52 69 53 71 54 68 55
REMARK SMILES IDX 52 56 53 57 58 58 54 59 55 60 57 61 59 62 56 63 7 64 8 65
REMARK SMILES IDX 9 66 10 67 11 68 12 70 13 71 14 72 22 73 15 74 21 75 16 77
REMARK SMILES IDX 20 78 17 79 19 80 18 81 23 82 24 83 28 84 25 85 27 86 26 87
REMARK H PARENT 3 7 76 25 50 36 10 69 22 76
REMARK Flexibility Score: inf
ROOT
ATOM      1  C   UNL A   1      34.661  23.336  25.516  1.00  0.00     0.002 C 
ENDROOT
BRANCH   1   2
ATOM      2  C   UNL A   1      36.008  23.551  26.211  1.00  0.00     0.021 C 
BRANCH   2   3
ATOM      3  C   UNL A   1      37.186  23.750  25.264  1.00  0.00     0.116 C 
BRANCH   3   4
ATOM      4  N   UNL A   1      38.268  22.814  25.538  1.00  0.00    -0.352 N 
ATOM      5  O   UNL A   1      40.380  22.194  26.041  1.00  0.00    -0.269 OA
ATOM      6  C   UNL A   1      39.489  23.042  26.119  1.00  0.00     0.251 C 
ATOM      7  H   UNL A   1      38.098  21.883  25.266  1.00  0.00     0.163 HD
BRANCH   6   8
ATOM      8  C   UNL A   1      39.739  24.306  26.839  1.00  0.00     0.039 A 
ATOM      9  C   UNL A   1      39.278  24.466  28.146  1.00  0.00     0.014 A 
ATOM     10  C   UNL A   1      40.463  25.330  26.220  1.00  0.00     0.014 A 
ATOM     11  C   UNL A   1      39.405  25.695  28.776  1.00  0.00     0.010 A 
ATOM     12  C   UNL A   1      40.688  26.532  26.900  1.00  0.00     0.010 A 
ATOM     13  C   UNL A   1      40.142  26.731  28.178  1.00  0.00    -0.014 A 
BRANCH  13  14
ATOM     14  C   UNL A   1      40.393  27.964  28.968  1.00  0.00     0.031 A 
ATOM     15  C   UNL A   1      39.383  29.071  29.048  1.00  0.00     0.074 A 
ATOM     16  C   UNL A   1      41.540  28.037  29.674  1.00  0.00     0.049 A 
ATOM     17  N   UNL A   1      39.428  30.173  29.758  1.00  0.00    -0.248 NA
ATOM     18  C   UNL A   1      38.171  28.937  28.227  1.00  0.00     0.031 C 
ATOM     19  C   UNL A   1      42.606  27.031  29.651  1.00  0.00     0.029 A 
ATOM     20  N   UNL A   1      41.989  28.973  30.569  1.00  0.00    -0.354 N 
ATOM     21  C   UNL A   1      38.257  30.861  29.471  1.00  0.00     0.074 A 
ATOM     22  C   UNL A   1      37.540  30.074  28.489  1.00  0.00     0.031 C 
ATOM     23  C   UNL A   1      43.554  27.371  30.534  1.00  0.00     0.029 A 
ATOM     24  C   UNL A   1      43.201  28.651  31.132  1.00  0.00     0.049 A 
ATOM     25  H   UNL A   1      41.494  29.794  30.787  1.00  0.00     0.167 HD
ATOM     26  C   UNL A   1      37.817  32.032  29.991  1.00  0.00     0.037 A 
ATOM     27  C   UNL A   1      43.958  29.321  32.020  1.00  0.00     0.037 A 
ATOM     28  C   UNL A   1      38.542  32.810  30.965  1.00  0.00     0.049 A 
ATOM     29  C   UNL A   1      43.454  30.628  32.556  1.00  0.00     0.074 A 
ATOM     30  C   UNL A   1      38.178  34.009  31.556  1.00  0.00     0.029 A 
ATOM     31  N   UNL A   1      39.782  32.470  31.488  1.00  0.00    -0.354 N 
ATOM     32  N   UNL A   1      42.330  31.249  32.297  1.00  0.00    -0.248 NA
ATOM     33  C   UNL A   1      44.325  31.328  33.509  1.00  0.00     0.031 C 
ATOM     34  C   UNL A   1      39.217  34.415  32.401  1.00  0.00     0.029 A 
ATOM     35  C   UNL A   1      40.203  33.443  32.382  1.00  0.00     0.049 A 
ATOM     36  H   UNL A   1      40.287  31.657  31.259  1.00  0.00     0.167 HD
ATOM     37  C   UNL A   1      42.350  32.405  33.064  1.00  0.00     0.074 A 
ATOM     38  C   UNL A   1      43.584  32.379  33.824  1.00  0.00     0.031 C 
ATOM     39  C   UNL A   1      41.436  33.404  33.127  1.00  0.00     0.037 A 
BRANCH  26  40
ATOM     40  C   UNL A   1      36.488  32.550  29.517  1.00  0.00     0.057 A 
ATOM     41  C   UNL A   1      35.295  32.243  30.184  1.00  0.00     0.134 A 
ATOM     42  C   UNL A   1      36.405  33.416  28.419  1.00  0.00     0.134 A 
ATOM     43  F   UNL A   1      35.301  31.412  31.239  1.00  0.00    -0.206 F 
ATOM     44  C   UNL A   1      34.068  32.761  29.766  1.00  0.00     0.040 A 
ATOM     45  C   UNL A   1      35.187  33.961  28.007  1.00  0.00     0.040 A 
ATOM     46  F   UNL A   1      37.508  33.761  27.738  1.00  0.00    -0.206 F 
ATOM     47  C   UNL A   1      34.012  33.631  28.679  1.00  0.00     0.006 A 
ENDBRANCH  26  40
BRANCH  27  48
ATOM     48  C   UNL A   1      45.275  28.776  32.432  1.00  0.00     0.057 A 
ATOM     49  C   UNL A   1      46.444  29.064  31.720  1.00  0.00     0.134 A 
ATOM     50  C   UNL A   1      45.393  27.939  33.551  1.00  0.00     0.134 A 
ATOM     51  F   UNL A   1      46.396  29.847  30.631  1.00  0.00    -0.206 F 
ATOM     52  C   UNL A   1      47.677  28.519  32.086  1.00  0.00     0.040 A 
ATOM     53  C   UNL A   1      46.623  27.417  33.950  1.00  0.00     0.040 A 
ATOM     54  F   UNL A   1      44.313  27.633  34.285  1.00  0.00    -0.206 F 
ATOM     55  C   UNL A   1      47.768  27.698  33.209  1.00  0.00     0.006 A 
ENDBRANCH  27  48
BRANCH  39  56
ATOM     56  C   UNL A   1      41.734  34.531  34.072  1.00  0.00     0.057 A 
ATOM     57  C   UNL A   1      42.399  35.693  33.655  1.00  0.00     0.134 A 
ATOM     58  C   UNL A   1      41.354  34.454  35.418  1.00  0.00     0.134 A 
ATOM     59  F   UNL A   1      42.804  35.824  32.382  1.00  0.00    -0.206 F 
ATOM     60  C   UNL A   1      42.711  36.718  34.550  1.00  0.00     0.040 A 
ATOM     61  C   UNL A   1      41.631  35.486  36.315  1.00  0.00     0.040 A 
ATOM     62  F   UNL A   1      40.707  33.375  35.882  1.00  0.00    -0.206 F 
ATOM     63  C   UNL A   1      42.321  36.616  35.884  1.00  0.00     0.006 A 
ENDBRANCH  39  56
ENDBRANCH  13  14
ENDBRANCH   6   8
ENDBRANCH   3   4
ENDBRANCH   2   3
ENDBRANCH   1   2
BRANCH   1  64
ATOM     64  C   UNL A   1      34.710  22.513  24.227  1.00  0.00     0.002 C 
BRANCH  64  65
ATOM     65  C   UNL A   1      34.317  23.281  22.968  1.00  0.00     0.021 C 
BRANCH  65  66
ATOM     66  C   UNL A   1      32.846  23.157  22.534  1.00  0.00     0.116 C 
BRANCH  66  67
ATOM     67  N   UNL A   1      32.527  24.216  21.599  1.00  0.00    -0.351 N 
ATOM     68  C   UNL A   1      32.182  25.517  21.732  1.00  0.00     0.278 C 
ATOM     69  H   UNL A   1      32.572  23.924  20.660  1.00  0.00     0.163 HD
ATOM     70  O   UNL A   1      31.653  25.979  20.704  1.00  0.00    -0.268 OA
BRANCH  68  71
ATOM     71  C   UNL A   1      32.510  26.499  22.895  1.00  0.00     0.274 C 
ATOM     72  C   UNL A   1      33.622  27.475  22.428  1.00  0.00     0.076 C 
ATOM     73  N   UNL A   1      31.447  27.153  23.699  1.00  0.00    -0.319 N 
ATOM     74  C   UNL A   1      33.967  28.570  23.443  1.00  0.00     0.016 C 
ATOM     75  C   UNL A   1      32.018  27.847  24.881  1.00  0.00     0.188 C 
ATOM     76  H   UNL A   1      30.874  26.363  23.995  1.00  0.00     0.349 HD
ATOM     77  C   UNL A   1      33.538  28.131  24.834  1.00  0.00     0.048 C 
ATOM     78  C   UNL A   1      31.757  27.071  26.184  1.00  0.00     0.065 C 
ATOM     79  C   UNL A   1      33.859  29.157  25.925  1.00  0.00     0.010 C 
ATOM     80  C   UNL A   1      32.127  27.946  27.391  1.00  0.00     0.006 C 
ATOM     81  C   UNL A   1      33.523  28.578  27.302  1.00  0.00     0.001 C 
BRANCH  73  82
ATOM     82  C   UNL A   1      30.442  27.989  22.991  1.00  0.00     0.194 C 
ATOM     83  C   UNL A   1      30.761  29.462  22.683  1.00  0.00     0.067 C 
ATOM     84  C   UNL A   1      29.073  27.872  23.725  1.00  0.00     0.134 C 
ATOM     85  C   UNL A   1      29.711  30.086  21.759  1.00  0.00     0.017 C 
ATOM     86  S   UNL A   1      27.652  28.572  22.821  1.00  0.00    -0.156 SA
ATOM     87  C   UNL A   1      28.335  30.193  22.395  1.00  0.00     0.070 C 
ENDBRANCH  73  82
ENDBRANCH  68  71
ENDBRANCH  66  67
ENDBRANCH  65  66
ENDBRANCH  64  65
ENDBRANCH   1  64
TORSDOF 14
ENDMDL
