MODEL 1
REMARK VINA RESULT:     -12.1      0.000      0.000
REMARK SMILES O=C(NCCCCCCNC(=O)[C@@H]1[C@@H](C(=O)Nc2ccc(F)c(F)c2)[C@H]2CC[C@@H]1O2)c1ccc(-c2c3nc(c(-c4c(F)cccc4F)c4ccc([nH]4)c(-c4c(F)cccc4F)c4nc(c(-c5c(F)cccc5F)c5ccc2[nH]5)C=C4)C=C3)cc1
REMARK SMILES IDX 6 1 5 2 4 3 3 4 1 5 2 6 31 8 32 9 84 10 33 11 83 12 34 13
REMARK SMILES IDX 35 14 36 15 77 16 37 17 82 18 76 19 78 20 38 21 81 22 75 23
REMARK SMILES IDX 74 24 39 26 65 27 48 28 64 29 49 30 52 31 63 32 79 33 50 34
REMARK SMILES IDX 51 35 62 37 80 38 53 39 40 40 41 41 46 42 42 43 43 44 45 45
REMARK SMILES IDX 47 46 44 47 66 48 67 49 72 50 68 51 69 52 71 53 73 54 70 55
REMARK SMILES IDX 54 56 55 57 60 58 56 59 57 60 59 61 61 62 58 63 7 64 8 65
REMARK SMILES IDX 9 66 10 67 11 68 12 70 13 71 14 72 29 73 26 74 28 75 30 76
REMARK SMILES IDX 27 77 15 78 16 79 17 80 18 82 19 83 25 84 20 85 23 86 21 87
REMARK SMILES IDX 24 88 22 89
REMARK H PARENT 3 7 78 25 52 36 10 69 17 81
REMARK Flexibility Score: inf
ROOT
ATOM      1  C   UNL A   1      35.273  34.672  28.610  1.00  0.00     0.002 C 
ENDROOT
BRANCH   1   2
ATOM      2  C   UNL A   1      34.085  35.620  28.773  1.00  0.00     0.021 C 
BRANCH   2   3
ATOM      3  C   UNL A   1      32.929  35.049  29.579  1.00  0.00     0.116 C 
BRANCH   3   4
ATOM      4  N   UNL A   1      32.456  35.965  30.604  1.00  0.00    -0.352 N 
ATOM      5  O   UNL A   1      32.233  36.778  32.702  1.00  0.00    -0.269 OA
ATOM      6  C   UNL A   1      32.839  36.051  31.921  1.00  0.00     0.251 C 
ATOM      7  H   UNL A   1      31.769  36.610  30.317  1.00  0.00     0.163 HD
BRANCH   6   8
ATOM      8  C   UNL A   1      33.977  35.235  32.400  1.00  0.00     0.039 A 
ATOM      9  C   UNL A   1      35.281  35.725  32.312  1.00  0.00     0.014 A 
ATOM     10  C   UNL A   1      33.739  33.963  32.930  1.00  0.00     0.014 A 
ATOM     11  C   UNL A   1      36.350  34.892  32.609  1.00  0.00     0.010 A 
ATOM     12  C   UNL A   1      34.816  33.160  33.321  1.00  0.00     0.010 A 
ATOM     13  C   UNL A   1      36.132  33.607  33.136  1.00  0.00    -0.014 A 
BRANCH  13  14
ATOM     14  C   UNL A   1      37.310  32.804  33.552  1.00  0.00     0.031 A 
ATOM     15  C   UNL A   1      37.920  31.771  32.648  1.00  0.00     0.074 A 
ATOM     16  C   UNL A   1      37.869  33.073  34.747  1.00  0.00     0.049 A 
ATOM     17  N   UNL A   1      39.001  31.054  32.835  1.00  0.00    -0.248 NA
ATOM     18  C   UNL A   1      37.235  31.498  31.377  1.00  0.00     0.031 C 
ATOM     19  C   UNL A   1      37.345  34.036  35.722  1.00  0.00     0.029 A 
ATOM     20  N   UNL A   1      39.013  32.598  35.334  1.00  0.00    -0.354 N 
ATOM     21  C   UNL A   1      39.120  30.242  31.714  1.00  0.00     0.074 A 
ATOM     22  C   UNL A   1      37.986  30.532  30.864  1.00  0.00     0.031 C 
ATOM     23  C   UNL A   1      38.197  34.128  36.752  1.00  0.00     0.029 A 
ATOM     24  C   UNL A   1      39.294  33.191  36.541  1.00  0.00     0.049 A 
ATOM     25  H   UNL A   1      39.578  31.900  34.929  1.00  0.00     0.167 HD
ATOM     26  C   UNL A   1      40.093  29.344  31.421  1.00  0.00     0.037 A 
ATOM     27  C   UNL A   1      40.319  33.000  37.391  1.00  0.00     0.037 A 
ATOM     28  C   UNL A   1      41.224  29.063  32.270  1.00  0.00     0.049 A 
ATOM     29  C   UNL A   1      41.385  32.010  37.032  1.00  0.00     0.074 A 
ATOM     30  C   UNL A   1      42.265  28.175  32.056  1.00  0.00     0.029 A 
ATOM     31  N   UNL A   1      41.464  29.668  33.494  1.00  0.00    -0.354 N 
ATOM     32  N   UNL A   1      41.492  31.265  35.959  1.00  0.00    -0.248 NA
ATOM     33  C   UNL A   1      42.471  31.829  38.003  1.00  0.00     0.031 C 
ATOM     34  C   UNL A   1      43.117  28.220  33.165  1.00  0.00     0.029 A 
ATOM     35  C   UNL A   1      42.629  29.166  34.052  1.00  0.00     0.049 A 
ATOM     36  H   UNL A   1      40.890  30.353  33.908  1.00  0.00     0.167 HD
ATOM     37  C   UNL A   1      42.655  30.528  36.124  1.00  0.00     0.074 A 
ATOM     38  C   UNL A   1      43.238  30.944  37.384  1.00  0.00     0.031 C 
ATOM     39  C   UNL A   1      43.187  29.583  35.312  1.00  0.00     0.037 A 
BRANCH  26  40
ATOM     40  C   UNL A   1      39.980  28.593  30.126  1.00  0.00     0.057 A 
ATOM     41  C   UNL A   1      40.637  29.024  28.965  1.00  0.00     0.134 A 
ATOM     42  C   UNL A   1      39.259  27.395  30.053  1.00  0.00     0.134 A 
ATOM     43  F   UNL A   1      41.335  30.169  28.965  1.00  0.00    -0.206 F 
ATOM     44  C   UNL A   1      40.569  28.296  27.775  1.00  0.00     0.040 A 
ATOM     45  C   UNL A   1      39.202  26.648  28.874  1.00  0.00     0.040 A 
ATOM     46  F   UNL A   1      38.613  26.922  31.128  1.00  0.00    -0.206 F 
ATOM     47  C   UNL A   1      39.856  27.099  27.731  1.00  0.00     0.006 A 
ENDBRANCH  26  40
BRANCH  27  48
ATOM     48  C   UNL A   1      40.373  33.763  38.661  1.00  0.00     0.057 A 
ATOM     49  C   UNL A   1      41.121  34.940  38.774  1.00  0.00     0.134 A 
ATOM     50  C   UNL A   1      39.664  33.337  39.792  1.00  0.00     0.134 A 
ATOM     51  F   UNL A   1      41.834  35.390  37.729  1.00  0.00    -0.206 F 
ATOM     52  C   UNL A   1      41.175  35.659  39.969  1.00  0.00     0.040 A 
ATOM     53  C   UNL A   1      39.686  34.061  40.983  1.00  0.00     0.040 A 
ATOM     54  F   UNL A   1      38.919  32.223  39.743  1.00  0.00    -0.206 F 
ATOM     55  C   UNL A   1      40.450  35.222  41.076  1.00  0.00     0.006 A 
ENDBRANCH  27  48
BRANCH  39  56
ATOM     56  C   UNL A   1      44.463  28.945  35.772  1.00  0.00     0.057 A 
ATOM     57  C   UNL A   1      44.463  27.770  36.535  1.00  0.00     0.134 A 
ATOM     58  C   UNL A   1      45.703  29.511  35.451  1.00  0.00     0.134 A 
ATOM     59  F   UNL A   1      43.307  27.189  36.888  1.00  0.00    -0.206 F 
ATOM     60  C   UNL A   1      45.651  27.198  36.991  1.00  0.00     0.040 A 
ATOM     61  C   UNL A   1      46.899  28.934  35.881  1.00  0.00     0.040 A 
ATOM     62  F   UNL A   1      45.772  30.634  34.719  1.00  0.00    -0.206 F 
ATOM     63  C   UNL A   1      46.874  27.779  36.660  1.00  0.00     0.006 A 
ENDBRANCH  39  56
ENDBRANCH  13  14
ENDBRANCH   6   8
ENDBRANCH   3   4
ENDBRANCH   2   3
ENDBRANCH   1   2
BRANCH   1  64
ATOM     64  C   UNL A   1      34.970  33.195  28.886  1.00  0.00     0.002 C 
BRANCH  64  65
ATOM     65  C   UNL A   1      35.895  32.190  28.182  1.00  0.00     0.021 C 
BRANCH  65  66
ATOM     66  C   UNL A   1      35.200  30.893  27.761  1.00  0.00     0.116 C 
BRANCH  66  67
ATOM     67  N   UNL A   1      33.762  31.071  27.748  1.00  0.00    -0.356 N 
ATOM     68  C   UNL A   1      32.836  30.572  26.880  1.00  0.00     0.226 C 
ATOM     69  H   UNL A   1      33.400  31.635  28.470  1.00  0.00     0.163 HD
ATOM     70  O   UNL A   1      31.717  31.085  26.873  1.00  0.00    -0.275 OA
BRANCH  68  71
ATOM     71  C   UNL A   1      33.206  29.374  26.025  1.00  0.00     0.122 C 
ATOM     72  C   UNL A   1      32.056  28.909  25.103  1.00  0.00     0.123 C 
ATOM     73  C   UNL A   1      33.400  28.167  26.951  1.00  0.00     0.132 C 
ATOM     74  C   UNL A   1      31.838  27.476  25.617  1.00  0.00     0.132 C 
ATOM     75  C   UNL A   1      34.097  27.026  26.210  1.00  0.00     0.035 C 
ATOM     76  O   UNL A   1      32.057  27.639  27.038  1.00  0.00    -0.373 OA
ATOM     77  C   UNL A   1      32.992  26.532  25.276  1.00  0.00     0.035 C 
BRANCH  72  78
ATOM     78  C   UNL A   1      32.435  29.008  23.630  1.00  0.00     0.231 C 
ATOM     79  O   UNL A   1      33.601  29.197  23.271  1.00  0.00    -0.274 OA
ATOM     80  N   UNL A   1      31.499  28.813  22.652  1.00  0.00    -0.326 N 
ATOM     81  H   UNL A   1      31.864  28.705  21.744  1.00  0.00     0.169 HD
BRANCH  80  82
ATOM     82  C   UNL A   1      30.106  28.746  22.741  1.00  0.00     0.044 A 
ATOM     83  C   UNL A   1      29.271  29.787  22.318  1.00  0.00     0.029 A 
ATOM     84  C   UNL A   1      29.549  27.579  23.268  1.00  0.00     0.068 A 
ATOM     85  C   UNL A   1      27.888  29.695  22.498  1.00  0.00     0.044 A 
ATOM     86  C   UNL A   1      28.173  27.506  23.464  1.00  0.00     0.160 A 
ATOM     87  C   UNL A   1      27.349  28.559  23.091  1.00  0.00     0.158 A 
ATOM     88  F   UNL A   1      27.653  26.414  24.042  1.00  0.00    -0.204 F 
ATOM     89  F   UNL A   1      26.027  28.488  23.294  1.00  0.00    -0.204 F 
ENDBRANCH  80  82
ENDBRANCH  72  78
ENDBRANCH  68  71
ENDBRANCH  66  67
ENDBRANCH  65  66
ENDBRANCH  64  65
ENDBRANCH   1  64
TORSDOF 15
ENDMDL
MODEL 2
REMARK VINA RESULT:     -12.1      2.531      7.251
REMARK SMILES O=C(NCCCCCCNC(=O)[C@@H]1[C@@H](C(=O)Nc2ccc(F)c(F)c2)[C@H]2CC[C@@H]1O2)c1ccc(-c2c3nc(c(-c4c(F)cccc4F)c4ccc([nH]4)c(-c4c(F)cccc4F)c4nc(c(-c5c(F)cccc5F)c5ccc2[nH]5)C=C4)C=C3)cc1
REMARK SMILES IDX 6 1 5 2 4 3 3 4 1 5 2 6 31 8 32 9 84 10 33 11 83 12 34 13
REMARK SMILES IDX 35 14 36 15 77 16 37 17 82 18 76 19 78 20 38 21 81 22 75 23
REMARK SMILES IDX 74 24 39 26 65 27 48 28 64 29 49 30 52 31 63 32 79 33 50 34
REMARK SMILES IDX 51 35 62 37 80 38 53 39 40 40 41 41 46 42 42 43 43 44 45 45
REMARK SMILES IDX 47 46 44 47 66 48 67 49 72 50 68 51 69 52 71 53 73 54 70 55
REMARK SMILES IDX 54 56 55 57 60 58 56 59 57 60 59 61 61 62 58 63 7 64 8 65
REMARK SMILES IDX 9 66 10 67 11 68 12 70 13 71 14 72 29 73 26 74 28 75 30 76
REMARK SMILES IDX 27 77 15 78 16 79 17 80 18 82 19 83 25 84 20 85 23 86 21 87
REMARK SMILES IDX 24 88 22 89
REMARK H PARENT 3 7 78 25 52 36 10 69 17 81
REMARK Flexibility Score: inf
ROOT
ATOM      1  C   UNL A   1      31.645  30.823  26.134  1.00  0.00     0.002 C 
ENDROOT
BRANCH   1   2
ATOM      2  C   UNL A   1      31.406  32.248  26.631  1.00  0.00     0.021 C 
BRANCH   2   3
ATOM      3  C   UNL A   1      32.635  32.928  27.213  1.00  0.00     0.116 C 
BRANCH   3   4
ATOM      4  N   UNL A   1      32.358  34.273  27.690  1.00  0.00    -0.352 N 
ATOM      5  O   UNL A   1      32.548  36.053  29.071  1.00  0.00    -0.269 OA
ATOM      6  C   UNL A   1      33.001  34.982  28.677  1.00  0.00     0.251 C 
ATOM      7  H   UNL A   1      31.612  34.738  27.247  1.00  0.00     0.163 HD
BRANCH   6   8
ATOM      8  C   UNL A   1      34.232  34.430  29.283  1.00  0.00     0.039 A 
ATOM      9  C   UNL A   1      35.467  34.612  28.659  1.00  0.00     0.014 A 
ATOM     10  C   UNL A   1      34.149  33.711  30.480  1.00  0.00     0.014 A 
ATOM     11  C   UNL A   1      36.587  33.953  29.145  1.00  0.00     0.010 A 
ATOM     12  C   UNL A   1      35.300  33.128  31.021  1.00  0.00     0.010 A 
ATOM     13  C   UNL A   1      36.523  33.220  30.343  1.00  0.00    -0.014 A 
BRANCH  13  14
ATOM     14  C   UNL A   1      37.777  32.637  30.883  1.00  0.00     0.031 A 
ATOM     15  C   UNL A   1      38.384  33.122  32.169  1.00  0.00     0.074 A 
ATOM     16  C   UNL A   1      38.332  31.603  30.220  1.00  0.00     0.049 A 
ATOM     17  N   UNL A   1      39.426  32.653  32.812  1.00  0.00    -0.248 NA
ATOM     18  C   UNL A   1      37.754  34.281  32.817  1.00  0.00     0.031 C 
ATOM     19  C   UNL A   1      37.846  31.066  28.945  1.00  0.00     0.029 A 
ATOM     20  N   UNL A   1      39.392  30.796  30.537  1.00  0.00    -0.354 N 
ATOM     21  C   UNL A   1      39.580  33.462  33.931  1.00  0.00     0.074 A 
ATOM     22  C   UNL A   1      38.543  34.470  33.866  1.00  0.00     0.031 C 
ATOM     23  C   UNL A   1      38.563  29.982  28.622  1.00  0.00     0.029 A 
ATOM     24  C   UNL A   1      39.595  29.782  29.632  1.00  0.00     0.049 A 
ATOM     25  H   UNL A   1      39.955  30.929  31.334  1.00  0.00     0.167 HD
ATOM     26  C   UNL A   1      40.497  33.363  34.924  1.00  0.00     0.037 A 
ATOM     27  C   UNL A   1      40.513  28.799  29.612  1.00  0.00     0.037 A 
ATOM     28  C   UNL A   1      41.525  32.354  34.987  1.00  0.00     0.049 A 
ATOM     29  C   UNL A   1      41.507  28.710  30.731  1.00  0.00     0.074 A 
ATOM     30  C   UNL A   1      42.496  32.168  35.956  1.00  0.00     0.029 A 
ATOM     31  N   UNL A   1      41.712  31.356  34.041  1.00  0.00    -0.354 N 
ATOM     32  N   UNL A   1      41.625  29.471  31.792  1.00  0.00    -0.248 NA
ATOM     33  C   UNL A   1      42.496  27.628  30.649  1.00  0.00     0.031 C 
ATOM     34  C   UNL A   1      43.290  31.079  35.581  1.00  0.00     0.029 A 
ATOM     35  C   UNL A   1      42.788  30.559  34.399  1.00  0.00     0.049 A 
ATOM     36  H   UNL A   1      41.161  31.232  33.234  1.00  0.00     0.167 HD
ATOM     37  C   UNL A   1      42.700  28.962  32.504  1.00  0.00     0.074 A 
ATOM     38  C   UNL A   1      43.175  27.803  31.773  1.00  0.00     0.031 C 
ATOM     39  C   UNL A   1      43.253  29.419  33.653  1.00  0.00     0.037 A 
BRANCH  26  40
ATOM     40  C   UNL A   1      40.438  34.377  36.030  1.00  0.00     0.057 A 
ATOM     41  C   UNL A   1      41.159  35.578  35.968  1.00  0.00     0.134 A 
ATOM     42  C   UNL A   1      39.605  34.182  37.138  1.00  0.00     0.134 A 
ATOM     43  F   UNL A   1      41.983  35.822  34.938  1.00  0.00    -0.206 F 
ATOM     44  C   UNL A   1      41.062  36.541  36.975  1.00  0.00     0.040 A 
ATOM     45  C   UNL A   1      39.484  35.146  38.141  1.00  0.00     0.040 A 
ATOM     46  F   UNL A   1      38.882  33.058  37.257  1.00  0.00    -0.206 F 
ATOM     47  C   UNL A   1      40.216  36.329  38.062  1.00  0.00     0.006 A 
ENDBRANCH  26  40
BRANCH  27  48
ATOM     48  C   UNL A   1      40.531  27.832  28.488  1.00  0.00     0.057 A 
ATOM     49  C   UNL A   1      39.809  26.635  28.545  1.00  0.00     0.134 A 
ATOM     50  C   UNL A   1      41.263  28.091  27.322  1.00  0.00     0.134 A 
ATOM     51  F   UNL A   1      39.102  26.324  29.642  1.00  0.00    -0.206 F 
ATOM     52  C   UNL A   1      39.826  25.721  27.490  1.00  0.00     0.040 A 
ATOM     53  C   UNL A   1      41.266  27.201  26.248  1.00  0.00     0.040 A 
ATOM     54  F   UNL A   1      41.966  29.227  27.203  1.00  0.00    -0.206 F 
ATOM     55  C   UNL A   1      40.551  26.008  26.334  1.00  0.00     0.006 A 
ENDBRANCH  27  48
BRANCH  39  56
ATOM     56  C   UNL A   1      44.430  28.655  34.181  1.00  0.00     0.057 A 
ATOM     57  C   UNL A   1      45.743  28.996  33.830  1.00  0.00     0.134 A 
ATOM     58  C   UNL A   1      44.250  27.569  35.045  1.00  0.00     0.134 A 
ATOM     59  F   UNL A   1      45.980  30.017  32.994  1.00  0.00    -0.206 F 
ATOM     60  C   UNL A   1      46.835  28.262  34.295  1.00  0.00     0.040 A 
ATOM     61  C   UNL A   1      45.335  26.842  35.536  1.00  0.00     0.040 A 
ATOM     62  F   UNL A   1      43.018  27.195  35.423  1.00  0.00    -0.206 F 
ATOM     63  C   UNL A   1      46.631  27.183  35.155  1.00  0.00     0.006 A 
ENDBRANCH  39  56
ENDBRANCH  13  14
ENDBRANCH   6   8
ENDBRANCH   3   4
ENDBRANCH   2   3
ENDBRANCH   1   2
BRANCH   1  64
ATOM     64  C   UNL A   1      32.195  29.850  27.184  1.00  0.00     0.002 C 
BRANCH  64  65
ATOM     65  C   UNL A   1      33.703  29.569  27.096  1.00  0.00     0.021 C 
BRANCH  65  66
ATOM     66  C   UNL A   1      34.053  28.262  26.383  1.00  0.00     0.116 C 
BRANCH  66  67
ATOM     67  N   UNL A   1      34.115  28.468  24.949  1.00  0.00    -0.356 N 
ATOM     68  C   UNL A   1      33.277  28.018  23.973  1.00  0.00     0.226 C 
ATOM     69  H   UNL A   1      34.872  29.014  24.635  1.00  0.00     0.163 HD
ATOM     70  O   UNL A   1      33.675  28.056  22.809  1.00  0.00    -0.275 OA
BRANCH  68  71
ATOM     71  C   UNL A   1      31.882  27.563  24.359  1.00  0.00     0.122 C 
ATOM     72  C   UNL A   1      31.814  26.064  24.730  1.00  0.00     0.123 C 
ATOM     73  C   UNL A   1      30.993  27.638  23.112  1.00  0.00     0.132 C 
ATOM     74  C   UNL A   1      30.830  25.549  23.666  1.00  0.00     0.132 C 
ATOM     75  C   UNL A   1      29.517  27.524  23.495  1.00  0.00     0.035 C 
ATOM     76  O   UNL A   1      31.206  26.339  22.513  1.00  0.00    -0.373 OA
ATOM     77  C   UNL A   1      29.400  26.048  23.876  1.00  0.00     0.035 C 
BRANCH  72  78
ATOM     78  C   UNL A   1      31.362  25.856  26.170  1.00  0.00     0.231 C 
ATOM     79  O   UNL A   1      30.752  26.732  26.792  1.00  0.00    -0.274 OA
ATOM     80  N   UNL A   1      31.554  24.657  26.799  1.00  0.00    -0.326 N 
ATOM     81  H   UNL A   1      31.066  24.549  27.647  1.00  0.00     0.169 HD
BRANCH  80  82
ATOM     82  C   UNL A   1      32.336  23.561  26.425  1.00  0.00     0.044 A 
ATOM     83  C   UNL A   1      33.714  23.499  26.663  1.00  0.00     0.029 A 
ATOM     84  C   UNL A   1      31.692  22.492  25.798  1.00  0.00     0.068 A 
ATOM     85  C   UNL A   1      34.459  22.411  26.202  1.00  0.00     0.044 A 
ATOM     86  C   UNL A   1      32.444  21.422  25.322  1.00  0.00     0.160 A 
ATOM     87  C   UNL A   1      33.819  21.386  25.514  1.00  0.00     0.158 A 
ATOM     88  F   UNL A   1      31.829  20.437  24.654  1.00  0.00    -0.204 F 
ATOM     89  F   UNL A   1      34.540  20.360  25.043  1.00  0.00    -0.204 F 
ENDBRANCH  80  82
ENDBRANCH  72  78
ENDBRANCH  68  71
ENDBRANCH  66  67
ENDBRANCH  65  66
ENDBRANCH  64  65
ENDBRANCH   1  64
TORSDOF 15
ENDMDL
MODEL 3
REMARK VINA RESULT:     -12.1      2.476      7.168
REMARK SMILES O=C(NCCCCCCNC(=O)[C@@H]1[C@@H](C(=O)Nc2ccc(F)c(F)c2)[C@H]2CC[C@@H]1O2)c1ccc(-c2c3nc(c(-c4c(F)cccc4F)c4ccc([nH]4)c(-c4c(F)cccc4F)c4nc(c(-c5c(F)cccc5F)c5ccc2[nH]5)C=C4)C=C3)cc1
REMARK SMILES IDX 6 1 5 2 4 3 3 4 1 5 2 6 31 8 32 9 84 10 33 11 83 12 34 13
REMARK SMILES IDX 35 14 36 15 77 16 37 17 82 18 76 19 78 20 38 21 81 22 75 23
REMARK SMILES IDX 74 24 39 26 65 27 48 28 64 29 49 30 52 31 63 32 79 33 50 34
REMARK SMILES IDX 51 35 62 37 80 38 53 39 40 40 41 41 46 42 42 43 43 44 45 45
REMARK SMILES IDX 47 46 44 47 66 48 67 49 72 50 68 51 69 52 71 53 73 54 70 55
REMARK SMILES IDX 54 56 55 57 60 58 56 59 57 60 59 61 61 62 58 63 7 64 8 65
REMARK SMILES IDX 9 66 10 67 11 68 12 70 13 71 14 72 29 73 26 74 28 75 30 76
REMARK SMILES IDX 27 77 15 78 16 79 17 80 18 82 19 83 25 84 20 85 23 86 21 87
REMARK SMILES IDX 24 88 22 89
REMARK H PARENT 3 7 78 25 52 36 10 69 17 81
REMARK Flexibility Score: inf
ROOT
ATOM      1  C   UNL A   1      31.541  30.749  26.125  1.00  0.00     0.002 C 
ENDROOT
BRANCH   1   2
ATOM      2  C   UNL A   1      31.360  32.220  26.500  1.00  0.00     0.021 C 
BRANCH   2   3
ATOM      3  C   UNL A   1      32.554  32.841  27.207  1.00  0.00     0.116 C 
BRANCH   3   4
ATOM      4  N   UNL A   1      32.306  34.211  27.626  1.00  0.00    -0.352 N 
ATOM      5  O   UNL A   1      32.522  36.039  28.940  1.00  0.00    -0.269 OA
ATOM      6  C   UNL A   1      32.952  34.942  28.595  1.00  0.00     0.251 C 
ATOM      7  H   UNL A   1      31.579  34.678  27.153  1.00  0.00     0.163 HD
BRANCH   6   8
ATOM      8  C   UNL A   1      34.159  34.382  29.242  1.00  0.00     0.039 A 
ATOM      9  C   UNL A   1      35.418  34.579  28.673  1.00  0.00     0.014 A 
ATOM     10  C   UNL A   1      34.029  33.643  30.423  1.00  0.00     0.014 A 
ATOM     11  C   UNL A   1      36.519  33.914  29.194  1.00  0.00     0.010 A 
ATOM     12  C   UNL A   1      35.157  33.054  31.002  1.00  0.00     0.010 A 
ATOM     13  C   UNL A   1      36.408  33.161  30.375  1.00  0.00    -0.014 A 
BRANCH  13  14
ATOM     14  C   UNL A   1      37.641  32.572  30.958  1.00  0.00     0.031 A 
ATOM     15  C   UNL A   1      38.216  33.066  32.255  1.00  0.00     0.074 A 
ATOM     16  C   UNL A   1      38.203  31.525  30.323  1.00  0.00     0.049 A 
ATOM     17  N   UNL A   1      39.234  32.595  32.932  1.00  0.00    -0.248 NA
ATOM     18  C   UNL A   1      37.579  34.238  32.872  1.00  0.00     0.031 C 
ATOM     19  C   UNL A   1      37.747  30.978  29.040  1.00  0.00     0.029 A 
ATOM     20  N   UNL A   1      39.246  30.711  30.678  1.00  0.00    -0.354 N 
ATOM     21  C   UNL A   1      39.365  33.414  34.046  1.00  0.00     0.074 A 
ATOM     22  C   UNL A   1      38.341  34.432  33.940  1.00  0.00     0.031 C 
ATOM     23  C   UNL A   1      38.462  29.883  28.750  1.00  0.00     0.029 A 
ATOM     24  C   UNL A   1      39.463  29.684  29.792  1.00  0.00     0.049 A 
ATOM     25  H   UNL A   1      39.787  30.848  31.489  1.00  0.00     0.167 HD
ATOM     26  C   UNL A   1      40.253  33.318  35.065  1.00  0.00     0.037 A 
ATOM     27  C   UNL A   1      40.372  28.692  29.808  1.00  0.00     0.037 A 
ATOM     28  C   UNL A   1      41.268  32.299  35.168  1.00  0.00     0.049 A 
ATOM     29  C   UNL A   1      41.332  28.607  30.955  1.00  0.00     0.074 A 
ATOM     30  C   UNL A   1      42.210  32.116  36.166  1.00  0.00     0.029 A 
ATOM     31  N   UNL A   1      41.471  31.289  34.240  1.00  0.00    -0.354 N 
ATOM     32  N   UNL A   1      41.428  29.379  32.010  1.00  0.00    -0.248 NA
ATOM     33  C   UNL A   1      42.313  27.515  30.914  1.00  0.00     0.031 C 
ATOM     34  C   UNL A   1      43.003  31.014  35.827  1.00  0.00     0.029 A 
ATOM     35  C   UNL A   1      42.529  30.486  34.637  1.00  0.00     0.049 A 
ATOM     36  H   UNL A   1      40.942  31.161  33.419  1.00  0.00     0.167 HD
ATOM     37  C   UNL A   1      42.478  28.867  32.758  1.00  0.00     0.074 A 
ATOM     38  C   UNL A   1      42.962  27.696  32.055  1.00  0.00     0.031 C 
ATOM     39  C   UNL A   1      43.003  29.332  33.917  1.00  0.00     0.037 A 
BRANCH  26  40
ATOM     40  C   UNL A   1      40.173  34.346  36.157  1.00  0.00     0.057 A 
ATOM     41  C   UNL A   1      39.388  34.145  37.301  1.00  0.00     0.134 A 
ATOM     42  C   UNL A   1      40.934  35.519  36.095  1.00  0.00     0.134 A 
ATOM     43  F   UNL A   1      38.627  33.047  37.418  1.00  0.00    -0.206 F 
ATOM     44  C   UNL A   1      39.355  35.081  38.337  1.00  0.00     0.040 A 
ATOM     45  C   UNL A   1      40.925  36.452  37.135  1.00  0.00     0.040 A 
ATOM     46  F   UNL A   1      41.712  35.771  35.032  1.00  0.00    -0.206 F 
ATOM     47  C   UNL A   1      40.132  36.235  38.259  1.00  0.00     0.006 A 
ENDBRANCH  26  40
BRANCH  27  48
ATOM     48  C   UNL A   1      40.411  27.712  28.696  1.00  0.00     0.057 A 
ATOM     49  C   UNL A   1      41.199  27.928  27.561  1.00  0.00     0.134 A 
ATOM     50  C   UNL A   1      39.669  26.525  28.751  1.00  0.00     0.134 A 
ATOM     51  F   UNL A   1      41.921  29.054  27.445  1.00  0.00    -0.206 F 
ATOM     52  C   UNL A   1      41.237  27.008  26.512  1.00  0.00     0.040 A 
ATOM     53  C   UNL A   1      39.719  25.584  27.724  1.00  0.00     0.040 A 
ATOM     54  F   UNL A   1      38.903  26.256  29.819  1.00  0.00    -0.206 F 
ATOM     55  C   UNL A   1      40.500  25.828  26.596  1.00  0.00     0.006 A 
ENDBRANCH  27  48
BRANCH  39  56
ATOM     56  C   UNL A   1      44.157  28.563  34.487  1.00  0.00     0.057 A 
ATOM     57  C   UNL A   1      43.960  27.476  35.350  1.00  0.00     0.134 A 
ATOM     58  C   UNL A   1      45.475  28.913  34.175  1.00  0.00     0.134 A 
ATOM     59  F   UNL A   1      42.720  27.102  35.699  1.00  0.00    -0.206 F 
ATOM     60  C   UNL A   1      45.036  26.784  35.906  1.00  0.00     0.040 A 
ATOM     61  C   UNL A   1      46.560  28.213  34.706  1.00  0.00     0.040 A 
ATOM     62  F   UNL A   1      45.731  29.942  33.351  1.00  0.00    -0.206 F 
ATOM     63  C   UNL A   1      46.341  27.151  35.580  1.00  0.00     0.006 A 
ENDBRANCH  39  56
ENDBRANCH  13  14
ENDBRANCH   6   8
ENDBRANCH   3   4
ENDBRANCH   2   3
ENDBRANCH   1   2
BRANCH   1  64
ATOM     64  C   UNL A   1      32.212  29.881  27.195  1.00  0.00     0.002 C 
BRANCH  64  65
ATOM     65  C   UNL A   1      33.708  29.604  26.977  1.00  0.00     0.021 C 
BRANCH  65  66
ATOM     66  C   UNL A   1      33.999  28.281  26.267  1.00  0.00     0.116 C 
BRANCH  66  67
ATOM     67  N   UNL A   1      34.028  28.472  24.831  1.00  0.00    -0.356 N 
ATOM     68  C   UNL A   1      33.170  28.008  23.879  1.00  0.00     0.226 C 
ATOM     69  H   UNL A   1      34.776  29.017  24.494  1.00  0.00     0.163 HD
ATOM     70  O   UNL A   1      33.542  28.035  22.705  1.00  0.00    -0.275 OA
BRANCH  68  71
ATOM     71  C   UNL A   1      31.787  27.551  24.301  1.00  0.00     0.122 C 
ATOM     72  C   UNL A   1      31.728  26.049  24.663  1.00  0.00     0.123 C 
ATOM     73  C   UNL A   1      30.863  27.635  23.079  1.00  0.00     0.132 C 
ATOM     74  C   UNL A   1      30.714  25.542  23.624  1.00  0.00     0.132 C 
ATOM     75  C   UNL A   1      29.398  27.520  23.503  1.00  0.00     0.035 C 
ATOM     76  O   UNL A   1      31.058  26.341  22.467  1.00  0.00    -0.373 OA
ATOM     77  C   UNL A   1      29.291  26.042  23.878  1.00  0.00     0.035 C 
BRANCH  72  78
ATOM     78  C   UNL A   1      31.316  25.833  26.114  1.00  0.00     0.231 C 
ATOM     79  O   UNL A   1      30.715  26.700  26.755  1.00  0.00    -0.274 OA
ATOM     80  N   UNL A   1      31.536  24.633  26.733  1.00  0.00    -0.326 N 
ATOM     81  H   UNL A   1      31.072  24.517  27.594  1.00  0.00     0.169 HD
BRANCH  80  82
ATOM     82  C   UNL A   1      32.318  23.545  26.334  1.00  0.00     0.044 A 
ATOM     83  C   UNL A   1      33.707  23.511  26.501  1.00  0.00     0.029 A 
ATOM     84  C   UNL A   1      31.662  22.456  25.755  1.00  0.00     0.068 A 
ATOM     85  C   UNL A   1      34.447  22.429  26.017  1.00  0.00     0.044 A 
ATOM     86  C   UNL A   1      32.409  21.393  25.255  1.00  0.00     0.160 A 
ATOM     87  C   UNL A   1      33.792  21.384  25.377  1.00  0.00     0.158 A 
ATOM     88  F   UNL A   1      31.778  20.388  24.632  1.00  0.00    -0.204 F 
ATOM     89  F   UNL A   1      34.507  20.364  24.883  1.00  0.00    -0.204 F 
ENDBRANCH  80  82
ENDBRANCH  72  78
ENDBRANCH  68  71
ENDBRANCH  66  67
ENDBRANCH  65  66
ENDBRANCH  64  65
ENDBRANCH   1  64
TORSDOF 15
ENDMDL
