MODEL 1
REMARK VINA RESULT:     -12.9      0.000      0.000
REMARK SMILES Cc1cccc(S(=O)(=O)Nc2cc(C(=O)NCCCCCCNC(=O)c3ccc(-c4c5nc(c(-c6c(F)cccc6F)c6ccc([nH]6)c(-c6c(F)cccc6F)c6nc(c(-c7c(F)cccc7F)c7ccc4[nH]7)C=C6)C=C5)cc3)cnc2N2CCC[C@H](C)C2)c1
REMARK SMILES IDX 19 1 18 2 17 3 16 4 14 5 15 6 13 8 11 9 12 10 82 11 81 12
REMARK SMILES IDX 80 13 10 14 7 16 8 17 9 18 6 19 1 20 2 21 3 22 90 23 4 24
REMARK SMILES IDX 5 25 83 26 84 27 89 28 85 29 87 30 86 31 88 32 20 33 21 34
REMARK SMILES IDX 22 35 23 36 24 37 25 39 26 40 27 41 79 42 28 43 78 44 29 45
REMARK SMILES IDX 30 46 31 47 72 48 32 49 77 50 71 51 73 52 33 53 76 54 70 55
REMARK SMILES IDX 69 56 34 58 60 59 43 60 59 61 44 62 47 63 58 64 74 65 45 66
REMARK SMILES IDX 46 67 57 69 75 70 48 71 35 72 36 73 41 74 37 75 38 76 40 77
REMARK SMILES IDX 42 78 39 79 61 80 62 81 67 82 63 83 64 84 66 85 68 86 65 87
REMARK SMILES IDX 49 88 50 89 55 90 51 91 52 92 54 93 56 94 53 95
REMARK H PARENT 16 7 10 15 23 38 73 57 47 68
REMARK Flexibility Score: inf
ROOT
ATOM      1  C   UNL A   1      31.274  29.612  25.201  1.00  0.00     0.002 C 
ENDROOT
BRANCH   1   2
ATOM      2  C   UNL A   1      30.415  29.916  23.966  1.00  0.00     0.021 C 
BRANCH   2   3
ATOM      3  C   UNL A   1      30.168  28.699  23.074  1.00  0.00     0.116 C 
BRANCH   3   4
ATOM      4  N   UNL A   1      28.874  28.094  23.340  1.00  0.00    -0.352 N 
ATOM      5  C   UNL A   1      28.509  26.871  23.845  1.00  0.00     0.252 C 
ATOM      6  O   UNL A   1      27.319  26.673  24.087  1.00  0.00    -0.269 OA
ATOM      7  H   UNL A   1      28.112  28.673  23.115  1.00  0.00     0.163 HD
BRANCH   5   8
ATOM      8  C   UNL A   1      29.482  25.802  24.164  1.00  0.00     0.060 A 
ATOM      9  C   UNL A   1      31.164  24.182  23.625  1.00  0.00     0.092 A 
ATOM     10  C   UNL A   1      30.147  25.039  23.217  1.00  0.00     0.046 A 
ATOM     11  C   UNL A   1      31.368  23.932  24.999  1.00  0.00     0.153 A 
ATOM     12  N   UNL A   1      30.666  24.607  25.932  1.00  0.00    -0.236 NA
ATOM     13  C   UNL A   1      29.769  25.540  25.502  1.00  0.00     0.127 A 
BRANCH   9  14
ATOM     14  N   UNL A   1      31.964  23.565  22.606  1.00  0.00    -0.276 N 
ATOM     15  H   UNL A   1      31.687  22.699  22.228  1.00  0.00     0.180 HD
BRANCH  14  16
ATOM     16  S   UNL A   1      33.390  24.315  22.043  1.00  0.00     0.262 S 
ATOM     17  O   UNL A   1      33.133  24.556  20.634  1.00  0.00    -0.201 OA
ATOM     18  O   UNL A   1      34.499  23.473  22.429  1.00  0.00    -0.201 OA
BRANCH  16  19
ATOM     19  C   UNL A   1      33.693  25.913  22.779  1.00  0.00     0.088 A 
ATOM     20  C   UNL A   1      34.177  27.641  26.140  1.00  0.00     0.044 C 
ATOM     21  C   UNL A   1      34.093  27.402  24.658  1.00  0.00    -0.050 A 
ATOM     22  C   UNL A   1      34.076  28.499  23.788  1.00  0.00     0.003 A 
ATOM     23  C   UNL A   1      33.983  26.102  24.134  1.00  0.00     0.025 A 
ATOM     24  C   UNL A   1      33.902  28.307  22.420  1.00  0.00     0.002 A 
ATOM     25  C   UNL A   1      33.682  27.023  21.920  1.00  0.00     0.022 A 
ENDBRANCH  16  19
ENDBRANCH  14  16
ENDBRANCH   9  14
BRANCH  11  26
ATOM     26  N   UNL A   1      32.141  22.855  25.384  1.00  0.00    -0.355 N 
ATOM     27  C   UNL A   1      33.363  23.015  26.154  1.00  0.00     0.118 C 
ATOM     28  C   UNL A   1      31.452  21.586  25.595  1.00  0.00     0.121 C 
ATOM     29  C   UNL A   1      34.364  21.983  25.624  1.00  0.00     0.022 C 
ATOM     30  C   UNL A   1      32.353  20.472  25.033  1.00  0.00     0.005 C 
ATOM     31  C   UNL A   1      33.775  20.564  25.627  1.00  0.00     0.007 C 
ATOM     32  C   UNL A   1      32.368  20.517  23.500  1.00  0.00     0.009 C 
ENDBRANCH  11  26
ENDBRANCH   5   8
ENDBRANCH   3   4
ENDBRANCH   2   3
ENDBRANCH   1   2
BRANCH   1  33
ATOM     33  C   UNL A   1      31.667  30.824  26.065  1.00  0.00     0.002 C 
BRANCH  33  34
ATOM     34  C   UNL A   1      32.454  30.509  27.340  1.00  0.00     0.021 C 
BRANCH  34  35
ATOM     35  C   UNL A   1      33.940  30.831  27.236  1.00  0.00     0.116 C 
BRANCH  35  36
ATOM     36  N   UNL A   1      34.457  31.574  28.378  1.00  0.00    -0.352 N 
ATOM     37  C   UNL A   1      35.498  31.263  29.239  1.00  0.00     0.251 C 
ATOM     38  H   UNL A   1      33.997  32.424  28.566  1.00  0.00     0.163 HD
ATOM     39  O   UNL A   1      35.769  32.008  30.168  1.00  0.00    -0.269 OA
BRANCH  37  40
ATOM     40  C   UNL A   1      36.373  30.104  28.934  1.00  0.00     0.039 A 
ATOM     41  C   UNL A   1      36.675  29.232  29.986  1.00  0.00     0.014 A 
ATOM     42  C   UNL A   1      37.065  30.016  27.730  1.00  0.00     0.014 A 
ATOM     43  C   UNL A   1      37.844  28.479  29.931  1.00  0.00     0.010 A 
ATOM     44  C   UNL A   1      38.271  29.345  27.709  1.00  0.00     0.010 A 
ATOM     45  C   UNL A   1      38.699  28.649  28.845  1.00  0.00    -0.014 A 
BRANCH  45  46
ATOM     46  C   UNL A   1      40.108  28.274  28.878  1.00  0.00     0.031 A 
ATOM     47  C   UNL A   1      40.565  26.986  28.327  1.00  0.00     0.074 A 
ATOM     48  C   UNL A   1      41.011  29.169  29.339  1.00  0.00     0.049 A 
ATOM     49  N   UNL A   1      41.704  26.442  28.594  1.00  0.00    -0.248 NA
ATOM     50  C   UNL A   1      39.733  26.179  27.448  1.00  0.00     0.031 C 
ATOM     51  C   UNL A   1      42.464  29.125  29.201  1.00  0.00     0.029 A 
ATOM     52  N   UNL A   1      40.780  30.207  30.253  1.00  0.00    -0.354 N 
ATOM     53  C   UNL A   1      41.871  25.369  27.749  1.00  0.00     0.074 A 
ATOM     54  C   UNL A   1      40.591  25.218  27.093  1.00  0.00     0.031 C 
ATOM     55  C   UNL A   1      43.010  29.850  30.189  1.00  0.00     0.029 A 
ATOM     56  C   UNL A   1      41.931  30.251  31.074  1.00  0.00     0.049 A 
ATOM     57  H   UNL A   1      39.985  30.784  30.310  1.00  0.00     0.167 HD
ATOM     58  C   UNL A   1      43.110  24.808  27.624  1.00  0.00     0.037 A 
ATOM     59  C   UNL A   1      41.849  29.951  32.403  1.00  0.00     0.037 A 
ATOM     60  C   UNL A   1      44.059  25.385  28.577  1.00  0.00     0.049 A 
ATOM     61  C   UNL A   1      42.690  28.770  32.845  1.00  0.00     0.074 A 
ATOM     62  C   UNL A   1      45.051  26.350  28.504  1.00  0.00     0.029 A 
ATOM     63  N   UNL A   1      43.860  25.151  29.925  1.00  0.00    -0.354 N 
ATOM     64  N   UNL A   1      43.365  27.999  32.037  1.00  0.00    -0.248 NA
ATOM     65  C   UNL A   1      42.744  28.304  34.233  1.00  0.00     0.031 C 
ATOM     66  C   UNL A   1      45.429  26.704  29.832  1.00  0.00     0.029 A 
ATOM     67  C   UNL A   1      44.668  25.951  30.708  1.00  0.00     0.049 A 
ATOM     68  H   UNL A   1      43.221  24.493  30.283  1.00  0.00     0.167 HD
ATOM     69  C   UNL A   1      43.860  26.933  32.742  1.00  0.00     0.074 A 
ATOM     70  C   UNL A   1      43.455  27.172  34.113  1.00  0.00     0.031 C 
ATOM     71  C   UNL A   1      44.517  25.896  32.151  1.00  0.00     0.037 A 
BRANCH  58  72
ATOM     72  C   UNL A   1      43.519  23.898  26.487  1.00  0.00     0.057 A 
ATOM     73  C   UNL A   1      43.289  22.510  26.560  1.00  0.00     0.134 A 
ATOM     74  C   UNL A   1      44.189  24.306  25.322  1.00  0.00     0.134 A 
ATOM     75  F   UNL A   1      42.561  21.964  27.544  1.00  0.00    -0.206 F 
ATOM     76  C   UNL A   1      43.797  21.599  25.623  1.00  0.00     0.040 A 
ATOM     77  C   UNL A   1      44.755  23.405  24.407  1.00  0.00     0.040 A 
ATOM     78  F   UNL A   1      44.271  25.595  24.971  1.00  0.00    -0.206 F 
ATOM     79  C   UNL A   1      44.573  22.041  24.565  1.00  0.00     0.006 A 
ENDBRANCH  58  72
BRANCH  59  80
ATOM     80  C   UNL A   1      40.540  30.322  33.007  1.00  0.00     0.057 A 
ATOM     81  C   UNL A   1      40.259  31.679  33.251  1.00  0.00     0.134 A 
ATOM     82  C   UNL A   1      39.459  29.436  33.027  1.00  0.00     0.134 A 
ATOM     83  F   UNL A   1      41.250  32.586  33.243  1.00  0.00    -0.206 F 
ATOM     84  C   UNL A   1      38.952  32.148  33.395  1.00  0.00     0.040 A 
ATOM     85  C   UNL A   1      38.147  29.892  33.193  1.00  0.00     0.040 A 
ATOM     86  F   UNL A   1      39.639  28.131  32.780  1.00  0.00    -0.206 F 
ATOM     87  C   UNL A   1      37.888  31.253  33.337  1.00  0.00     0.006 A 
ENDBRANCH  59  80
BRANCH  71  88
ATOM     88  C   UNL A   1      45.055  24.728  32.918  1.00  0.00     0.057 A 
ATOM     89  C   UNL A   1      44.364  23.513  33.014  1.00  0.00     0.134 A 
ATOM     90  C   UNL A   1      46.232  24.829  33.683  1.00  0.00     0.134 A 
ATOM     91  F   UNL A   1      43.207  23.326  32.359  1.00  0.00    -0.206 F 
ATOM     92  C   UNL A   1      44.828  22.454  33.801  1.00  0.00     0.040 A 
ATOM     93  C   UNL A   1      46.681  23.796  34.508  1.00  0.00     0.040 A 
ATOM     94  F   UNL A   1      47.003  25.926  33.641  1.00  0.00    -0.206 F 
ATOM     95  C   UNL A   1      45.983  22.597  34.563  1.00  0.00     0.006 A 
ENDBRANCH  71  88
ENDBRANCH  45  46
ENDBRANCH  37  40
ENDBRANCH  35  36
ENDBRANCH  34  35
ENDBRANCH  33  34
ENDBRANCH   1  33
TORSDOF 17
ENDMDL
MODEL 2
REMARK VINA RESULT:     -12.1      1.019      2.060
REMARK SMILES Cc1cccc(S(=O)(=O)Nc2cc(C(=O)NCCCCCCNC(=O)c3ccc(-c4c5nc(c(-c6c(F)cccc6F)c6ccc([nH]6)c(-c6c(F)cccc6F)c6nc(c(-c7c(F)cccc7F)c7ccc4[nH]7)C=C6)C=C5)cc3)cnc2N2CCC[C@H](C)C2)c1
REMARK SMILES IDX 19 1 18 2 17 3 16 4 14 5 15 6 13 8 11 9 12 10 82 11 81 12
REMARK SMILES IDX 80 13 10 14 7 16 8 17 9 18 6 19 1 20 2 21 3 22 90 23 4 24
REMARK SMILES IDX 5 25 83 26 84 27 89 28 85 29 87 30 86 31 88 32 20 33 21 34
REMARK SMILES IDX 22 35 23 36 24 37 25 39 26 40 27 41 79 42 28 43 78 44 29 45
REMARK SMILES IDX 30 46 31 47 72 48 32 49 77 50 71 51 73 52 33 53 76 54 70 55
REMARK SMILES IDX 69 56 34 58 60 59 43 60 59 61 44 62 47 63 58 64 74 65 45 66
REMARK SMILES IDX 46 67 57 69 75 70 48 71 35 72 36 73 41 74 37 75 38 76 40 77
REMARK SMILES IDX 42 78 39 79 61 80 62 81 67 82 63 83 64 84 66 85 68 86 65 87
REMARK SMILES IDX 49 88 50 89 55 90 51 91 52 92 54 93 56 94 53 95
REMARK H PARENT 16 7 10 15 23 38 73 57 47 68
REMARK Flexibility Score: inf
ROOT
ATOM      1  C   UNL A   1      31.302  30.624  25.500  1.00  0.00     0.002 C 
ENDROOT
BRANCH   1   2
ATOM      2  C   UNL A   1      31.598  29.198  25.018  1.00  0.00     0.021 C 
BRANCH   2   3
ATOM      3  C   UNL A   1      31.198  28.945  23.564  1.00  0.00     0.116 C 
BRANCH   3   4
ATOM      4  N   UNL A   1      29.824  28.487  23.459  1.00  0.00    -0.352 N 
ATOM      5  C   UNL A   1      29.216  27.299  23.780  1.00  0.00     0.252 C 
ATOM      6  O   UNL A   1      27.989  27.233  23.703  1.00  0.00    -0.269 OA
ATOM      7  H   UNL A   1      29.209  29.158  23.085  1.00  0.00     0.163 HD
BRANCH   5   8
ATOM      8  C   UNL A   1      29.957  26.114  24.268  1.00  0.00     0.060 A 
ATOM      9  C   UNL A   1      31.410  24.224  24.021  1.00  0.00     0.092 A 
ATOM     10  C   UNL A   1      30.602  25.201  23.449  1.00  0.00     0.046 A 
ATOM     11  C   UNL A   1      31.399  24.030  25.419  1.00  0.00     0.153 A 
ATOM     12  N   UNL A   1      30.706  24.862  26.224  1.00  0.00    -0.236 NA
ATOM     13  C   UNL A   1      30.031  25.893  25.641  1.00  0.00     0.127 A 
BRANCH   9  14
ATOM     14  N   UNL A   1      32.220  23.429  23.143  1.00  0.00    -0.276 N 
ATOM     15  H   UNL A   1      31.885  22.559  22.827  1.00  0.00     0.180 HD
BRANCH  14  16
ATOM     16  S   UNL A   1      33.756  23.976  22.640  1.00  0.00     0.262 S 
ATOM     17  O   UNL A   1      33.633  25.423  22.627  1.00  0.00    -0.201 OA
ATOM     18  O   UNL A   1      34.080  23.279  21.416  1.00  0.00    -0.201 OA
BRANCH  16  19
ATOM     19  C   UNL A   1      35.063  23.594  23.797  1.00  0.00     0.088 A 
ATOM     20  C   UNL A   1      37.591  20.893  24.703  1.00  0.00     0.044 C 
ATOM     21  C   UNL A   1      36.834  22.192  24.691  1.00  0.00    -0.050 A 
ATOM     22  C   UNL A   1      37.020  23.102  25.739  1.00  0.00     0.003 A 
ATOM     23  C   UNL A   1      35.907  22.487  23.676  1.00  0.00     0.025 A 
ATOM     24  C   UNL A   1      36.260  24.266  25.802  1.00  0.00     0.002 A 
ATOM     25  C   UNL A   1      35.265  24.498  24.851  1.00  0.00     0.022 A 
ENDBRANCH  16  19
ENDBRANCH  14  16
ENDBRANCH   9  14
BRANCH  11  26
ATOM     26  N   UNL A   1      31.936  22.872  25.947  1.00  0.00    -0.355 N 
ATOM     27  C   UNL A   1      32.757  22.876  27.147  1.00  0.00     0.118 C 
ATOM     28  C   UNL A   1      31.194  21.636  25.722  1.00  0.00     0.121 C 
ATOM     29  C   UNL A   1      33.866  21.840  26.932  1.00  0.00     0.022 C 
ATOM     30  C   UNL A   1      32.223  20.528  25.430  1.00  0.00     0.005 C 
ATOM     31  C   UNL A   1      33.295  20.468  26.539  1.00  0.00     0.007 C 
ATOM     32  C   UNL A   1      32.843  20.725  24.042  1.00  0.00     0.009 C 
ENDBRANCH  11  26
ENDBRANCH   5   8
ENDBRANCH   3   4
ENDBRANCH   2   3
ENDBRANCH   1   2
BRANCH   1  33
ATOM     33  C   UNL A   1      31.855  30.995  26.888  1.00  0.00     0.002 C 
BRANCH  33  34
ATOM     34  C   UNL A   1      33.027  30.148  27.390  1.00  0.00     0.021 C 
BRANCH  34  35
ATOM     35  C   UNL A   1      34.385  30.816  27.212  1.00  0.00     0.116 C 
BRANCH  35  36
ATOM     36  N   UNL A   1      34.850  31.515  28.403  1.00  0.00    -0.352 N 
ATOM     37  C   UNL A   1      35.841  31.160  29.307  1.00  0.00     0.251 C 
ATOM     38  H   UNL A   1      34.394  32.365  28.594  1.00  0.00     0.163 HD
ATOM     39  O   UNL A   1      36.072  31.871  30.273  1.00  0.00    -0.269 OA
BRANCH  37  40
ATOM     40  C   UNL A   1      36.713  29.998  29.012  1.00  0.00     0.039 A 
ATOM     41  C   UNL A   1      36.946  29.088  30.050  1.00  0.00     0.014 A 
ATOM     42  C   UNL A   1      37.468  29.937  27.845  1.00  0.00     0.014 A 
ATOM     43  C   UNL A   1      38.105  28.318  30.033  1.00  0.00     0.010 A 
ATOM     44  C   UNL A   1      38.664  29.247  27.866  1.00  0.00     0.010 A 
ATOM     45  C   UNL A   1      39.019  28.508  29.000  1.00  0.00    -0.014 A 
BRANCH  45  46
ATOM     46  C   UNL A   1      40.419  28.110  29.096  1.00  0.00     0.031 A 
ATOM     47  C   UNL A   1      40.878  26.812  28.570  1.00  0.00     0.074 A 
ATOM     48  C   UNL A   1      41.316  28.991  29.593  1.00  0.00     0.049 A 
ATOM     49  N   UNL A   1      41.994  26.250  28.888  1.00  0.00    -0.248 NA
ATOM     50  C   UNL A   1      40.071  26.015  27.657  1.00  0.00     0.031 C 
ATOM     51  C   UNL A   1      42.773  28.922  29.519  1.00  0.00     0.029 A 
ATOM     52  N   UNL A   1      41.063  30.036  30.493  1.00  0.00    -0.354 N 
ATOM     53  C   UNL A   1      42.179  25.171  28.055  1.00  0.00     0.074 A 
ATOM     54  C   UNL A   1      40.927  25.039  27.344  1.00  0.00     0.031 C 
ATOM     55  C   UNL A   1      43.288  29.641  30.528  1.00  0.00     0.029 A 
ATOM     56  C   UNL A   1      42.177  30.064  31.364  1.00  0.00     0.049 A 
ATOM     57  H   UNL A   1      40.276  30.627  30.513  1.00  0.00     0.167 HD
ATOM     58  C   UNL A   1      43.413  24.588  27.986  1.00  0.00     0.037 A 
ATOM     59  C   UNL A   1      42.032  29.771  32.688  1.00  0.00     0.037 A 
ATOM     60  C   UNL A   1      44.329  25.153  28.978  1.00  0.00     0.049 A 
ATOM     61  C   UNL A   1      42.833  28.577  33.171  1.00  0.00     0.074 A 
ATOM     62  C   UNL A   1      45.340  26.101  28.946  1.00  0.00     0.029 A 
ATOM     63  N   UNL A   1      44.067  24.927  30.317  1.00  0.00    -0.354 N 
ATOM     64  N   UNL A   1      43.529  27.791  32.396  1.00  0.00    -0.248 NA
ATOM     65  C   UNL A   1      42.818  28.116  34.561  1.00  0.00     0.031 C 
ATOM     66  C   UNL A   1      45.665  26.453  30.288  1.00  0.00     0.029 A 
ATOM     67  C   UNL A   1      44.853  25.717  31.131  1.00  0.00     0.049 A 
ATOM     68  H   UNL A   1      43.402  24.282  30.649  1.00  0.00     0.167 HD
ATOM     69  C   UNL A   1      43.974  26.720  33.125  1.00  0.00     0.074 A 
ATOM     70  C   UNL A   1      43.514  26.971  34.476  1.00  0.00     0.031 C 
ATOM     71  C   UNL A   1      44.639  25.670  32.567  1.00  0.00     0.037 A 
BRANCH  58  72
ATOM     72  C   UNL A   1      43.856  23.667  26.871  1.00  0.00     0.057 A 
ATOM     73  C   UNL A   1      44.699  24.137  25.844  1.00  0.00     0.134 A 
ATOM     74  C   UNL A   1      43.453  22.331  26.713  1.00  0.00     0.134 A 
ATOM     75  F   UNL A   1      45.271  25.348  25.896  1.00  0.00    -0.206 F 
ATOM     76  C   UNL A   1      45.003  23.387  24.699  1.00  0.00     0.040 A 
ATOM     77  C   UNL A   1      43.699  21.588  25.548  1.00  0.00     0.040 A 
ATOM     78  F   UNL A   1      42.863  21.652  27.703  1.00  0.00    -0.206 F 
ATOM     79  C   UNL A   1      44.464  22.123  24.526  1.00  0.00     0.006 A 
ENDBRANCH  58  72
BRANCH  59  80
ATOM     80  C   UNL A   1      40.705  30.166  33.233  1.00  0.00     0.057 A 
ATOM     81  C   UNL A   1      40.446  31.526  33.487  1.00  0.00     0.134 A 
ATOM     82  C   UNL A   1      39.601  29.309  33.185  1.00  0.00     0.134 A 
ATOM     83  F   UNL A   1      41.460  32.407  33.544  1.00  0.00    -0.206 F 
ATOM     84  C   UNL A   1      39.146  32.027  33.574  1.00  0.00     0.040 A 
ATOM     85  C   UNL A   1      38.295  29.797  33.293  1.00  0.00     0.040 A 
ATOM     86  F   UNL A   1      39.760  28.003  32.924  1.00  0.00    -0.206 F 
ATOM     87  C   UNL A   1      38.064  31.162  33.448  1.00  0.00     0.006 A 
ENDBRANCH  59  80
BRANCH  71  88
ATOM     88  C   UNL A   1      45.122  24.496  33.360  1.00  0.00     0.057 A 
ATOM     89  C   UNL A   1      46.391  24.464  33.954  1.00  0.00     0.134 A 
ATOM     90  C   UNL A   1      44.370  23.309  33.453  1.00  0.00     0.134 A 
ATOM     91  F   UNL A   1      47.208  25.527  33.888  1.00  0.00    -0.206 F 
ATOM     92  C   UNL A   1      46.871  23.333  34.622  1.00  0.00     0.040 A 
ATOM     93  C   UNL A   1      44.857  22.159  34.076  1.00  0.00     0.040 A 
ATOM     94  F   UNL A   1      43.124  23.230  32.961  1.00  0.00    -0.206 F 
ATOM     95  C   UNL A   1      46.110  22.170  34.673  1.00  0.00     0.006 A 
ENDBRANCH  71  88
ENDBRANCH  45  46
ENDBRANCH  37  40
ENDBRANCH  35  36
ENDBRANCH  34  35
ENDBRANCH  33  34
ENDBRANCH   1  33
TORSDOF 17
ENDMDL
MODEL 3
REMARK VINA RESULT:     -12.0      1.661      3.367
REMARK SMILES Cc1cccc(S(=O)(=O)Nc2cc(C(=O)NCCCCCCNC(=O)c3ccc(-c4c5nc(c(-c6c(F)cccc6F)c6ccc([nH]6)c(-c6c(F)cccc6F)c6nc(c(-c7c(F)cccc7F)c7ccc4[nH]7)C=C6)C=C5)cc3)cnc2N2CCC[C@H](C)C2)c1
REMARK SMILES IDX 19 1 18 2 17 3 16 4 14 5 15 6 13 8 11 9 12 10 82 11 81 12
REMARK SMILES IDX 80 13 10 14 7 16 8 17 9 18 6 19 1 20 2 21 3 22 90 23 4 24
REMARK SMILES IDX 5 25 83 26 84 27 89 28 85 29 87 30 86 31 88 32 20 33 21 34
REMARK SMILES IDX 22 35 23 36 24 37 25 39 26 40 27 41 79 42 28 43 78 44 29 45
REMARK SMILES IDX 30 46 31 47 72 48 32 49 77 50 71 51 73 52 33 53 76 54 70 55
REMARK SMILES IDX 69 56 34 58 60 59 43 60 59 61 44 62 47 63 58 64 74 65 45 66
REMARK SMILES IDX 46 67 57 69 75 70 48 71 35 72 36 73 41 74 37 75 38 76 40 77
REMARK SMILES IDX 42 78 39 79 61 80 62 81 67 82 63 83 64 84 66 85 68 86 65 87
REMARK SMILES IDX 49 88 50 89 55 90 51 91 52 92 54 93 56 94 53 95
REMARK H PARENT 16 7 10 15 23 38 73 57 47 68
REMARK Flexibility Score: inf
ROOT
ATOM      1  C   UNL A   1      31.514  30.120  25.375  1.00  0.00     0.002 C 
ENDROOT
BRANCH   1   2
ATOM      2  C   UNL A   1      32.050  28.690  25.232  1.00  0.00     0.021 C 
BRANCH   2   3
ATOM      3  C   UNL A   1      30.974  27.661  24.884  1.00  0.00     0.116 C 
BRANCH   3   4
ATOM      4  N   UNL A   1      30.926  27.397  23.457  1.00  0.00    -0.352 N 
ATOM      5  C   UNL A   1      31.578  26.489  22.660  1.00  0.00     0.252 C 
ATOM      6  O   UNL A   1      31.242  26.403  21.480  1.00  0.00    -0.269 OA
ATOM      7  H   UNL A   1      30.307  27.982  22.965  1.00  0.00     0.163 HD
BRANCH   5   8
ATOM      8  C   UNL A   1      32.625  25.572  23.165  1.00  0.00     0.060 A 
ATOM      9  C   UNL A   1      33.692  24.225  24.835  1.00  0.00     0.092 A 
ATOM     10  C   UNL A   1      32.787  25.225  24.497  1.00  0.00     0.046 A 
ATOM     11  C   UNL A   1      34.587  23.726  23.864  1.00  0.00     0.153 A 
ATOM     12  N   UNL A   1      34.496  24.121  22.578  1.00  0.00    -0.236 NA
ATOM     13  C   UNL A   1      33.509  25.003  22.252  1.00  0.00     0.127 A 
BRANCH   9  14
ATOM     14  N   UNL A   1      33.687  23.751  26.189  1.00  0.00    -0.276 N 
ATOM     15  H   UNL A   1      34.279  24.171  26.855  1.00  0.00     0.180 HD
BRANCH  14  16
ATOM     16  S   UNL A   1      32.666  22.466  26.659  1.00  0.00     0.262 S 
ATOM     17  O   UNL A   1      31.342  23.061  26.703  1.00  0.00    -0.201 OA
ATOM     18  O   UNL A   1      33.227  21.889  27.859  1.00  0.00    -0.201 OA
BRANCH  16  19
ATOM     19  C   UNL A   1      32.584  21.146  25.459  1.00  0.00     0.088 A 
ATOM     20  C   UNL A   1      33.406  17.458  24.974  1.00  0.00     0.044 C 
ATOM     21  C   UNL A   1      32.890  18.848  24.729  1.00  0.00    -0.050 A 
ATOM     22  C   UNL A   1      32.473  19.206  23.441  1.00  0.00     0.003 A 
ATOM     23  C   UNL A   1      32.863  19.808  25.755  1.00  0.00     0.025 A 
ATOM     24  C   UNL A   1      32.083  20.514  23.167  1.00  0.00     0.002 A 
ATOM     25  C   UNL A   1      32.165  21.487  24.163  1.00  0.00     0.022 A 
ENDBRANCH  16  19
ENDBRANCH  14  16
ENDBRANCH   9  14
BRANCH  11  26
ATOM     26  N   UNL A   1      35.683  22.988  24.268  1.00  0.00    -0.355 N 
ATOM     27  C   UNL A   1      35.688  21.534  24.243  1.00  0.00     0.118 C 
ATOM     28  C   UNL A   1      36.995  23.604  24.102  1.00  0.00     0.121 C 
ATOM     29  C   UNL A   1      36.451  21.070  25.489  1.00  0.00     0.022 C 
ATOM     30  C   UNL A   1      37.832  23.248  25.344  1.00  0.00     0.005 C 
ATOM     31  C   UNL A   1      37.838  21.724  25.585  1.00  0.00     0.007 C 
ATOM     32  C   UNL A   1      37.328  24.021  26.569  1.00  0.00     0.009 C 
ENDBRANCH  11  26
ENDBRANCH   5   8
ENDBRANCH   3   4
ENDBRANCH   2   3
ENDBRANCH   1   2
BRANCH   1  33
ATOM     33  C   UNL A   1      31.832  30.830  26.704  1.00  0.00     0.002 C 
BRANCH  33  34
ATOM     34  C   UNL A   1      33.052  30.306  27.466  1.00  0.00     0.021 C 
BRANCH  34  35
ATOM     35  C   UNL A   1      34.281  31.197  27.339  1.00  0.00     0.116 C 
BRANCH  35  36
ATOM     36  N   UNL A   1      34.699  31.797  28.600  1.00  0.00    -0.352 N 
ATOM     37  C   UNL A   1      35.653  31.369  29.510  1.00  0.00     0.251 C 
ATOM     38  H   UNL A   1      34.235  32.631  28.840  1.00  0.00     0.163 HD
ATOM     39  O   UNL A   1      35.846  32.000  30.538  1.00  0.00    -0.269 OA
BRANCH  37  40
ATOM     40  C   UNL A   1      36.538  30.232  29.157  1.00  0.00     0.039 A 
ATOM     41  C   UNL A   1      36.723  29.237  30.124  1.00  0.00     0.014 A 
ATOM     42  C   UNL A   1      37.344  30.267  28.025  1.00  0.00     0.014 A 
ATOM     43  C   UNL A   1      37.881  28.466  30.095  1.00  0.00     0.010 A 
ATOM     44  C   UNL A   1      38.538  29.573  28.042  1.00  0.00     0.010 A 
ATOM     45  C   UNL A   1      38.841  28.739  29.123  1.00  0.00    -0.014 A 
BRANCH  45  46
ATOM     46  C   UNL A   1      40.235  28.328  29.248  1.00  0.00     0.031 A 
ATOM     47  C   UNL A   1      40.693  27.026  28.730  1.00  0.00     0.074 A 
ATOM     48  C   UNL A   1      41.129  29.200  29.766  1.00  0.00     0.049 A 
ATOM     49  N   UNL A   1      41.797  26.454  29.071  1.00  0.00    -0.248 NA
ATOM     50  C   UNL A   1      39.899  26.239  27.799  1.00  0.00     0.031 C 
ATOM     51  C   UNL A   1      42.587  29.117  29.723  1.00  0.00     0.029 A 
ATOM     52  N   UNL A   1      40.867  30.246  30.662  1.00  0.00    -0.354 N 
ATOM     53  C   UNL A   1      41.991  25.375  28.240  1.00  0.00     0.074 A 
ATOM     54  C   UNL A   1      40.753  25.255  27.502  1.00  0.00     0.031 C 
ATOM     55  C   UNL A   1      43.086  29.831  30.744  1.00  0.00     0.029 A 
ATOM     56  C   UNL A   1      41.962  30.262  31.557  1.00  0.00     0.049 A 
ATOM     57  H   UNL A   1      40.085  30.844  30.667  1.00  0.00     0.167 HD
ATOM     58  C   UNL A   1      43.220  24.781  28.196  1.00  0.00     0.037 A 
ATOM     59  C   UNL A   1      41.786  29.968  32.878  1.00  0.00     0.037 A 
ATOM     60  C   UNL A   1      44.120  25.336  29.208  1.00  0.00     0.049 A 
ATOM     61  C   UNL A   1      42.566  28.767  33.375  1.00  0.00     0.074 A 
ATOM     62  C   UNL A   1      45.140  26.274  29.199  1.00  0.00     0.029 A 
ATOM     63  N   UNL A   1      43.828  25.110  30.541  1.00  0.00    -0.354 N 
ATOM     64  N   UNL A   1      43.272  27.976  32.613  1.00  0.00    -0.248 NA
ATOM     65  C   UNL A   1      42.517  28.303  34.763  1.00  0.00     0.031 C 
ATOM     66  C   UNL A   1      45.439  26.622  30.548  1.00  0.00     0.029 A 
ATOM     67  C   UNL A   1      44.604  25.892  31.373  1.00  0.00     0.049 A 
ATOM     68  H   UNL A   1      43.150  24.471  30.857  1.00  0.00     0.167 HD
ATOM     69  C   UNL A   1      43.691  26.899  33.349  1.00  0.00     0.074 A 
ATOM     70  C   UNL A   1      43.205  27.152  34.691  1.00  0.00     0.031 C 
ATOM     71  C   UNL A   1      44.358  25.844  32.804  1.00  0.00     0.037 A 
BRANCH  58  72
ATOM     72  C   UNL A   1      43.679  23.858  27.089  1.00  0.00     0.057 A 
ATOM     73  C   UNL A   1      44.433  24.354  26.006  1.00  0.00     0.134 A 
ATOM     74  C   UNL A   1      43.373  22.490  26.993  1.00  0.00     0.134 A 
ATOM     75  F   UNL A   1      44.911  25.606  25.992  1.00  0.00    -0.206 F 
ATOM     76  C   UNL A   1      44.737  23.590  24.871  1.00  0.00     0.040 A 
ATOM     77  C   UNL A   1      43.618  21.728  25.841  1.00  0.00     0.040 A 
ATOM     78  F   UNL A   1      42.886  21.804  28.033  1.00  0.00    -0.206 F 
ATOM     79  C   UNL A   1      44.290  22.283  24.765  1.00  0.00     0.006 A 
ENDBRANCH  58  72
BRANCH  59  80
ATOM     80  C   UNL A   1      40.451  30.375  33.395  1.00  0.00     0.057 A 
ATOM     81  C   UNL A   1      40.217  31.729  33.695  1.00  0.00     0.134 A 
ATOM     82  C   UNL A   1      39.330  29.548  33.276  1.00  0.00     0.134 A 
ATOM     83  F   UNL A   1      41.248  32.581  33.821  1.00  0.00    -0.206 F 
ATOM     84  C   UNL A   1      38.927  32.259  33.760  1.00  0.00     0.040 A 
ATOM     85  C   UNL A   1      38.033  30.063  33.362  1.00  0.00     0.040 A 
ATOM     86  F   UNL A   1      39.466  28.250  32.967  1.00  0.00    -0.206 F 
ATOM     87  C   UNL A   1      37.830  31.427  33.564  1.00  0.00     0.006 A 
ENDBRANCH  59  80
BRANCH  71  88
ATOM     88  C   UNL A   1      44.814  24.664  33.605  1.00  0.00     0.057 A 
ATOM     89  C   UNL A   1      46.169  24.343  33.761  1.00  0.00     0.134 A 
ATOM     90  C   UNL A   1      43.897  23.745  34.149  1.00  0.00     0.134 A 
ATOM     91  F   UNL A   1      47.126  25.130  33.244  1.00  0.00    -0.206 F 
ATOM     92  C   UNL A   1      46.587  23.193  34.439  1.00  0.00     0.040 A 
ATOM     93  C   UNL A   1      44.301  22.570  34.786  1.00  0.00     0.040 A 
ATOM     94  F   UNL A   1      42.574  23.963  34.101  1.00  0.00    -0.206 F 
ATOM     95  C   UNL A   1      45.653  22.294  34.942  1.00  0.00     0.006 A 
ENDBRANCH  71  88
ENDBRANCH  45  46
ENDBRANCH  37  40
ENDBRANCH  35  36
ENDBRANCH  34  35
ENDBRANCH  33  34
ENDBRANCH   1  33
TORSDOF 17
ENDMDL
