MODEL 1
REMARK VINA RESULT:     -12.6      0.000      0.000
REMARK SMILES CCCCN1C(=O)[C@@H]2[C@H](CCC(=O)NCCCCCCNC(=O)c3ccc(-c4c5nc(c(-c6c(F)cccc6F)c6ccc([nH]6)c(-c6c(F)cccc6F)c6nc(c(-c7c(F)cccc7F)c7ccc4[nH]7)C=C6)C=C5)cc3)[NH2+][C@]3(C(=O)Nc4c(CC)cccc43)[C@@H]2C1=O
REMARK SMILES IDX 16 1 15 2 14 3 12 4 13 5 11 7 10 8 9 9 5 10 6 11 92 12 7 13
REMARK SMILES IDX 8 14 91 15 93 16 79 17 78 18 80 19 90 20 81 23 82 24 83 25
REMARK SMILES IDX 89 26 84 28 88 29 87 30 4 31 3 32 2 33 1 34 85 35 86 36
REMARK SMILES IDX 17 37 18 38 19 39 20 40 21 41 22 42 23 44 24 45 25 46 77 47
REMARK SMILES IDX 26 48 76 49 27 50 28 51 29 52 70 53 30 54 75 55 69 56 71 57
REMARK SMILES IDX 31 58 74 59 68 60 67 61 32 63 58 64 41 65 57 66 42 67 45 68
REMARK SMILES IDX 56 69 72 70 43 71 44 72 55 74 73 75 46 76 33 77 34 78 39 79
REMARK SMILES IDX 35 80 36 81 38 82 40 83 37 84 59 85 60 86 65 87 61 88 62 89
REMARK SMILES IDX 64 90 66 91 63 92 47 93 48 94 53 95 49 96 50 97 52 98 54 99
REMARK SMILES IDX 51 100
REMARK H PARENT 14 6 78 21 78 22 82 27 21 43 71 62 45 73
REMARK Flexibility Score: inf
ROOT
ATOM      1  C   UNL A   1      36.022  23.282  24.730  1.00  0.00     0.021 C 
ENDROOT
BRANCH   1   2
ATOM      2  C   UNL A   1      35.012  23.826  23.723  1.00  0.00     0.116 C 
BRANCH   2   3
ATOM      3  N   UNL A   1      34.281  22.733  23.125  1.00  0.00    -0.356 N 
ATOM      4  C   UNL A   1      32.977  22.673  22.744  1.00  0.00     0.220 C 
ATOM      5  O   UNL A   1      32.516  21.588  22.393  1.00  0.00    -0.275 OA
ATOM      6  H   UNL A   1      34.802  21.911  22.974  1.00  0.00     0.163 HD
BRANCH   4   7
ATOM      7  C   UNL A   1      32.143  23.936  22.681  1.00  0.00     0.106 C 
BRANCH   7   8
ATOM      8  C   UNL A   1      30.730  23.880  23.276  1.00  0.00     0.076 C 
BRANCH   8   9
ATOM      9  C   UNL A   1      29.960  25.182  23.600  1.00  0.00     0.197 C 
ATOM     10  N   UNL A   1      31.855  25.153  26.047  1.00  0.00    -0.282 N 
ATOM     11  C   UNL A   1      30.514  24.946  26.124  1.00  0.00     0.239 C 
ATOM     12  C   UNL A   1      32.134  26.310  25.357  1.00  0.00     0.240 C 
ATOM     13  O   UNL A   1      29.897  24.237  26.893  1.00  0.00    -0.274 OA
ATOM     14  C   UNL A   1      29.893  25.753  25.038  1.00  0.00     0.157 C 
ATOM     15  C   UNL A   1      30.804  26.974  24.999  1.00  0.00     0.174 C 
ATOM     16  O   UNL A   1      33.250  26.771  25.186  1.00  0.00    -0.274 OA
ATOM     17  C   UNL A   1      30.597  27.498  23.591  1.00  0.00     0.216 C 
ATOM     18  N   UNL A   1      30.560  26.263  22.781  1.00  0.00    -0.326 N 
ATOM     19  C   UNL A   1      31.696  28.500  23.107  1.00  0.00     0.291 C 
ATOM     20  C   UNL A   1      29.331  28.340  23.381  1.00  0.00     0.047 A 
ATOM     21  H   UNL A   1      29.993  26.417  21.946  1.00  0.00     0.347 HD
ATOM     22  H   UNL A   1      31.504  26.004  22.496  1.00  0.00     0.347 HD
ATOM     23  O   UNL A   1      32.890  28.318  22.946  1.00  0.00    -0.267 OA
ATOM     24  N   UNL A   1      31.063  29.702  22.811  1.00  0.00    -0.320 N 
ATOM     25  C   UNL A   1      29.685  29.616  22.928  1.00  0.00     0.054 A 
ATOM     26  C   UNL A   1      27.986  28.010  23.487  1.00  0.00     0.013 A 
ATOM     27  H   UNL A   1      31.540  30.521  22.548  1.00  0.00     0.170 HD
ATOM     28  C   UNL A   1      28.752  30.593  22.590  1.00  0.00    -0.024 A 
ATOM     29  C   UNL A   1      27.023  28.962  23.140  1.00  0.00     0.001 A 
ATOM     30  C   UNL A   1      27.400  30.238  22.700  1.00  0.00     0.006 A 
BRANCH  10  31
ATOM     31  C   UNL A   1      32.823  24.241  26.629  1.00  0.00     0.128 C 
BRANCH  31  32
ATOM     32  C   UNL A   1      32.374  22.784  26.677  1.00  0.00     0.022 C 
BRANCH  32  33
ATOM     33  C   UNL A   1      33.503  21.769  26.503  1.00  0.00    -0.002 C 
ATOM     34  C   UNL A   1      33.085  20.521  25.742  1.00  0.00     0.004 C 
ENDBRANCH  32  33
ENDBRANCH  31  32
ENDBRANCH  10  31
BRANCH  28  35
ATOM     35  C   UNL A   1      29.124  31.960  22.082  1.00  0.00     0.034 C 
ATOM     36  C   UNL A   1      28.808  33.058  23.089  1.00  0.00     0.009 C 
ENDBRANCH  28  35
ENDBRANCH   8   9
ENDBRANCH   7   8
ENDBRANCH   4   7
ENDBRANCH   2   3
ENDBRANCH   1   2
BRANCH   1  37
ATOM     37  C   UNL A   1      36.903  22.166  24.181  1.00  0.00     0.002 C 
BRANCH  37  38
ATOM     38  C   UNL A   1      36.745  20.837  24.924  1.00  0.00     0.002 C 
BRANCH  38  39
ATOM     39  C   UNL A   1      37.965  19.911  24.871  1.00  0.00     0.021 C 
BRANCH  39  40
ATOM     40  C   UNL A   1      38.994  20.145  25.973  1.00  0.00     0.116 C 
BRANCH  40  41
ATOM     41  N   UNL A   1      40.061  19.157  25.949  1.00  0.00    -0.352 N 
ATOM     42  C   UNL A   1      41.422  19.322  26.013  1.00  0.00     0.251 C 
ATOM     43  H   UNL A   1      39.760  18.223  25.877  1.00  0.00     0.163 HD
ATOM     44  O   UNL A   1      42.168  18.387  25.743  1.00  0.00    -0.269 OA
BRANCH  42  45
ATOM     45  C   UNL A   1      41.988  20.633  26.391  1.00  0.00     0.039 A 
ATOM     46  C   UNL A   1      42.200  20.953  27.733  1.00  0.00     0.014 A 
ATOM     47  C   UNL A   1      42.318  21.550  25.390  1.00  0.00     0.014 A 
ATOM     48  C   UNL A   1      42.568  22.246  28.082  1.00  0.00     0.010 A 
ATOM     49  C   UNL A   1      42.791  22.817  25.741  1.00  0.00     0.010 A 
ATOM     50  C   UNL A   1      42.872  23.195  27.091  1.00  0.00    -0.014 A 
BRANCH  50  51
ATOM     51  C   UNL A   1      43.262  24.571  27.496  1.00  0.00     0.031 A 
ATOM     52  C   UNL A   1      44.693  25.026  27.403  1.00  0.00     0.074 A 
ATOM     53  C   UNL A   1      42.308  25.435  27.893  1.00  0.00     0.049 A 
ATOM     54  N   UNL A   1      45.206  26.204  27.666  1.00  0.00    -0.248 NA
ATOM     55  C   UNL A   1      45.682  24.029  26.964  1.00  0.00     0.031 C 
ATOM     56  C   UNL A   1      40.883  25.120  28.019  1.00  0.00     0.029 A 
ATOM     57  N   UNL A   1      42.386  26.761  28.235  1.00  0.00    -0.354 N 
ATOM     58  C   UNL A   1      46.571  26.086  27.436  1.00  0.00     0.074 A 
ATOM     59  C   UNL A   1      46.814  24.708  27.063  1.00  0.00     0.031 C 
ATOM     60  C   UNL A   1      40.213  26.236  28.345  1.00  0.00     0.029 A 
ATOM     61  C   UNL A   1      41.166  27.326  28.519  1.00  0.00     0.049 A 
ATOM     62  H   UNL A   1      43.233  27.259  28.273  1.00  0.00     0.167 HD
ATOM     63  C   UNL A   1      47.534  27.037  27.510  1.00  0.00     0.037 A 
ATOM     64  C   UNL A   1      40.851  28.580  28.891  1.00  0.00     0.037 A 
ATOM     65  C   UNL A   1      47.293  28.406  27.892  1.00  0.00     0.049 A 
ATOM     66  C   UNL A   1      41.949  29.592  29.050  1.00  0.00     0.074 A 
ATOM     67  C   UNL A   1      48.198  29.449  27.991  1.00  0.00     0.029 A 
ATOM     68  N   UNL A   1      46.055  28.919  28.249  1.00  0.00    -0.354 N 
ATOM     69  N   UNL A   1      43.230  29.473  28.803  1.00  0.00    -0.248 NA
ATOM     70  C   UNL A   1      41.551  30.915  29.549  1.00  0.00     0.031 C 
ATOM     71  C   UNL A   1      47.516  30.578  28.461  1.00  0.00     0.029 A 
ATOM     72  C   UNL A   1      46.176  30.256  28.596  1.00  0.00     0.049 A 
ATOM     73  H   UNL A   1      45.213  28.409  28.256  1.00  0.00     0.167 HD
ATOM     74  C   UNL A   1      43.788  30.712  29.090  1.00  0.00     0.074 A 
ATOM     75  C   UNL A   1      42.701  31.572  29.509  1.00  0.00     0.031 C 
ATOM     76  C   UNL A   1      45.085  31.103  29.013  1.00  0.00     0.037 A 
BRANCH  63  77
ATOM     77  C   UNL A   1      48.942  26.611  27.195  1.00  0.00     0.057 A 
ATOM     78  C   UNL A   1      49.790  26.135  28.204  1.00  0.00     0.134 A 
ATOM     79  C   UNL A   1      49.459  26.658  25.891  1.00  0.00     0.134 A 
ATOM     80  F   UNL A   1      49.368  26.073  29.476  1.00  0.00    -0.206 F 
ATOM     81  C   UNL A   1      51.090  25.708  27.926  1.00  0.00     0.040 A 
ATOM     82  C   UNL A   1      50.746  26.203  25.597  1.00  0.00     0.040 A 
ATOM     83  F   UNL A   1      48.700  27.092  24.874  1.00  0.00    -0.206 F 
ATOM     84  C   UNL A   1      51.566  25.728  26.618  1.00  0.00     0.006 A 
ENDBRANCH  63  77
BRANCH  64  85
ATOM     85  C   UNL A   1      39.435  28.954  29.134  1.00  0.00     0.057 A 
ATOM     86  C   UNL A   1      38.620  29.452  28.111  1.00  0.00     0.134 A 
ATOM     87  C   UNL A   1      38.858  28.797  30.400  1.00  0.00     0.134 A 
ATOM     88  F   UNL A   1      39.116  29.633  26.877  1.00  0.00    -0.206 F 
ATOM     89  C   UNL A   1      37.286  29.789  28.337  1.00  0.00     0.040 A 
ATOM     90  C   UNL A   1      37.516  29.101  30.633  1.00  0.00     0.040 A 
ATOM     91  F   UNL A   1      39.583  28.308  31.416  1.00  0.00    -0.206 F 
ATOM     92  C   UNL A   1      36.727  29.602  29.600  1.00  0.00     0.006 A 
ENDBRANCH  64  85
BRANCH  76  93
ATOM     93  C   UNL A   1      45.384  32.536  29.350  1.00  0.00     0.057 A 
ATOM     94  C   UNL A   1      45.288  33.532  28.369  1.00  0.00     0.134 A 
ATOM     95  C   UNL A   1      45.769  32.933  30.638  1.00  0.00     0.134 A 
ATOM     96  F   UNL A   1      44.932  33.220  27.114  1.00  0.00    -0.206 F 
ATOM     97  C   UNL A   1      45.559  34.870  28.657  1.00  0.00     0.040 A 
ATOM     98  C   UNL A   1      46.011  34.273  30.946  1.00  0.00     0.040 A 
ATOM     99  F   UNL A   1      45.864  32.033  31.628  1.00  0.00    -0.206 F 
ATOM    100  C   UNL A   1      45.912  35.246  29.951  1.00  0.00     0.006 A 
ENDBRANCH  76  93
ENDBRANCH  50  51
ENDBRANCH  42  45
ENDBRANCH  40  41
ENDBRANCH  39  40
ENDBRANCH  38  39
ENDBRANCH  37  38
ENDBRANCH   1  37
TORSDOF 19
ENDMDL
MODEL 2
REMARK VINA RESULT:     -12.2      3.692      9.500
REMARK SMILES CCCCN1C(=O)[C@@H]2[C@H](CCC(=O)NCCCCCCNC(=O)c3ccc(-c4c5nc(c(-c6c(F)cccc6F)c6ccc([nH]6)c(-c6c(F)cccc6F)c6nc(c(-c7c(F)cccc7F)c7ccc4[nH]7)C=C6)C=C5)cc3)[NH2+][C@]3(C(=O)Nc4c(CC)cccc43)[C@@H]2C1=O
REMARK SMILES IDX 16 1 15 2 14 3 12 4 13 5 11 7 10 8 9 9 5 10 6 11 92 12 7 13
REMARK SMILES IDX 8 14 91 15 93 16 79 17 78 18 80 19 90 20 81 23 82 24 83 25
REMARK SMILES IDX 89 26 84 28 88 29 87 30 4 31 3 32 2 33 1 34 85 35 86 36
REMARK SMILES IDX 17 37 18 38 19 39 20 40 21 41 22 42 23 44 24 45 25 46 77 47
REMARK SMILES IDX 26 48 76 49 27 50 28 51 29 52 70 53 30 54 75 55 69 56 71 57
REMARK SMILES IDX 31 58 74 59 68 60 67 61 32 63 58 64 41 65 57 66 42 67 45 68
REMARK SMILES IDX 56 69 72 70 43 71 44 72 55 74 73 75 46 76 33 77 34 78 39 79
REMARK SMILES IDX 35 80 36 81 38 82 40 83 37 84 59 85 60 86 65 87 61 88 62 89
REMARK SMILES IDX 64 90 66 91 63 92 47 93 48 94 53 95 49 96 50 97 52 98 54 99
REMARK SMILES IDX 51 100
REMARK H PARENT 14 6 78 21 78 22 82 27 21 43 71 62 45 73
REMARK Flexibility Score: inf
ROOT
ATOM      1  C   UNL A   1      30.250  26.945  23.188  1.00  0.00     0.021 C 
ENDROOT
BRANCH   1   2
ATOM      2  C   UNL A   1      30.735  25.499  23.256  1.00  0.00     0.116 C 
BRANCH   2   3
ATOM      3  N   UNL A   1      31.509  25.188  22.076  1.00  0.00    -0.356 N 
ATOM      4  C   UNL A   1      32.857  25.186  21.904  1.00  0.00     0.220 C 
ATOM      5  O   UNL A   1      33.305  25.037  20.768  1.00  0.00    -0.275 OA
ATOM      6  H   UNL A   1      30.982  24.943  21.280  1.00  0.00     0.163 HD
BRANCH   4   7
ATOM      7  C   UNL A   1      33.778  25.288  23.102  1.00  0.00     0.106 C 
BRANCH   7   8
ATOM      8  C   UNL A   1      34.708  24.101  23.383  1.00  0.00     0.076 C 
BRANCH   8   9
ATOM      9  C   UNL A   1      35.634  24.101  24.622  1.00  0.00     0.197 C 
ATOM     10  N   UNL A   1      33.613  21.953  25.563  1.00  0.00    -0.282 N 
ATOM     11  C   UNL A   1      33.721  23.189  26.119  1.00  0.00     0.239 C 
ATOM     12  C   UNL A   1      34.838  21.331  25.508  1.00  0.00     0.240 C 
ATOM     13  O   UNL A   1      32.850  23.881  26.609  1.00  0.00    -0.274 OA
ATOM     14  C   UNL A   1      35.150  23.588  26.001  1.00  0.00     0.157 C 
ATOM     15  C   UNL A   1      35.861  22.252  26.176  1.00  0.00     0.174 C 
ATOM     16  O   UNL A   1      35.029  20.194  25.111  1.00  0.00    -0.274 OA
ATOM     17  C   UNL A   1      37.193  22.493  25.491  1.00  0.00     0.216 C 
ATOM     18  N   UNL A   1      36.812  23.264  24.290  1.00  0.00    -0.326 N 
ATOM     19  C   UNL A   1      37.984  21.190  25.142  1.00  0.00     0.291 C 
ATOM     20  C   UNL A   1      38.236  23.245  26.328  1.00  0.00     0.047 A 
ATOM     21  H   UNL A   1      37.589  23.862  24.005  1.00  0.00     0.347 HD
ATOM     22  H   UNL A   1      36.587  22.629  23.525  1.00  0.00     0.347 HD
ATOM     23  O   UNL A   1      37.679  20.277  24.394  1.00  0.00    -0.267 OA
ATOM     24  N   UNL A   1      39.201  21.250  25.811  1.00  0.00    -0.320 N 
ATOM     25  C   UNL A   1      39.381  22.453  26.475  1.00  0.00     0.054 A 
ATOM     26  C   UNL A   1      38.236  24.534  26.846  1.00  0.00     0.013 A 
ATOM     27  H   UNL A   1      39.861  20.520  25.814  1.00  0.00     0.170 HD
ATOM     28  C   UNL A   1      40.529  22.884  27.135  1.00  0.00    -0.024 A 
ATOM     29  C   UNL A   1      39.379  25.004  27.501  1.00  0.00     0.001 A 
ATOM     30  C   UNL A   1      40.509  24.189  27.647  1.00  0.00     0.006 A 
BRANCH  10  31
ATOM     31  C   UNL A   1      32.348  21.411  25.099  1.00  0.00     0.128 C 
BRANCH  31  32
ATOM     32  C   UNL A   1      32.091  21.585  23.606  1.00  0.00     0.022 C 
BRANCH  32  33
ATOM     33  C   UNL A   1      32.254  20.307  22.784  1.00  0.00    -0.002 C 
ATOM     34  C   UNL A   1      32.277  19.042  23.626  1.00  0.00     0.004 C 
ENDBRANCH  32  33
ENDBRANCH  31  32
ENDBRANCH  10  31
BRANCH  28  35
ATOM     35  C   UNL A   1      41.771  22.046  27.278  1.00  0.00     0.034 C 
ATOM     36  C   UNL A   1      42.527  22.347  28.566  1.00  0.00     0.009 C 
ENDBRANCH  28  35
ENDBRANCH   8   9
ENDBRANCH   7   8
ENDBRANCH   4   7
ENDBRANCH   2   3
ENDBRANCH   1   2
BRANCH   1  37
ATOM     37  C   UNL A   1      31.143  27.933  23.928  1.00  0.00     0.002 C 
BRANCH  37  38
ATOM     38  C   UNL A   1      31.346  27.592  25.406  1.00  0.00     0.002 C 
BRANCH  38  39
ATOM     39  C   UNL A   1      32.803  27.565  25.876  1.00  0.00     0.021 C 
BRANCH  39  40
ATOM     40  C   UNL A   1      33.611  28.812  25.529  1.00  0.00     0.116 C 
BRANCH  40  41
ATOM     41  N   UNL A   1      33.006  30.025  26.056  1.00  0.00    -0.352 N 
ATOM     42  C   UNL A   1      33.416  30.847  27.076  1.00  0.00     0.251 C 
ATOM     43  H   UNL A   1      32.172  30.300  25.611  1.00  0.00     0.163 HD
ATOM     44  O   UNL A   1      32.651  31.693  27.529  1.00  0.00    -0.269 OA
BRANCH  42  45
ATOM     45  C   UNL A   1      34.773  30.703  27.639  1.00  0.00     0.039 A 
ATOM     46  C   UNL A   1      35.229  29.460  28.079  1.00  0.00     0.014 A 
ATOM     47  C   UNL A   1      35.603  31.824  27.720  1.00  0.00     0.014 A 
ATOM     48  C   UNL A   1      36.436  29.371  28.761  1.00  0.00     0.010 A 
ATOM     49  C   UNL A   1      36.863  31.710  28.313  1.00  0.00     0.010 A 
ATOM     50  C   UNL A   1      37.270  30.494  28.885  1.00  0.00    -0.014 A 
BRANCH  50  51
ATOM     51  C   UNL A   1      38.555  30.369  29.622  1.00  0.00     0.031 A 
ATOM     52  C   UNL A   1      38.689  30.877  31.032  1.00  0.00     0.074 A 
ATOM     53  C   UNL A   1      39.591  29.738  29.036  1.00  0.00     0.049 A 
ATOM     54  N   UNL A   1      39.718  30.809  31.842  1.00  0.00    -0.248 NA
ATOM     55  C   UNL A   1      37.519  31.557  31.608  1.00  0.00     0.031 C 
ATOM     56  C   UNL A   1      39.588  29.194  27.676  1.00  0.00     0.029 A 
ATOM     57  N   UNL A   1      40.836  29.422  29.516  1.00  0.00    -0.354 N 
ATOM     58  C   UNL A   1      39.323  31.443  33.014  1.00  0.00     0.074 A 
ATOM     59  C   UNL A   1      37.980  31.937  32.790  1.00  0.00     0.031 C 
ATOM     60  C   UNL A   1      40.746  28.553  27.455  1.00  0.00     0.029 A 
ATOM     61  C   UNL A   1      41.599  28.702  28.629  1.00  0.00     0.049 A 
ATOM     62  H   UNL A   1      41.152  29.684  30.410  1.00  0.00     0.167 HD
ATOM     63  C   UNL A   1      40.005  31.589  34.177  1.00  0.00     0.037 A 
ATOM     64  C   UNL A   1      42.852  28.225  28.743  1.00  0.00     0.037 A 
ATOM     65  C   UNL A   1      41.346  31.107  34.395  1.00  0.00     0.049 A 
ATOM     66  C   UNL A   1      43.617  28.476  30.010  1.00  0.00     0.074 A 
ATOM     67  C   UNL A   1      42.123  31.197  35.538  1.00  0.00     0.029 A 
ATOM     68  N   UNL A   1      42.114  30.453  33.443  1.00  0.00    -0.354 N 
ATOM     69  N   UNL A   1      43.221  29.054  31.118  1.00  0.00    -0.248 NA
ATOM     70  C   UNL A   1      45.011  28.013  30.035  1.00  0.00     0.031 C 
ATOM     71  C   UNL A   1      43.379  30.647  35.259  1.00  0.00     0.029 A 
ATOM     72  C   UNL A   1      43.365  30.158  33.962  1.00  0.00     0.049 A 
ATOM     73  H   UNL A   1      41.815  30.230  32.532  1.00  0.00     0.167 HD
ATOM     74  C   UNL A   1      44.307  28.999  31.982  1.00  0.00     0.074 A 
ATOM     75  C   UNL A   1      45.369  28.313  31.275  1.00  0.00     0.031 C 
ATOM     76  C   UNL A   1      44.416  29.474  33.249  1.00  0.00     0.037 A 
BRANCH  63  77
ATOM     77  C   UNL A   1      39.311  32.327  35.289  1.00  0.00     0.057 A 
ATOM     78  C   UNL A   1      39.493  33.706  35.458  1.00  0.00     0.134 A 
ATOM     79  C   UNL A   1      38.450  31.678  36.187  1.00  0.00     0.134 A 
ATOM     80  F   UNL A   1      40.310  34.391  34.644  1.00  0.00    -0.206 F 
ATOM     81  C   UNL A   1      38.835  34.413  36.467  1.00  0.00     0.040 A 
ATOM     82  C   UNL A   1      37.762  32.381  37.179  1.00  0.00     0.040 A 
ATOM     83  F   UNL A   1      38.221  30.361  36.078  1.00  0.00    -0.206 F 
ATOM     84  C   UNL A   1      37.956  33.753  37.321  1.00  0.00     0.006 A 
ENDBRANCH  63  77
BRANCH  64  85
ATOM     85  C   UNL A   1      43.462  27.455  27.629  1.00  0.00     0.057 A 
ATOM     86  C   UNL A   1      43.565  26.060  27.669  1.00  0.00     0.134 A 
ATOM     87  C   UNL A   1      43.939  28.105  26.484  1.00  0.00     0.134 A 
ATOM     88  F   UNL A   1      43.132  25.379  28.741  1.00  0.00    -0.206 F 
ATOM     89  C   UNL A   1      44.125  25.338  26.616  1.00  0.00     0.040 A 
ATOM     90  C   UNL A   1      44.474  27.392  25.410  1.00  0.00     0.040 A 
ATOM     91  F   UNL A   1      43.854  29.439  26.381  1.00  0.00    -0.206 F 
ATOM     92  C   UNL A   1      44.571  26.004  25.476  1.00  0.00     0.006 A 
ENDBRANCH  64  85
BRANCH  76  93
ATOM     93  C   UNL A   1      45.716  29.226  33.958  1.00  0.00     0.057 A 
ATOM     94  C   UNL A   1      45.885  28.084  34.753  1.00  0.00     0.134 A 
ATOM     95  C   UNL A   1      46.798  30.112  33.862  1.00  0.00     0.134 A 
ATOM     96  F   UNL A   1      44.888  27.198  34.894  1.00  0.00    -0.206 F 
ATOM     97  C   UNL A   1      47.083  27.830  35.421  1.00  0.00     0.040 A 
ATOM     98  C   UNL A   1      48.012  29.852  34.501  1.00  0.00     0.040 A 
ATOM     99  F   UNL A   1      46.709  31.215  33.105  1.00  0.00    -0.206 F 
ATOM    100  C   UNL A   1      48.155  28.710  35.288  1.00  0.00     0.006 A 
ENDBRANCH  76  93
ENDBRANCH  50  51
ENDBRANCH  42  45
ENDBRANCH  40  41
ENDBRANCH  39  40
ENDBRANCH  38  39
ENDBRANCH  37  38
ENDBRANCH   1  37
TORSDOF 19
ENDMDL
MODEL 3
REMARK VINA RESULT:     -12.0      2.288      4.405
REMARK SMILES CCCCN1C(=O)[C@@H]2[C@H](CCC(=O)NCCCCCCNC(=O)c3ccc(-c4c5nc(c(-c6c(F)cccc6F)c6ccc([nH]6)c(-c6c(F)cccc6F)c6nc(c(-c7c(F)cccc7F)c7ccc4[nH]7)C=C6)C=C5)cc3)[NH2+][C@]3(C(=O)Nc4c(CC)cccc43)[C@@H]2C1=O
REMARK SMILES IDX 16 1 15 2 14 3 12 4 13 5 11 7 10 8 9 9 5 10 6 11 92 12 7 13
REMARK SMILES IDX 8 14 91 15 93 16 79 17 78 18 80 19 90 20 81 23 82 24 83 25
REMARK SMILES IDX 89 26 84 28 88 29 87 30 4 31 3 32 2 33 1 34 85 35 86 36
REMARK SMILES IDX 17 37 18 38 19 39 20 40 21 41 22 42 23 44 24 45 25 46 77 47
REMARK SMILES IDX 26 48 76 49 27 50 28 51 29 52 70 53 30 54 75 55 69 56 71 57
REMARK SMILES IDX 31 58 74 59 68 60 67 61 32 63 58 64 41 65 57 66 42 67 45 68
REMARK SMILES IDX 56 69 72 70 43 71 44 72 55 74 73 75 46 76 33 77 34 78 39 79
REMARK SMILES IDX 35 80 36 81 38 82 40 83 37 84 59 85 60 86 65 87 61 88 62 89
REMARK SMILES IDX 64 90 66 91 63 92 47 93 48 94 53 95 49 96 50 97 52 98 54 99
REMARK SMILES IDX 51 100
REMARK H PARENT 14 6 78 21 78 22 82 27 21 43 71 62 45 73
REMARK Flexibility Score: inf
ROOT
ATOM      1  C   UNL A   1      32.409  21.435  24.359  1.00  0.00     0.021 C 
ENDROOT
BRANCH   1   2
ATOM      2  C   UNL A   1      32.386  21.578  25.879  1.00  0.00     0.116 C 
BRANCH   2   3
ATOM      3  N   UNL A   1      31.227  22.341  26.279  1.00  0.00    -0.356 N 
ATOM      4  C   UNL A   1      31.141  23.643  26.663  1.00  0.00     0.220 C 
ATOM      5  O   UNL A   1      30.072  24.054  27.112  1.00  0.00    -0.275 OA
ATOM      6  H   UNL A   1      30.375  21.846  26.274  1.00  0.00     0.163 HD
BRANCH   4   7
ATOM      7  C   UNL A   1      32.318  24.575  26.466  1.00  0.00     0.106 C 
BRANCH   7   8
ATOM      8  C   UNL A   1      32.043  26.083  26.514  1.00  0.00     0.076 C 
BRANCH   8   9
ATOM      9  C   UNL A   1      33.210  27.097  26.531  1.00  0.00     0.197 C 
ATOM     10  N   UNL A   1      32.160  27.657  23.673  1.00  0.00    -0.282 N 
ATOM     11  C   UNL A   1      33.352  27.060  23.941  1.00  0.00     0.239 C 
ATOM     12  C   UNL A   1      32.037  28.838  24.368  1.00  0.00     0.240 C 
ATOM     13  O   UNL A   1      33.933  26.205  23.302  1.00  0.00    -0.274 OA
ATOM     14  C   UNL A   1      33.841  27.635  25.223  1.00  0.00     0.157 C 
ATOM     15  C   UNL A   1      33.343  29.072  25.129  1.00  0.00     0.174 C 
ATOM     16  O   UNL A   1      31.098  29.610  24.275  1.00  0.00    -0.274 OA
ATOM     17  C   UNL A   1      33.282  29.498  26.583  1.00  0.00     0.216 C 
ATOM     18  N   UNL A   1      32.736  28.301  27.255  1.00  0.00    -0.326 N 
ATOM     19  C   UNL A   1      32.423  30.778  26.846  1.00  0.00     0.291 C 
ATOM     20  C   UNL A   1      34.621  29.921  27.202  1.00  0.00     0.047 A 
ATOM     21  H   UNL A   1      33.061  28.271  28.222  1.00  0.00     0.347 HD
ATOM     22  H   UNL A   1      31.717  28.334  27.251  1.00  0.00     0.347 HD
ATOM     23  O   UNL A   1      31.232  30.960  26.663  1.00  0.00    -0.267 OA
ATOM     24  N   UNL A   1      33.260  31.733  27.410  1.00  0.00    -0.320 N 
ATOM     25  C   UNL A   1      34.531  31.241  27.660  1.00  0.00     0.054 A 
ATOM     26  C   UNL A   1      35.789  29.206  27.431  1.00  0.00     0.013 A 
ATOM     27  H   UNL A   1      32.982  32.655  27.611  1.00  0.00     0.170 HD
ATOM     28  C   UNL A   1      35.567  31.891  28.325  1.00  0.00    -0.024 A 
ATOM     29  C   UNL A   1      36.844  29.824  28.110  1.00  0.00     0.001 A 
ATOM     30  C   UNL A   1      36.736  31.150  28.549  1.00  0.00     0.006 A 
BRANCH  10  31
ATOM     31  C   UNL A   1      31.180  27.081  22.771  1.00  0.00     0.128 C 
BRANCH  31  32
ATOM     32  C   UNL A   1      30.382  25.920  23.357  1.00  0.00     0.022 C 
BRANCH  32  33
ATOM     33  C   UNL A   1      29.027  26.314  23.940  1.00  0.00    -0.002 C 
ATOM     34  C   UNL A   1      28.530  27.668  23.459  1.00  0.00     0.004 C 
ENDBRANCH  32  33
ENDBRANCH  31  32
ENDBRANCH  10  31
BRANCH  28  35
ATOM     35  C   UNL A   1      35.471  33.303  28.839  1.00  0.00     0.034 C 
ATOM     36  C   UNL A   1      34.933  33.365  30.263  1.00  0.00     0.009 C 
ENDBRANCH  28  35
ENDBRANCH   8   9
ENDBRANCH   7   8
ENDBRANCH   4   7
ENDBRANCH   2   3
ENDBRANCH   1   2
BRANCH   1  37
ATOM     37  C   UNL A   1      33.403  22.359  23.665  1.00  0.00     0.002 C 
BRANCH  37  38
ATOM     38  C   UNL A   1      34.839  22.212  24.173  1.00  0.00     0.002 C 
BRANCH  38  39
ATOM     39  C   UNL A   1      35.420  23.454  24.856  1.00  0.00     0.021 C 
BRANCH  39  40
ATOM     40  C   UNL A   1      36.253  23.169  26.102  1.00  0.00     0.116 C 
BRANCH  40  41
ATOM     41  N   UNL A   1      37.171  22.058  25.909  1.00  0.00    -0.352 N 
ATOM     42  C   UNL A   1      38.538  22.010  26.021  1.00  0.00     0.251 C 
ATOM     43  H   UNL A   1      36.746  21.206  25.659  1.00  0.00     0.163 HD
ATOM     44  O   UNL A   1      39.157  21.042  25.592  1.00  0.00    -0.269 OA
BRANCH  42  45
ATOM     45  C   UNL A   1      39.266  23.134  26.645  1.00  0.00     0.039 A 
ATOM     46  C   UNL A   1      38.961  24.452  26.304  1.00  0.00     0.014 A 
ATOM     47  C   UNL A   1      40.261  22.865  27.589  1.00  0.00     0.014 A 
ATOM     48  C   UNL A   1      39.765  25.486  26.766  1.00  0.00     0.010 A 
ATOM     49  C   UNL A   1      41.000  23.918  28.134  1.00  0.00     0.010 A 
ATOM     50  C   UNL A   1      40.794  25.233  27.690  1.00  0.00    -0.014 A 
BRANCH  50  51
ATOM     51  C   UNL A   1      41.639  26.360  28.165  1.00  0.00     0.031 A 
ATOM     52  C   UNL A   1      43.035  26.553  27.638  1.00  0.00     0.074 A 
ATOM     53  C   UNL A   1      41.121  27.250  29.033  1.00  0.00     0.049 A 
ATOM     54  N   UNL A   1      43.896  27.506  27.903  1.00  0.00    -0.248 NA
ATOM     55  C   UNL A   1      43.537  25.542  26.695  1.00  0.00     0.031 C 
ATOM     56  C   UNL A   1      39.778  27.180  29.613  1.00  0.00     0.029 A 
ATOM     57  N   UNL A   1      41.649  28.402  29.556  1.00  0.00    -0.354 N 
ATOM     58  C   UNL A   1      45.038  27.204  27.171  1.00  0.00     0.074 A 
ATOM     59  C   UNL A   1      44.780  25.951  26.493  1.00  0.00     0.031 C 
ATOM     60  C   UNL A   1      39.563  28.276  30.358  1.00  0.00     0.029 A 
ATOM     61  C   UNL A   1      40.774  29.088  30.365  1.00  0.00     0.049 A 
ATOM     62  H   UNL A   1      42.565  28.710  29.370  1.00  0.00     0.167 HD
ATOM     63  C   UNL A   1      46.190  27.909  27.058  1.00  0.00     0.037 A 
ATOM     64  C   UNL A   1      40.934  30.237  31.046  1.00  0.00     0.037 A 
ATOM     65  C   UNL A   1      46.450  29.151  27.743  1.00  0.00     0.049 A 
ATOM     66  C   UNL A   1      42.251  30.953  30.972  1.00  0.00     0.074 A 
ATOM     67  C   UNL A   1      47.581  29.948  27.690  1.00  0.00     0.029 A 
ATOM     68  N   UNL A   1      45.568  29.771  28.615  1.00  0.00    -0.354 N 
ATOM     69  N   UNL A   1      43.311  30.669  30.256  1.00  0.00    -0.248 NA
ATOM     70  C   UNL A   1      42.394  32.149  31.813  1.00  0.00     0.031 C 
ATOM     71  C   UNL A   1      47.404  31.019  28.573  1.00  0.00     0.029 A 
ATOM     72  C   UNL A   1      46.139  30.925  29.129  1.00  0.00     0.049 A 
ATOM     73  H   UNL A   1      44.668  29.440  28.837  1.00  0.00     0.167 HD
ATOM     74  C   UNL A   1      44.237  31.666  30.537  1.00  0.00     0.074 A 
ATOM     75  C   UNL A   1      43.603  32.572  31.474  1.00  0.00     0.031 C 
ATOM     76  C   UNL A   1      45.498  31.819  30.062  1.00  0.00     0.037 A 
BRANCH  63  77
ATOM     77  C   UNL A   1      47.263  27.330  26.178  1.00  0.00     0.057 A 
ATOM     78  C   UNL A   1      47.353  27.688  24.826  1.00  0.00     0.134 A 
ATOM     79  C   UNL A   1      48.219  26.427  26.667  1.00  0.00     0.134 A 
ATOM     80  F   UNL A   1      46.467  28.538  24.286  1.00  0.00    -0.206 F 
ATOM     81  C   UNL A   1      48.359  27.183  24.000  1.00  0.00     0.040 A 
ATOM     82  C   UNL A   1      49.249  25.941  25.858  1.00  0.00     0.040 A 
ATOM     83  F   UNL A   1      48.201  26.049  27.954  1.00  0.00    -0.206 F 
ATOM     84  C   UNL A   1      49.319  26.318  24.519  1.00  0.00     0.006 A 
ENDBRANCH  63  77
BRANCH  64  85
ATOM     85  C   UNL A   1      39.816  30.788  31.854  1.00  0.00     0.057 A 
ATOM     86  C   UNL A   1      38.989  31.806  31.368  1.00  0.00     0.134 A 
ATOM     87  C   UNL A   1      39.539  30.286  33.131  1.00  0.00     0.134 A 
ATOM     88  F   UNL A   1      39.207  32.334  30.154  1.00  0.00    -0.206 F 
ATOM     89  C   UNL A   1      37.931  32.312  32.122  1.00  0.00     0.040 A 
ATOM     90  C   UNL A   1      38.464  30.761  33.885  1.00  0.00     0.040 A 
ATOM     91  F   UNL A   1      40.286  29.298  33.646  1.00  0.00    -0.206 F 
ATOM     92  C   UNL A   1      37.659  31.780  33.381  1.00  0.00     0.006 A 
ENDBRANCH  64  85
BRANCH  76  93
ATOM     93  C   UNL A   1      46.254  33.034  30.519  1.00  0.00     0.057 A 
ATOM     94  C   UNL A   1      46.179  34.232  29.796  1.00  0.00     0.134 A 
ATOM     95  C   UNL A   1      47.057  33.023  31.668  1.00  0.00     0.134 A 
ATOM     96  F   UNL A   1      45.435  34.310  28.684  1.00  0.00    -0.206 F 
ATOM     97  C   UNL A   1      46.870  35.374  30.201  1.00  0.00     0.040 A 
ATOM     98  C   UNL A   1      47.728  34.169  32.101  1.00  0.00     0.040 A 
ATOM     99  F   UNL A   1      47.160  31.914  32.416  1.00  0.00    -0.206 F 
ATOM    100  C   UNL A   1      47.640  35.348  31.362  1.00  0.00     0.006 A 
ENDBRANCH  76  93
ENDBRANCH  50  51
ENDBRANCH  42  45
ENDBRANCH  40  41
ENDBRANCH  39  40
ENDBRANCH  38  39
ENDBRANCH  37  38
ENDBRANCH   1  37
TORSDOF 19
ENDMDL
