MODEL 1
REMARK VINA RESULT:     -10.4      0.000      0.000
REMARK SMILES C=C(C)CN(CC)c1ccc(F)cc1C(=O)NCCCCCCNC(=O)c1ccc(-c2c3nc(c(-c4c(F)cccc4F)c4ccc([nH]4)c(-c4c(F)cccc4F)c4nc(c(-c5c(F)cccc5F)c5ccc2[nH]5)C=C4)C=C3)cc1
REMARK SMILES IDX 20 1 19 2 18 3 17 4 15 5 16 6 14 8 8 9 9 10 10 11 13 12
REMARK SMILES IDX 11 13 12 14 5 15 4 16 2 17 1 18 3 19 6 20 7 21 21 22 22 23
REMARK SMILES IDX 23 24 24 25 25 26 26 28 27 29 28 30 80 31 29 32 79 33 30 34
REMARK SMILES IDX 31 35 32 36 73 37 33 38 78 39 72 40 74 41 34 42 77 43 71 44
REMARK SMILES IDX 70 45 35 47 61 48 44 49 60 50 45 51 48 52 59 53 75 54 46 55
REMARK SMILES IDX 47 56 58 58 76 59 49 60 36 61 37 62 42 63 38 64 39 65 41 66
REMARK SMILES IDX 43 67 40 68 62 69 63 70 68 71 64 72 65 73 67 74 69 75 66 76
REMARK SMILES IDX 50 77 51 78 56 79 52 80 53 81 55 82 57 83 54 84
REMARK H PARENT 17 7 24 27 74 46 48 57
REMARK Flexibility Score: inf
ROOT
ATOM      1  C   UNL A   1      34.647  20.011  24.597  1.00  0.00     0.002 C 
ENDROOT
BRANCH   1   2
ATOM      2  C   UNL A   1      33.365  19.891  25.430  1.00  0.00     0.021 C 
BRANCH   2   3
ATOM      3  C   UNL A   1      32.258  20.875  25.086  1.00  0.00     0.116 C 
BRANCH   3   4
ATOM      4  N   UNL A   1      31.648  21.560  26.189  1.00  0.00    -0.352 N 
ATOM      5  C   UNL A   1      31.826  22.868  26.581  1.00  0.00     0.253 C 
ATOM      6  O   UNL A   1      31.108  23.280  27.496  1.00  0.00    -0.269 OA
ATOM      7  H   UNL A   1      31.023  21.030  26.734  1.00  0.00     0.163 HD
BRANCH   5   8
ATOM      8  C   UNL A   1      32.889  23.782  26.042  1.00  0.00     0.066 A 
ATOM      9  C   UNL A   1      32.739  25.004  25.332  1.00  0.00     0.050 A 
ATOM     10  C   UNL A   1      33.925  25.692  24.978  1.00  0.00     0.030 A 
ATOM     11  C   UNL A   1      35.199  25.221  25.293  1.00  0.00     0.041 A 
ATOM     12  C   UNL A   1      34.189  23.341  26.391  1.00  0.00     0.055 A 
ATOM     13  C   UNL A   1      35.317  24.051  26.012  1.00  0.00     0.124 A 
ATOM     14  F   UNL A   1      36.533  23.607  26.358  1.00  0.00    -0.207 F 
BRANCH   9  15
ATOM     15  N   UNL A   1      31.525  25.613  25.010  1.00  0.00    -0.367 N 
BRANCH  15  16
ATOM     16  C   UNL A   1      30.810  26.404  26.032  1.00  0.00     0.146 C 
BRANCH  16  17
ATOM     17  C   UNL A   1      31.370  27.772  26.326  1.00  0.00    -0.061 C 
ATOM     18  C   UNL A   1      31.633  28.226  27.564  1.00  0.00     0.009 C 
ATOM     19  C   UNL A   1      31.553  28.652  25.116  1.00  0.00     0.041 C 
ENDBRANCH  16  17
ENDBRANCH  15  16
BRANCH  15  20
ATOM     20  C   UNL A   1      30.769  25.137  23.842  1.00  0.00     0.113 C 
ATOM     21  C   UNL A   1      31.238  25.709  22.512  1.00  0.00     0.027 C 
ENDBRANCH  15  20
ENDBRANCH   9  15
ENDBRANCH   5   8
ENDBRANCH   3   4
ENDBRANCH   2   3
ENDBRANCH   1   2
BRANCH   1  22
ATOM     22  C   UNL A   1      35.910  20.535  25.292  1.00  0.00     0.002 C 
BRANCH  22  23
ATOM     23  C   UNL A   1      37.262  20.040  24.778  1.00  0.00     0.021 C 
BRANCH  23  24
ATOM     24  C   UNL A   1      38.493  20.514  25.539  1.00  0.00     0.116 C 
BRANCH  24  25
ATOM     25  N   UNL A   1      39.569  19.539  25.570  1.00  0.00    -0.352 N 
ATOM     26  C   UNL A   1      40.866  19.675  25.997  1.00  0.00     0.251 C 
ATOM     27  H   UNL A   1      39.331  18.645  25.234  1.00  0.00     0.163 HD
ATOM     28  O   UNL A   1      41.654  18.741  25.862  1.00  0.00    -0.269 OA
BRANCH  26  29
ATOM     29  C   UNL A   1      41.338  20.950  26.583  1.00  0.00     0.039 A 
ATOM     30  C   UNL A   1      41.900  21.907  25.733  1.00  0.00     0.014 A 
ATOM     31  C   UNL A   1      41.238  21.209  27.952  1.00  0.00     0.014 A 
ATOM     32  C   UNL A   1      42.295  23.146  26.243  1.00  0.00     0.010 A 
ATOM     33  C   UNL A   1      41.558  22.473  28.446  1.00  0.00     0.010 A 
ATOM     34  C   UNL A   1      42.089  23.455  27.598  1.00  0.00    -0.014 A 
BRANCH  34  35
ATOM     35  C   UNL A   1      42.413  24.800  28.139  1.00  0.00     0.031 A 
ATOM     36  C   UNL A   1      43.818  25.132  28.560  1.00  0.00     0.074 A 
ATOM     37  C   UNL A   1      41.431  25.709  28.299  1.00  0.00     0.049 A 
ATOM     38  N   UNL A   1      44.278  26.228  29.110  1.00  0.00    -0.248 NA
ATOM     39  C   UNL A   1      44.836  24.089  28.356  1.00  0.00     0.031 C 
ATOM     40  C   UNL A   1      40.024  25.500  27.957  1.00  0.00     0.029 A 
ATOM     41  N   UNL A   1      41.465  26.990  28.791  1.00  0.00    -0.354 N 
ATOM     42  C   UNL A   1      45.633  26.006  29.318  1.00  0.00     0.074 A 
ATOM     43  C   UNL A   1      45.909  24.649  28.897  1.00  0.00     0.031 C 
ATOM     44  C   UNL A   1      39.337  26.624  28.213  1.00  0.00     0.029 A 
ATOM     45  C   UNL A   1      40.242  27.618  28.781  1.00  0.00     0.049 A 
ATOM     46  H   UNL A   1      42.287  27.420  29.121  1.00  0.00     0.167 HD
ATOM     47  C   UNL A   1      46.568  26.862  29.790  1.00  0.00     0.037 A 
ATOM     48  C   UNL A   1      39.888  28.853  29.186  1.00  0.00     0.037 A 
ATOM     49  C   UNL A   1      46.293  28.217  30.195  1.00  0.00     0.049 A 
ATOM     50  C   UNL A   1      40.936  29.772  29.749  1.00  0.00     0.074 A 
ATOM     51  C   UNL A   1      47.182  29.173  30.655  1.00  0.00     0.029 A 
ATOM     52  N   UNL A   1      45.038  28.806  30.187  1.00  0.00    -0.354 N 
ATOM     53  N   UNL A   1      42.221  29.562  29.903  1.00  0.00    -0.248 NA
ATOM     54  C   UNL A   1      40.487  31.100  30.194  1.00  0.00     0.031 C 
ATOM     55  C   UNL A   1      46.458  30.324  30.975  1.00  0.00     0.029 A 
ATOM     56  C   UNL A   1      45.126  30.107  30.659  1.00  0.00     0.049 A 
ATOM     57  H   UNL A   1      44.209  28.367  29.892  1.00  0.00     0.167 HD
ATOM     58  C   UNL A   1      42.738  30.736  30.436  1.00  0.00     0.074 A 
ATOM     59  C   UNL A   1      41.630  31.659  30.568  1.00  0.00     0.031 C 
ATOM     60  C   UNL A   1      44.018  31.020  30.780  1.00  0.00     0.037 A 
BRANCH  47  61
ATOM     61  C   UNL A   1      47.985  26.371  29.881  1.00  0.00     0.057 A 
ATOM     62  C   UNL A   1      48.844  26.444  28.777  1.00  0.00     0.134 A 
ATOM     63  C   UNL A   1      48.480  25.765  31.045  1.00  0.00     0.134 A 
ATOM     64  F   UNL A   1      48.434  27.004  27.629  1.00  0.00    -0.206 F 
ATOM     65  C   UNL A   1      50.139  25.925  28.824  1.00  0.00     0.040 A 
ATOM     66  C   UNL A   1      49.782  25.270  31.113  1.00  0.00     0.040 A 
ATOM     67  F   UNL A   1      47.712  25.672  32.141  1.00  0.00    -0.206 F 
ATOM     68  C   UNL A   1      50.613  25.339  29.996  1.00  0.00     0.006 A 
ENDBRANCH  47  61
BRANCH  48  69
ATOM     69  C   UNL A   1      38.480  29.301  29.031  1.00  0.00     0.057 A 
ATOM     70  C   UNL A   1      37.586  29.306  30.109  1.00  0.00     0.134 A 
ATOM     71  C   UNL A   1      37.988  29.704  27.785  1.00  0.00     0.134 A 
ATOM     72  F   UNL A   1      37.993  28.924  31.330  1.00  0.00    -0.206 F 
ATOM     73  C   UNL A   1      36.250  29.675  29.949  1.00  0.00     0.040 A 
ATOM     74  C   UNL A   1      36.661  30.100  27.615  1.00  0.00     0.040 A 
ATOM     75  F   UNL A   1      38.800  29.738  26.718  1.00  0.00    -0.206 F 
ATOM     76  C   UNL A   1      35.784  30.077  28.698  1.00  0.00     0.006 A 
ENDBRANCH  48  69
BRANCH  60  77
ATOM     77  C   UNL A   1      44.310  32.393  31.313  1.00  0.00     0.057 A 
ATOM     78  C   UNL A   1      44.666  33.433  30.444  1.00  0.00     0.134 A 
ATOM     79  C   UNL A   1      44.328  32.664  32.687  1.00  0.00     0.134 A 
ATOM     80  F   UNL A   1      44.681  33.237  29.117  1.00  0.00    -0.206 F 
ATOM     81  C   UNL A   1      45.050  34.686  30.923  1.00  0.00     0.040 A 
ATOM     82  C   UNL A   1      44.682  33.922  33.177  1.00  0.00     0.040 A 
ATOM     83  F   UNL A   1      43.987  31.715  33.571  1.00  0.00    -0.206 F 
ATOM     84  C   UNL A   1      45.057  34.933  32.294  1.00  0.00     0.006 A 
ENDBRANCH  60  77
ENDBRANCH  34  35
ENDBRANCH  26  29
ENDBRANCH  24  25
ENDBRANCH  23  24
ENDBRANCH  22  23
ENDBRANCH   1  22
TORSDOF 17
ENDMDL
MODEL 2
REMARK VINA RESULT:     -10.4      1.328      2.318
REMARK SMILES C=C(C)CN(CC)c1ccc(F)cc1C(=O)NCCCCCCNC(=O)c1ccc(-c2c3nc(c(-c4c(F)cccc4F)c4ccc([nH]4)c(-c4c(F)cccc4F)c4nc(c(-c5c(F)cccc5F)c5ccc2[nH]5)C=C4)C=C3)cc1
REMARK SMILES IDX 20 1 19 2 18 3 17 4 15 5 16 6 14 8 8 9 9 10 10 11 13 12
REMARK SMILES IDX 11 13 12 14 5 15 4 16 2 17 1 18 3 19 6 20 7 21 21 22 22 23
REMARK SMILES IDX 23 24 24 25 25 26 26 28 27 29 28 30 80 31 29 32 79 33 30 34
REMARK SMILES IDX 31 35 32 36 73 37 33 38 78 39 72 40 74 41 34 42 77 43 71 44
REMARK SMILES IDX 70 45 35 47 61 48 44 49 60 50 45 51 48 52 59 53 75 54 46 55
REMARK SMILES IDX 47 56 58 58 76 59 49 60 36 61 37 62 42 63 38 64 39 65 41 66
REMARK SMILES IDX 43 67 40 68 62 69 63 70 68 71 64 72 65 73 67 74 69 75 66 76
REMARK SMILES IDX 50 77 51 78 56 79 52 80 53 81 55 82 57 83 54 84
REMARK H PARENT 17 7 24 27 74 46 48 57
REMARK Flexibility Score: inf
ROOT
ATOM      1  C   UNL A   1      36.748  22.003  24.557  1.00  0.00     0.002 C 
ENDROOT
BRANCH   1   2
ATOM      2  C   UNL A   1      36.473  23.084  25.610  1.00  0.00     0.021 C 
BRANCH   2   3
ATOM      3  C   UNL A   1      35.445  24.136  25.226  1.00  0.00     0.116 C 
BRANCH   3   4
ATOM      4  N   UNL A   1      34.292  24.242  26.073  1.00  0.00    -0.352 N 
ATOM      5  C   UNL A   1      33.112  23.538  25.997  1.00  0.00     0.253 C 
ATOM      6  O   UNL A   1      32.297  23.712  26.906  1.00  0.00    -0.269 OA
ATOM      7  H   UNL A   1      34.353  24.901  26.803  1.00  0.00     0.163 HD
BRANCH   5   8
ATOM      8  C   UNL A   1      32.718  22.657  24.845  1.00  0.00     0.066 A 
ATOM      9  C   UNL A   1      32.106  23.017  23.614  1.00  0.00     0.050 A 
ATOM     10  C   UNL A   1      31.884  21.978  22.678  1.00  0.00     0.030 A 
ATOM     11  C   UNL A   1      32.236  20.651  22.919  1.00  0.00     0.041 A 
ATOM     12  C   UNL A   1      33.107  21.311  25.056  1.00  0.00     0.055 A 
ATOM     13  C   UNL A   1      32.860  20.333  24.106  1.00  0.00     0.124 A 
ATOM     14  F   UNL A   1      33.240  19.069  24.335  1.00  0.00    -0.207 F 
BRANCH   9  15
ATOM     15  N   UNL A   1      31.764  24.314  23.226  1.00  0.00    -0.367 N 
BRANCH  15  16
ATOM     16  C   UNL A   1      30.373  24.782  23.389  1.00  0.00     0.146 C 
BRANCH  16  17
ATOM     17  C   UNL A   1      30.149  25.861  24.418  1.00  0.00    -0.061 C 
ATOM     18  C   UNL A   1      29.869  25.619  25.710  1.00  0.00     0.009 C 
ATOM     19  C   UNL A   1      30.189  27.266  23.876  1.00  0.00     0.041 C 
ENDBRANCH  16  17
ENDBRANCH  15  16
BRANCH  15  20
ATOM     20  C   UNL A   1      32.642  25.041  22.298  1.00  0.00     0.113 C 
ATOM     21  C   UNL A   1      33.563  26.054  22.963  1.00  0.00     0.027 C 
ENDBRANCH  15  20
ENDBRANCH   9  15
ENDBRANCH   5   8
ENDBRANCH   3   4
ENDBRANCH   2   3
ENDBRANCH   1   2
BRANCH   1  22
ATOM     22  C   UNL A   1      36.548  20.537  24.960  1.00  0.00     0.002 C 
BRANCH  22  23
ATOM     23  C   UNL A   1      37.776  19.627  24.968  1.00  0.00     0.021 C 
BRANCH  23  24
ATOM     24  C   UNL A   1      39.008  20.154  25.692  1.00  0.00     0.116 C 
BRANCH  24  25
ATOM     25  N   UNL A   1      40.104  19.203  25.744  1.00  0.00    -0.352 N 
ATOM     26  C   UNL A   1      41.411  19.388  26.118  1.00  0.00     0.251 C 
ATOM     27  H   UNL A   1      39.873  18.286  25.470  1.00  0.00     0.163 HD
ATOM     28  O   UNL A   1      42.212  18.461  26.012  1.00  0.00    -0.269 OA
BRANCH  26  29
ATOM     29  C   UNL A   1      41.876  20.703  26.611  1.00  0.00     0.039 A 
ATOM     30  C   UNL A   1      42.315  21.648  25.678  1.00  0.00     0.014 A 
ATOM     31  C   UNL A   1      41.889  21.014  27.973  1.00  0.00     0.014 A 
ATOM     32  C   UNL A   1      42.698  22.922  26.104  1.00  0.00     0.010 A 
ATOM     33  C   UNL A   1      42.195  22.308  28.389  1.00  0.00     0.010 A 
ATOM     34  C   UNL A   1      42.602  23.277  27.460  1.00  0.00    -0.014 A 
BRANCH  34  35
ATOM     35  C   UNL A   1      42.913  24.655  27.920  1.00  0.00     0.031 A 
ATOM     36  C   UNL A   1      44.336  25.071  28.167  1.00  0.00     0.074 A 
ATOM     37  C   UNL A   1      41.908  25.519  28.164  1.00  0.00     0.049 A 
ATOM     38  N   UNL A   1      44.797  26.207  28.628  1.00  0.00    -0.248 NA
ATOM     39  C   UNL A   1      45.379  24.073  27.880  1.00  0.00     0.031 C 
ATOM     40  C   UNL A   1      40.484  25.228  27.992  1.00  0.00     0.029 A 
ATOM     41  N   UNL A   1      41.929  26.817  28.610  1.00  0.00    -0.354 N 
ATOM     42  C   UNL A   1      46.176  26.060  28.686  1.00  0.00     0.074 A 
ATOM     43  C   UNL A   1      46.475  24.705  28.277  1.00  0.00     0.031 C 
ATOM     44  C   UNL A   1      39.772  26.325  28.290  1.00  0.00     0.029 A 
ATOM     45  C   UNL A   1      40.681  27.383  28.721  1.00  0.00     0.049 A 
ATOM     46  H   UNL A   1      42.759  27.298  28.830  1.00  0.00     0.167 HD
ATOM     47  C   UNL A   1      47.111  26.979  29.021  1.00  0.00     0.037 A 
ATOM     48  C   UNL A   1      40.309  28.613  29.126  1.00  0.00     0.037 A 
ATOM     49  C   UNL A   1      46.812  28.331  29.414  1.00  0.00     0.049 A 
ATOM     50  C   UNL A   1      41.364  29.602  29.537  1.00  0.00     0.074 A 
ATOM     51  C   UNL A   1      47.695  29.347  29.740  1.00  0.00     0.029 A 
ATOM     52  N   UNL A   1      45.534  28.857  29.532  1.00  0.00    -0.354 N 
ATOM     53  N   UNL A   1      42.667  29.462  29.549  1.00  0.00    -0.248 NA
ATOM     54  C   UNL A   1      40.897  30.921  29.990  1.00  0.00     0.031 C 
ATOM     55  C   UNL A   1      46.951  30.471  30.106  1.00  0.00     0.029 A 
ATOM     56  C   UNL A   1      45.605  30.177  29.951  1.00  0.00     0.049 A 
ATOM     57  H   UNL A   1      44.702  28.368  29.347  1.00  0.00     0.167 HD
ATOM     58  C   UNL A   1      43.178  30.678  29.984  1.00  0.00     0.074 A 
ATOM     59  C   UNL A   1      42.044  31.550  30.214  1.00  0.00     0.031 C 
ATOM     60  C   UNL A   1      44.471  31.038  30.171  1.00  0.00     0.037 A 
BRANCH  47  61
ATOM     61  C   UNL A   1      48.554  26.562  28.964  1.00  0.00     0.057 A 
ATOM     62  C   UNL A   1      49.184  25.996  30.081  1.00  0.00     0.134 A 
ATOM     63  C   UNL A   1      49.337  26.779  27.822  1.00  0.00     0.134 A 
ATOM     64  F   UNL A   1      48.495  25.766  31.209  1.00  0.00    -0.206 F 
ATOM     65  C   UNL A   1      50.541  25.671  30.066  1.00  0.00     0.040 A 
ATOM     66  C   UNL A   1      50.688  26.431  27.786  1.00  0.00     0.040 A 
ATOM     67  F   UNL A   1      48.794  27.308  26.716  1.00  0.00    -0.206 F 
ATOM     68  C   UNL A   1      51.296  25.885  28.915  1.00  0.00     0.006 A 
ENDBRANCH  47  61
BRANCH  48  69
ATOM     69  C   UNL A   1      38.871  28.984  29.120  1.00  0.00     0.057 A 
ATOM     70  C   UNL A   1      38.251  29.512  27.980  1.00  0.00     0.134 A 
ATOM     71  C   UNL A   1      38.091  28.850  30.274  1.00  0.00     0.134 A 
ATOM     72  F   UNL A   1      38.945  29.673  26.844  1.00  0.00    -0.206 F 
ATOM     73  C   UNL A   1      36.914  29.911  27.994  1.00  0.00     0.040 A 
ATOM     74  C   UNL A   1      36.746  29.222  30.295  1.00  0.00     0.040 A 
ATOM     75  F   UNL A   1      38.622  28.334  31.392  1.00  0.00    -0.206 F 
ATOM     76  C   UNL A   1      36.156  29.764  29.155  1.00  0.00     0.006 A 
ENDBRANCH  48  69
BRANCH  60  77
ATOM     77  C   UNL A   1      44.747  32.442  30.625  1.00  0.00     0.057 A 
ATOM     78  C   UNL A   1      44.936  33.468  29.690  1.00  0.00     0.134 A 
ATOM     79  C   UNL A   1      44.918  32.760  31.978  1.00  0.00     0.134 A 
ATOM     80  F   UNL A   1      44.799  33.228  28.377  1.00  0.00    -0.206 F 
ATOM     81  C   UNL A   1      45.303  34.756  30.082  1.00  0.00     0.040 A 
ATOM     82  C   UNL A   1      45.257  34.052  32.385  1.00  0.00     0.040 A 
ATOM     83  F   UNL A   1      44.742  31.826  32.924  1.00  0.00    -0.206 F 
ATOM     84  C   UNL A   1      45.463  35.051  31.435  1.00  0.00     0.006 A 
ENDBRANCH  60  77
ENDBRANCH  34  35
ENDBRANCH  26  29
ENDBRANCH  24  25
ENDBRANCH  23  24
ENDBRANCH  22  23
ENDBRANCH   1  22
TORSDOF 17
ENDMDL
MODEL 3
REMARK VINA RESULT:     -10.4      4.159      9.117
REMARK SMILES C=C(C)CN(CC)c1ccc(F)cc1C(=O)NCCCCCCNC(=O)c1ccc(-c2c3nc(c(-c4c(F)cccc4F)c4ccc([nH]4)c(-c4c(F)cccc4F)c4nc(c(-c5c(F)cccc5F)c5ccc2[nH]5)C=C4)C=C3)cc1
REMARK SMILES IDX 20 1 19 2 18 3 17 4 15 5 16 6 14 8 8 9 9 10 10 11 13 12
REMARK SMILES IDX 11 13 12 14 5 15 4 16 2 17 1 18 3 19 6 20 7 21 21 22 22 23
REMARK SMILES IDX 23 24 24 25 25 26 26 28 27 29 28 30 80 31 29 32 79 33 30 34
REMARK SMILES IDX 31 35 32 36 73 37 33 38 78 39 72 40 74 41 34 42 77 43 71 44
REMARK SMILES IDX 70 45 35 47 61 48 44 49 60 50 45 51 48 52 59 53 75 54 46 55
REMARK SMILES IDX 47 56 58 58 76 59 49 60 36 61 37 62 42 63 38 64 39 65 41 66
REMARK SMILES IDX 43 67 40 68 62 69 63 70 68 71 64 72 65 73 67 74 69 75 66 76
REMARK SMILES IDX 50 77 51 78 56 79 52 80 53 81 55 82 57 83 54 84
REMARK H PARENT 17 7 24 27 74 46 48 57
REMARK Flexibility Score: inf
ROOT
ATOM      1  C   UNL A   1      32.091  30.095  25.934  1.00  0.00     0.002 C 
ENDROOT
BRANCH   1   2
ATOM      2  C   UNL A   1      32.020  29.320  27.256  1.00  0.00     0.021 C 
BRANCH   2   3
ATOM      3  C   UNL A   1      32.286  27.826  27.163  1.00  0.00     0.116 C 
BRANCH   3   4
ATOM      4  N   UNL A   1      31.137  26.970  27.203  1.00  0.00    -0.352 N 
ATOM      5  C   UNL A   1      30.643  26.161  26.204  1.00  0.00     0.253 C 
ATOM      6  O   UNL A   1      29.703  25.419  26.499  1.00  0.00    -0.269 OA
ATOM      7  H   UNL A   1      30.638  26.957  28.052  1.00  0.00     0.163 HD
BRANCH   5   8
ATOM      8  C   UNL A   1      31.104  26.194  24.775  1.00  0.00     0.066 A 
ATOM      9  C   UNL A   1      32.039  25.348  24.118  1.00  0.00     0.050 A 
ATOM     10  C   UNL A   1      32.255  25.578  22.738  1.00  0.00     0.030 A 
ATOM     11  C   UNL A   1      31.601  26.580  22.023  1.00  0.00     0.041 A 
ATOM     12  C   UNL A   1      30.418  27.179  24.023  1.00  0.00     0.055 A 
ATOM     13  C   UNL A   1      30.674  27.365  22.674  1.00  0.00     0.124 A 
ATOM     14  F   UNL A   1      30.007  28.305  21.991  1.00  0.00    -0.207 F 
BRANCH   9  15
ATOM     15  N   UNL A   1      32.711  24.273  24.702  1.00  0.00    -0.367 N 
BRANCH  15  16
ATOM     16  C   UNL A   1      32.045  22.959  24.799  1.00  0.00     0.146 C 
BRANCH  16  17
ATOM     17  C   UNL A   1      32.639  21.849  23.971  1.00  0.00    -0.061 C 
ATOM     18  C   UNL A   1      33.508  20.941  24.447  1.00  0.00     0.009 C 
ATOM     19  C   UNL A   1      32.242  21.865  22.518  1.00  0.00     0.041 C 
ENDBRANCH  16  17
ENDBRANCH  15  16
BRANCH  15  20
ATOM     20  C   UNL A   1      33.866  24.537  25.574  1.00  0.00     0.113 C 
ATOM     21  C   UNL A   1      35.216  24.235  24.941  1.00  0.00     0.027 C 
ENDBRANCH  15  20
ENDBRANCH   9  15
ENDBRANCH   5   8
ENDBRANCH   3   4
ENDBRANCH   2   3
ENDBRANCH   1   2
BRANCH   1  22
ATOM     22  C   UNL A   1      31.033  31.175  25.675  1.00  0.00     0.002 C 
BRANCH  22  23
ATOM     23  C   UNL A   1      31.097  32.450  26.516  1.00  0.00     0.021 C 
BRANCH  23  24
ATOM     24  C   UNL A   1      32.486  32.944  26.896  1.00  0.00     0.116 C 
BRANCH  24  25
ATOM     25  N   UNL A   1      32.478  34.208  27.612  1.00  0.00    -0.352 N 
ATOM     26  C   UNL A   1      33.300  34.654  28.616  1.00  0.00     0.251 C 
ATOM     27  H   UNL A   1      31.778  34.840  27.333  1.00  0.00     0.163 HD
ATOM     28  O   UNL A   1      33.074  35.736  29.154  1.00  0.00    -0.269 OA
BRANCH  26  29
ATOM     29  C   UNL A   1      34.433  33.827  29.088  1.00  0.00     0.039 A 
ATOM     30  C   UNL A   1      35.734  34.241  28.782  1.00  0.00     0.014 A 
ATOM     31  C   UNL A   1      34.231  32.653  29.818  1.00  0.00     0.014 A 
ATOM     32  C   UNL A   1      36.827  33.519  29.268  1.00  0.00     0.010 A 
ATOM     33  C   UNL A   1      35.320  31.979  30.368  1.00  0.00     0.010 A 
ATOM     34  C   UNL A   1      36.629  32.405  30.100  1.00  0.00    -0.014 A 
BRANCH  34  35
ATOM     35  C   UNL A   1      37.778  31.681  30.705  1.00  0.00     0.031 A 
ATOM     36  C   UNL A   1      38.221  31.994  32.106  1.00  0.00     0.074 A 
ATOM     37  C   UNL A   1      38.454  30.774  29.972  1.00  0.00     0.049 A 
ATOM     38  N   UNL A   1      39.237  31.512  32.779  1.00  0.00    -0.248 NA
ATOM     39  C   UNL A   1      37.435  32.996  32.844  1.00  0.00     0.031 C 
ATOM     40  C   UNL A   1      38.142  30.402  28.592  1.00  0.00     0.029 A 
ATOM     41  N   UNL A   1      39.545  30.002  30.285  1.00  0.00    -0.354 N 
ATOM     42  C   UNL A   1      39.211  32.151  34.011  1.00  0.00     0.074 A 
ATOM     43  C   UNL A   1      38.121  33.102  33.973  1.00  0.00     0.031 C 
ATOM     44  C   UNL A   1      38.995  29.447  28.190  1.00  0.00     0.029 A 
ATOM     45  C   UNL A   1      39.944  29.171  29.264  1.00  0.00     0.049 A 
ATOM     46  H   UNL A   1      40.000  30.038  31.157  1.00  0.00     0.167 HD
ATOM     47  C   UNL A   1      40.005  31.944  35.088  1.00  0.00     0.037 A 
ATOM     48  C   UNL A   1      40.961  28.290  29.198  1.00  0.00     0.037 A 
ATOM     49  C   UNL A   1      41.080  30.987  35.129  1.00  0.00     0.049 A 
ATOM     50  C   UNL A   1      41.857  28.110  30.392  1.00  0.00     0.074 A 
ATOM     51  C   UNL A   1      41.918  30.681  36.186  1.00  0.00     0.029 A 
ATOM     52  N   UNL A   1      41.463  30.181  34.067  1.00  0.00    -0.354 N 
ATOM     53  N   UNL A   1      41.797  28.692  31.564  1.00  0.00    -0.248 NA
ATOM     54  C   UNL A   1      42.963  27.150  30.254  1.00  0.00     0.031 C 
ATOM     55  C   UNL A   1      42.842  29.728  35.750  1.00  0.00     0.029 A 
ATOM     56  C   UNL A   1      42.543  29.395  34.438  1.00  0.00     0.049 A 
ATOM     57  H   UNL A   1      41.033  30.169  33.183  1.00  0.00     0.167 HD
ATOM     58  C   UNL A   1      42.835  28.153  32.313  1.00  0.00     0.074 A 
ATOM     59  C   UNL A   1      43.503  27.187  31.465  1.00  0.00     0.031 C 
ATOM     60  C   UNL A   1      43.197  28.433  33.588  1.00  0.00     0.037 A 
BRANCH  47  61
ATOM     61  C   UNL A   1      39.734  32.756  36.323  1.00  0.00     0.057 A 
ATOM     62  C   UNL A   1      40.489  33.900  36.612  1.00  0.00     0.134 A 
ATOM     63  C   UNL A   1      38.765  32.368  37.260  1.00  0.00     0.134 A 
ATOM     64  F   UNL A   1      41.437  34.324  35.762  1.00  0.00    -0.206 F 
ATOM     65  C   UNL A   1      40.298  34.622  37.791  1.00  0.00     0.040 A 
ATOM     66  C   UNL A   1      38.545  33.099  38.428  1.00  0.00     0.040 A 
ATOM     67  F   UNL A   1      38.001  31.288  37.039  1.00  0.00    -0.206 F 
ATOM     68  C   UNL A   1      39.321  34.225  38.701  1.00  0.00     0.006 A 
ENDBRANCH  47  61
BRANCH  48  69
ATOM     69  C   UNL A   1      41.155  27.483  27.967  1.00  0.00     0.057 A 
ATOM     70  C   UNL A   1      41.931  27.946  26.897  1.00  0.00     0.134 A 
ATOM     71  C   UNL A   1      40.534  26.238  27.820  1.00  0.00     0.134 A 
ATOM     72  F   UNL A   1      42.547  29.136  26.971  1.00  0.00    -0.206 F 
ATOM     73  C   UNL A   1      42.066  27.209  25.719  1.00  0.00     0.040 A 
ATOM     74  C   UNL A   1      40.681  25.479  26.658  1.00  0.00     0.040 A 
ATOM     75  F   UNL A   1      39.792  25.732  28.817  1.00  0.00    -0.206 F 
ATOM     76  C   UNL A   1      41.441  25.969  25.599  1.00  0.00     0.006 A 
ENDBRANCH  48  69
BRANCH  60  77
ATOM     77  C   UNL A   1      44.354  27.673  34.170  1.00  0.00     0.057 A 
ATOM     78  C   UNL A   1      44.150  26.443  34.809  1.00  0.00     0.134 A 
ATOM     79  C   UNL A   1      45.653  28.199  34.178  1.00  0.00     0.134 A 
ATOM     80  F   UNL A   1      42.929  25.890  34.848  1.00  0.00    -0.206 F 
ATOM     81  C   UNL A   1      45.190  25.773  35.453  1.00  0.00     0.040 A 
ATOM     82  C   UNL A   1      46.708  27.523  34.794  1.00  0.00     0.040 A 
ATOM     83  F   UNL A   1      45.918  29.366  33.575  1.00  0.00    -0.206 F 
ATOM     84  C   UNL A   1      46.475  26.313  35.445  1.00  0.00     0.006 A 
ENDBRANCH  60  77
ENDBRANCH  34  35
ENDBRANCH  26  29
ENDBRANCH  24  25
ENDBRANCH  23  24
ENDBRANCH  22  23
ENDBRANCH   1  22
TORSDOF 17
ENDMDL
