MODEL 1
REMARK VINA RESULT:     -13.2      0.000      0.000
REMARK SMILES Cc1ccc(-n2nc(-c3ccc(F)cc3)cc2C(=O)NCCCCCCNC(=O)c2ccc(-c3c4nc(c(-c5c(F)cccc5F)c5ccc([nH]5)c(-c5c(F)cccc5F)c5nc(c(-c6c(F)cccc6F)c6ccc3[nH]6)C=C5)C=C4)cc2)c(C)c1
REMARK SMILES IDX 24 1 23 2 22 3 21 4 20 5 18 6 19 7 17 9 6 10 7 11 8 12 16 13
REMARK SMILES IDX 5 14 1 15 2 16 3 17 86 18 4 19 84 20 85 21 9 22 10 23 15 24
REMARK SMILES IDX 11 25 14 26 12 27 13 28 25 29 26 30 27 31 28 32 29 34 30 35
REMARK SMILES IDX 31 36 83 37 32 38 82 39 33 40 34 41 35 42 76 43 36 44 81 45
REMARK SMILES IDX 75 46 77 47 37 48 80 49 74 50 73 51 38 53 64 54 47 55 63 56
REMARK SMILES IDX 48 57 51 58 62 59 78 60 49 61 50 62 61 64 79 65 52 66 39 67
REMARK SMILES IDX 40 68 45 69 41 70 42 71 44 72 46 73 43 74 65 75 66 76 71 77
REMARK SMILES IDX 67 78 68 79 70 80 72 81 69 82 53 83 54 84 59 85 55 86 56 87
REMARK SMILES IDX 58 88 60 89 57 90
REMARK H PARENT 20 8 27 33 77 52 51 63
REMARK Flexibility Score: inf
ROOT
ATOM      1  C   UNL A   1      41.452  20.485  27.363  1.00  0.00     0.002 C 
ENDROOT
BRANCH   1   2
ATOM      2  C   UNL A   1      40.702  21.046  26.138  1.00  0.00     0.002 C 
BRANCH   2   3
ATOM      3  C   UNL A   1      39.593  22.040  26.495  1.00  0.00     0.021 C 
BRANCH   3   4
ATOM      4  C   UNL A   1      38.315  21.736  25.728  1.00  0.00     0.116 C 
BRANCH   4   5
ATOM      5  N   UNL A   1      37.451  22.887  25.723  1.00  0.00    -0.351 N 
ATOM      6  C   UNL A   1      36.126  23.055  25.449  1.00  0.00     0.270 C 
ATOM      7  O   UNL A   1      35.717  24.197  25.663  1.00  0.00    -0.268 OA
ATOM      8  H   UNL A   1      37.909  23.722  25.966  1.00  0.00     0.163 HD
BRANCH   6   9
ATOM      9  C   UNL A   1      35.297  21.966  24.987  1.00  0.00     0.132 A 
ATOM     10  N   UNL A   1      34.027  22.139  24.444  1.00  0.00    -0.227 N 
ATOM     11  N   UNL A   1      33.307  20.978  24.434  1.00  0.00    -0.167 NA
ATOM     12  C   UNL A   1      34.204  20.033  24.713  1.00  0.00     0.094 A 
ATOM     13  C   UNL A   1      35.464  20.596  24.971  1.00  0.00     0.065 A 
BRANCH  10  14
ATOM     14  C   UNL A   1      33.429  23.337  23.981  1.00  0.00     0.068 A 
ATOM     15  C   UNL A   1      31.504  26.784  22.279  1.00  0.00     0.044 C 
ATOM     16  C   UNL A   1      32.185  25.583  22.863  1.00  0.00    -0.051 A 
ATOM     17  C   UNL A   1      33.081  24.827  22.103  1.00  0.00     0.005 A 
ATOM     18  C   UNL A   1      31.934  25.220  24.194  1.00  0.00     0.009 A 
ATOM     19  C   UNL A   1      33.715  23.718  22.663  1.00  0.00     0.029 A 
ATOM     20  C   UNL A   1      32.553  24.101  24.780  1.00  0.00    -0.025 A 
ATOM     21  C   UNL A   1      32.252  23.832  26.231  1.00  0.00     0.047 C 
ENDBRANCH  10  14
BRANCH  12  22
ATOM     22  C   UNL A   1      33.926  18.612  24.798  1.00  0.00     0.002 A 
ATOM     23  C   UNL A   1      32.735  18.186  25.412  1.00  0.00     0.013 A 
ATOM     24  C   UNL A   1      34.890  17.672  24.421  1.00  0.00     0.013 A 
ATOM     25  C   UNL A   1      32.504  16.828  25.632  1.00  0.00     0.040 A 
ATOM     26  C   UNL A   1      34.658  16.314  24.648  1.00  0.00     0.040 A 
ATOM     27  C   UNL A   1      33.468  15.905  25.245  1.00  0.00     0.123 A 
ATOM     28  F   UNL A   1      33.253  14.602  25.463  1.00  0.00    -0.207 F 
ENDBRANCH  12  22
ENDBRANCH   6   9
ENDBRANCH   4   5
ENDBRANCH   3   4
ENDBRANCH   2   3
ENDBRANCH   1   2
BRANCH   1  29
ATOM     29  C   UNL A   1      42.361  19.280  27.068  1.00  0.00     0.021 C 
BRANCH  29  30
ATOM     30  C   UNL A   1      42.634  19.144  25.589  1.00  0.00     0.116 C 
BRANCH  30  31
ATOM     31  N   UNL A   1      44.070  19.088  25.294  1.00  0.00    -0.352 N 
ATOM     32  C   UNL A   1      44.867  20.120  24.841  1.00  0.00     0.251 C 
ATOM     33  H   UNL A   1      44.514  18.220  25.434  1.00  0.00     0.163 HD
ATOM     34  O   UNL A   1      45.954  19.914  24.292  1.00  0.00    -0.269 OA
BRANCH  32  35
ATOM     35  C   UNL A   1      44.432  21.482  25.167  1.00  0.00     0.039 A 
ATOM     36  C   UNL A   1      43.669  22.355  24.395  1.00  0.00     0.014 A 
ATOM     37  C   UNL A   1      44.986  21.987  26.325  1.00  0.00     0.014 A 
ATOM     38  C   UNL A   1      43.577  23.690  24.854  1.00  0.00     0.010 A 
ATOM     39  C   UNL A   1      44.283  22.940  26.961  1.00  0.00     0.010 A 
ATOM     40  C   UNL A   1      44.098  24.006  26.133  1.00  0.00    -0.014 A 
BRANCH  40  41
ATOM     41  C   UNL A   1      43.917  25.226  26.925  1.00  0.00     0.031 A 
ATOM     42  C   UNL A   1      45.068  26.134  26.582  1.00  0.00     0.074 A 
ATOM     43  C   UNL A   1      42.781  25.528  27.639  1.00  0.00     0.049 A 
ATOM     44  N   UNL A   1      46.183  26.169  27.239  1.00  0.00    -0.248 NA
ATOM     45  C   UNL A   1      45.223  26.737  25.229  1.00  0.00     0.031 C 
ATOM     46  C   UNL A   1      41.530  24.767  27.876  1.00  0.00     0.029 A 
ATOM     47  N   UNL A   1      42.518  26.653  28.407  1.00  0.00    -0.354 N 
ATOM     48  C   UNL A   1      46.966  27.119  26.596  1.00  0.00     0.074 A 
ATOM     49  C   UNL A   1      46.491  27.165  25.251  1.00  0.00     0.031 C 
ATOM     50  C   UNL A   1      40.583  25.545  28.479  1.00  0.00     0.029 A 
ATOM     51  C   UNL A   1      41.160  26.834  28.810  1.00  0.00     0.049 A 
ATOM     52  H   UNL A   1      43.227  27.289  28.660  1.00  0.00     0.167 HD
ATOM     53  C   UNL A   1      47.601  28.058  27.351  1.00  0.00     0.037 A 
ATOM     54  C   UNL A   1      40.638  27.880  29.547  1.00  0.00     0.037 A 
ATOM     55  C   UNL A   1      47.611  27.615  28.730  1.00  0.00     0.049 A 
ATOM     56  C   UNL A   1      41.809  28.532  30.199  1.00  0.00     0.074 A 
ATOM     57  C   UNL A   1      48.137  26.534  29.407  1.00  0.00     0.029 A 
ATOM     58  N   UNL A   1      46.528  28.045  29.453  1.00  0.00    -0.354 N 
ATOM     59  N   UNL A   1      42.522  27.910  31.101  1.00  0.00    -0.248 NA
ATOM     60  C   UNL A   1      42.500  29.519  29.376  1.00  0.00     0.031 C 
ATOM     61  C   UNL A   1      47.115  26.125  30.317  1.00  0.00     0.029 A 
ATOM     62  C   UNL A   1      46.082  27.061  30.289  1.00  0.00     0.049 A 
ATOM     63  H   UNL A   1      46.128  28.942  29.380  1.00  0.00     0.167 HD
ATOM     64  C   UNL A   1      43.823  28.050  30.647  1.00  0.00     0.074 A 
ATOM     65  C   UNL A   1      43.734  29.036  29.553  1.00  0.00     0.031 C 
ATOM     66  C   UNL A   1      44.778  27.106  30.913  1.00  0.00     0.037 A 
BRANCH  53  67
ATOM     67  C   UNL A   1      47.689  29.533  26.997  1.00  0.00     0.057 A 
ATOM     68  C   UNL A   1      46.593  30.398  26.785  1.00  0.00     0.134 A 
ATOM     69  C   UNL A   1      48.926  30.185  27.159  1.00  0.00     0.134 A 
ATOM     70  F   UNL A   1      45.331  29.966  26.709  1.00  0.00    -0.206 F 
ATOM     71  C   UNL A   1      46.716  31.792  26.739  1.00  0.00     0.040 A 
ATOM     72  C   UNL A   1      49.054  31.581  27.156  1.00  0.00     0.040 A 
ATOM     73  F   UNL A   1      50.043  29.484  27.404  1.00  0.00    -0.206 F 
ATOM     74  C   UNL A   1      47.947  32.391  26.944  1.00  0.00     0.006 A 
ENDBRANCH  53  67
BRANCH  54  75
ATOM     75  C   UNL A   1      39.381  28.693  29.327  1.00  0.00     0.057 A 
ATOM     76  C   UNL A   1      38.396  28.721  30.324  1.00  0.00     0.134 A 
ATOM     77  C   UNL A   1      38.955  29.182  28.066  1.00  0.00     0.134 A 
ATOM     78  F   UNL A   1      38.658  28.236  31.545  1.00  0.00    -0.206 F 
ATOM     79  C   UNL A   1      37.080  29.156  30.092  1.00  0.00     0.040 A 
ATOM     80  C   UNL A   1      37.636  29.638  27.823  1.00  0.00     0.040 A 
ATOM     81  F   UNL A   1      39.784  29.177  27.010  1.00  0.00    -0.206 F 
ATOM     82  C   UNL A   1      36.687  29.604  28.838  1.00  0.00     0.006 A 
ENDBRANCH  54  75
BRANCH  66  83
ATOM     83  C   UNL A   1      44.464  25.984  31.875  1.00  0.00     0.057 A 
ATOM     84  C   UNL A   1      44.616  26.258  33.236  1.00  0.00     0.134 A 
ATOM     85  C   UNL A   1      44.253  24.636  31.532  1.00  0.00     0.134 A 
ATOM     86  F   UNL A   1      44.890  27.509  33.637  1.00  0.00    -0.206 F 
ATOM     87  C   UNL A   1      44.577  25.256  34.208  1.00  0.00     0.040 A 
ATOM     88  C   UNL A   1      44.180  23.621  32.500  1.00  0.00     0.040 A 
ATOM     89  F   UNL A   1      44.186  24.248  30.254  1.00  0.00    -0.206 F 
ATOM     90  C   UNL A   1      44.351  23.933  33.845  1.00  0.00     0.006 A 
ENDBRANCH  66  83
ENDBRANCH  40  41
ENDBRANCH  32  35
ENDBRANCH  30  31
ENDBRANCH  29  30
ENDBRANCH   1  29
TORSDOF 15
ENDMDL
MODEL 2
REMARK VINA RESULT:     -13.2      2.128      3.893
REMARK SMILES Cc1ccc(-n2nc(-c3ccc(F)cc3)cc2C(=O)NCCCCCCNC(=O)c2ccc(-c3c4nc(c(-c5c(F)cccc5F)c5ccc([nH]5)c(-c5c(F)cccc5F)c5nc(c(-c6c(F)cccc6F)c6ccc3[nH]6)C=C5)C=C4)cc2)c(C)c1
REMARK SMILES IDX 24 1 23 2 22 3 21 4 20 5 18 6 19 7 17 9 6 10 7 11 8 12 16 13
REMARK SMILES IDX 5 14 1 15 2 16 3 17 86 18 4 19 84 20 85 21 9 22 10 23 15 24
REMARK SMILES IDX 11 25 14 26 12 27 13 28 25 29 26 30 27 31 28 32 29 34 30 35
REMARK SMILES IDX 31 36 83 37 32 38 82 39 33 40 34 41 35 42 76 43 36 44 81 45
REMARK SMILES IDX 75 46 77 47 37 48 80 49 74 50 73 51 38 53 64 54 47 55 63 56
REMARK SMILES IDX 48 57 51 58 62 59 78 60 49 61 50 62 61 64 79 65 52 66 39 67
REMARK SMILES IDX 40 68 45 69 41 70 42 71 44 72 46 73 43 74 65 75 66 76 71 77
REMARK SMILES IDX 67 78 68 79 70 80 72 81 69 82 53 83 54 84 59 85 55 86 56 87
REMARK SMILES IDX 58 88 60 89 57 90
REMARK H PARENT 20 8 27 33 77 52 51 63
REMARK Flexibility Score: inf
ROOT
ATOM      1  C   UNL A   1      40.801  20.383  26.914  1.00  0.00     0.002 C 
ENDROOT
BRANCH   1   2
ATOM      2  C   UNL A   1      40.110  21.652  26.377  1.00  0.00     0.002 C 
BRANCH   2   3
ATOM      3  C   UNL A   1      38.644  21.440  25.987  1.00  0.00     0.021 C 
BRANCH   3   4
ATOM      4  C   UNL A   1      37.959  22.764  25.683  1.00  0.00     0.116 C 
BRANCH   4   5
ATOM      5  N   UNL A   1      37.411  22.749  24.353  1.00  0.00    -0.351 N 
ATOM      6  C   UNL A   1      36.252  23.225  23.817  1.00  0.00     0.270 C 
ATOM      7  O   UNL A   1      36.189  23.114  22.592  1.00  0.00    -0.268 OA
ATOM      8  H   UNL A   1      37.991  22.303  23.695  1.00  0.00     0.163 HD
BRANCH   6   9
ATOM      9  C   UNL A   1      35.228  23.835  24.633  1.00  0.00     0.132 A 
ATOM     10  N   UNL A   1      34.000  23.238  24.904  1.00  0.00    -0.227 N 
ATOM     11  N   UNL A   1      33.079  24.137  25.364  1.00  0.00    -0.167 NA
ATOM     12  C   UNL A   1      33.794  25.227  25.638  1.00  0.00     0.094 A 
ATOM     13  C   UNL A   1      35.140  25.048  25.286  1.00  0.00     0.065 A 
BRANCH  10  14
ATOM     14  C   UNL A   1      33.621  21.888  24.709  1.00  0.00     0.068 A 
ATOM     15  C   UNL A   1      32.327  17.795  24.456  1.00  0.00     0.044 C 
ATOM     16  C   UNL A   1      32.788  19.218  24.553  1.00  0.00    -0.051 A 
ATOM     17  C   UNL A   1      33.527  19.659  25.654  1.00  0.00     0.005 A 
ATOM     18  C   UNL A   1      32.490  20.118  23.519  1.00  0.00     0.009 A 
ATOM     19  C   UNL A   1      33.958  20.983  25.725  1.00  0.00     0.029 A 
ATOM     20  C   UNL A   1      32.903  21.461  23.572  1.00  0.00    -0.025 A 
ATOM     21  C   UNL A   1      32.574  22.327  22.384  1.00  0.00     0.047 C 
ENDBRANCH  10  14
BRANCH  12  22
ATOM     22  C   UNL A   1      33.262  26.465  26.178  1.00  0.00     0.002 A 
ATOM     23  C   UNL A   1      31.909  26.518  26.557  1.00  0.00     0.013 A 
ATOM     24  C   UNL A   1      34.031  27.632  26.178  1.00  0.00     0.013 A 
ATOM     25  C   UNL A   1      31.335  27.727  26.948  1.00  0.00     0.040 A 
ATOM     26  C   UNL A   1      33.452  28.842  26.564  1.00  0.00     0.040 A 
ATOM     27  C   UNL A   1      32.115  28.878  26.950  1.00  0.00     0.123 A 
ATOM     28  F   UNL A   1      31.564  30.041  27.318  1.00  0.00    -0.207 F 
ENDBRANCH  12  22
ENDBRANCH   6   9
ENDBRANCH   4   5
ENDBRANCH   3   4
ENDBRANCH   2   3
ENDBRANCH   1   2
BRANCH   1  29
ATOM     29  C   UNL A   1      42.334  20.386  26.803  1.00  0.00     0.021 C 
BRANCH  29  30
ATOM     30  C   UNL A   1      42.803  19.588  25.610  1.00  0.00     0.116 C 
BRANCH  30  31
ATOM     31  N   UNL A   1      44.260  19.633  25.451  1.00  0.00    -0.352 N 
ATOM     32  C   UNL A   1      45.024  20.723  25.085  1.00  0.00     0.251 C 
ATOM     33  H   UNL A   1      44.747  18.795  25.624  1.00  0.00     0.163 HD
ATOM     34  O   UNL A   1      46.169  20.599  24.639  1.00  0.00    -0.269 OA
BRANCH  32  35
ATOM     35  C   UNL A   1      44.469  22.048  25.381  1.00  0.00     0.039 A 
ATOM     36  C   UNL A   1      43.571  22.799  24.625  1.00  0.00     0.014 A 
ATOM     37  C   UNL A   1      45.035  22.662  26.477  1.00  0.00     0.014 A 
ATOM     38  C   UNL A   1      43.367  24.138  25.031  1.00  0.00     0.010 A 
ATOM     39  C   UNL A   1      44.276  23.569  27.117  1.00  0.00     0.010 A 
ATOM     40  C   UNL A   1      43.930  24.568  26.258  1.00  0.00    -0.014 A 
BRANCH  40  41
ATOM     41  C   UNL A   1      43.670  25.801  27.009  1.00  0.00     0.031 A 
ATOM     42  C   UNL A   1      44.744  26.778  26.612  1.00  0.00     0.074 A 
ATOM     43  C   UNL A   1      42.525  26.044  27.732  1.00  0.00     0.049 A 
ATOM     44  N   UNL A   1      45.863  26.921  27.246  1.00  0.00    -0.248 NA
ATOM     45  C   UNL A   1      44.832  27.339  25.234  1.00  0.00     0.031 C 
ATOM     46  C   UNL A   1      41.339  25.201  28.019  1.00  0.00     0.029 A 
ATOM     47  N   UNL A   1      42.191  27.175  28.463  1.00  0.00    -0.354 N 
ATOM     48  C   UNL A   1      46.562  27.902  26.554  1.00  0.00     0.074 A 
ATOM     49  C   UNL A   1      46.064  27.861  25.217  1.00  0.00     0.031 C 
ATOM     50  C   UNL A   1      40.346  25.929  28.612  1.00  0.00     0.029 A 
ATOM     51  C   UNL A   1      40.830  27.270  28.884  1.00  0.00     0.049 A 
ATOM     52  H   UNL A   1      42.853  27.871  28.678  1.00  0.00     0.167 HD
ATOM     53  C   UNL A   1      47.137  28.914  27.262  1.00  0.00     0.037 A 
ATOM     54  C   UNL A   1      40.241  28.300  29.591  1.00  0.00     0.037 A 
ATOM     55  C   UNL A   1      47.201  28.525  28.656  1.00  0.00     0.049 A 
ATOM     56  C   UNL A   1      41.370  29.063  30.197  1.00  0.00     0.074 A 
ATOM     57  C   UNL A   1      47.817  27.514  29.362  1.00  0.00     0.029 A 
ATOM     58  N   UNL A   1      46.101  28.901  29.382  1.00  0.00    -0.354 N 
ATOM     59  N   UNL A   1      42.142  28.531  31.108  1.00  0.00    -0.248 NA
ATOM     60  C   UNL A   1      41.972  30.066  29.326  1.00  0.00     0.031 C 
ATOM     61  C   UNL A   1      46.843  27.064  30.306  1.00  0.00     0.029 A 
ATOM     62  C   UNL A   1      45.743  27.918  30.262  1.00  0.00     0.049 A 
ATOM     63  H   UNL A   1      45.633  29.762  29.284  1.00  0.00     0.167 HD
ATOM     64  C   UNL A   1      43.421  28.749  30.625  1.00  0.00     0.074 A 
ATOM     65  C   UNL A   1      43.242  29.683  29.498  1.00  0.00     0.031 C 
ATOM     66  C   UNL A   1      44.449  27.890  30.908  1.00  0.00     0.037 A 
BRANCH  53  67
ATOM     67  C   UNL A   1      47.108  30.376  26.852  1.00  0.00     0.057 A 
ATOM     68  C   UNL A   1      45.946  31.148  26.627  1.00  0.00     0.134 A 
ATOM     69  C   UNL A   1      48.294  31.125  26.970  1.00  0.00     0.134 A 
ATOM     70  F   UNL A   1      44.720  30.619  26.588  1.00  0.00    -0.206 F 
ATOM     71  C   UNL A   1      45.964  32.544  26.527  1.00  0.00     0.040 A 
ATOM     72  C   UNL A   1      48.316  32.525  26.913  1.00  0.00     0.040 A 
ATOM     73  F   UNL A   1      49.464  30.519  27.222  1.00  0.00    -0.206 F 
ATOM     74  C   UNL A   1      47.148  33.241  26.690  1.00  0.00     0.006 A 
ENDBRANCH  53  67
BRANCH  54  75
ATOM     75  C   UNL A   1      38.924  29.009  29.365  1.00  0.00     0.057 A 
ATOM     76  C   UNL A   1      37.959  29.009  30.381  1.00  0.00     0.134 A 
ATOM     77  C   UNL A   1      38.438  29.408  28.093  1.00  0.00     0.134 A 
ATOM     78  F   UNL A   1      38.280  28.600  31.616  1.00  0.00    -0.206 F 
ATOM     79  C   UNL A   1      36.610  29.335  30.161  1.00  0.00     0.040 A 
ATOM     80  C   UNL A   1      37.085  29.755  27.861  1.00  0.00     0.040 A 
ATOM     81  F   UNL A   1      39.245  29.416  27.020  1.00  0.00    -0.206 F 
ATOM     82  C   UNL A   1      36.161  29.697  28.898  1.00  0.00     0.006 A 
ENDBRANCH  54  75
BRANCH  66  83
ATOM     83  C   UNL A   1      44.235  26.785  31.917  1.00  0.00     0.057 A 
ATOM     84  C   UNL A   1      44.344  27.132  33.265  1.00  0.00     0.134 A 
ATOM     85  C   UNL A   1      44.162  25.410  31.632  1.00  0.00     0.134 A 
ATOM     86  F   UNL A   1      44.489  28.419  33.612  1.00  0.00    -0.206 F 
ATOM     87  C   UNL A   1      44.392  26.174  34.280  1.00  0.00     0.040 A 
ATOM     88  C   UNL A   1      44.177  24.435  32.643  1.00  0.00     0.040 A 
ATOM     89  F   UNL A   1      44.149  24.962  30.372  1.00  0.00    -0.206 F 
ATOM     90  C   UNL A   1      44.301  24.820  33.974  1.00  0.00     0.006 A 
ENDBRANCH  66  83
ENDBRANCH  40  41
ENDBRANCH  32  35
ENDBRANCH  30  31
ENDBRANCH  29  30
ENDBRANCH   1  29
TORSDOF 15
ENDMDL
MODEL 3
REMARK VINA RESULT:     -12.9      4.957      9.913
REMARK SMILES Cc1ccc(-n2nc(-c3ccc(F)cc3)cc2C(=O)NCCCCCCNC(=O)c2ccc(-c3c4nc(c(-c5c(F)cccc5F)c5ccc([nH]5)c(-c5c(F)cccc5F)c5nc(c(-c6c(F)cccc6F)c6ccc3[nH]6)C=C5)C=C4)cc2)c(C)c1
REMARK SMILES IDX 24 1 23 2 22 3 21 4 20 5 18 6 19 7 17 9 6 10 7 11 8 12 16 13
REMARK SMILES IDX 5 14 1 15 2 16 3 17 86 18 4 19 84 20 85 21 9 22 10 23 15 24
REMARK SMILES IDX 11 25 14 26 12 27 13 28 25 29 26 30 27 31 28 32 29 34 30 35
REMARK SMILES IDX 31 36 83 37 32 38 82 39 33 40 34 41 35 42 76 43 36 44 81 45
REMARK SMILES IDX 75 46 77 47 37 48 80 49 74 50 73 51 38 53 64 54 47 55 63 56
REMARK SMILES IDX 48 57 51 58 62 59 78 60 49 61 50 62 61 64 79 65 52 66 39 67
REMARK SMILES IDX 40 68 45 69 41 70 42 71 44 72 46 73 43 74 65 75 66 76 71 77
REMARK SMILES IDX 67 78 68 79 70 80 72 81 69 82 53 83 54 84 59 85 55 86 56 87
REMARK SMILES IDX 58 88 60 89 57 90
REMARK H PARENT 20 8 27 33 77 52 51 63
REMARK Flexibility Score: inf
ROOT
ATOM      1  C   UNL A   1      34.725  33.630  28.010  1.00  0.00     0.002 C 
ENDROOT
BRANCH   1   2
ATOM      2  C   UNL A   1      33.688  32.502  28.177  1.00  0.00     0.002 C 
BRANCH   2   3
ATOM      3  C   UNL A   1      34.269  31.096  27.995  1.00  0.00     0.021 C 
BRANCH   3   4
ATOM      4  C   UNL A   1      33.558  30.349  26.876  1.00  0.00     0.116 C 
BRANCH   4   5
ATOM      5  N   UNL A   1      32.509  29.524  27.414  1.00  0.00    -0.351 N 
ATOM      6  C   UNL A   1      32.125  28.237  27.183  1.00  0.00     0.270 C 
ATOM      7  O   UNL A   1      31.231  27.844  27.933  1.00  0.00    -0.268 OA
ATOM      8  H   UNL A   1      31.956  29.983  28.085  1.00  0.00     0.163 HD
BRANCH   6   9
ATOM      9  C   UNL A   1      32.755  27.422  26.171  1.00  0.00     0.132 A 
ATOM     10  N   UNL A   1      32.183  27.153  24.930  1.00  0.00    -0.227 N 
ATOM     11  N   UNL A   1      32.770  26.085  24.311  1.00  0.00    -0.167 NA
ATOM     12  C   UNL A   1      33.871  25.857  25.026  1.00  0.00     0.094 A 
ATOM     13  C   UNL A   1      33.944  26.722  26.129  1.00  0.00     0.065 A 
BRANCH  10  14
ATOM     14  C   UNL A   1      31.086  27.803  24.312  1.00  0.00     0.068 A 
ATOM     15  C   UNL A   1      27.978  29.838  22.149  1.00  0.00     0.044 C 
ATOM     16  C   UNL A   1      29.068  29.140  22.905  1.00  0.00    -0.051 A 
ATOM     17  C   UNL A   1      30.326  29.728  23.055  1.00  0.00     0.005 A 
ATOM     18  C   UNL A   1      28.821  27.887  23.485  1.00  0.00     0.009 A 
ATOM     19  C   UNL A   1      31.327  29.073  23.770  1.00  0.00     0.029 A 
ATOM     20  C   UNL A   1      29.815  27.201  24.203  1.00  0.00    -0.025 A 
ATOM     21  C   UNL A   1      29.426  25.887  24.828  1.00  0.00     0.047 C 
ENDBRANCH  10  14
BRANCH  12  22
ATOM     22  C   UNL A   1      34.850  24.822  24.750  1.00  0.00     0.002 A 
ATOM     23  C   UNL A   1      34.772  24.116  23.536  1.00  0.00     0.013 A 
ATOM     24  C   UNL A   1      35.760  24.421  25.732  1.00  0.00     0.013 A 
ATOM     25  C   UNL A   1      35.609  23.026  23.303  1.00  0.00     0.040 A 
ATOM     26  C   UNL A   1      36.594  23.326  25.497  1.00  0.00     0.040 A 
ATOM     27  C   UNL A   1      36.515  22.643  24.285  1.00  0.00     0.123 A 
ATOM     28  F   UNL A   1      37.315  21.593  24.066  1.00  0.00    -0.207 F 
ENDBRANCH  12  22
ENDBRANCH   6   9
ENDBRANCH   4   5
ENDBRANCH   3   4
ENDBRANCH   2   3
ENDBRANCH   1   2
BRANCH   1  29
ATOM     29  C   UNL A   1      34.248  35.018  28.464  1.00  0.00     0.021 C 
BRANCH  29  30
ATOM     30  C   UNL A   1      33.010  34.923  29.324  1.00  0.00     0.116 C 
BRANCH  30  31
ATOM     31  N   UNL A   1      33.138  35.692  30.567  1.00  0.00    -0.352 N 
ATOM     32  C   UNL A   1      33.653  35.251  31.768  1.00  0.00     0.251 C 
ATOM     33  H   UNL A   1      32.822  36.624  30.541  1.00  0.00     0.163 HD
ATOM     34  O   UNL A   1      33.408  35.823  32.835  1.00  0.00    -0.269 OA
BRANCH  32  35
ATOM     35  C   UNL A   1      34.622  34.151  31.708  1.00  0.00     0.039 A 
ATOM     36  C   UNL A   1      34.389  32.784  31.837  1.00  0.00     0.014 A 
ATOM     37  C   UNL A   1      35.937  34.563  31.661  1.00  0.00     0.014 A 
ATOM     38  C   UNL A   1      35.529  31.956  31.956  1.00  0.00     0.010 A 
ATOM     39  C   UNL A   1      36.812  33.718  31.089  1.00  0.00     0.010 A 
ATOM     40  C   UNL A   1      36.809  32.530  31.757  1.00  0.00    -0.014 A 
BRANCH  40  41
ATOM     41  C   UNL A   1      38.103  31.861  31.586  1.00  0.00     0.031 A 
ATOM     42  C   UNL A   1      38.722  31.773  32.956  1.00  0.00     0.074 A 
ATOM     43  C   UNL A   1      38.512  31.244  30.427  1.00  0.00     0.049 A 
ATOM     44  N   UNL A   1      39.526  32.661  33.445  1.00  0.00    -0.248 NA
ATOM     45  C   UNL A   1      38.142  30.922  34.032  1.00  0.00     0.031 C 
ATOM     46  C   UNL A   1      37.878  31.129  29.091  1.00  0.00     0.029 A 
ATOM     47  N   UNL A   1      39.706  30.584  30.177  1.00  0.00    -0.354 N 
ATOM     48  C   UNL A   1      39.853  32.210  34.718  1.00  0.00     0.074 A 
ATOM     49  C   UNL A   1      38.764  31.382  35.125  1.00  0.00     0.031 C 
ATOM     50  C   UNL A   1      38.553  30.244  28.297  1.00  0.00     0.029 A 
ATOM     51  C   UNL A   1      39.752  29.802  28.983  1.00  0.00     0.049 A 
ATOM     52  H   UNL A   1      40.477  30.652  30.786  1.00  0.00     0.167 HD
ATOM     53  C   UNL A   1      41.163  32.210  35.092  1.00  0.00     0.037 A 
ATOM     54  C   UNL A   1      40.804  29.032  28.526  1.00  0.00     0.037 A 
ATOM     55  C   UNL A   1      41.904  33.055  34.180  1.00  0.00     0.049 A 
ATOM     56  C   UNL A   1      42.004  29.515  29.268  1.00  0.00     0.074 A 
ATOM     57  C   UNL A   1      41.872  34.391  33.837  1.00  0.00     0.029 A 
ATOM     58  N   UNL A   1      42.414  32.383  33.099  1.00  0.00    -0.354 N 
ATOM     59  N   UNL A   1      42.472  30.723  29.096  1.00  0.00    -0.248 NA
ATOM     60  C   UNL A   1      42.196  28.914  30.584  1.00  0.00     0.031 C 
ATOM     61  C   UNL A   1      42.014  34.420  32.416  1.00  0.00     0.029 A 
ATOM     62  C   UNL A   1      42.299  33.133  31.963  1.00  0.00     0.049 A 
ATOM     63  H   UNL A   1      42.811  31.482  33.138  1.00  0.00     0.167 HD
ATOM     64  C   UNL A   1      42.572  31.225  30.383  1.00  0.00     0.074 A 
ATOM     65  C   UNL A   1      42.356  30.058  31.258  1.00  0.00     0.031 C 
ATOM     66  C   UNL A   1      42.438  32.563  30.641  1.00  0.00     0.037 A 
BRANCH  53  67
ATOM     67  C   UNL A   1      41.841  31.084  35.852  1.00  0.00     0.057 A 
ATOM     68  C   UNL A   1      41.882  29.728  35.457  1.00  0.00     0.134 A 
ATOM     69  C   UNL A   1      42.743  31.422  36.880  1.00  0.00     0.134 A 
ATOM     70  F   UNL A   1      41.171  29.249  34.433  1.00  0.00    -0.206 F 
ATOM     71  C   UNL A   1      42.746  28.790  36.034  1.00  0.00     0.040 A 
ATOM     72  C   UNL A   1      43.640  30.499  37.435  1.00  0.00     0.040 A 
ATOM     73  F   UNL A   1      42.833  32.684  37.324  1.00  0.00    -0.206 F 
ATOM     74  C   UNL A   1      43.644  29.176  37.013  1.00  0.00     0.006 A 
ENDBRANCH  53  67
BRANCH  54  75
ATOM     75  C   UNL A   1      40.812  27.625  27.970  1.00  0.00     0.057 A 
ATOM     76  C   UNL A   1      41.372  27.387  26.708  1.00  0.00     0.134 A 
ATOM     77  C   UNL A   1      40.014  26.563  28.469  1.00  0.00     0.134 A 
ATOM     78  F   UNL A   1      42.102  28.334  26.104  1.00  0.00    -0.206 F 
ATOM     79  C   UNL A   1      41.136  26.214  25.970  1.00  0.00     0.040 A 
ATOM     80  C   UNL A   1      39.781  25.370  27.743  1.00  0.00     0.040 A 
ATOM     81  F   UNL A   1      39.384  26.671  29.649  1.00  0.00    -0.206 F 
ATOM     82  C   UNL A   1      40.329  25.204  26.476  1.00  0.00     0.006 A 
ENDBRANCH  54  75
BRANCH  66  83
ATOM     83  C   UNL A   1      42.365  33.537  29.488  1.00  0.00     0.057 A 
ATOM     84  C   UNL A   1      43.571  33.877  28.872  1.00  0.00     0.134 A 
ATOM     85  C   UNL A   1      41.242  34.301  29.122  1.00  0.00     0.134 A 
ATOM     86  F   UNL A   1      44.699  33.242  29.221  1.00  0.00    -0.206 F 
ATOM     87  C   UNL A   1      43.670  34.925  27.954  1.00  0.00     0.040 A 
ATOM     88  C   UNL A   1      41.319  35.337  28.177  1.00  0.00     0.040 A 
ATOM     89  F   UNL A   1      40.058  34.123  29.716  1.00  0.00    -0.206 F 
ATOM     90  C   UNL A   1      42.542  35.656  27.596  1.00  0.00     0.006 A 
ENDBRANCH  66  83
ENDBRANCH  40  41
ENDBRANCH  32  35
ENDBRANCH  30  31
ENDBRANCH  29  30
ENDBRANCH   1  29
TORSDOF 15
ENDMDL
