MODEL 1
REMARK VINA RESULT:     -11.9      0.000      0.000
REMARK SMILES Cc1c(CC(=O)N[C@@H](CCO)C(=O)NCCCCCCNC(=O)c2ccc(-c3c4nc(c(-c5c(F)cccc5F)c5ccc([nH]5)c(-c5c(F)cccc5F)c5nc(c(-c6c(F)cccc6F)c6ccc3[nH]6)C=C5)C=C4)cc2)cc(-c2ccc(S(C)(=O)=O)cc2)n1-c1ccc(F)cc1
REMARK SMILES IDX 16 1 15 2 14 3 12 4 13 5 8 7 7 8 5 9 6 10 4 12 3 13 1 14
REMARK SMILES IDX 2 15 90 16 78 17 79 18 91 19 92 20 97 21 93 22 96 23 94 24
REMARK SMILES IDX 95 25 80 26 81 27 89 28 82 29 88 30 83 31 84 32 85 33 86 34
REMARK SMILES IDX 87 35 9 36 10 37 11 38 17 40 18 41 19 42 20 43 21 44 22 45
REMARK SMILES IDX 23 47 24 48 25 49 77 50 26 51 76 52 27 53 28 54 29 55 70 56
REMARK SMILES IDX 30 57 75 58 69 59 71 60 31 61 74 62 68 63 67 64 32 66 58 67
REMARK SMILES IDX 41 68 57 69 42 70 45 71 56 72 72 73 43 74 44 75 55 77 73 78
REMARK SMILES IDX 46 79 33 80 34 81 39 82 35 83 36 84 38 85 40 86 37 87 59 88
REMARK SMILES IDX 60 89 65 90 61 91 62 92 64 93 66 94 63 95 47 96 48 97 53 98
REMARK SMILES IDX 49 99 50 100 52 101 54 102 51 103
REMARK H PARENT 14 6 7 11 11 39 21 46 71 65 45 76
REMARK Flexibility Score: inf
ROOT
ATOM      1  C   UNL A   1      32.722  30.049  25.590  1.00  0.00     0.021 C 
ENDROOT
BRANCH   1   2
ATOM      2  C   UNL A   1      31.352  29.535  25.191  1.00  0.00     0.116 C 
BRANCH   2   3
ATOM      3  N   UNL A   1      31.029  29.853  23.819  1.00  0.00    -0.354 N 
ATOM      4  C   UNL A   1      30.821  29.054  22.740  1.00  0.00     0.242 C 
ATOM      5  O   UNL A   1      30.405  29.606  21.716  1.00  0.00    -0.273 OA
ATOM      6  H   UNL A   1      30.946  30.817  23.635  1.00  0.00     0.163 HD
BRANCH   4   7
ATOM      7  C   UNL A   1      30.935  27.521  22.801  1.00  0.00     0.173 C 
BRANCH   7   8
ATOM      8  N   UNL A   1      29.693  26.850  23.198  1.00  0.00    -0.344 N 
ATOM      9  C   UNL A   1      29.359  26.340  24.423  1.00  0.00     0.225 C 
ATOM     10  O   UNL A   1      28.193  25.978  24.593  1.00  0.00    -0.275 OA
ATOM     11  H   UNL A   1      29.012  26.755  22.494  1.00  0.00     0.164 HD
BRANCH   9  12
ATOM     12  C   UNL A   1      30.398  26.229  25.532  1.00  0.00     0.137 C 
BRANCH  12  13
ATOM     13  C   UNL A   1      31.403  25.148  25.255  1.00  0.00    -0.017 A 
ATOM     14  C   UNL A   1      33.605  26.489  25.483  1.00  0.00     0.065 C 
ATOM     15  C   UNL A   1      32.787  25.252  25.293  1.00  0.00     0.024 A 
ATOM     16  N   UNL A   1      33.325  23.988  25.072  1.00  0.00    -0.314 N 
ATOM     17  C   UNL A   1      31.098  23.802  24.931  1.00  0.00     0.033 A 
ATOM     18  C   UNL A   1      32.278  23.085  24.870  1.00  0.00     0.053 A 
BRANCH  16  19
ATOM     19  C   UNL A   1      34.707  23.655  25.069  1.00  0.00     0.046 A 
ATOM     20  C   UNL A   1      35.380  23.531  23.845  1.00  0.00     0.029 A 
ATOM     21  C   UNL A   1      35.364  23.378  26.276  1.00  0.00     0.029 A 
ATOM     22  C   UNL A   1      36.708  23.113  23.828  1.00  0.00     0.041 A 
ATOM     23  C   UNL A   1      36.692  22.948  26.247  1.00  0.00     0.041 A 
ATOM     24  C   UNL A   1      37.348  22.817  25.026  1.00  0.00     0.123 A 
ATOM     25  F   UNL A   1      38.617  22.388  25.004  1.00  0.00    -0.207 F 
ENDBRANCH  16  19
BRANCH  18  26
ATOM     26  C   UNL A   1      32.426  21.633  24.706  1.00  0.00    -0.001 A 
ATOM     27  C   UNL A   1      32.741  20.799  25.792  1.00  0.00     0.011 A 
ATOM     28  C   UNL A   1      32.261  21.064  23.437  1.00  0.00     0.011 A 
ATOM     29  C   UNL A   1      32.956  19.431  25.601  1.00  0.00     0.021 A 
ATOM     30  C   UNL A   1      32.470  19.697  23.238  1.00  0.00     0.021 A 
ATOM     31  C   UNL A   1      32.841  18.894  24.318  1.00  0.00     0.067 A 
BRANCH  31  32
ATOM     32  S   UNL A   1      33.142  17.161  24.064  1.00  0.00     0.175 S 
ATOM     33  C   UNL A   1      34.823  16.934  24.581  1.00  0.00     0.163 C 
ATOM     34  O   UNL A   1      32.279  16.442  24.991  1.00  0.00    -0.224 OA
ATOM     35  O   UNL A   1      33.084  16.906  22.642  1.00  0.00    -0.224 OA
ENDBRANCH  31  32
ENDBRANCH  18  26
ENDBRANCH  12  13
ENDBRANCH   9  12
ENDBRANCH   7   8
BRANCH   7  36
ATOM     36  C   UNL A   1      31.656  26.865  21.604  1.00  0.00     0.063 C 
BRANCH  36  37
ATOM     37  C   UNL A   1      32.677  25.762  21.851  1.00  0.00     0.158 C 
BRANCH  37  38
ATOM     38  O   UNL A   1      32.145  24.457  21.689  1.00  0.00    -0.396 OA
ATOM     39  H   UNL A   1      32.454  24.084  20.848  1.00  0.00     0.210 HD
ENDBRANCH  37  38
ENDBRANCH  36  37
ENDBRANCH   7  36
ENDBRANCH   4   7
ENDBRANCH   2   3
ENDBRANCH   1   2
BRANCH   1  40
ATOM     40  C   UNL A   1      32.971  30.076  27.100  1.00  0.00     0.002 C 
BRANCH  40  41
ATOM     41  C   UNL A   1      33.993  31.097  27.620  1.00  0.00     0.002 C 
BRANCH  41  42
ATOM     42  C   UNL A   1      33.478  32.456  28.137  1.00  0.00     0.021 C 
BRANCH  42  43
ATOM     43  C   UNL A   1      34.396  33.304  29.034  1.00  0.00     0.116 C 
BRANCH  43  44
ATOM     44  N   UNL A   1      34.451  32.932  30.425  1.00  0.00    -0.352 N 
ATOM     45  C   UNL A   1      35.380  32.082  31.010  1.00  0.00     0.251 C 
ATOM     46  H   UNL A   1      33.763  33.316  31.017  1.00  0.00     0.163 HD
ATOM     47  O   UNL A   1      35.396  31.985  32.234  1.00  0.00    -0.269 OA
BRANCH  45  48
ATOM     48  C   UNL A   1      36.306  31.222  30.174  1.00  0.00     0.039 A 
ATOM     49  C   UNL A   1      36.411  29.874  30.481  1.00  0.00     0.014 A 
ATOM     50  C   UNL A   1      37.241  31.720  29.248  1.00  0.00     0.014 A 
ATOM     51  C   UNL A   1      37.392  29.050  29.846  1.00  0.00     0.010 A 
ATOM     52  C   UNL A   1      38.292  30.889  28.662  1.00  0.00     0.010 A 
ATOM     53  C   UNL A   1      38.422  29.513  28.948  1.00  0.00    -0.014 A 
BRANCH  53  54
ATOM     54  C   UNL A   1      39.795  28.640  28.937  1.00  0.00     0.031 A 
ATOM     55  C   UNL A   1      40.338  28.953  30.294  1.00  0.00     0.074 A 
ATOM     56  C   UNL A   1      40.639  27.854  28.141  1.00  0.00     0.049 A 
ATOM     57  N   UNL A   1      40.562  30.195  30.625  1.00  0.00    -0.248 NA
ATOM     58  C   UNL A   1      40.224  28.029  31.424  1.00  0.00     0.031 C 
ATOM     59  C   UNL A   1      40.522  27.562  26.701  1.00  0.00     0.029 A 
ATOM     60  N   UNL A   1      41.831  27.099  28.429  1.00  0.00    -0.354 N 
ATOM     61  C   UNL A   1      40.919  30.179  31.949  1.00  0.00     0.074 A 
ATOM     62  C   UNL A   1      40.441  28.887  32.428  1.00  0.00     0.031 C 
ATOM     63  C   UNL A   1      41.440  26.639  26.284  1.00  0.00     0.029 A 
ATOM     64  C   UNL A   1      42.330  26.232  27.375  1.00  0.00     0.049 A 
ATOM     65  H   UNL A   1      42.288  27.168  29.297  1.00  0.00     0.167 HD
ATOM     66  C   UNL A   1      42.111  30.779  32.229  1.00  0.00     0.037 A 
ATOM     67  C   UNL A   1      43.396  25.324  27.337  1.00  0.00     0.037 A 
ATOM     68  C   UNL A   1      43.179  29.822  32.332  1.00  0.00     0.049 A 
ATOM     69  C   UNL A   1      44.324  25.734  28.392  1.00  0.00     0.074 A 
ATOM     70  C   UNL A   1      43.271  28.585  32.941  1.00  0.00     0.029 A 
ATOM     71  N   UNL A   1      44.150  29.857  31.356  1.00  0.00    -0.354 N 
ATOM     72  N   UNL A   1      45.154  26.715  28.219  1.00  0.00    -0.248 NA
ATOM     73  C   UNL A   1      44.454  25.008  29.649  1.00  0.00     0.031 C 
ATOM     74  C   UNL A   1      43.869  27.764  31.965  1.00  0.00     0.029 A 
ATOM     75  C   UNL A   1      44.515  28.570  31.038  1.00  0.00     0.049 A 
ATOM     76  H   UNL A   1      44.523  30.673  30.951  1.00  0.00     0.167 HD
ATOM     77  C   UNL A   1      45.484  27.050  29.488  1.00  0.00     0.074 A 
ATOM     78  C   UNL A   1      45.285  25.845  30.273  1.00  0.00     0.031 C 
ATOM     79  C   UNL A   1      45.242  28.339  29.821  1.00  0.00     0.037 A 
BRANCH  66  80
ATOM     80  C   UNL A   1      42.268  32.146  31.628  1.00  0.00     0.057 A 
ATOM     81  C   UNL A   1      42.134  33.264  32.450  1.00  0.00     0.134 A 
ATOM     82  C   UNL A   1      42.430  32.383  30.249  1.00  0.00     0.134 A 
ATOM     83  F   UNL A   1      42.043  33.119  33.781  1.00  0.00    -0.206 F 
ATOM     84  C   UNL A   1      42.087  34.557  31.921  1.00  0.00     0.040 A 
ATOM     85  C   UNL A   1      42.323  33.661  29.702  1.00  0.00     0.040 A 
ATOM     86  F   UNL A   1      42.714  31.381  29.401  1.00  0.00    -0.206 F 
ATOM     87  C   UNL A   1      42.142  34.754  30.541  1.00  0.00     0.006 A 
ENDBRANCH  66  80
BRANCH  67  88
ATOM     88  C   UNL A   1      44.091  24.169  26.545  1.00  0.00     0.057 A 
ATOM     89  C   UNL A   1      43.723  22.791  26.752  1.00  0.00     0.134 A 
ATOM     90  C   UNL A   1      44.722  24.374  25.312  1.00  0.00     0.134 A 
ATOM     91  F   UNL A   1      43.154  22.380  27.892  1.00  0.00    -0.206 F 
ATOM     92  C   UNL A   1      43.848  21.768  25.787  1.00  0.00     0.040 A 
ATOM     93  C   UNL A   1      44.893  23.337  24.348  1.00  0.00     0.040 A 
ATOM     94  F   UNL A   1      45.112  25.603  24.954  1.00  0.00    -0.206 F 
ATOM     95  C   UNL A   1      44.420  22.042  24.563  1.00  0.00     0.006 A 
ENDBRANCH  67  88
BRANCH  79  96
ATOM     96  C   UNL A   1      45.615  29.393  28.799  1.00  0.00     0.057 A 
ATOM     97  C   UNL A   1      44.854  29.812  27.685  1.00  0.00     0.134 A 
ATOM     98  C   UNL A   1      46.883  29.970  28.918  1.00  0.00     0.134 A 
ATOM     99  F   UNL A   1      43.586  29.420  27.492  1.00  0.00    -0.206 F 
ATOM    100  C   UNL A   1      45.369  30.685  26.716  1.00  0.00     0.040 A 
ATOM    101  C   UNL A   1      47.389  30.881  27.986  1.00  0.00     0.040 A 
ATOM    102  F   UNL A   1      47.664  29.660  29.964  1.00  0.00    -0.206 F 
ATOM    103  C   UNL A   1      46.641  31.223  26.866  1.00  0.00     0.006 A 
ENDBRANCH  79  96
ENDBRANCH  53  54
ENDBRANCH  45  48
ENDBRANCH  43  44
ENDBRANCH  42  43
ENDBRANCH  41  42
ENDBRANCH  40  41
ENDBRANCH   1  40
TORSDOF 22
ENDMDL
MODEL 2
REMARK VINA RESULT:     -10.7      3.386      7.306
REMARK SMILES Cc1c(CC(=O)N[C@@H](CCO)C(=O)NCCCCCCNC(=O)c2ccc(-c3c4nc(c(-c5c(F)cccc5F)c5ccc([nH]5)c(-c5c(F)cccc5F)c5nc(c(-c6c(F)cccc6F)c6ccc3[nH]6)C=C5)C=C4)cc2)cc(-c2ccc(S(C)(=O)=O)cc2)n1-c1ccc(F)cc1
REMARK SMILES IDX 16 1 15 2 14 3 12 4 13 5 8 7 7 8 5 9 6 10 4 12 3 13 1 14
REMARK SMILES IDX 2 15 90 16 78 17 79 18 91 19 92 20 97 21 93 22 96 23 94 24
REMARK SMILES IDX 95 25 80 26 81 27 89 28 82 29 88 30 83 31 84 32 85 33 86 34
REMARK SMILES IDX 87 35 9 36 10 37 11 38 17 40 18 41 19 42 20 43 21 44 22 45
REMARK SMILES IDX 23 47 24 48 25 49 77 50 26 51 76 52 27 53 28 54 29 55 70 56
REMARK SMILES IDX 30 57 75 58 69 59 71 60 31 61 74 62 68 63 67 64 32 66 58 67
REMARK SMILES IDX 41 68 57 69 42 70 45 71 56 72 72 73 43 74 44 75 55 77 73 78
REMARK SMILES IDX 46 79 33 80 34 81 39 82 35 83 36 84 38 85 40 86 37 87 59 88
REMARK SMILES IDX 60 89 65 90 61 91 62 92 64 93 66 94 63 95 47 96 48 97 53 98
REMARK SMILES IDX 49 99 50 100 52 101 54 102 51 103
REMARK H PARENT 14 6 7 11 11 39 21 46 71 65 45 76
REMARK Flexibility Score: inf
ROOT
ATOM      1  C   UNL A   1      33.002  31.080  27.027  1.00  0.00     0.021 C 
ENDROOT
BRANCH   1   2
ATOM      2  C   UNL A   1      32.627  29.996  26.036  1.00  0.00     0.116 C 
BRANCH   2   3
ATOM      3  N   UNL A   1      31.488  30.365  25.228  1.00  0.00    -0.354 N 
ATOM      4  C   UNL A   1      30.821  29.688  24.257  1.00  0.00     0.242 C 
ATOM      5  O   UNL A   1      29.777  30.202  23.843  1.00  0.00    -0.273 OA
ATOM      6  H   UNL A   1      31.133  31.265  25.414  1.00  0.00     0.163 HD
BRANCH   4   7
ATOM      7  C   UNL A   1      31.231  28.280  23.790  1.00  0.00     0.173 C 
BRANCH   7   8
ATOM      8  N   UNL A   1      30.095  27.392  23.521  1.00  0.00    -0.344 N 
ATOM      9  C   UNL A   1      29.583  26.406  24.319  1.00  0.00     0.225 C 
ATOM     10  O   UNL A   1      28.511  25.897  23.982  1.00  0.00    -0.275 OA
ATOM     11  H   UNL A   1      29.644  27.522  22.656  1.00  0.00     0.164 HD
BRANCH   9  12
ATOM     12  C   UNL A   1      30.317  25.961  25.577  1.00  0.00     0.137 C 
BRANCH  12  13
ATOM     13  C   UNL A   1      31.335  24.897  25.288  1.00  0.00    -0.017 A 
ATOM     14  C   UNL A   1      33.517  26.276  25.480  1.00  0.00     0.065 C 
ATOM     15  C   UNL A   1      32.718  25.024  25.305  1.00  0.00     0.024 A 
ATOM     16  N   UNL A   1      33.274  23.769  25.079  1.00  0.00    -0.314 N 
ATOM     17  C   UNL A   1      31.050  23.545  24.972  1.00  0.00     0.033 A 
ATOM     18  C   UNL A   1      32.241  22.848  24.894  1.00  0.00     0.053 A 
BRANCH  16  19
ATOM     19  C   UNL A   1      34.662  23.460  25.056  1.00  0.00     0.046 A 
ATOM     20  C   UNL A   1      35.335  23.419  23.827  1.00  0.00     0.029 A 
ATOM     21  C   UNL A   1      35.325  23.125  26.244  1.00  0.00     0.029 A 
ATOM     22  C   UNL A   1      36.670  23.025  23.785  1.00  0.00     0.041 A 
ATOM     23  C   UNL A   1      36.660  22.720  26.190  1.00  0.00     0.041 A 
ATOM     24  C   UNL A   1      37.316  22.671  24.963  1.00  0.00     0.123 A 
ATOM     25  F   UNL A   1      38.592  22.265  24.915  1.00  0.00    -0.207 F 
ENDBRANCH  16  19
BRANCH  18  26
ATOM     26  C   UNL A   1      32.411  21.399  24.731  1.00  0.00    -0.001 A 
ATOM     27  C   UNL A   1      32.680  20.563  25.827  1.00  0.00     0.011 A 
ATOM     28  C   UNL A   1      32.315  20.835  23.452  1.00  0.00     0.011 A 
ATOM     29  C   UNL A   1      32.918  19.198  25.641  1.00  0.00     0.021 A 
ATOM     30  C   UNL A   1      32.547  19.471  23.258  1.00  0.00     0.021 A 
ATOM     31  C   UNL A   1      32.872  18.665  24.351  1.00  0.00     0.067 A 
BRANCH  31  32
ATOM     32  S   UNL A   1      33.203  16.937  24.104  1.00  0.00     0.175 S 
ATOM     33  C   UNL A   1      34.820  16.704  24.794  1.00  0.00     0.163 C 
ATOM     34  O   UNL A   1      32.248  16.203  24.923  1.00  0.00    -0.224 OA
ATOM     35  O   UNL A   1      33.298  16.704  22.681  1.00  0.00    -0.224 OA
ENDBRANCH  31  32
ENDBRANCH  18  26
ENDBRANCH  12  13
ENDBRANCH   9  12
ENDBRANCH   7   8
BRANCH   7  36
ATOM     36  C   UNL A   1      32.337  28.239  22.714  1.00  0.00     0.063 C 
BRANCH  36  37
ATOM     37  C   UNL A   1      32.594  26.950  21.945  1.00  0.00     0.158 C 
BRANCH  37  38
ATOM     38  O   UNL A   1      31.547  26.611  21.050  1.00  0.00    -0.396 OA
ATOM     39  H   UNL A   1      31.427  27.327  20.407  1.00  0.00     0.210 HD
ENDBRANCH  37  38
ENDBRANCH  36  37
ENDBRANCH   7  36
ENDBRANCH   4   7
ENDBRANCH   2   3
ENDBRANCH   1   2
BRANCH   1  40
ATOM     40  C   UNL A   1      32.101  32.317  26.982  1.00  0.00     0.002 C 
BRANCH  40  41
ATOM     41  C   UNL A   1      32.624  33.586  27.669  1.00  0.00     0.002 C 
BRANCH  41  42
ATOM     42  C   UNL A   1      33.973  33.518  28.413  1.00  0.00     0.021 C 
BRANCH  42  43
ATOM     43  C   UNL A   1      34.234  34.501  29.566  1.00  0.00     0.116 C 
BRANCH  43  44
ATOM     44  N   UNL A   1      33.093  34.863  30.368  1.00  0.00    -0.352 N 
ATOM     45  C   UNL A   1      33.036  34.868  31.755  1.00  0.00     0.251 C 
ATOM     46  H   UNL A   1      32.277  35.131  29.887  1.00  0.00     0.163 HD
ATOM     47  O   UNL A   1      32.046  35.352  32.299  1.00  0.00    -0.269 OA
BRANCH  45  48
ATOM     48  C   UNL A   1      34.117  34.222  32.598  1.00  0.00     0.039 A 
ATOM     49  C   UNL A   1      34.682  34.960  33.627  1.00  0.00     0.014 A 
ATOM     50  C   UNL A   1      34.755  33.007  32.284  1.00  0.00     0.014 A 
ATOM     51  C   UNL A   1      35.820  34.473  34.342  1.00  0.00     0.010 A 
ATOM     52  C   UNL A   1      35.966  32.552  32.967  1.00  0.00     0.010 A 
ATOM     53  C   UNL A   1      36.562  33.276  34.022  1.00  0.00    -0.014 A 
BRANCH  53  54
ATOM     54  C   UNL A   1      38.138  33.295  34.425  1.00  0.00     0.031 A 
ATOM     55  C   UNL A   1      38.774  33.281  33.072  1.00  0.00     0.074 A 
ATOM     56  C   UNL A   1      39.042  33.213  35.492  1.00  0.00     0.049 A 
ATOM     57  N   UNL A   1      38.502  32.310  32.244  1.00  0.00    -0.248 NA
ATOM     58  C   UNL A   1      39.325  34.484  32.445  1.00  0.00     0.031 C 
ATOM     59  C   UNL A   1      38.751  32.971  36.917  1.00  0.00     0.029 A 
ATOM     60  N   UNL A   1      40.475  33.335  35.572  1.00  0.00    -0.354 N 
ATOM     61  C   UNL A   1      39.111  32.636  31.060  1.00  0.00     0.074 A 
ATOM     62  C   UNL A   1      39.362  34.068  31.174  1.00  0.00     0.031 C 
ATOM     63  C   UNL A   1      39.863  33.101  37.701  1.00  0.00     0.029 A 
ATOM     64  C   UNL A   1      41.056  33.391  36.902  1.00  0.00     0.049 A 
ATOM     65  H   UNL A   1      41.035  33.377  34.763  1.00  0.00     0.167 HD
ATOM     66  C   UNL A   1      39.952  31.683  30.566  1.00  0.00     0.037 A 
ATOM     67  C   UNL A   1      42.375  33.576  37.340  1.00  0.00     0.037 A 
ATOM     68  C   UNL A   1      41.323  31.958  30.897  1.00  0.00     0.049 A 
ATOM     69  C   UNL A   1      43.238  33.187  36.224  1.00  0.00     0.074 A 
ATOM     70  C   UNL A   1      42.076  33.117  30.878  1.00  0.00     0.029 A 
ATOM     71  N   UNL A   1      41.942  31.098  31.777  1.00  0.00    -0.354 N 
ATOM     72  N   UNL A   1      43.497  31.943  35.971  1.00  0.00    -0.248 NA
ATOM     73  C   UNL A   1      43.944  34.162  35.400  1.00  0.00     0.031 C 
ATOM     74  C   UNL A   1      42.741  33.116  32.120  1.00  0.00     0.029 A 
ATOM     75  C   UNL A   1      42.751  31.823  32.621  1.00  0.00     0.049 A 
ATOM     76  H   UNL A   1      41.823  30.121  31.799  1.00  0.00     0.167 HD
ATOM     77  C   UNL A   1      43.919  31.983  34.685  1.00  0.00     0.074 A 
ATOM     78  C   UNL A   1      44.442  33.324  34.489  1.00  0.00     0.031 C 
ATOM     79  C   UNL A   1      43.218  31.203  33.830  1.00  0.00     0.037 A 
BRANCH  66  80
ATOM     80  C   UNL A   1      39.362  30.302  30.526  1.00  0.00     0.057 A 
ATOM     81  C   UNL A   1      39.399  29.519  31.678  1.00  0.00     0.134 A 
ATOM     82  C   UNL A   1      38.868  29.694  29.355  1.00  0.00     0.134 A 
ATOM     83  F   UNL A   1      39.793  30.050  32.846  1.00  0.00    -0.206 F 
ATOM     84  C   UNL A   1      39.034  28.170  31.655  1.00  0.00     0.040 A 
ATOM     85  C   UNL A   1      38.560  28.335  29.304  1.00  0.00     0.040 A 
ATOM     86  F   UNL A   1      38.656  30.407  28.238  1.00  0.00    -0.206 F 
ATOM     87  C   UNL A   1      38.651  27.565  30.458  1.00  0.00     0.006 A 
ENDBRANCH  66  80
BRANCH  67  88
ATOM     88  C   UNL A   1      43.310  33.861  38.559  1.00  0.00     0.057 A 
ATOM     89  C   UNL A   1      43.651  35.207  38.945  1.00  0.00     0.134 A 
ATOM     90  C   UNL A   1      43.486  32.946  39.604  1.00  0.00     0.134 A 
ATOM     91  F   UNL A   1      43.599  36.222  38.072  1.00  0.00    -0.206 F 
ATOM     92  C   UNL A   1      43.995  35.610  40.254  1.00  0.00     0.040 A 
ATOM     93  C   UNL A   1      43.876  33.337  40.919  1.00  0.00     0.040 A 
ATOM     94  F   UNL A   1      43.196  31.652  39.419  1.00  0.00    -0.206 F 
ATOM     95  C   UNL A   1      44.090  34.672  41.260  1.00  0.00     0.006 A 
ENDBRANCH  67  88
BRANCH  79  96
ATOM     96  C   UNL A   1      42.861  29.811  34.307  1.00  0.00     0.057 A 
ATOM     97  C   UNL A   1      41.803  29.447  35.170  1.00  0.00     0.134 A 
ATOM     98  C   UNL A   1      43.710  28.770  33.916  1.00  0.00     0.134 A 
ATOM     99  F   UNL A   1      40.854  30.316  35.550  1.00  0.00    -0.206 F 
ATOM    100  C   UNL A   1      41.663  28.144  35.670  1.00  0.00     0.040 A 
ATOM    101  C   UNL A   1      43.550  27.456  34.367  1.00  0.00     0.040 A 
ATOM    102  F   UNL A   1      44.721  29.013  33.069  1.00  0.00    -0.206 F 
ATOM    103  C   UNL A   1      42.538  27.144  35.267  1.00  0.00     0.006 A 
ENDBRANCH  79  96
ENDBRANCH  53  54
ENDBRANCH  45  48
ENDBRANCH  43  44
ENDBRANCH  42  43
ENDBRANCH  41  42
ENDBRANCH  40  41
ENDBRANCH   1  40
TORSDOF 22
ENDMDL
MODEL 3
REMARK VINA RESULT:     -10.5      1.743      2.222
REMARK SMILES Cc1c(CC(=O)N[C@@H](CCO)C(=O)NCCCCCCNC(=O)c2ccc(-c3c4nc(c(-c5c(F)cccc5F)c5ccc([nH]5)c(-c5c(F)cccc5F)c5nc(c(-c6c(F)cccc6F)c6ccc3[nH]6)C=C5)C=C4)cc2)cc(-c2ccc(S(C)(=O)=O)cc2)n1-c1ccc(F)cc1
REMARK SMILES IDX 16 1 15 2 14 3 12 4 13 5 8 7 7 8 5 9 6 10 4 12 3 13 1 14
REMARK SMILES IDX 2 15 90 16 78 17 79 18 91 19 92 20 97 21 93 22 96 23 94 24
REMARK SMILES IDX 95 25 80 26 81 27 89 28 82 29 88 30 83 31 84 32 85 33 86 34
REMARK SMILES IDX 87 35 9 36 10 37 11 38 17 40 18 41 19 42 20 43 21 44 22 45
REMARK SMILES IDX 23 47 24 48 25 49 77 50 26 51 76 52 27 53 28 54 29 55 70 56
REMARK SMILES IDX 30 57 75 58 69 59 71 60 31 61 74 62 68 63 67 64 32 66 58 67
REMARK SMILES IDX 41 68 57 69 42 70 45 71 56 72 72 73 43 74 44 75 55 77 73 78
REMARK SMILES IDX 46 79 33 80 34 81 39 82 35 83 36 84 38 85 40 86 37 87 59 88
REMARK SMILES IDX 60 89 65 90 61 91 62 92 64 93 66 94 63 95 47 96 48 97 53 98
REMARK SMILES IDX 49 99 50 100 52 101 54 102 51 103
REMARK H PARENT 14 6 7 11 11 39 21 46 71 65 45 76
REMARK Flexibility Score: inf
ROOT
ATOM      1  C   UNL A   1      32.657  30.539  26.629  1.00  0.00     0.021 C 
ENDROOT
BRANCH   1   2
ATOM      2  C   UNL A   1      31.772  29.504  25.961  1.00  0.00     0.116 C 
BRANCH   2   3
ATOM      3  N   UNL A   1      31.114  30.026  24.786  1.00  0.00    -0.354 N 
ATOM      4  C   UNL A   1      30.721  29.419  23.636  1.00  0.00     0.242 C 
ATOM      5  O   UNL A   1      30.036  30.094  22.860  1.00  0.00    -0.273 OA
ATOM      6  H   UNL A   1      30.918  30.990  24.825  1.00  0.00     0.163 HD
BRANCH   4   7
ATOM      7  C   UNL A   1      30.962  27.925  23.356  1.00  0.00     0.173 C 
BRANCH   7   8
ATOM      8  N   UNL A   1      29.769  27.090  23.532  1.00  0.00    -0.344 N 
ATOM      9  C   UNL A   1      29.402  26.356  24.626  1.00  0.00     0.225 C 
ATOM     10  O   UNL A   1      28.269  25.868  24.634  1.00  0.00    -0.275 OA
ATOM     11  H   UNL A   1      29.154  27.053  22.764  1.00  0.00     0.164 HD
BRANCH   9  12
ATOM     12  C   UNL A   1      30.364  26.155  25.790  1.00  0.00     0.137 C 
BRANCH  12  13
ATOM     13  C   UNL A   1      31.422  25.138  25.476  1.00  0.00    -0.017 A 
ATOM     14  C   UNL A   1      33.555  26.564  25.816  1.00  0.00     0.065 C 
ATOM     15  C   UNL A   1      32.799  25.303  25.546  1.00  0.00     0.024 A 
ATOM     16  N   UNL A   1      33.400  24.079  25.268  1.00  0.00    -0.314 N 
ATOM     17  C   UNL A   1      31.187  23.799  25.075  1.00  0.00     0.033 A 
ATOM     18  C   UNL A   1      32.400  23.141  24.998  1.00  0.00     0.053 A 
BRANCH  16  19
ATOM     19  C   UNL A   1      34.796  23.810  25.274  1.00  0.00     0.046 A 
ATOM     20  C   UNL A   1      35.453  23.573  24.058  1.00  0.00     0.029 A 
ATOM     21  C   UNL A   1      35.485  23.708  26.490  1.00  0.00     0.029 A 
ATOM     22  C   UNL A   1      36.800  23.216  24.061  1.00  0.00     0.041 A 
ATOM     23  C   UNL A   1      36.831  23.338  26.482  1.00  0.00     0.041 A 
ATOM     24  C   UNL A   1      37.472  23.093  25.271  1.00  0.00     0.123 A 
ATOM     25  F   UNL A   1      38.759  22.722  25.272  1.00  0.00    -0.207 F 
ENDBRANCH  16  19
BRANCH  18  26
ATOM     26  C   UNL A   1      32.618  21.708  24.760  1.00  0.00    -0.001 A 
ATOM     27  C   UNL A   1      32.397  21.132  23.498  1.00  0.00     0.011 A 
ATOM     28  C   UNL A   1      33.046  20.893  25.815  1.00  0.00     0.011 A 
ATOM     29  C   UNL A   1      32.533  19.753  23.311  1.00  0.00     0.021 A 
ATOM     30  C   UNL A   1      33.188  19.514  25.635  1.00  0.00     0.021 A 
ATOM     31  C   UNL A   1      32.907  18.950  24.389  1.00  0.00     0.067 A 
BRANCH  31  32
ATOM     32  S   UNL A   1      33.052  17.194  24.165  1.00  0.00     0.175 S 
ATOM     33  C   UNL A   1      34.718  16.832  24.656  1.00  0.00     0.163 C 
ATOM     34  O   UNL A   1      32.149  16.570  25.122  1.00  0.00    -0.224 OA
ATOM     35  O   UNL A   1      32.945  16.918  22.750  1.00  0.00    -0.224 OA
ENDBRANCH  31  32
ENDBRANCH  18  26
ENDBRANCH  12  13
ENDBRANCH   9  12
ENDBRANCH   7   8
BRANCH   7  36
ATOM     36  C   UNL A   1      31.771  27.615  22.079  1.00  0.00     0.063 C 
BRANCH  36  37
ATOM     37  C   UNL A   1      33.238  27.223  22.191  1.00  0.00     0.158 C 
BRANCH  37  38
ATOM     38  O   UNL A   1      34.120  28.175  21.618  1.00  0.00    -0.396 OA
ATOM     39  H   UNL A   1      34.536  28.695  22.323  1.00  0.00     0.210 HD
ENDBRANCH  37  38
ENDBRANCH  36  37
ENDBRANCH   7  36
ENDBRANCH   4   7
ENDBRANCH   2   3
ENDBRANCH   1   2
BRANCH   1  40
ATOM     40  C   UNL A   1      31.978  31.887  26.876  1.00  0.00     0.002 C 
BRANCH  40  41
ATOM     41  C   UNL A   1      32.806  32.967  27.587  1.00  0.00     0.002 C 
BRANCH  41  42
ATOM     42  C   UNL A   1      33.982  32.522  28.480  1.00  0.00     0.021 C 
BRANCH  42  43
ATOM     43  C   UNL A   1      35.410  32.586  27.913  1.00  0.00     0.116 C 
BRANCH  43  44
ATOM     44  N   UNL A   1      36.234  33.674  28.376  1.00  0.00    -0.352 N 
ATOM     45  C   UNL A   1      37.460  33.557  29.017  1.00  0.00     0.251 C 
ATOM     46  H   UNL A   1      35.895  34.585  28.224  1.00  0.00     0.163 HD
ATOM     47  O   UNL A   1      38.119  34.576  29.210  1.00  0.00    -0.269 OA
BRANCH  45  48
ATOM     48  C   UNL A   1      37.955  32.228  29.549  1.00  0.00     0.039 A 
ATOM     49  C   UNL A   1      39.295  32.109  29.886  1.00  0.00     0.014 A 
ATOM     50  C   UNL A   1      37.215  31.031  29.524  1.00  0.00     0.014 A 
ATOM     51  C   UNL A   1      39.857  30.840  30.227  1.00  0.00     0.010 A 
ATOM     52  C   UNL A   1      37.814  29.726  29.797  1.00  0.00     0.010 A 
ATOM     53  C   UNL A   1      39.172  29.571  30.149  1.00  0.00    -0.014 A 
BRANCH  53  54
ATOM     54  C   UNL A   1      40.115  28.277  29.857  1.00  0.00     0.031 A 
ATOM     55  C   UNL A   1      41.100  28.389  30.975  1.00  0.00     0.074 A 
ATOM     56  C   UNL A   1      40.382  27.244  28.949  1.00  0.00     0.049 A 
ATOM     57  N   UNL A   1      41.808  29.479  31.101  1.00  0.00    -0.248 NA
ATOM     58  C   UNL A   1      41.023  27.567  32.184  1.00  0.00     0.031 C 
ATOM     59  C   UNL A   1      39.762  27.005  27.633  1.00  0.00     0.029 A 
ATOM     60  N   UNL A   1      41.289  26.125  28.979  1.00  0.00    -0.354 N 
ATOM     61  C   UNL A   1      42.508  29.346  32.272  1.00  0.00     0.074 A 
ATOM     62  C   UNL A   1      41.793  28.301  32.995  1.00  0.00     0.031 C 
ATOM     63  C   UNL A   1      40.162  25.819  27.081  1.00  0.00     0.029 A 
ATOM     64  C   UNL A   1      41.144  25.135  27.927  1.00  0.00     0.049 A 
ATOM     65  H   UNL A   1      41.975  26.036  29.678  1.00  0.00     0.167 HD
ATOM     66  C   UNL A   1      43.858  29.499  32.154  1.00  0.00     0.037 A 
ATOM     67  C   UNL A   1      41.792  23.914  27.695  1.00  0.00     0.037 A 
ATOM     68  C   UNL A   1      44.532  28.233  32.062  1.00  0.00     0.049 A 
ATOM     69  C   UNL A   1      43.068  23.983  28.409  1.00  0.00     0.074 A 
ATOM     70  C   UNL A   1      44.384  27.043  32.749  1.00  0.00     0.029 A 
ATOM     71  N   UNL A   1      45.132  27.926  30.861  1.00  0.00    -0.354 N 
ATOM     72  N   UNL A   1      44.085  24.616  27.916  1.00  0.00    -0.248 NA
ATOM     73  C   UNL A   1      43.311  23.262  29.653  1.00  0.00     0.031 C 
ATOM     74  C   UNL A   1      44.367  26.062  31.738  1.00  0.00     0.029 A 
ATOM     75  C   UNL A   1      44.943  26.590  30.593  1.00  0.00     0.049 A 
ATOM     76  H   UNL A   1      45.617  28.561  30.287  1.00  0.00     0.167 HD
ATOM     77  C   UNL A   1      44.862  24.822  29.005  1.00  0.00     0.074 A 
ATOM     78  C   UNL A   1      44.514  23.763  29.937  1.00  0.00     0.031 C 
ATOM     79  C   UNL A   1      45.166  26.117  29.254  1.00  0.00     0.037 A 
BRANCH  66  80
ATOM     80  C   UNL A   1      44.274  30.725  31.393  1.00  0.00     0.057 A 
ATOM     81  C   UNL A   1      44.775  31.819  32.097  1.00  0.00     0.134 A 
ATOM     82  C   UNL A   1      44.083  30.891  30.007  1.00  0.00     0.134 A 
ATOM     83  F   UNL A   1      45.047  31.714  33.408  1.00  0.00    -0.206 F 
ATOM     84  C   UNL A   1      45.007  33.046  31.471  1.00  0.00     0.040 A 
ATOM     85  C   UNL A   1      44.250  32.126  29.382  1.00  0.00     0.040 A 
ATOM     86  F   UNL A   1      43.747  29.854  29.223  1.00  0.00    -0.206 F 
ATOM     87  C   UNL A   1      44.707  33.213  30.118  1.00  0.00     0.006 A 
ENDBRANCH  66  80
BRANCH  67  88
ATOM     88  C   UNL A   1      41.805  22.587  26.870  1.00  0.00     0.057 A 
ATOM     89  C   UNL A   1      42.751  22.376  25.803  1.00  0.00     0.134 A 
ATOM     90  C   UNL A   1      41.284  21.386  27.366  1.00  0.00     0.134 A 
ATOM     91  F   UNL A   1      43.324  23.402  25.160  1.00  0.00    -0.206 F 
ATOM     92  C   UNL A   1      43.221  21.115  25.377  1.00  0.00     0.040 A 
ATOM     93  C   UNL A   1      41.719  20.106  26.911  1.00  0.00     0.040 A 
ATOM     94  F   UNL A   1      40.403  21.402  28.374  1.00  0.00    -0.206 F 
ATOM     95  C   UNL A   1      42.718  19.964  25.947  1.00  0.00     0.006 A 
ENDBRANCH  67  88
BRANCH  79  96
ATOM     96  C   UNL A   1      45.550  26.973  28.065  1.00  0.00     0.057 A 
ATOM     97  C   UNL A   1      44.681  27.619  27.159  1.00  0.00     0.134 A 
ATOM     98  C   UNL A   1      46.915  27.081  27.778  1.00  0.00     0.134 A 
ATOM     99  F   UNL A   1      43.355  27.683  27.356  1.00  0.00    -0.206 F 
ATOM    100  C   UNL A   1      45.149  28.256  26.001  1.00  0.00     0.040 A 
ATOM    101  C   UNL A   1      47.398  27.758  26.654  1.00  0.00     0.040 A 
ATOM    102  F   UNL A   1      47.819  26.531  28.603  1.00  0.00    -0.206 F 
ATOM    103  C   UNL A   1      46.513  28.328  25.747  1.00  0.00     0.006 A 
ENDBRANCH  79  96
ENDBRANCH  53  54
ENDBRANCH  45  48
ENDBRANCH  43  44
ENDBRANCH  42  43
ENDBRANCH  41  42
ENDBRANCH  40  41
ENDBRANCH   1  40
TORSDOF 22
ENDMDL
