MODEL 1
REMARK VINA RESULT:     -11.9      0.000      0.000
REMARK SMILES Cc1nn(C)c(=O)c(C(=O)N2CCCC[C@H]2C(=O)NCCCCCCNC(=O)c2ccc(-c3c4nc(c(-c5c(F)cccc5F)c5ccc([nH]5)c(-c5c(F)cccc5F)c5nc(c(-c6c(F)cccc6F)c6ccc3[nH]6)C=C5)C=C4)cc2)c1C
REMARK SMILES IDX 22 1 21 2 20 3 19 4 17 5 18 6 16 8 11 9 12 10 13 11 15 12
REMARK SMILES IDX 14 13 9 14 10 15 8 16 1 17 2 18 3 19 83 20 4 21 84 22 5 23
REMARK SMILES IDX 6 24 7 25 23 26 24 27 25 28 26 29 27 30 28 32 29 33 30 34
REMARK SMILES IDX 82 35 31 36 81 37 32 38 33 39 34 40 75 41 35 42 80 43 74 44
REMARK SMILES IDX 76 45 36 46 79 47 73 48 72 49 37 51 63 52 46 53 62 54 47 55
REMARK SMILES IDX 50 56 61 57 77 58 48 59 49 60 60 62 78 63 51 64 38 65 39 66
REMARK SMILES IDX 44 67 40 68 41 69 43 70 45 71 42 72 64 73 65 74 70 75 66 76
REMARK SMILES IDX 67 77 69 78 71 79 68 80 52 81 53 82 58 83 54 84 55 85 57 86
REMARK SMILES IDX 59 87 56 88
REMARK H PARENT 19 7 26 31 76 50 50 61
REMARK Flexibility Score: inf
ROOT
ATOM      1  C   UNL A   1      37.019  21.930  24.773  1.00  0.00     0.002 C 
ENDROOT
BRANCH   1   2
ATOM      2  C   UNL A   1      36.732  22.578  23.425  1.00  0.00     0.021 C 
BRANCH   2   3
ATOM      3  C   UNL A   1      35.555  23.547  23.392  1.00  0.00     0.116 C 
BRANCH   3   4
ATOM      4  N   UNL A   1      34.247  22.927  23.440  1.00  0.00    -0.354 N 
ATOM      5  C   UNL A   1      33.199  23.061  24.304  1.00  0.00     0.242 C 
ATOM      6  O   UNL A   1      32.214  22.355  24.045  1.00  0.00    -0.273 OA
ATOM      7  H   UNL A   1      34.083  22.286  22.711  1.00  0.00     0.163 HD
BRANCH   5   8
ATOM      8  C   UNL A   1      33.184  23.959  25.603  1.00  0.00     0.174 C 
ATOM      9  N   UNL A   1      31.982  24.017  26.452  1.00  0.00    -0.326 N 
ATOM     10  C   UNL A   1      31.772  22.850  27.351  1.00  0.00     0.120 C 
ATOM     11  C   UNL A   1      33.017  22.257  28.009  1.00  0.00     0.022 C 
ATOM     12  C   UNL A   1      34.418  23.539  26.431  1.00  0.00     0.035 C 
ATOM     13  C   UNL A   1      34.197  22.169  27.060  1.00  0.00     0.004 C 
BRANCH   9  14
ATOM     14  C   UNL A   1      30.910  24.922  26.356  1.00  0.00     0.260 C 
ATOM     15  O   UNL A   1      29.833  24.596  26.881  1.00  0.00    -0.269 OA
BRANCH  14  16
ATOM     16  C   UNL A   1      30.876  26.267  25.623  1.00  0.00     0.111 A 
ATOM     17  C   UNL A   1      31.950  29.941  25.529  1.00  0.00     0.069 C 
ATOM     18  C   UNL A   1      31.549  28.552  25.066  1.00  0.00     0.062 A 
ATOM     19  N   UNL A   1      31.567  28.367  23.791  1.00  0.00    -0.175 NA
ATOM     20  C   UNL A   1      31.253  27.486  26.078  1.00  0.00    -0.010 A 
ATOM     21  N   UNL A   1      31.192  27.149  23.324  1.00  0.00    -0.232 N 
ATOM     22  C   UNL A   1      31.624  27.861  27.463  1.00  0.00     0.047 C 
ATOM     23  C   UNL A   1      31.271  27.012  21.879  1.00  0.00     0.178 C 
ATOM     24  C   UNL A   1      30.678  26.134  24.123  1.00  0.00     0.279 A 
ATOM     25  O   UNL A   1      30.091  25.158  23.654  1.00  0.00    -0.267 OA
ENDBRANCH  14  16
ENDBRANCH   9  14
ENDBRANCH   5   8
ENDBRANCH   3   4
ENDBRANCH   2   3
ENDBRANCH   1   2
BRANCH   1  26
ATOM     26  C   UNL A   1      36.732  20.431  24.854  1.00  0.00     0.002 C 
BRANCH  26  27
ATOM     27  C   UNL A   1      37.954  19.516  24.969  1.00  0.00     0.021 C 
BRANCH  27  28
ATOM     28  C   UNL A   1      39.150  20.107  25.703  1.00  0.00     0.116 C 
BRANCH  28  29
ATOM     29  N   UNL A   1      40.234  19.153  25.847  1.00  0.00    -0.352 N 
ATOM     30  C   UNL A   1      41.549  19.381  26.153  1.00  0.00     0.251 C 
ATOM     31  H   UNL A   1      39.990  18.211  25.704  1.00  0.00     0.163 HD
ATOM     32  O   UNL A   1      42.373  18.471  26.060  1.00  0.00    -0.269 OA
BRANCH  30  33
ATOM     33  C   UNL A   1      41.982  20.727  26.576  1.00  0.00     0.039 A 
ATOM     34  C   UNL A   1      42.392  21.638  25.601  1.00  0.00     0.014 A 
ATOM     35  C   UNL A   1      41.981  21.088  27.927  1.00  0.00     0.014 A 
ATOM     36  C   UNL A   1      42.750  22.933  25.975  1.00  0.00     0.010 A 
ATOM     37  C   UNL A   1      42.270  22.399  28.291  1.00  0.00     0.010 A 
ATOM     38  C   UNL A   1      42.662  23.332  27.319  1.00  0.00    -0.014 A 
BRANCH  38  39
ATOM     39  C   UNL A   1      42.980  24.721  27.730  1.00  0.00     0.031 A 
ATOM     40  C   UNL A   1      44.410  25.147  27.896  1.00  0.00     0.074 A 
ATOM     41  C   UNL A   1      41.978  25.579  28.002  1.00  0.00     0.049 A 
ATOM     42  N   UNL A   1      44.887  26.289  28.318  1.00  0.00    -0.248 NA
ATOM     43  C   UNL A   1      45.441  24.151  27.563  1.00  0.00     0.031 C 
ATOM     44  C   UNL A   1      40.550  25.271  27.896  1.00  0.00     0.029 A 
ATOM     45  N   UNL A   1      42.007  26.882  28.429  1.00  0.00    -0.354 N 
ATOM     46  C   UNL A   1      46.269  26.150  28.300  1.00  0.00     0.074 A 
ATOM     47  C   UNL A   1      46.553  24.794  27.884  1.00  0.00     0.031 C 
ATOM     48  C   UNL A   1      39.841  26.364  28.223  1.00  0.00     0.029 A 
ATOM     49  C   UNL A   1      40.760  27.431  28.605  1.00  0.00     0.049 A 
ATOM     50  H   UNL A   1      42.842  27.376  28.593  1.00  0.00     0.167 HD
ATOM     51  C   UNL A   1      47.213  27.077  28.582  1.00  0.00     0.037 A 
ATOM     52  C   UNL A   1      40.399  28.656  29.034  1.00  0.00     0.037 A 
ATOM     53  C   UNL A   1      46.922  28.427  28.989  1.00  0.00     0.049 A 
ATOM     54  C   UNL A   1      41.468  29.653  29.387  1.00  0.00     0.074 A 
ATOM     55  C   UNL A   1      47.809  29.449  29.275  1.00  0.00     0.029 A 
ATOM     56  N   UNL A   1      45.647  28.942  29.169  1.00  0.00    -0.354 N 
ATOM     57  N   UNL A   1      42.771  29.521  29.332  1.00  0.00    -0.248 NA
ATOM     58  C   UNL A   1      41.018  30.970  29.856  1.00  0.00     0.031 C 
ATOM     59  C   UNL A   1      47.073  30.567  29.675  1.00  0.00     0.029 A 
ATOM     60  C   UNL A   1      45.725  30.262  29.580  1.00  0.00     0.049 A 
ATOM     61  H   UNL A   1      44.810  28.443  29.025  1.00  0.00     0.167 HD
ATOM     62  C   UNL A   1      43.296  30.743  29.728  1.00  0.00     0.074 A 
ATOM     63  C   UNL A   1      42.169  31.609  30.010  1.00  0.00     0.031 C 
ATOM     64  C   UNL A   1      44.594  31.116  29.845  1.00  0.00     0.037 A 
BRANCH  51  65
ATOM     65  C   UNL A   1      48.653  26.671  28.451  1.00  0.00     0.057 A 
ATOM     66  C   UNL A   1      49.360  26.111  29.523  1.00  0.00     0.134 A 
ATOM     67  C   UNL A   1      49.321  26.779  27.224  1.00  0.00     0.134 A 
ATOM     68  F   UNL A   1      48.784  25.990  30.729  1.00  0.00    -0.206 F 
ATOM     69  C   UNL A   1      50.682  25.687  29.386  1.00  0.00     0.040 A 
ATOM     70  C   UNL A   1      50.633  26.332  27.067  1.00  0.00     0.040 A 
ATOM     71  F   UNL A   1      48.702  27.300  26.155  1.00  0.00    -0.206 F 
ATOM     72  C   UNL A   1      51.320  25.787  28.150  1.00  0.00     0.006 A 
ENDBRANCH  51  65
BRANCH  52  73
ATOM     73  C   UNL A   1      38.960  29.014  29.118  1.00  0.00     0.057 A 
ATOM     74  C   UNL A   1      38.273  29.496  27.999  1.00  0.00     0.134 A 
ATOM     75  C   UNL A   1      38.232  28.862  30.305  1.00  0.00     0.134 A 
ATOM     76  F   UNL A   1      38.918  29.681  26.838  1.00  0.00    -0.206 F 
ATOM     77  C   UNL A   1      36.917  29.826  28.057  1.00  0.00     0.040 A 
ATOM     78  C   UNL A   1      36.870  29.161  30.370  1.00  0.00     0.040 A 
ATOM     79  F   UNL A   1      38.829  28.395  31.411  1.00  0.00    -0.206 F 
ATOM     80  C   UNL A   1      36.210  29.649  29.245  1.00  0.00     0.006 A 
ENDBRANCH  52  73
BRANCH  64  81
ATOM     81  C   UNL A   1      44.878  32.531  30.259  1.00  0.00     0.057 A 
ATOM     82  C   UNL A   1      44.964  33.573  29.326  1.00  0.00     0.134 A 
ATOM     83  C   UNL A   1      44.995  32.865  31.614  1.00  0.00     0.134 A 
ATOM     84  F   UNL A   1      44.870  33.320  28.012  1.00  0.00    -0.206 F 
ATOM     85  C   UNL A   1      45.176  34.894  29.728  1.00  0.00     0.040 A 
ATOM     86  C   UNL A   1      45.176  34.185  32.028  1.00  0.00     0.040 A 
ATOM     87  F   UNL A   1      44.910  31.918  32.560  1.00  0.00    -0.206 F 
ATOM     88  C   UNL A   1      45.271  35.203  31.083  1.00  0.00     0.006 A 
ENDBRANCH  64  81
ENDBRANCH  38  39
ENDBRANCH  30  33
ENDBRANCH  28  29
ENDBRANCH  27  28
ENDBRANCH  26  27
ENDBRANCH   1  26
TORSDOF 15
ENDMDL
MODEL 2
REMARK VINA RESULT:     -11.8      1.060      1.970
REMARK SMILES Cc1nn(C)c(=O)c(C(=O)N2CCCC[C@H]2C(=O)NCCCCCCNC(=O)c2ccc(-c3c4nc(c(-c5c(F)cccc5F)c5ccc([nH]5)c(-c5c(F)cccc5F)c5nc(c(-c6c(F)cccc6F)c6ccc3[nH]6)C=C5)C=C4)cc2)c1C
REMARK SMILES IDX 22 1 21 2 20 3 19 4 17 5 18 6 16 8 11 9 12 10 13 11 15 12
REMARK SMILES IDX 14 13 9 14 10 15 8 16 1 17 2 18 3 19 83 20 4 21 84 22 5 23
REMARK SMILES IDX 6 24 7 25 23 26 24 27 25 28 26 29 27 30 28 32 29 33 30 34
REMARK SMILES IDX 82 35 31 36 81 37 32 38 33 39 34 40 75 41 35 42 80 43 74 44
REMARK SMILES IDX 76 45 36 46 79 47 73 48 72 49 37 51 63 52 46 53 62 54 47 55
REMARK SMILES IDX 50 56 61 57 77 58 48 59 49 60 60 62 78 63 51 64 38 65 39 66
REMARK SMILES IDX 44 67 40 68 41 69 43 70 45 71 42 72 64 73 65 74 70 75 66 76
REMARK SMILES IDX 67 77 69 78 71 79 68 80 52 81 53 82 58 83 54 84 55 85 57 86
REMARK SMILES IDX 59 87 56 88
REMARK H PARENT 19 7 26 31 76 50 50 61
REMARK Flexibility Score: inf
ROOT
ATOM      1  C   UNL A   1      36.018  21.366  25.349  1.00  0.00     0.002 C 
ENDROOT
BRANCH   1   2
ATOM      2  C   UNL A   1      35.772  22.687  26.065  1.00  0.00     0.021 C 
BRANCH   2   3
ATOM      3  C   UNL A   1      34.353  22.909  26.580  1.00  0.00     0.116 C 
BRANCH   3   4
ATOM      4  N   UNL A   1      33.397  21.888  26.203  1.00  0.00    -0.354 N 
ATOM      5  C   UNL A   1      32.327  21.901  25.356  1.00  0.00     0.242 C 
ATOM      6  O   UNL A   1      31.709  20.829  25.278  1.00  0.00    -0.273 OA
ATOM      7  H   UNL A   1      33.547  21.020  26.643  1.00  0.00     0.163 HD
BRANCH   5   8
ATOM      8  C   UNL A   1      31.796  23.158  24.561  1.00  0.00     0.174 C 
ATOM      9  N   UNL A   1      32.211  24.515  24.954  1.00  0.00    -0.326 N 
ATOM     10  C   UNL A   1      33.577  24.920  24.525  1.00  0.00     0.120 C 
ATOM     11  C   UNL A   1      34.022  24.469  23.135  1.00  0.00     0.022 C 
ATOM     12  C   UNL A   1      32.120  22.896  23.074  1.00  0.00     0.035 C 
ATOM     13  C   UNL A   1      33.615  23.042  22.822  1.00  0.00     0.004 C 
BRANCH   9  14
ATOM     14  C   UNL A   1      31.569  25.377  25.861  1.00  0.00     0.260 C 
ATOM     15  O   UNL A   1      31.201  24.900  26.946  1.00  0.00    -0.269 OA
BRANCH  14  16
ATOM     16  C   UNL A   1      31.204  26.851  25.661  1.00  0.00     0.111 A 
ATOM     17  C   UNL A   1      32.182  30.527  26.102  1.00  0.00     0.069 C 
ATOM     18  C   UNL A   1      31.561  29.268  25.524  1.00  0.00     0.062 A 
ATOM     19  N   UNL A   1      30.922  29.424  24.416  1.00  0.00    -0.175 NA
ATOM     20  C   UNL A   1      31.793  27.947  26.196  1.00  0.00    -0.010 A 
ATOM     21  N   UNL A   1      30.327  28.332  23.871  1.00  0.00    -0.232 N 
ATOM     22  C   UNL A   1      32.830  27.993  27.254  1.00  0.00     0.047 C 
ATOM     23  C   UNL A   1      29.654  28.585  22.608  1.00  0.00     0.178 C 
ATOM     24  C   UNL A   1      30.265  27.089  24.492  1.00  0.00     0.279 A 
ATOM     25  O   UNL A   1      29.493  26.204  24.119  1.00  0.00    -0.267 OA
ENDBRANCH  14  16
ENDBRANCH   9  14
ENDBRANCH   5   8
ENDBRANCH   3   4
ENDBRANCH   2   3
ENDBRANCH   1   2
BRANCH   1  26
ATOM     26  C   UNL A   1      37.330  21.279  24.569  1.00  0.00     0.002 C 
BRANCH  26  27
ATOM     27  C   UNL A   1      38.173  20.024  24.809  1.00  0.00     0.021 C 
BRANCH  27  28
ATOM     28  C   UNL A   1      39.086  20.070  26.027  1.00  0.00     0.116 C 
BRANCH  28  29
ATOM     29  N   UNL A   1      40.258  19.227  25.869  1.00  0.00    -0.352 N 
ATOM     30  C   UNL A   1      41.580  19.555  25.999  1.00  0.00     0.251 C 
ATOM     31  H   UNL A   1      40.075  18.289  25.634  1.00  0.00     0.163 HD
ATOM     32  O   UNL A   1      42.452  18.758  25.654  1.00  0.00    -0.269 OA
BRANCH  30  33
ATOM     33  C   UNL A   1      41.960  20.877  26.534  1.00  0.00     0.039 A 
ATOM     34  C   UNL A   1      42.362  21.873  25.643  1.00  0.00     0.014 A 
ATOM     35  C   UNL A   1      41.916  21.132  27.909  1.00  0.00     0.014 A 
ATOM     36  C   UNL A   1      42.670  23.145  26.125  1.00  0.00     0.010 A 
ATOM     37  C   UNL A   1      42.154  22.419  28.379  1.00  0.00     0.010 A 
ATOM     38  C   UNL A   1      42.538  23.436  27.492  1.00  0.00    -0.014 A 
BRANCH  38  39
ATOM     39  C   UNL A   1      42.801  24.797  28.017  1.00  0.00     0.031 A 
ATOM     40  C   UNL A   1      44.192  25.191  28.420  1.00  0.00     0.074 A 
ATOM     41  C   UNL A   1      41.777  25.658  28.175  1.00  0.00     0.049 A 
ATOM     42  N   UNL A   1      44.609  26.304  28.967  1.00  0.00    -0.248 NA
ATOM     43  C   UNL A   1      45.254  24.196  28.199  1.00  0.00     0.031 C 
ATOM     44  C   UNL A   1      40.380  25.379  27.837  1.00  0.00     0.029 A 
ATOM     45  N   UNL A   1      41.751  26.938  28.667  1.00  0.00    -0.354 N 
ATOM     46  C   UNL A   1      45.976  26.143  29.154  1.00  0.00     0.074 A 
ATOM     47  C   UNL A   1      46.309  24.805  28.718  1.00  0.00     0.031 C 
ATOM     48  C   UNL A   1      39.639  26.466  28.106  1.00  0.00     0.029 A 
ATOM     49  C   UNL A   1      40.498  27.499  28.678  1.00  0.00     0.049 A 
ATOM     50  H   UNL A   1      42.556  27.410  28.982  1.00  0.00     0.167 HD
ATOM     51  C   UNL A   1      46.874  27.039  29.624  1.00  0.00     0.037 A 
ATOM     52  C   UNL A   1      40.086  28.707  29.108  1.00  0.00     0.037 A 
ATOM     53  C   UNL A   1      46.536  28.373  30.048  1.00  0.00     0.049 A 
ATOM     54  C   UNL A   1      41.096  29.668  29.670  1.00  0.00     0.074 A 
ATOM     55  C   UNL A   1      47.378  29.365  30.518  1.00  0.00     0.029 A 
ATOM     56  N   UNL A   1      45.253  28.899  30.057  1.00  0.00    -0.354 N 
ATOM     57  N   UNL A   1      42.391  29.517  29.808  1.00  0.00    -0.248 NA
ATOM     58  C   UNL A   1      40.591  30.968  30.131  1.00  0.00     0.031 C 
ATOM     59  C   UNL A   1      46.598  30.474  30.857  1.00  0.00     0.029 A 
ATOM     60  C   UNL A   1      45.279  30.197  30.541  1.00  0.00     0.049 A 
ATOM     61  H   UNL A   1      44.444  28.422  29.762  1.00  0.00     0.167 HD
ATOM     62  C   UNL A   1      42.860  30.710  30.341  1.00  0.00     0.074 A 
ATOM     63  C   UNL A   1      41.711  31.580  30.491  1.00  0.00     0.031 C 
ATOM     64  C   UNL A   1      44.128  31.056  30.674  1.00  0.00     0.037 A 
BRANCH  51  65
ATOM     65  C   UNL A   1      48.313  26.617  29.694  1.00  0.00     0.057 A 
ATOM     66  C   UNL A   1      48.815  25.893  30.783  1.00  0.00     0.134 A 
ATOM     67  C   UNL A   1      49.191  26.878  28.633  1.00  0.00     0.134 A 
ATOM     68  F   UNL A   1      48.031  25.620  31.838  1.00  0.00    -0.206 F 
ATOM     69  C   UNL A   1      50.140  25.456  30.823  1.00  0.00     0.040 A 
ATOM     70  C   UNL A   1      50.510  26.421  28.649  1.00  0.00     0.040 A 
ATOM     71  F   UNL A   1      48.776  27.561  27.557  1.00  0.00    -0.206 F 
ATOM     72  C   UNL A   1      50.989  25.711  29.748  1.00  0.00     0.006 A 
ENDBRANCH  51  65
BRANCH  52  73
ATOM     73  C   UNL A   1      38.654  29.084  28.989  1.00  0.00     0.057 A 
ATOM     74  C   UNL A   1      37.794  28.995  30.089  1.00  0.00     0.134 A 
ATOM     75  C   UNL A   1      38.116  29.561  27.788  1.00  0.00     0.134 A 
ATOM     76  F   UNL A   1      38.245  28.528  31.263  1.00  0.00    -0.206 F 
ATOM     77  C   UNL A   1      36.449  29.357  29.998  1.00  0.00     0.040 A 
ATOM     78  C   UNL A   1      36.779  29.953  27.690  1.00  0.00     0.040 A 
ATOM     79  F   UNL A   1      38.888  29.679  26.698  1.00  0.00    -0.206 F 
ATOM     80  C   UNL A   1      35.940  29.847  28.797  1.00  0.00     0.006 A 
ENDBRANCH  52  73
BRANCH  64  81
ATOM     81  C   UNL A   1      44.357  32.444  31.196  1.00  0.00     0.057 A 
ATOM     82  C   UNL A   1      44.385  32.725  32.568  1.00  0.00     0.134 A 
ATOM     83  C   UNL A   1      44.623  33.500  30.314  1.00  0.00     0.134 A 
ATOM     84  F   UNL A   1      44.130  31.761  33.466  1.00  0.00    -0.206 F 
ATOM     85  C   UNL A   1      44.653  34.011  33.043  1.00  0.00     0.040 A 
ATOM     86  C   UNL A   1      44.921  34.782  30.778  1.00  0.00     0.040 A 
ATOM     87  F   UNL A   1      44.623  33.298  28.988  1.00  0.00    -0.206 F 
ATOM     88  C   UNL A   1      44.932  35.040  32.146  1.00  0.00     0.006 A 
ENDBRANCH  64  81
ENDBRANCH  38  39
ENDBRANCH  30  33
ENDBRANCH  28  29
ENDBRANCH  27  28
ENDBRANCH  26  27
ENDBRANCH   1  26
TORSDOF 15
ENDMDL
MODEL 3
REMARK VINA RESULT:     -11.7      4.117      9.586
REMARK SMILES Cc1nn(C)c(=O)c(C(=O)N2CCCC[C@H]2C(=O)NCCCCCCNC(=O)c2ccc(-c3c4nc(c(-c5c(F)cccc5F)c5ccc([nH]5)c(-c5c(F)cccc5F)c5nc(c(-c6c(F)cccc6F)c6ccc3[nH]6)C=C5)C=C4)cc2)c1C
REMARK SMILES IDX 22 1 21 2 20 3 19 4 17 5 18 6 16 8 11 9 12 10 13 11 15 12
REMARK SMILES IDX 14 13 9 14 10 15 8 16 1 17 2 18 3 19 83 20 4 21 84 22 5 23
REMARK SMILES IDX 6 24 7 25 23 26 24 27 25 28 26 29 27 30 28 32 29 33 30 34
REMARK SMILES IDX 82 35 31 36 81 37 32 38 33 39 34 40 75 41 35 42 80 43 74 44
REMARK SMILES IDX 76 45 36 46 79 47 73 48 72 49 37 51 63 52 46 53 62 54 47 55
REMARK SMILES IDX 50 56 61 57 77 58 48 59 49 60 60 62 78 63 51 64 38 65 39 66
REMARK SMILES IDX 44 67 40 68 41 69 43 70 45 71 42 72 64 73 65 74 70 75 66 76
REMARK SMILES IDX 67 77 69 78 71 79 68 80 52 81 53 82 58 83 54 84 55 85 57 86
REMARK SMILES IDX 59 87 56 88
REMARK H PARENT 19 7 26 31 76 50 50 61
REMARK Flexibility Score: inf
ROOT
ATOM      1  C   UNL A   1      32.210  29.909  26.847  1.00  0.00     0.002 C 
ENDROOT
BRANCH   1   2
ATOM      2  C   UNL A   1      33.634  29.688  26.352  1.00  0.00     0.021 C 
BRANCH   2   3
ATOM      3  C   UNL A   1      34.173  28.269  26.497  1.00  0.00     0.116 C 
BRANCH   3   4
ATOM      4  N   UNL A   1      33.183  27.266  26.833  1.00  0.00    -0.354 N 
ATOM      5  C   UNL A   1      32.459  26.399  26.068  1.00  0.00     0.242 C 
ATOM      6  O   UNL A   1      31.678  25.672  26.698  1.00  0.00    -0.273 OA
ATOM      7  H   UNL A   1      32.996  27.199  27.797  1.00  0.00     0.163 HD
BRANCH   5   8
ATOM      8  C   UNL A   1      32.489  26.315  24.491  1.00  0.00     0.174 C 
ATOM      9  N   UNL A   1      32.316  25.019  23.813  1.00  0.00    -0.326 N 
ATOM     10  C   UNL A   1      30.918  24.515  23.735  1.00  0.00     0.120 C 
ATOM     11  C   UNL A   1      29.828  25.552  23.467  1.00  0.00     0.022 C 
ATOM     12  C   UNL A   1      31.450  27.339  23.986  1.00  0.00     0.035 C 
ATOM     13  C   UNL A   1      30.036  26.836  24.245  1.00  0.00     0.004 C 
BRANCH   9  14
ATOM     14  C   UNL A   1      33.321  24.112  23.434  1.00  0.00     0.260 C 
ATOM     15  O   UNL A   1      33.802  24.228  22.295  1.00  0.00    -0.269 OA
BRANCH  14  16
ATOM     16  C   UNL A   1      33.878  22.934  24.239  1.00  0.00     0.111 A 
ATOM     17  C   UNL A   1      34.121  19.140  24.697  1.00  0.00     0.069 C 
ATOM     18  C   UNL A   1      34.487  20.613  24.717  1.00  0.00     0.062 A 
ATOM     19  N   UNL A   1      35.674  20.882  25.140  1.00  0.00    -0.175 NA
ATOM     20  C   UNL A   1      33.523  21.628  24.181  1.00  0.00    -0.010 A 
ATOM     21  N   UNL A   1      36.042  22.187  25.202  1.00  0.00    -0.232 N 
ATOM     22  C   UNL A   1      32.376  21.033  23.454  1.00  0.00     0.047 C 
ATOM     23  C   UNL A   1      37.405  22.404  25.658  1.00  0.00     0.178 C 
ATOM     24  C   UNL A   1      35.181  23.250  24.952  1.00  0.00     0.279 A 
ATOM     25  O   UNL A   1      35.448  24.407  25.282  1.00  0.00    -0.267 OA
ENDBRANCH  14  16
ENDBRANCH   9  14
ENDBRANCH   5   8
ENDBRANCH   3   4
ENDBRANCH   2   3
ENDBRANCH   1   2
BRANCH   1  26
ATOM     26  C   UNL A   1      31.367  30.868  26.006  1.00  0.00     0.002 C 
BRANCH  26  27
ATOM     27  C   UNL A   1      31.252  32.301  26.532  1.00  0.00     0.021 C 
BRANCH  27  28
ATOM     28  C   UNL A   1      32.490  32.845  27.231  1.00  0.00     0.116 C 
BRANCH  28  29
ATOM     29  N   UNL A   1      32.318  34.220  27.665  1.00  0.00    -0.352 N 
ATOM     30  C   UNL A   1      33.010  34.918  28.617  1.00  0.00     0.251 C 
ATOM     31  H   UNL A   1      31.603  34.720  27.210  1.00  0.00     0.163 HD
ATOM     32  O   UNL A   1      32.615  36.024  28.984  1.00  0.00    -0.269 OA
BRANCH  30  33
ATOM     33  C   UNL A   1      34.222  34.331  29.221  1.00  0.00     0.039 A 
ATOM     34  C   UNL A   1      34.096  33.591  30.398  1.00  0.00     0.014 A 
ATOM     35  C   UNL A   1      35.476  34.508  28.627  1.00  0.00     0.014 A 
ATOM     36  C   UNL A   1      35.221  32.981  30.952  1.00  0.00     0.010 A 
ATOM     37  C   UNL A   1      36.583  33.842  29.141  1.00  0.00     0.010 A 
ATOM     38  C   UNL A   1      36.467  33.076  30.311  1.00  0.00    -0.014 A 
BRANCH  38  39
ATOM     39  C   UNL A   1      37.663  32.385  30.849  1.00  0.00     0.031 A 
ATOM     40  C   UNL A   1      38.364  32.931  32.060  1.00  0.00     0.074 A 
ATOM     41  C   UNL A   1      38.143  31.297  30.217  1.00  0.00     0.049 A 
ATOM     42  N   UNL A   1      39.463  32.514  32.635  1.00  0.00    -0.248 NA
ATOM     43  C   UNL A   1      37.763  34.113  32.697  1.00  0.00     0.031 C 
ATOM     44  C   UNL A   1      37.558  30.688  29.021  1.00  0.00     0.029 A 
ATOM     45  N   UNL A   1      39.237  30.515  30.487  1.00  0.00    -0.354 N 
ATOM     46  C   UNL A   1      39.683  33.380  33.698  1.00  0.00     0.074 A 
ATOM     47  C   UNL A   1      38.639  34.381  33.654  1.00  0.00     0.031 C 
ATOM     48  C   UNL A   1      38.283  29.612  28.678  1.00  0.00     0.029 A 
ATOM     49  C   UNL A   1      39.408  29.482  29.598  1.00  0.00     0.049 A 
ATOM     50  H   UNL A   1      39.841  30.678  31.247  1.00  0.00     0.167 HD
ATOM     51  C   UNL A   1      40.655  33.330  34.638  1.00  0.00     0.037 A 
ATOM     52  C   UNL A   1      40.369  28.541  29.529  1.00  0.00     0.037 A 
ATOM     53  C   UNL A   1      41.686  32.327  34.680  1.00  0.00     0.049 A 
ATOM     54  C   UNL A   1      41.464  28.535  30.559  1.00  0.00     0.074 A 
ATOM     55  C   UNL A   1      42.703  32.177  35.606  1.00  0.00     0.029 A 
ATOM     56  N   UNL A   1      41.834  31.305  33.754  1.00  0.00    -0.354 N 
ATOM     57  N   UNL A   1      41.642  29.338  31.580  1.00  0.00    -0.248 NA
ATOM     58  C   UNL A   1      42.490  27.491  30.431  1.00  0.00     0.031 C 
ATOM     59  C   UNL A   1      43.494  31.093  35.214  1.00  0.00     0.029 A 
ATOM     60  C   UNL A   1      42.936  30.531  34.078  1.00  0.00     0.049 A 
ATOM     61  H   UNL A   1      41.243  31.152  32.982  1.00  0.00     0.167 HD
ATOM     62  C   UNL A   1      42.778  28.879  32.234  1.00  0.00     0.074 A 
ATOM     63  C   UNL A   1      43.242  27.720  31.500  1.00  0.00     0.031 C 
ATOM     64  C   UNL A   1      43.380  29.372  33.344  1.00  0.00     0.037 A 
BRANCH  51  65
ATOM     65  C   UNL A   1      40.645  34.382  35.710  1.00  0.00     0.057 A 
ATOM     66  C   UNL A   1      41.320  35.600  35.552  1.00  0.00     0.134 A 
ATOM     67  C   UNL A   1      39.902  34.204  36.884  1.00  0.00     0.134 A 
ATOM     68  F   UNL A   1      42.060  35.830  34.456  1.00  0.00    -0.206 F 
ATOM     69  C   UNL A   1      41.268  36.597  36.527  1.00  0.00     0.040 A 
ATOM     70  C   UNL A   1      39.819  35.206  37.853  1.00  0.00     0.040 A 
ATOM     71  F   UNL A   1      39.228  33.065  37.099  1.00  0.00    -0.206 F 
ATOM     72  C   UNL A   1      40.506  36.405  37.678  1.00  0.00     0.006 A 
ENDBRANCH  51  65
BRANCH  52  73
ATOM     73  C   UNL A   1      40.314  27.507  28.464  1.00  0.00     0.057 A 
ATOM     74  C   UNL A   1      39.573  26.333  28.640  1.00  0.00     0.134 A 
ATOM     75  C   UNL A   1      40.976  27.674  27.242  1.00  0.00     0.134 A 
ATOM     76  F   UNL A   1      38.931  26.106  29.795  1.00  0.00    -0.206 F 
ATOM     77  C   UNL A   1      39.500  25.357  27.644  1.00  0.00     0.040 A 
ATOM     78  C   UNL A   1      40.890  26.719  26.227  1.00  0.00     0.040 A 
ATOM     79  F   UNL A   1      41.696  28.780  27.006  1.00  0.00    -0.206 F 
ATOM     80  C   UNL A   1      40.153  25.553  26.429  1.00  0.00     0.006 A 
ENDBRANCH  52  73
BRANCH  64  81
ATOM     81  C   UNL A   1      44.585  28.643  33.864  1.00  0.00     0.057 A 
ATOM     82  C   UNL A   1      44.475  27.567  34.753  1.00  0.00     0.134 A 
ATOM     83  C   UNL A   1      45.868  28.981  33.413  1.00  0.00     0.134 A 
ATOM     84  F   UNL A   1      43.277  27.198  35.230  1.00  0.00    -0.206 F 
ATOM     85  C   UNL A   1      45.600  26.863  35.188  1.00  0.00     0.040 A 
ATOM     86  C   UNL A   1      46.996  28.265  33.817  1.00  0.00     0.040 A 
ATOM     87  F   UNL A   1      46.044  29.994  32.551  1.00  0.00    -0.206 F 
ATOM     88  C   UNL A   1      46.863  27.206  34.710  1.00  0.00     0.006 A 
ENDBRANCH  64  81
ENDBRANCH  38  39
ENDBRANCH  30  33
ENDBRANCH  28  29
ENDBRANCH  27  28
ENDBRANCH  26  27
ENDBRANCH   1  26
TORSDOF 15
ENDMDL
