MODEL 1
REMARK VINA RESULT:     -13.2      0.000      0.000
REMARK SMILES Cc1ccc(-c2nc(NC(=O)[C@H]3[C@@H](C(=O)NCCCCCCNC(=O)c4ccc(-c5c6nc(c(-c7c(F)cccc7F)c7ccc([nH]7)c(-c7c(F)cccc7F)c7nc(c(-c8c(F)cccc8F)c8ccc5[nH]8)C=C7)C=C6)cc4)[C@@H]4CC[C@H]3O4)sc2C)cc1
REMARK SMILES IDX 19 1 18 2 17 3 16 4 14 5 15 6 13 8 12 9 83 10 80 11 82 12
REMARK SMILES IDX 84 13 81 14 10 15 9 16 11 18 8 19 6 20 7 21 86 22 85 23
REMARK SMILES IDX 87 24 5 25 1 26 2 27 3 28 89 29 4 30 88 31 20 32 21 33 22 34
REMARK SMILES IDX 23 35 24 36 25 38 26 39 27 40 79 41 28 42 78 43 29 44 30 45
REMARK SMILES IDX 31 46 72 47 32 48 77 49 71 50 73 51 33 52 76 53 70 54 69 55
REMARK SMILES IDX 34 57 60 58 43 59 59 60 44 61 47 62 58 63 74 64 45 65 46 66
REMARK SMILES IDX 57 68 75 69 48 70 35 71 36 72 41 73 37 74 38 75 40 76 42 77
REMARK SMILES IDX 39 78 61 79 62 80 67 81 63 82 64 83 66 84 68 85 65 86 49 87
REMARK SMILES IDX 50 88 55 89 51 90 52 91 54 92 56 93 53 94
REMARK H PARENT 16 7 9 17 23 37 73 56 47 67
REMARK Flexibility Score: inf
ROOT
ATOM      1  C   UNL A   1      31.974  28.632  27.418  1.00  0.00     0.002 C 
ENDROOT
BRANCH   1   2
ATOM      2  C   UNL A   1      32.613  27.382  26.814  1.00  0.00     0.021 C 
BRANCH   2   3
ATOM      3  C   UNL A   1      33.794  27.515  25.859  1.00  0.00     0.116 C 
BRANCH   3   4
ATOM      4  N   UNL A   1      33.743  26.746  24.635  1.00  0.00    -0.356 N 
ATOM      5  C   UNL A   1      33.144  27.134  23.470  1.00  0.00     0.226 C 
ATOM      6  O   UNL A   1      33.760  26.968  22.416  1.00  0.00    -0.275 OA
ATOM      7  H   UNL A   1      34.179  25.863  24.642  1.00  0.00     0.163 HD
BRANCH   5   8
ATOM      8  C   UNL A   1      31.831  27.870  23.525  1.00  0.00     0.122 C 
ATOM      9  C   UNL A   1      30.511  27.294  24.052  1.00  0.00     0.123 C 
ATOM     10  C   UNL A   1      29.534  28.226  23.303  1.00  0.00     0.132 C 
ATOM     11  C   UNL A   1      31.376  28.545  22.198  1.00  0.00     0.132 C 
ATOM     12  C   UNL A   1      29.846  29.732  23.519  1.00  0.00     0.035 C 
ATOM     13  O   UNL A   1      30.042  28.008  21.970  1.00  0.00    -0.373 OA
ATOM     14  C   UNL A   1      30.969  29.983  22.502  1.00  0.00     0.035 C 
BRANCH   9  15
ATOM     15  C   UNL A   1      29.845  25.883  24.078  1.00  0.00     0.232 C 
ATOM     16  N   UNL A   1      30.167  24.658  24.552  1.00  0.00    -0.302 N 
ATOM     17  H   UNL A   1      29.467  24.000  24.335  1.00  0.00     0.172 HD
ATOM     18  O   UNL A   1      28.735  25.861  23.493  1.00  0.00    -0.274 OA
BRANCH  16  19
ATOM     19  C   UNL A   1      31.190  24.076  25.247  1.00  0.00     0.190 A 
ATOM     20  C   UNL A   1      33.218  23.271  25.766  1.00  0.00     0.086 A 
ATOM     21  N   UNL A   1      32.445  23.992  24.830  1.00  0.00    -0.220 NA
ATOM     22  C   UNL A   1      32.508  22.926  26.910  1.00  0.00     0.031 A 
ATOM     23  S   UNL A   1      30.913  23.478  26.775  1.00  0.00    -0.101 S 
ATOM     24  C   UNL A   1      32.856  22.236  28.179  1.00  0.00     0.059 C 
BRANCH  20  25
ATOM     25  C   UNL A   1      34.639  22.920  25.582  1.00  0.00     0.001 A 
ATOM     26  C   UNL A   1      38.793  21.625  25.500  1.00  0.00     0.044 C 
ATOM     27  C   UNL A   1      37.362  22.085  25.497  1.00  0.00    -0.051 A 
ATOM     28  C   UNL A   1      37.026  23.436  25.670  1.00  0.00     0.004 A 
ATOM     29  C   UNL A   1      36.334  21.165  25.309  1.00  0.00     0.004 A 
ATOM     30  C   UNL A   1      35.677  23.851  25.716  1.00  0.00     0.010 A 
ATOM     31  C   UNL A   1      34.999  21.583  25.329  1.00  0.00     0.010 A 
ENDBRANCH  20  25
ENDBRANCH  16  19
ENDBRANCH   9  15
ENDBRANCH   5   8
ENDBRANCH   3   4
ENDBRANCH   2   3
ENDBRANCH   1   2
BRANCH   1  32
ATOM     32  C   UNL A   1      32.190  29.999  26.763  1.00  0.00     0.002 C 
BRANCH  32  33
ATOM     33  C   UNL A   1      33.105  31.012  27.448  1.00  0.00     0.021 C 
BRANCH  33  34
ATOM     34  C   UNL A   1      34.519  30.523  27.741  1.00  0.00     0.116 C 
BRANCH  34  35
ATOM     35  N   UNL A   1      35.201  31.275  28.784  1.00  0.00    -0.352 N 
ATOM     36  C   UNL A   1      36.377  30.992  29.464  1.00  0.00     0.251 C 
ATOM     37  H   UNL A   1      34.760  32.117  29.046  1.00  0.00     0.163 HD
ATOM     38  O   UNL A   1      36.806  31.776  30.282  1.00  0.00    -0.269 OA
BRANCH  36  39
ATOM     39  C   UNL A   1      37.180  29.801  29.076  1.00  0.00     0.039 A 
ATOM     40  C   UNL A   1      37.435  28.847  30.069  1.00  0.00     0.014 A 
ATOM     41  C   UNL A   1      37.824  29.709  27.846  1.00  0.00     0.014 A 
ATOM     42  C   UNL A   1      38.520  27.985  29.926  1.00  0.00     0.010 A 
ATOM     43  C   UNL A   1      38.953  28.923  27.734  1.00  0.00     0.010 A 
ATOM     44  C   UNL A   1      39.339  28.120  28.807  1.00  0.00    -0.014 A 
BRANCH  44  45
ATOM     45  C   UNL A   1      40.651  27.499  28.714  1.00  0.00     0.031 A 
ATOM     46  C   UNL A   1      40.761  26.058  28.447  1.00  0.00     0.074 A 
ATOM     47  C   UNL A   1      41.759  28.256  28.861  1.00  0.00     0.049 A 
ATOM     48  N   UNL A   1      41.749  25.320  28.820  1.00  0.00    -0.248 NA
ATOM     49  C   UNL A   1      39.712  25.323  27.758  1.00  0.00     0.031 C 
ATOM     50  C   UNL A   1      43.148  27.854  28.664  1.00  0.00     0.029 A 
ATOM     51  N   UNL A   1      41.840  29.509  29.482  1.00  0.00    -0.354 N 
ATOM     52  C   UNL A   1      41.614  24.099  28.200  1.00  0.00     0.074 A 
ATOM     53  C   UNL A   1      40.291  24.128  27.618  1.00  0.00     0.031 C 
ATOM     54  C   UNL A   1      43.927  28.647  29.418  1.00  0.00     0.029 A 
ATOM     55  C   UNL A   1      43.049  29.488  30.214  1.00  0.00     0.049 A 
ATOM     56  H   UNL A   1      41.192  30.248  29.421  1.00  0.00     0.167 HD
ATOM     57  C   UNL A   1      42.693  23.264  28.139  1.00  0.00     0.037 A 
ATOM     58  C   UNL A   1      43.019  29.535  31.577  1.00  0.00     0.037 A 
ATOM     59  C   UNL A   1      43.825  23.799  28.905  1.00  0.00     0.049 A 
ATOM     60  C   UNL A   1      43.568  28.300  32.265  1.00  0.00     0.074 A 
ATOM     61  C   UNL A   1      44.990  24.473  28.573  1.00  0.00     0.029 A 
ATOM     62  N   UNL A   1      43.692  23.939  30.276  1.00  0.00    -0.354 N 
ATOM     63  N   UNL A   1      43.997  27.230  31.653  1.00  0.00    -0.248 NA
ATOM     64  C   UNL A   1      43.572  28.148  33.720  1.00  0.00     0.031 C 
ATOM     65  C   UNL A   1      45.541  25.032  29.762  1.00  0.00     0.029 A 
ATOM     66  C   UNL A   1      44.718  24.691  30.819  1.00  0.00     0.049 A 
ATOM     67  H   UNL A   1      42.956  23.551  30.802  1.00  0.00     0.167 HD
ATOM     68  C   UNL A   1      44.277  26.258  32.579  1.00  0.00     0.074 A 
ATOM     69  C   UNL A   1      43.988  26.880  33.859  1.00  0.00     0.031 C 
ATOM     70  C   UNL A   1      44.683  24.998  32.240  1.00  0.00     0.037 A 
BRANCH  57  71
ATOM     71  C   UNL A   1      42.805  22.115  27.157  1.00  0.00     0.057 A 
ATOM     72  C   UNL A   1      42.016  20.958  27.308  1.00  0.00     0.134 A 
ATOM     73  C   UNL A   1      43.716  22.046  26.087  1.00  0.00     0.134 A 
ATOM     74  F   UNL A   1      41.003  20.904  28.181  1.00  0.00    -0.206 F 
ATOM     75  C   UNL A   1      42.224  19.788  26.565  1.00  0.00     0.040 A 
ATOM     76  C   UNL A   1      43.978  20.866  25.376  1.00  0.00     0.040 A 
ATOM     77  F   UNL A   1      44.347  23.134  25.631  1.00  0.00    -0.206 F 
ATOM     78  C   UNL A   1      43.242  19.721  25.628  1.00  0.00     0.006 A 
ENDBRANCH  57  71
BRANCH  58  79
ATOM     79  C   UNL A   1      41.907  30.378  32.100  1.00  0.00     0.057 A 
ATOM     80  C   UNL A   1      42.021  31.778  32.019  1.00  0.00     0.134 A 
ATOM     81  C   UNL A   1      40.633  29.857  32.338  1.00  0.00     0.134 A 
ATOM     82  F   UNL A   1      43.216  32.347  31.798  1.00  0.00    -0.206 F 
ATOM     83  C   UNL A   1      40.901  32.613  32.049  1.00  0.00     0.040 A 
ATOM     84  C   UNL A   1      39.508  30.686  32.395  1.00  0.00     0.040 A 
ATOM     85  F   UNL A   1      40.437  28.533  32.412  1.00  0.00    -0.206 F 
ATOM     86  C   UNL A   1      39.634  32.061  32.205  1.00  0.00     0.006 A 
ENDBRANCH  58  79
BRANCH  70  87
ATOM     87  C   UNL A   1      45.053  23.945  33.253  1.00  0.00     0.057 A 
ATOM     88  C   UNL A   1      44.149  22.966  33.694  1.00  0.00     0.134 A 
ATOM     89  C   UNL A   1      46.304  23.944  33.902  1.00  0.00     0.134 A 
ATOM     90  F   UNL A   1      42.889  22.927  33.233  1.00  0.00    -0.206 F 
ATOM     91  C   UNL A   1      44.492  22.004  34.651  1.00  0.00     0.040 A 
ATOM     92  C   UNL A   1      46.639  23.021  34.898  1.00  0.00     0.040 A 
ATOM     93  F   UNL A   1      47.264  24.824  33.591  1.00  0.00    -0.206 F 
ATOM     94  C   UNL A   1      45.741  22.032  35.261  1.00  0.00     0.006 A 
ENDBRANCH  70  87
ENDBRANCH  44  45
ENDBRANCH  36  39
ENDBRANCH  34  35
ENDBRANCH  33  34
ENDBRANCH  32  33
ENDBRANCH   1  32
TORSDOF 16
ENDMDL
MODEL 2
REMARK VINA RESULT:     -12.5      1.413      4.345
REMARK SMILES Cc1ccc(-c2nc(NC(=O)[C@H]3[C@@H](C(=O)NCCCCCCNC(=O)c4ccc(-c5c6nc(c(-c7c(F)cccc7F)c7ccc([nH]7)c(-c7c(F)cccc7F)c7nc(c(-c8c(F)cccc8F)c8ccc5[nH]8)C=C7)C=C6)cc4)[C@@H]4CC[C@H]3O4)sc2C)cc1
REMARK SMILES IDX 19 1 18 2 17 3 16 4 14 5 15 6 13 8 12 9 83 10 80 11 82 12
REMARK SMILES IDX 84 13 81 14 10 15 9 16 11 18 8 19 6 20 7 21 86 22 85 23
REMARK SMILES IDX 87 24 5 25 1 26 2 27 3 28 89 29 4 30 88 31 20 32 21 33 22 34
REMARK SMILES IDX 23 35 24 36 25 38 26 39 27 40 79 41 28 42 78 43 29 44 30 45
REMARK SMILES IDX 31 46 72 47 32 48 77 49 71 50 73 51 33 52 76 53 70 54 69 55
REMARK SMILES IDX 34 57 60 58 43 59 59 60 44 61 47 62 58 63 74 64 45 65 46 66
REMARK SMILES IDX 57 68 75 69 48 70 35 71 36 72 41 73 37 74 38 75 40 76 42 77
REMARK SMILES IDX 39 78 61 79 62 80 67 81 63 82 64 83 66 84 68 85 65 86 49 87
REMARK SMILES IDX 50 88 55 89 51 90 52 91 54 92 56 93 53 94
REMARK H PARENT 16 7 9 17 23 37 73 56 47 67
REMARK Flexibility Score: inf
ROOT
ATOM      1  C   UNL A   1      32.293  28.889  27.351  1.00  0.00     0.002 C 
ENDROOT
BRANCH   1   2
ATOM      2  C   UNL A   1      31.804  27.688  26.542  1.00  0.00     0.021 C 
BRANCH   2   3
ATOM      3  C   UNL A   1      32.767  26.559  26.195  1.00  0.00     0.116 C 
BRANCH   3   4
ATOM      4  N   UNL A   1      32.225  25.218  26.152  1.00  0.00    -0.356 N 
ATOM      5  C   UNL A   1      32.943  24.060  26.248  1.00  0.00     0.226 C 
ATOM      6  O   UNL A   1      32.521  23.173  26.991  1.00  0.00    -0.275 OA
ATOM      7  H   UNL A   1      31.249  25.133  26.044  1.00  0.00     0.163 HD
BRANCH   5   8
ATOM      8  C   UNL A   1      34.281  23.963  25.562  1.00  0.00     0.122 C 
ATOM      9  C   UNL A   1      34.539  24.236  24.075  1.00  0.00     0.123 C 
ATOM     10  C   UNL A   1      35.835  23.414  23.908  1.00  0.00     0.132 C 
ATOM     11  C   UNL A   1      35.061  22.634  25.782  1.00  0.00     0.132 C 
ATOM     12  C   UNL A   1      36.927  23.783  24.949  1.00  0.00     0.035 C 
ATOM     13  O   UNL A   1      35.339  22.163  24.432  1.00  0.00    -0.373 OA
ATOM     14  C   UNL A   1      36.493  22.973  26.180  1.00  0.00     0.035 C 
BRANCH   9  15
ATOM     15  C   UNL A   1      33.728  24.057  22.754  1.00  0.00     0.232 C 
ATOM     16  N   UNL A   1      32.565  24.527  22.249  1.00  0.00    -0.302 N 
ATOM     17  H   UNL A   1      32.382  24.140  21.363  1.00  0.00     0.172 HD
ATOM     18  O   UNL A   1      34.273  23.256  21.957  1.00  0.00    -0.274 OA
BRANCH  16  19
ATOM     19  C   UNL A   1      31.572  25.389  22.623  1.00  0.00     0.190 A 
ATOM     20  C   UNL A   1      30.404  27.280  22.931  1.00  0.00     0.086 A 
ATOM     21  N   UNL A   1      31.535  26.682  22.332  1.00  0.00    -0.220 NA
ATOM     22  C   UNL A   1      29.581  26.364  23.575  1.00  0.00     0.031 A 
ATOM     23  S   UNL A   1      30.244  24.813  23.442  1.00  0.00    -0.101 S 
ATOM     24  C   UNL A   1      28.282  26.461  24.293  1.00  0.00     0.059 C 
BRANCH  20  25
ATOM     25  C   UNL A   1      30.097  28.721  22.880  1.00  0.00     0.001 A 
ATOM     26  C   UNL A   1      28.790  32.869  23.064  1.00  0.00     0.044 C 
ATOM     27  C   UNL A   1      29.268  31.446  22.982  1.00  0.00    -0.051 A 
ATOM     28  C   UNL A   1      29.134  30.693  21.806  1.00  0.00     0.004 A 
ATOM     29  C   UNL A   1      29.870  30.848  24.086  1.00  0.00     0.004 A 
ATOM     30  C   UNL A   1      29.541  29.342  21.754  1.00  0.00     0.010 A 
ATOM     31  C   UNL A   1      30.296  29.517  24.024  1.00  0.00     0.010 A 
ENDBRANCH  20  25
ENDBRANCH  16  19
ENDBRANCH   9  15
ENDBRANCH   5   8
ENDBRANCH   3   4
ENDBRANCH   2   3
ENDBRANCH   1   2
BRANCH   1  32
ATOM     32  C   UNL A   1      33.399  29.791  26.795  1.00  0.00     0.002 C 
BRANCH  32  33
ATOM     33  C   UNL A   1      33.699  31.113  27.498  1.00  0.00     0.021 C 
BRANCH  33  34
ATOM     34  C   UNL A   1      35.176  31.436  27.681  1.00  0.00     0.116 C 
BRANCH  34  35
ATOM     35  N   UNL A   1      35.547  31.761  29.051  1.00  0.00    -0.352 N 
ATOM     36  C   UNL A   1      36.425  31.121  29.914  1.00  0.00     0.251 C 
ATOM     37  H   UNL A   1      35.105  32.560  29.423  1.00  0.00     0.163 HD
ATOM     38  O   UNL A   1      36.628  31.576  31.017  1.00  0.00    -0.269 OA
BRANCH  36  39
ATOM     39  C   UNL A   1      37.224  29.966  29.423  1.00  0.00     0.039 A 
ATOM     40  C   UNL A   1      37.436  28.906  30.313  1.00  0.00     0.014 A 
ATOM     41  C   UNL A   1      37.905  29.997  28.209  1.00  0.00     0.014 A 
ATOM     42  C   UNL A   1      38.512  28.047  30.109  1.00  0.00     0.010 A 
ATOM     43  C   UNL A   1      39.026  29.209  28.046  1.00  0.00     0.010 A 
ATOM     44  C   UNL A   1      39.368  28.288  29.036  1.00  0.00    -0.014 A 
BRANCH  44  45
ATOM     45  C   UNL A   1      40.673  27.659  28.914  1.00  0.00     0.031 A 
ATOM     46  C   UNL A   1      40.769  26.223  28.619  1.00  0.00     0.074 A 
ATOM     47  C   UNL A   1      41.789  28.405  29.062  1.00  0.00     0.049 A 
ATOM     48  N   UNL A   1      41.756  25.470  28.965  1.00  0.00    -0.248 NA
ATOM     49  C   UNL A   1      39.706  25.509  27.928  1.00  0.00     0.031 C 
ATOM     50  C   UNL A   1      43.172  27.996  28.840  1.00  0.00     0.029 A 
ATOM     51  N   UNL A   1      41.888  29.645  29.706  1.00  0.00    -0.354 N 
ATOM     52  C   UNL A   1      41.604  24.262  28.324  1.00  0.00     0.074 A 
ATOM     53  C   UNL A   1      40.274  24.313  27.758  1.00  0.00     0.031 C 
ATOM     54  C   UNL A   1      43.967  28.769  29.600  1.00  0.00     0.029 A 
ATOM     55  C   UNL A   1      43.105  29.600  30.423  1.00  0.00     0.049 A 
ATOM     56  H   UNL A   1      41.245  30.390  29.668  1.00  0.00     0.167 HD
ATOM     57  C   UNL A   1      42.676  23.420  28.233  1.00  0.00     0.037 A 
ATOM     58  C   UNL A   1      43.093  29.621  31.787  1.00  0.00     0.037 A 
ATOM     59  C   UNL A   1      43.821  23.932  28.995  1.00  0.00     0.049 A 
ATOM     60  C   UNL A   1      43.640  28.369  32.444  1.00  0.00     0.074 A 
ATOM     61  C   UNL A   1      44.987  24.603  28.661  1.00  0.00     0.029 A 
ATOM     62  N   UNL A   1      43.706  24.047  30.370  1.00  0.00    -0.354 N 
ATOM     63  N   UNL A   1      44.053  27.308  31.806  1.00  0.00    -0.248 NA
ATOM     64  C   UNL A   1      43.661  28.189  33.896  1.00  0.00     0.031 C 
ATOM     65  C   UNL A   1      45.557  25.135  29.854  1.00  0.00     0.029 A 
ATOM     66  C   UNL A   1      44.744  24.780  30.915  1.00  0.00     0.049 A 
ATOM     67  H   UNL A   1      42.973  23.654  30.898  1.00  0.00     0.167 HD
ATOM     68  C   UNL A   1      44.337  26.316  32.710  1.00  0.00     0.074 A 
ATOM     69  C   UNL A   1      44.069  26.915  34.005  1.00  0.00     0.031 C 
ATOM     70  C   UNL A   1      44.729  25.060  32.342  1.00  0.00     0.037 A 
BRANCH  57  71
ATOM     71  C   UNL A   1      42.766  22.290  27.227  1.00  0.00     0.057 A 
ATOM     72  C   UNL A   1      41.964  21.141  27.361  1.00  0.00     0.134 A 
ATOM     73  C   UNL A   1      43.670  22.231  26.151  1.00  0.00     0.134 A 
ATOM     74  F   UNL A   1      40.955  21.082  28.239  1.00  0.00    -0.206 F 
ATOM     75  C   UNL A   1      42.151  19.983  26.593  1.00  0.00     0.040 A 
ATOM     76  C   UNL A   1      43.912  21.062  25.414  1.00  0.00     0.040 A 
ATOM     77  F   UNL A   1      44.312  23.319  25.712  1.00  0.00    -0.206 F 
ATOM     78  C   UNL A   1      43.163  19.922  25.648  1.00  0.00     0.006 A 
ENDBRANCH  57  71
BRANCH  58  79
ATOM     79  C   UNL A   1      41.993  30.462  32.340  1.00  0.00     0.057 A 
ATOM     80  C   UNL A   1      42.122  31.863  32.295  1.00  0.00     0.134 A 
ATOM     81  C   UNL A   1      40.716  29.949  32.573  1.00  0.00     0.134 A 
ATOM     82  F   UNL A   1      43.322  32.424  32.081  1.00  0.00    -0.206 F 
ATOM     83  C   UNL A   1      41.013  32.709  32.356  1.00  0.00     0.040 A 
ATOM     84  C   UNL A   1      39.600  30.789  32.659  1.00  0.00     0.040 A 
ATOM     85  F   UNL A   1      40.505  28.626  32.613  1.00  0.00    -0.206 F 
ATOM     86  C   UNL A   1      39.740  32.167  32.506  1.00  0.00     0.006 A 
ENDBRANCH  58  79
BRANCH  70  87
ATOM     87  C   UNL A   1      45.103  23.985  33.329  1.00  0.00     0.057 A 
ATOM     88  C   UNL A   1      46.395  23.861  33.863  1.00  0.00     0.134 A 
ATOM     89  C   UNL A   1      44.202  22.965  33.696  1.00  0.00     0.134 A 
ATOM     90  F   UNL A   1      47.376  24.704  33.508  1.00  0.00    -0.206 F 
ATOM     91  C   UNL A   1      46.742  22.846  34.763  1.00  0.00     0.040 A 
ATOM     92  C   UNL A   1      44.551  21.916  34.552  1.00  0.00     0.040 A 
ATOM     93  F   UNL A   1      42.936  22.948  33.257  1.00  0.00    -0.206 F 
ATOM     94  C   UNL A   1      45.819  21.865  35.107  1.00  0.00     0.006 A 
ENDBRANCH  70  87
ENDBRANCH  44  45
ENDBRANCH  36  39
ENDBRANCH  34  35
ENDBRANCH  33  34
ENDBRANCH  32  33
ENDBRANCH   1  32
TORSDOF 16
ENDMDL
MODEL 3
REMARK VINA RESULT:     -12.1      2.986      4.730
REMARK SMILES Cc1ccc(-c2nc(NC(=O)[C@H]3[C@@H](C(=O)NCCCCCCNC(=O)c4ccc(-c5c6nc(c(-c7c(F)cccc7F)c7ccc([nH]7)c(-c7c(F)cccc7F)c7nc(c(-c8c(F)cccc8F)c8ccc5[nH]8)C=C7)C=C6)cc4)[C@@H]4CC[C@H]3O4)sc2C)cc1
REMARK SMILES IDX 19 1 18 2 17 3 16 4 14 5 15 6 13 8 12 9 83 10 80 11 82 12
REMARK SMILES IDX 84 13 81 14 10 15 9 16 11 18 8 19 6 20 7 21 86 22 85 23
REMARK SMILES IDX 87 24 5 25 1 26 2 27 3 28 89 29 4 30 88 31 20 32 21 33 22 34
REMARK SMILES IDX 23 35 24 36 25 38 26 39 27 40 79 41 28 42 78 43 29 44 30 45
REMARK SMILES IDX 31 46 72 47 32 48 77 49 71 50 73 51 33 52 76 53 70 54 69 55
REMARK SMILES IDX 34 57 60 58 43 59 59 60 44 61 47 62 58 63 74 64 45 65 46 66
REMARK SMILES IDX 57 68 75 69 48 70 35 71 36 72 41 73 37 74 38 75 40 76 42 77
REMARK SMILES IDX 39 78 61 79 62 80 67 81 63 82 64 83 66 84 68 85 65 86 49 87
REMARK SMILES IDX 50 88 55 89 51 90 52 91 54 92 56 93 53 94
REMARK H PARENT 16 7 9 17 23 37 73 56 47 67
REMARK Flexibility Score: inf
ROOT
ATOM      1  C   UNL A   1      33.683  30.775  27.614  1.00  0.00     0.002 C 
ENDROOT
BRANCH   1   2
ATOM      2  C   UNL A   1      32.349  30.979  26.897  1.00  0.00     0.021 C 
BRANCH   2   3
ATOM      3  C   UNL A   1      32.024  30.168  25.647  1.00  0.00     0.116 C 
BRANCH   3   4
ATOM      4  N   UNL A   1      33.140  29.711  24.848  1.00  0.00    -0.356 N 
ATOM      5  C   UNL A   1      33.057  28.933  23.728  1.00  0.00     0.226 C 
ATOM      6  O   UNL A   1      33.727  29.254  22.746  1.00  0.00    -0.275 OA
ATOM      7  H   UNL A   1      34.040  29.987  25.136  1.00  0.00     0.163 HD
BRANCH   5   8
ATOM      8  C   UNL A   1      32.058  27.807  23.685  1.00  0.00     0.122 C 
ATOM      9  C   UNL A   1      32.402  26.319  23.542  1.00  0.00     0.123 C 
ATOM     10  C   UNL A   1      31.057  25.822  22.968  1.00  0.00     0.132 C 
ATOM     11  C   UNL A   1      30.901  27.966  22.656  1.00  0.00     0.132 C 
ATOM     12  C   UNL A   1      29.836  26.240  23.833  1.00  0.00     0.035 C 
ATOM     13  O   UNL A   1      30.965  26.746  21.863  1.00  0.00    -0.373 OA
ATOM     14  C   UNL A   1      29.581  27.680  23.364  1.00  0.00     0.035 C 
BRANCH   9  15
ATOM     15  C   UNL A   1      33.519  25.499  22.824  1.00  0.00     0.232 C 
ATOM     16  N   UNL A   1      34.151  24.321  23.026  1.00  0.00    -0.302 N 
ATOM     17  H   UNL A   1      34.840  24.167  22.340  1.00  0.00     0.172 HD
ATOM     18  O   UNL A   1      33.970  26.083  21.808  1.00  0.00    -0.274 OA
BRANCH  16  19
ATOM     19  C   UNL A   1      34.104  23.285  23.916  1.00  0.00     0.190 A 
ATOM     20  C   UNL A   1      33.949  21.210  24.754  1.00  0.00     0.086 A 
ATOM     21  N   UNL A   1      34.057  22.001  23.589  1.00  0.00    -0.220 NA
ATOM     22  C   UNL A   1      34.019  21.953  25.927  1.00  0.00     0.031 A 
ATOM     23  S   UNL A   1      34.188  23.594  25.548  1.00  0.00    -0.101 S 
ATOM     24  C   UNL A   1      34.012  21.613  27.374  1.00  0.00     0.059 C 
BRANCH  20  25
ATOM     25  C   UNL A   1      33.792  19.744  24.756  1.00  0.00     0.001 A 
ATOM     26  C   UNL A   1      33.330  15.449  25.290  1.00  0.00     0.044 C 
ATOM     27  C   UNL A   1      33.486  16.928  25.072  1.00  0.00    -0.051 A 
ATOM     28  C   UNL A   1      34.669  17.472  24.550  1.00  0.00     0.004 A 
ATOM     29  C   UNL A   1      32.439  17.792  25.380  1.00  0.00     0.004 A 
ATOM     30  C   UNL A   1      34.824  18.867  24.396  1.00  0.00     0.010 A 
ATOM     31  C   UNL A   1      32.585  19.172  25.201  1.00  0.00     0.010 A 
ENDBRANCH  20  25
ENDBRANCH  16  19
ENDBRANCH   9  15
ENDBRANCH   5   8
ENDBRANCH   3   4
ENDBRANCH   2   3
ENDBRANCH   1   2
BRANCH   1  32
ATOM     32  C   UNL A   1      34.622  31.963  27.845  1.00  0.00     0.002 C 
BRANCH  32  33
ATOM     33  C   UNL A   1      34.851  32.459  29.270  1.00  0.00     0.021 C 
BRANCH  33  34
ATOM     34  C   UNL A   1      34.509  33.923  29.517  1.00  0.00     0.116 C 
BRANCH  34  35
ATOM     35  N   UNL A   1      33.731  34.154  30.725  1.00  0.00    -0.352 N 
ATOM     36  C   UNL A   1      34.090  34.014  32.058  1.00  0.00     0.251 C 
ATOM     37  H   UNL A   1      32.805  34.457  30.573  1.00  0.00     0.163 HD
ATOM     38  O   UNL A   1      33.299  34.297  32.931  1.00  0.00    -0.269 OA
BRANCH  36  39
ATOM     39  C   UNL A   1      35.493  33.662  32.407  1.00  0.00     0.039 A 
ATOM     40  C   UNL A   1      36.504  34.508  31.935  1.00  0.00     0.014 A 
ATOM     41  C   UNL A   1      35.827  32.451  33.005  1.00  0.00     0.014 A 
ATOM     42  C   UNL A   1      37.803  34.021  31.816  1.00  0.00     0.010 A 
ATOM     43  C   UNL A   1      37.089  31.929  32.808  1.00  0.00     0.010 A 
ATOM     44  C   UNL A   1      38.051  32.690  32.145  1.00  0.00    -0.014 A 
BRANCH  44  45
ATOM     45  C   UNL A   1      39.276  32.003  31.768  1.00  0.00     0.031 A 
ATOM     46  C   UNL A   1      39.211  30.784  30.950  1.00  0.00     0.074 A 
ATOM     47  C   UNL A   1      40.467  32.500  32.164  1.00  0.00     0.049 A 
ATOM     48  N   UNL A   1      40.093  29.845  30.966  1.00  0.00    -0.248 NA
ATOM     49  C   UNL A   1      38.089  30.515  30.063  1.00  0.00     0.031 C 
ATOM     50  C   UNL A   1      41.798  32.045  31.776  1.00  0.00     0.029 A 
ATOM     51  N   UNL A   1      40.695  33.384  33.226  1.00  0.00    -0.354 N 
ATOM     52  C   UNL A   1      39.817  28.996  29.920  1.00  0.00     0.074 A 
ATOM     53  C   UNL A   1      38.517  29.413  29.442  1.00  0.00     0.031 C 
ATOM     54  C   UNL A   1      42.658  32.373  32.754  1.00  0.00     0.029 A 
ATOM     55  C   UNL A   1      41.879  32.928  33.848  1.00  0.00     0.049 A 
ATOM     56  H   UNL A   1      40.145  34.159  33.485  1.00  0.00     0.167 HD
ATOM     57  C   UNL A   1      40.785  28.130  29.496  1.00  0.00     0.037 A 
ATOM     58  C   UNL A   1      41.833  32.435  35.119  1.00  0.00     0.037 A 
ATOM     59  C   UNL A   1      41.962  28.176  30.371  1.00  0.00     0.049 A 
ATOM     60  C   UNL A   1      42.212  30.972  35.243  1.00  0.00     0.074 A 
ATOM     61  C   UNL A   1      43.206  28.781  30.292  1.00  0.00     0.029 A 
ATOM     62  N   UNL A   1      41.825  27.776  31.690  1.00  0.00    -0.354 N 
ATOM     63  N   UNL A   1      42.515  30.189  34.244  1.00  0.00    -0.248 NA
ATOM     64  C   UNL A   1      42.175  30.256  36.519  1.00  0.00     0.031 C 
ATOM     65  C   UNL A   1      43.804  28.752  31.585  1.00  0.00     0.029 A 
ATOM     66  C   UNL A   1      42.928  28.121  32.450  1.00  0.00     0.049 A 
ATOM     67  H   UNL A   1      41.038  27.303  32.045  1.00  0.00     0.167 HD
ATOM     68  C   UNL A   1      42.657  28.904  34.700  1.00  0.00     0.074 A 
ATOM     69  C   UNL A   1      42.427  28.996  36.130  1.00  0.00     0.031 C 
ATOM     70  C   UNL A   1      42.909  27.842  33.877  1.00  0.00     0.037 A 
BRANCH  57  71
ATOM     71  C   UNL A   1      40.768  27.460  28.136  1.00  0.00     0.057 A 
ATOM     72  C   UNL A   1      40.168  26.199  27.961  1.00  0.00     0.134 A 
ATOM     73  C   UNL A   1      41.386  27.961  26.976  1.00  0.00     0.134 A 
ATOM     74  F   UNL A   1      39.415  25.636  28.916  1.00  0.00    -0.206 F 
ATOM     75  C   UNL A   1      40.305  25.441  26.790  1.00  0.00     0.040 A 
ATOM     76  C   UNL A   1      41.585  27.194  25.819  1.00  0.00     0.040 A 
ATOM     77  F   UNL A   1      41.765  29.240  26.879  1.00  0.00    -0.206 F 
ATOM     78  C   UNL A   1      41.060  25.917  25.729  1.00  0.00     0.006 A 
ENDBRANCH  57  71
BRANCH  58  79
ATOM     79  C   UNL A   1      40.826  33.129  35.970  1.00  0.00     0.057 A 
ATOM     80  C   UNL A   1      39.568  32.528  36.159  1.00  0.00     0.134 A 
ATOM     81  C   UNL A   1      41.183  34.146  36.857  1.00  0.00     0.134 A 
ATOM     82  F   UNL A   1      39.158  31.547  35.340  1.00  0.00    -0.206 F 
ATOM     83  C   UNL A   1      38.756  32.840  37.252  1.00  0.00     0.040 A 
ATOM     84  C   UNL A   1      40.367  34.484  37.942  1.00  0.00     0.040 A 
ATOM     85  F   UNL A   1      42.371  34.758  36.757  1.00  0.00    -0.206 F 
ATOM     86  C   UNL A   1      39.173  33.801  38.168  1.00  0.00     0.006 A 
ENDBRANCH  58  79
BRANCH  70  87
ATOM     87  C   UNL A   1      43.128  26.437  34.377  1.00  0.00     0.057 A 
ATOM     88  C   UNL A   1      42.104  25.669  34.952  1.00  0.00     0.134 A 
ATOM     89  C   UNL A   1      44.406  25.845  34.396  1.00  0.00     0.134 A 
ATOM     90  F   UNL A   1      40.864  26.159  35.094  1.00  0.00    -0.206 F 
ATOM     91  C   UNL A   1      42.320  24.372  35.435  1.00  0.00     0.040 A 
ATOM     92  C   UNL A   1      44.644  24.573  34.924  1.00  0.00     0.040 A 
ATOM     93  F   UNL A   1      45.481  26.464  33.889  1.00  0.00    -0.206 F 
ATOM     94  C   UNL A   1      43.595  23.821  35.426  1.00  0.00     0.006 A 
ENDBRANCH  70  87
ENDBRANCH  44  45
ENDBRANCH  36  39
ENDBRANCH  34  35
ENDBRANCH  33  34
ENDBRANCH  32  33
ENDBRANCH   1  32
TORSDOF 16
ENDMDL
