MODEL 1
REMARK VINA RESULT:     -12.2      0.000      0.000
REMARK SMILES O=C(NCCCCCCNC(=O)c1n[nH]c2cc(Br)cc(Cl)c12)c1ccc(-c2c3nc(c(-c4c(F)cccc4F)c4ccc([nH]4)c(-c4c(F)cccc4F)c4nc(c(-c5c(F)cccc5F)c5ccc2[nH]5)C=C4)C=C3)cc1
REMARK SMILES IDX 5 1 4 2 3 3 1 4 2 5 24 7 25 8 77 9 26 10 76 11 27 12 28 13
REMARK SMILES IDX 29 14 70 15 30 16 75 17 69 18 71 19 31 20 74 21 68 22 67 23
REMARK SMILES IDX 32 25 58 26 41 27 57 28 42 29 45 30 56 31 72 32 43 33 44 34
REMARK SMILES IDX 55 36 73 37 46 38 33 39 34 40 39 41 35 42 36 43 38 44 40 45
REMARK SMILES IDX 37 46 59 47 60 48 65 49 61 50 62 51 64 52 66 53 63 54 47 55
REMARK SMILES IDX 48 56 53 57 49 58 50 59 52 60 54 61 51 62 6 63 7 64 8 65
REMARK SMILES IDX 9 66 10 67 11 68 12 70 13 71 14 72 23 73 15 74 16 75 21 76
REMARK SMILES IDX 17 78 20 79 22 80 18 81 19 82
REMARK H PARENT 3 6 71 24 45 35 10 69 15 77
REMARK Flexibility Score: inf
ROOT
ATOM      1  C   UNL A   1      31.804  30.331  26.252  1.00  0.00     0.021 C 
ENDROOT
BRANCH   1   2
ATOM      2  C   UNL A   1      33.062  30.213  27.115  1.00  0.00     0.116 C 
BRANCH   2   3
ATOM      3  N   UNL A   1      33.579  31.485  27.573  1.00  0.00    -0.352 N 
ATOM      4  O   UNL A   1      34.842  33.158  28.251  1.00  0.00    -0.269 OA
ATOM      5  C   UNL A   1      34.784  31.946  28.023  1.00  0.00     0.251 C 
ATOM      6  H   UNL A   1      32.894  32.192  27.557  1.00  0.00     0.163 HD
BRANCH   5   7
ATOM      7  C   UNL A   1      35.998  31.117  28.281  1.00  0.00     0.039 A 
ATOM      8  C   UNL A   1      36.114  29.744  28.071  1.00  0.00     0.014 A 
ATOM      9  C   UNL A   1      37.117  31.805  28.795  1.00  0.00     0.014 A 
ATOM     10  C   UNL A   1      37.296  29.073  28.396  1.00  0.00     0.010 A 
ATOM     11  C   UNL A   1      38.303  31.140  29.112  1.00  0.00     0.010 A 
ATOM     12  C   UNL A   1      38.388  29.765  28.932  1.00  0.00    -0.014 A 
BRANCH  12  13
ATOM     13  C   UNL A   1      39.600  29.000  29.231  1.00  0.00     0.031 A 
ATOM     14  C   UNL A   1      39.968  28.846  30.672  1.00  0.00     0.074 A 
ATOM     15  C   UNL A   1      40.341  28.344  28.317  1.00  0.00     0.049 A 
ATOM     16  N   UNL A   1      41.036  29.257  31.280  1.00  0.00    -0.248 NA
ATOM     17  C   UNL A   1      39.010  28.157  31.546  1.00  0.00     0.031 C 
ATOM     18  C   UNL A   1      40.031  28.061  26.915  1.00  0.00     0.029 A 
ATOM     19  N   UNL A   1      41.541  27.718  28.506  1.00  0.00    -0.354 N 
ATOM     20  C   UNL A   1      40.963  28.761  32.583  1.00  0.00     0.074 A 
ATOM     21  C   UNL A   1      39.661  28.155  32.712  1.00  0.00     0.031 C 
ATOM     22  C   UNL A   1      40.925  27.164  26.435  1.00  0.00     0.029 A 
ATOM     23  C   UNL A   1      41.944  26.927  27.444  1.00  0.00     0.049 A 
ATOM     24  H   UNL A   1      42.072  27.819  29.328  1.00  0.00     0.167 HD
ATOM     25  C   UNL A   1      42.031  28.763  33.431  1.00  0.00     0.037 A 
ATOM     26  C   UNL A   1      43.018  26.105  27.412  1.00  0.00     0.037 A 
ATOM     27  C   UNL A   1      43.063  29.664  32.999  1.00  0.00     0.049 A 
ATOM     28  C   UNL A   1      43.968  26.540  28.462  1.00  0.00     0.074 A 
ATOM     29  C   UNL A   1      43.155  31.026  32.789  1.00  0.00     0.029 A 
ATOM     30  N   UNL A   1      44.202  29.137  32.449  1.00  0.00    -0.354 N 
ATOM     31  N   UNL A   1      44.668  27.637  28.421  1.00  0.00    -0.248 NA
ATOM     32  C   UNL A   1      43.905  25.888  29.761  1.00  0.00     0.031 C 
ATOM     33  C   UNL A   1      44.077  31.177  31.711  1.00  0.00     0.029 A 
ATOM     34  C   UNL A   1      44.485  29.894  31.344  1.00  0.00     0.049 A 
ATOM     35  H   UNL A   1      44.715  28.365  32.782  1.00  0.00     0.167 HD
ATOM     36  C   UNL A   1      44.794  28.028  29.744  1.00  0.00     0.074 A 
ATOM     37  C   UNL A   1      44.421  26.854  30.523  1.00  0.00     0.031 C 
ATOM     38  C   UNL A   1      44.922  29.344  30.083  1.00  0.00     0.037 A 
BRANCH  25  39
ATOM     39  C   UNL A   1      42.275  27.757  34.531  1.00  0.00     0.057 A 
ATOM     40  C   UNL A   1      42.804  26.489  34.214  1.00  0.00     0.134 A 
ATOM     41  C   UNL A   1      41.755  27.878  35.834  1.00  0.00     0.134 A 
ATOM     42  F   UNL A   1      43.312  26.236  32.999  1.00  0.00    -0.206 F 
ATOM     43  C   UNL A   1      42.761  25.409  35.105  1.00  0.00     0.040 A 
ATOM     44  C   UNL A   1      41.752  26.818  36.749  1.00  0.00     0.040 A 
ATOM     45  F   UNL A   1      41.140  28.991  36.251  1.00  0.00    -0.206 F 
ATOM     46  C   UNL A   1      42.229  25.571  36.377  1.00  0.00     0.006 A 
ENDBRANCH  25  39
BRANCH  26  47
ATOM     47  C   UNL A   1      43.183  24.823  26.695  1.00  0.00     0.057 A 
ATOM     48  C   UNL A   1      42.437  23.691  27.049  1.00  0.00     0.134 A 
ATOM     49  C   UNL A   1      43.867  24.758  25.468  1.00  0.00     0.134 A 
ATOM     50  F   UNL A   1      41.718  23.674  28.180  1.00  0.00    -0.206 F 
ATOM     51  C   UNL A   1      42.355  22.566  26.218  1.00  0.00     0.040 A 
ATOM     52  C   UNL A   1      43.800  23.638  24.635  1.00  0.00     0.040 A 
ATOM     53  F   UNL A   1      44.547  25.813  24.998  1.00  0.00    -0.206 F 
ATOM     54  C   UNL A   1      43.029  22.543  25.001  1.00  0.00     0.006 A 
ENDBRANCH  26  47
BRANCH  38  55
ATOM     55  C   UNL A   1      45.229  30.324  28.987  1.00  0.00     0.057 A 
ATOM     56  C   UNL A   1      44.247  30.897  28.165  1.00  0.00     0.134 A 
ATOM     57  C   UNL A   1      46.532  30.816  28.858  1.00  0.00     0.134 A 
ATOM     58  F   UNL A   1      42.957  30.566  28.295  1.00  0.00    -0.206 F 
ATOM     59  C   UNL A   1      44.561  31.880  27.222  1.00  0.00     0.040 A 
ATOM     60  C   UNL A   1      46.852  31.821  27.943  1.00  0.00     0.040 A 
ATOM     61  F   UNL A   1      47.511  30.360  29.657  1.00  0.00    -0.206 F 
ATOM     62  C   UNL A   1      45.866  32.348  27.112  1.00  0.00     0.006 A 
ENDBRANCH  38  55
ENDBRANCH  12  13
ENDBRANCH   5   7
ENDBRANCH   2   3
ENDBRANCH   1   2
BRANCH   1  63
ATOM     63  C   UNL A   1      31.516  29.127  25.345  1.00  0.00     0.002 C 
BRANCH  63  64
ATOM     64  C   UNL A   1      30.681  29.403  24.090  1.00  0.00     0.002 C 
BRANCH  64  65
ATOM     65  C   UNL A   1      29.942  28.203  23.491  1.00  0.00     0.021 C 
BRANCH  65  66
ATOM     66  C   UNL A   1      30.735  27.379  22.480  1.00  0.00     0.116 C 
BRANCH  66  67
ATOM     67  N   UNL A   1      32.038  27.944  22.185  1.00  0.00    -0.351 N 
ATOM     68  C   UNL A   1      33.241  27.288  21.992  1.00  0.00     0.272 C 
ATOM     69  H   UNL A   1      32.071  28.925  22.111  1.00  0.00     0.163 HD
ATOM     70  O   UNL A   1      34.244  27.946  21.755  1.00  0.00    -0.267 OA
BRANCH  68  71
ATOM     71  C   UNL A   1      33.257  25.824  22.119  1.00  0.00     0.159 A 
ATOM     72  N   UNL A   1      32.902  25.050  21.075  1.00  0.00    -0.169 NA
ATOM     73  C   UNL A   1      33.681  25.031  23.232  1.00  0.00     0.051 A 
ATOM     74  N   UNL A   1      33.121  23.800  21.499  1.00  0.00    -0.277 N 
ATOM     75  C   UNL A   1      33.655  23.721  22.754  1.00  0.00     0.068 A 
ATOM     76  C   UNL A   1      34.121  25.225  24.556  1.00  0.00     0.054 A 
ATOM     77  H   UNL A   1      32.914  23.006  20.953  1.00  0.00     0.190 HD
ATOM     78  C   UNL A   1      34.107  22.622  23.497  1.00  0.00     0.044 A 
ATOM     79  C   UNL A   1      34.595  24.160  25.323  1.00  0.00     0.037 A 
ATOM     80  Cl  UNL A   1      34.027  26.801  25.208  1.00  0.00    -0.083 Cl
ATOM     81  C   UNL A   1      34.600  22.878  24.782  1.00  0.00     0.021 A 
ATOM     82  Br  UNL A   1      35.285  21.442  25.806  1.00  0.00    -0.051 Br
ENDBRANCH  68  71
ENDBRANCH  66  67
ENDBRANCH  65  66
ENDBRANCH  64  65
ENDBRANCH  63  64
ENDBRANCH   1  63
TORSDOF 13
ENDMDL
MODEL 2
REMARK VINA RESULT:     -12.0      3.314      7.965
REMARK SMILES O=C(NCCCCCCNC(=O)c1n[nH]c2cc(Br)cc(Cl)c12)c1ccc(-c2c3nc(c(-c4c(F)cccc4F)c4ccc([nH]4)c(-c4c(F)cccc4F)c4nc(c(-c5c(F)cccc5F)c5ccc2[nH]5)C=C4)C=C3)cc1
REMARK SMILES IDX 5 1 4 2 3 3 1 4 2 5 24 7 25 8 77 9 26 10 76 11 27 12 28 13
REMARK SMILES IDX 29 14 70 15 30 16 75 17 69 18 71 19 31 20 74 21 68 22 67 23
REMARK SMILES IDX 32 25 58 26 41 27 57 28 42 29 45 30 56 31 72 32 43 33 44 34
REMARK SMILES IDX 55 36 73 37 46 38 33 39 34 40 39 41 35 42 36 43 38 44 40 45
REMARK SMILES IDX 37 46 59 47 60 48 65 49 61 50 62 51 64 52 66 53 63 54 47 55
REMARK SMILES IDX 48 56 53 57 49 58 50 59 52 60 54 61 51 62 6 63 7 64 8 65
REMARK SMILES IDX 9 66 10 67 11 68 12 70 13 71 14 72 23 73 15 74 16 75 21 76
REMARK SMILES IDX 17 78 20 79 22 80 18 81 19 82
REMARK H PARENT 3 6 71 24 45 35 10 69 15 77
REMARK Flexibility Score: inf
ROOT
ATOM      1  C   UNL A   1      36.482  21.582  25.750  1.00  0.00     0.021 C 
ENDROOT
BRANCH   1   2
ATOM      2  C   UNL A   1      37.736  22.364  25.355  1.00  0.00     0.116 C 
BRANCH   2   3
ATOM      3  N   UNL A   1      38.955  21.853  25.943  1.00  0.00    -0.352 N 
ATOM      4  O   UNL A   1      40.786  21.536  27.128  1.00  0.00    -0.269 OA
ATOM      5  C   UNL A   1      39.912  22.339  26.789  1.00  0.00     0.251 C 
ATOM      6  H   UNL A   1      39.142  20.926  25.666  1.00  0.00     0.163 HD
BRANCH   5   7
ATOM      7  C   UNL A   1      39.997  23.738  27.302  1.00  0.00     0.039 A 
ATOM      8  C   UNL A   1      39.028  24.729  27.149  1.00  0.00     0.014 A 
ATOM      9  C   UNL A   1      41.179  24.070  27.995  1.00  0.00     0.014 A 
ATOM     10  C   UNL A   1      39.249  26.019  27.640  1.00  0.00     0.010 A 
ATOM     11  C   UNL A   1      41.399  25.354  28.496  1.00  0.00     0.010 A 
ATOM     12  C   UNL A   1      40.440  26.340  28.300  1.00  0.00    -0.014 A 
BRANCH  12  13
ATOM     13  C   UNL A   1      40.593  27.706  28.804  1.00  0.00     0.031 A 
ATOM     14  C   UNL A   1      41.758  28.492  28.294  1.00  0.00     0.074 A 
ATOM     15  C   UNL A   1      39.711  28.335  29.605  1.00  0.00     0.049 A 
ATOM     16  N   UNL A   1      42.753  28.985  28.962  1.00  0.00    -0.248 NA
ATOM     17  C   UNL A   1      41.825  28.745  26.848  1.00  0.00     0.031 C 
ATOM     18  C   UNL A   1      38.356  27.926  29.979  1.00  0.00     0.029 A 
ATOM     19  N   UNL A   1      39.848  29.554  30.207  1.00  0.00    -0.354 N 
ATOM     20  C   UNL A   1      43.506  29.733  28.054  1.00  0.00     0.074 A 
ATOM     21  C   UNL A   1      42.930  29.489  26.755  1.00  0.00     0.031 C 
ATOM     22  C   UNL A   1      37.731  28.962  30.586  1.00  0.00     0.029 A 
ATOM     23  C   UNL A   1      38.683  30.045  30.771  1.00  0.00     0.049 A 
ATOM     24  H   UNL A   1      40.701  30.043  30.235  1.00  0.00     0.167 HD
ATOM     25  C   UNL A   1      44.472  30.611  28.448  1.00  0.00     0.037 A 
ATOM     26  C   UNL A   1      38.504  31.269  31.317  1.00  0.00     0.037 A 
ATOM     27  C   UNL A   1      44.892  30.381  29.802  1.00  0.00     0.049 A 
ATOM     28  C   UNL A   1      39.833  31.817  31.675  1.00  0.00     0.074 A 
ATOM     29  C   UNL A   1      45.484  29.336  30.484  1.00  0.00     0.029 A 
ATOM     30  N   UNL A   1      44.476  31.255  30.773  1.00  0.00    -0.354 N 
ATOM     31  N   UNL A   1      40.581  31.374  32.645  1.00  0.00    -0.248 NA
ATOM     32  C   UNL A   1      40.500  32.688  30.720  1.00  0.00     0.031 C 
ATOM     33  C   UNL A   1      44.955  29.405  31.807  1.00  0.00     0.029 A 
ATOM     34  C   UNL A   1      44.081  30.492  31.838  1.00  0.00     0.049 A 
ATOM     35  H   UNL A   1      44.464  32.238  30.714  1.00  0.00     0.167 HD
ATOM     36  C   UNL A   1      41.881  31.570  32.208  1.00  0.00     0.074 A 
ATOM     37  C   UNL A   1      41.769  32.494  31.086  1.00  0.00     0.031 C 
ATOM     38  C   UNL A   1      42.897  30.756  32.620  1.00  0.00     0.037 A 
BRANCH  25  39
ATOM     39  C   UNL A   1      44.872  31.862  27.702  1.00  0.00     0.057 A 
ATOM     40  C   UNL A   1      46.102  31.905  27.016  1.00  0.00     0.134 A 
ATOM     41  C   UNL A   1      44.236  33.108  27.864  1.00  0.00     0.134 A 
ATOM     42  F   UNL A   1      46.819  30.789  26.812  1.00  0.00    -0.206 F 
ATOM     43  C   UNL A   1      46.683  33.102  26.580  1.00  0.00     0.040 A 
ATOM     44  C   UNL A   1      44.784  34.305  27.389  1.00  0.00     0.040 A 
ATOM     45  F   UNL A   1      43.106  33.241  28.571  1.00  0.00    -0.206 F 
ATOM     46  C   UNL A   1      46.025  34.310  26.771  1.00  0.00     0.006 A 
ENDBRANCH  25  39
BRANCH  26  47
ATOM     47  C   UNL A   1      37.285  32.105  31.339  1.00  0.00     0.057 A 
ATOM     48  C   UNL A   1      36.864  32.807  30.201  1.00  0.00     0.134 A 
ATOM     49  C   UNL A   1      36.355  32.008  32.389  1.00  0.00     0.134 A 
ATOM     50  F   UNL A   1      37.666  32.918  29.133  1.00  0.00    -0.206 F 
ATOM     51  C   UNL A   1      35.581  33.361  30.102  1.00  0.00     0.040 A 
ATOM     52  C   UNL A   1      35.075  32.564  32.306  1.00  0.00     0.040 A 
ATOM     53  F   UNL A   1      36.627  31.295  33.491  1.00  0.00    -0.206 F 
ATOM     54  C   UNL A   1      34.678  33.229  31.153  1.00  0.00     0.006 A 
ENDBRANCH  26  47
BRANCH  38  55
ATOM     55  C   UNL A   1      42.634  29.841  33.781  1.00  0.00     0.057 A 
ATOM     56  C   UNL A   1      42.069  28.565  33.647  1.00  0.00     0.134 A 
ATOM     57  C   UNL A   1      43.103  30.199  35.050  1.00  0.00     0.134 A 
ATOM     58  F   UNL A   1      41.693  28.097  32.451  1.00  0.00    -0.206 F 
ATOM     59  C   UNL A   1      41.933  27.703  34.740  1.00  0.00     0.040 A 
ATOM     60  C   UNL A   1      43.002  29.334  36.143  1.00  0.00     0.040 A 
ATOM     61  F   UNL A   1      43.714  31.380  35.239  1.00  0.00    -0.206 F 
ATOM     62  C   UNL A   1      42.404  28.086  35.991  1.00  0.00     0.006 A 
ENDBRANCH  38  55
ENDBRANCH  12  13
ENDBRANCH   5   7
ENDBRANCH   2   3
ENDBRANCH   1   2
BRANCH   1  63
ATOM     63  C   UNL A   1      35.807  20.805  24.612  1.00  0.00     0.002 C 
BRANCH  63  64
ATOM     64  C   UNL A   1      34.526  20.043  24.971  1.00  0.00     0.002 C 
BRANCH  64  65
ATOM     65  C   UNL A   1      33.251  20.482  24.247  1.00  0.00     0.021 C 
BRANCH  65  66
ATOM     66  C   UNL A   1      32.267  21.295  25.082  1.00  0.00     0.116 C 
BRANCH  66  67
ATOM     67  N   UNL A   1      32.697  21.470  26.457  1.00  0.00    -0.351 N 
ATOM     68  C   UNL A   1      32.389  22.492  27.337  1.00  0.00     0.272 C 
ATOM     69  H   UNL A   1      33.287  20.766  26.811  1.00  0.00     0.163 HD
ATOM     70  O   UNL A   1      32.858  22.465  28.466  1.00  0.00    -0.267 OA
BRANCH  68  71
ATOM     71  C   UNL A   1      31.534  23.585  26.852  1.00  0.00     0.159 A 
ATOM     72  N   UNL A   1      30.202  23.544  27.055  1.00  0.00    -0.169 NA
ATOM     73  C   UNL A   1      31.923  24.802  26.209  1.00  0.00     0.051 A 
ATOM     74  N   UNL A   1      29.758  24.715  26.583  1.00  0.00    -0.277 N 
ATOM     75  C   UNL A   1      30.744  25.544  26.128  1.00  0.00     0.068 A 
ATOM     76  C   UNL A   1      33.098  25.406  25.720  1.00  0.00     0.054 A 
ATOM     77  H   UNL A   1      28.804  24.956  26.564  1.00  0.00     0.190 HD
ATOM     78  C   UNL A   1      30.696  26.864  25.658  1.00  0.00     0.044 A 
ATOM     79  C   UNL A   1      33.097  26.723  25.261  1.00  0.00     0.037 A 
ATOM     80  Cl  UNL A   1      34.523  24.465  25.678  1.00  0.00    -0.083 Cl
ATOM     81  C   UNL A   1      31.905  27.441  25.251  1.00  0.00     0.021 A 
ATOM     82  Br  UNL A   1      31.912  29.241  24.668  1.00  0.00    -0.051 Br
ENDBRANCH  68  71
ENDBRANCH  66  67
ENDBRANCH  65  66
ENDBRANCH  64  65
ENDBRANCH  63  64
ENDBRANCH   1  63
TORSDOF 13
ENDMDL
MODEL 3
REMARK VINA RESULT:     -12.0      4.586      7.089
REMARK SMILES O=C(NCCCCCCNC(=O)c1n[nH]c2cc(Br)cc(Cl)c12)c1ccc(-c2c3nc(c(-c4c(F)cccc4F)c4ccc([nH]4)c(-c4c(F)cccc4F)c4nc(c(-c5c(F)cccc5F)c5ccc2[nH]5)C=C4)C=C3)cc1
REMARK SMILES IDX 5 1 4 2 3 3 1 4 2 5 24 7 25 8 77 9 26 10 76 11 27 12 28 13
REMARK SMILES IDX 29 14 70 15 30 16 75 17 69 18 71 19 31 20 74 21 68 22 67 23
REMARK SMILES IDX 32 25 58 26 41 27 57 28 42 29 45 30 56 31 72 32 43 33 44 34
REMARK SMILES IDX 55 36 73 37 46 38 33 39 34 40 39 41 35 42 36 43 38 44 40 45
REMARK SMILES IDX 37 46 59 47 60 48 65 49 61 50 62 51 64 52 66 53 63 54 47 55
REMARK SMILES IDX 48 56 53 57 49 58 50 59 52 60 54 61 51 62 6 63 7 64 8 65
REMARK SMILES IDX 9 66 10 67 11 68 12 70 13 71 14 72 23 73 15 74 16 75 21 76
REMARK SMILES IDX 17 78 20 79 22 80 18 81 19 82
REMARK H PARENT 3 6 71 24 45 35 10 69 15 77
REMARK Flexibility Score: inf
ROOT
ATOM      1  C   UNL A   1      34.574  32.540  31.925  1.00  0.00     0.021 C 
ENDROOT
BRANCH   1   2
ATOM      2  C   UNL A   1      34.670  33.633  30.859  1.00  0.00     0.116 C 
BRANCH   2   3
ATOM      3  N   UNL A   1      34.392  33.168  29.517  1.00  0.00    -0.352 N 
ATOM      4  O   UNL A   1      34.344  32.085  27.599  1.00  0.00    -0.269 OA
ATOM      5  C   UNL A   1      34.940  32.249  28.667  1.00  0.00     0.251 C 
ATOM      6  H   UNL A   1      33.617  33.627  29.117  1.00  0.00     0.163 HD
BRANCH   5   7
ATOM      7  C   UNL A   1      36.186  31.466  28.910  1.00  0.00     0.039 A 
ATOM      8  C   UNL A   1      37.475  31.986  29.015  1.00  0.00     0.014 A 
ATOM      9  C   UNL A   1      36.024  30.070  29.033  1.00  0.00     0.014 A 
ATOM     10  C   UNL A   1      38.571  31.138  29.201  1.00  0.00     0.010 A 
ATOM     11  C   UNL A   1      37.114  29.220  29.228  1.00  0.00     0.010 A 
ATOM     12  C   UNL A   1      38.396  29.752  29.291  1.00  0.00    -0.014 A 
BRANCH  12  13
ATOM     13  C   UNL A   1      39.587  28.927  29.504  1.00  0.00     0.031 A 
ATOM     14  C   UNL A   1      40.026  28.720  30.917  1.00  0.00     0.074 A 
ATOM     15  C   UNL A   1      40.246  28.263  28.534  1.00  0.00     0.049 A 
ATOM     16  N   UNL A   1      41.144  29.068  31.473  1.00  0.00    -0.248 NA
ATOM     17  C   UNL A   1      39.088  28.052  31.828  1.00  0.00     0.031 C 
ATOM     18  C   UNL A   1      39.847  28.030  27.145  1.00  0.00     0.029 A 
ATOM     19  N   UNL A   1      41.424  27.579  28.641  1.00  0.00    -0.354 N 
ATOM     20  C   UNL A   1      41.121  28.543  32.767  1.00  0.00     0.074 A 
ATOM     21  C   UNL A   1      39.802  27.992  32.955  1.00  0.00     0.031 C 
ATOM     22  C   UNL A   1      40.670  27.107  26.596  1.00  0.00     0.029 A 
ATOM     23  C   UNL A   1      41.731  26.798  27.540  1.00  0.00     0.049 A 
ATOM     24  H   UNL A   1      42.005  27.636  29.433  1.00  0.00     0.167 HD
ATOM     25  C   UNL A   1      42.232  28.476  33.554  1.00  0.00     0.037 A 
ATOM     26  C   UNL A   1      42.764  25.931  27.428  1.00  0.00     0.037 A 
ATOM     27  C   UNL A   1      43.279  29.341  33.085  1.00  0.00     0.049 A 
ATOM     28  C   UNL A   1      43.789  26.296  28.433  1.00  0.00     0.074 A 
ATOM     29  C   UNL A   1      43.421  30.702  32.901  1.00  0.00     0.029 A 
ATOM     30  N   UNL A   1      44.361  28.778  32.459  1.00  0.00    -0.354 N 
ATOM     31  N   UNL A   1      44.535  27.362  28.378  1.00  0.00    -0.248 NA
ATOM     32  C   UNL A   1      43.768  25.615  29.718  1.00  0.00     0.031 C 
ATOM     33  C   UNL A   1      44.289  30.839  31.777  1.00  0.00     0.029 A 
ATOM     34  C   UNL A   1      44.617  29.550  31.358  1.00  0.00     0.049 A 
ATOM     35  H   UNL A   1      44.856  27.975  32.745  1.00  0.00     0.167 HD
ATOM     36  C   UNL A   1      44.751  27.714  29.700  1.00  0.00     0.074 A 
ATOM     37  C   UNL A   1      44.369  26.538  30.472  1.00  0.00     0.031 C 
ATOM     38  C   UNL A   1      44.958  29.013  30.062  1.00  0.00     0.037 A 
BRANCH  25  39
ATOM     39  C   UNL A   1      42.491  27.432  34.614  1.00  0.00     0.057 A 
ATOM     40  C   UNL A   1      42.960  26.156  34.241  1.00  0.00     0.134 A 
ATOM     41  C   UNL A   1      42.035  27.534  35.942  1.00  0.00     0.134 A 
ATOM     42  F   UNL A   1      43.403  25.920  32.996  1.00  0.00    -0.206 F 
ATOM     43  C   UNL A   1      42.919  25.054  35.104  1.00  0.00     0.040 A 
ATOM     44  C   UNL A   1      42.036  26.451  36.829  1.00  0.00     0.040 A 
ATOM     45  F   UNL A   1      41.480  28.656  36.416  1.00  0.00    -0.206 F 
ATOM     46  C   UNL A   1      42.452  25.198  36.403  1.00  0.00     0.006 A 
ENDBRANCH  25  39
BRANCH  26  47
ATOM     47  C   UNL A   1      42.830  24.662  26.674  1.00  0.00     0.057 A 
ATOM     48  C   UNL A   1      43.628  24.536  25.529  1.00  0.00     0.134 A 
ATOM     49  C   UNL A   1      42.333  23.465  27.219  1.00  0.00     0.134 A 
ATOM     50  F   UNL A   1      44.180  25.617  24.960  1.00  0.00    -0.206 F 
ATOM     51  C   UNL A   1      43.936  23.289  24.971  1.00  0.00     0.040 A 
ATOM     52  C   UNL A   1      42.626  22.215  26.667  1.00  0.00     0.040 A 
ATOM     53  F   UNL A   1      41.623  23.464  28.356  1.00  0.00    -0.206 F 
ATOM     54  C   UNL A   1      43.444  22.122  25.548  1.00  0.00     0.006 A 
ENDBRANCH  26  47
BRANCH  38  55
ATOM     55  C   UNL A   1      45.248  30.006  28.973  1.00  0.00     0.057 A 
ATOM     56  C   UNL A   1      46.537  30.260  28.482  1.00  0.00     0.134 A 
ATOM     57  C   UNL A   1      44.181  30.609  28.299  1.00  0.00     0.134 A 
ATOM     58  F   UNL A   1      47.607  29.642  28.996  1.00  0.00    -0.206 F 
ATOM     59  C   UNL A   1      46.756  31.117  27.400  1.00  0.00     0.040 A 
ATOM     60  C   UNL A   1      44.384  31.442  27.196  1.00  0.00     0.040 A 
ATOM     61  F   UNL A   1      42.916  30.360  28.673  1.00  0.00    -0.206 F 
ATOM     62  C   UNL A   1      45.676  31.707  26.750  1.00  0.00     0.006 A 
ENDBRANCH  38  55
ENDBRANCH  12  13
ENDBRANCH   5   7
ENDBRANCH   2   3
ENDBRANCH   1   2
BRANCH   1  63
ATOM     63  C   UNL A   1      35.771  32.447  32.880  1.00  0.00     0.002 C 
BRANCH  63  64
ATOM     64  C   UNL A   1      36.779  31.326  32.604  1.00  0.00     0.002 C 
BRANCH  64  65
ATOM     65  C   UNL A   1      37.772  31.016  33.728  1.00  0.00     0.021 C 
BRANCH  65  66
ATOM     66  C   UNL A   1      39.080  31.801  33.685  1.00  0.00     0.116 C 
BRANCH  66  67
ATOM     67  N   UNL A   1      38.993  33.088  34.346  1.00  0.00    -0.351 N 
ATOM     68  C   UNL A   1      38.969  34.352  33.782  1.00  0.00     0.272 C 
ATOM     69  H   UNL A   1      38.943  33.060  35.330  1.00  0.00     0.163 HD
ATOM     70  O   UNL A   1      38.896  35.328  34.515  1.00  0.00    -0.267 OA
BRANCH  68  71
ATOM     71  C   UNL A   1      39.068  34.455  32.319  1.00  0.00     0.159 A 
ATOM     72  N   UNL A   1      37.960  34.649  31.577  1.00  0.00    -0.169 NA
ATOM     73  C   UNL A   1      40.244  34.447  31.504  1.00  0.00     0.051 A 
ATOM     74  N   UNL A   1      38.418  34.789  30.328  1.00  0.00    -0.277 N 
ATOM     75  C   UNL A   1      39.780  34.751  30.224  1.00  0.00     0.068 A 
ATOM     76  C   UNL A   1      41.632  34.269  31.659  1.00  0.00     0.054 A 
ATOM     77  H   UNL A   1      37.824  34.909  29.551  1.00  0.00     0.190 HD
ATOM     78  C   UNL A   1      40.627  34.954  29.126  1.00  0.00     0.044 A 
ATOM     79  C   UNL A   1      42.511  34.478  30.597  1.00  0.00     0.037 A 
ATOM     80  Cl  UNL A   1      42.207  33.757  33.184  1.00  0.00    -0.083 Cl
ATOM     81  C   UNL A   1      42.004  34.835  29.351  1.00  0.00     0.021 A 
ATOM     82  Br  UNL A   1      43.200  35.162  27.922  1.00  0.00    -0.051 Br
ENDBRANCH  68  71
ENDBRANCH  66  67
ENDBRANCH  65  66
ENDBRANCH  64  65
ENDBRANCH  63  64
ENDBRANCH   1  63
TORSDOF 13
ENDMDL
