MODEL 1
REMARK VINA RESULT:     -12.5      0.000      0.000
REMARK SMILES O=C(NCCCCCCNC(=O)c1cc(S(=O)(=O)NNC(=O)[C@H]2C=C(c3ccccc3)N=N2)ccc1F)c1ccc(-c2c3nc(c(-c4c(F)cccc4F)c4ccc([nH]4)c(-c4c(F)cccc4F)c4nc(c(-c5c(F)cccc5F)c5ccc2[nH]5)C=C4)C=C3)cc1
REMARK SMILES IDX 8 1 7 2 6 3 5 4 4 5 3 6 1 7 2 8 38 10 39 11 91 12 40 13
REMARK SMILES IDX 90 14 41 15 42 16 43 17 84 18 44 19 89 20 83 21 85 22 45 23
REMARK SMILES IDX 88 24 82 25 81 26 46 28 72 29 55 30 71 31 56 32 59 33 70 34
REMARK SMILES IDX 86 35 57 36 58 37 69 39 87 40 60 41 47 42 48 43 53 44 49 45
REMARK SMILES IDX 50 46 52 47 54 48 51 49 73 50 74 51 79 52 75 53 76 54 78 55
REMARK SMILES IDX 80 56 77 57 61 58 62 59 67 60 63 61 64 62 66 63 68 64 65 65
REMARK SMILES IDX 9 66 10 67 11 68 12 70 13 71 14 72 36 73 15 74 35 75 37 76
REMARK SMILES IDX 34 77 16 78 17 79 18 80 19 81 20 83 21 84 22 86 23 87 24 88
REMARK SMILES IDX 33 89 25 90 32 91 26 92 27 93 31 94 28 95 30 96 29 97
REMARK H PARENT 3 9 85 27 59 38 10 69 19 82 20 85
REMARK Flexibility Score: inf
ROOT
ATOM      1  C   UNL A   1      35.415  29.649  27.467  1.00  0.00     0.021 C 
ENDROOT
BRANCH   1   2
ATOM      2  C   UNL A   1      34.802  30.891  28.119  1.00  0.00     0.002 C 
BRANCH   2   3
ATOM      3  C   UNL A   1      35.372  32.229  27.649  1.00  0.00     0.002 C 
BRANCH   3   4
ATOM      4  C   UNL A   1      34.570  33.470  28.053  1.00  0.00     0.021 C 
BRANCH   4   5
ATOM      5  C   UNL A   1      35.044  34.155  29.336  1.00  0.00     0.116 C 
BRANCH   5   6
ATOM      6  N   UNL A   1      34.551  33.537  30.547  1.00  0.00    -0.352 N 
ATOM      7  O   UNL A   1      34.347  32.376  32.414  1.00  0.00    -0.269 OA
ATOM      8  C   UNL A   1      35.040  32.606  31.419  1.00  0.00     0.251 C 
ATOM      9  H   UNL A   1      33.656  33.861  30.801  1.00  0.00     0.163 HD
BRANCH   8  10
ATOM     10  C   UNL A   1      36.307  31.842  31.238  1.00  0.00     0.039 A 
ATOM     11  C   UNL A   1      37.577  32.394  31.069  1.00  0.00     0.014 A 
ATOM     12  C   UNL A   1      36.185  30.439  31.225  1.00  0.00     0.014 A 
ATOM     13  C   UNL A   1      38.683  31.580  30.831  1.00  0.00     0.010 A 
ATOM     14  C   UNL A   1      37.291  29.619  31.015  1.00  0.00     0.010 A 
ATOM     15  C   UNL A   1      38.539  30.193  30.790  1.00  0.00    -0.014 A 
BRANCH  15  16
ATOM     16  C   UNL A   1      39.748  29.394  30.598  1.00  0.00     0.031 A 
ATOM     17  C   UNL A   1      40.625  29.203  31.795  1.00  0.00     0.074 A 
ATOM     18  C   UNL A   1      40.012  28.712  29.467  1.00  0.00     0.049 A 
ATOM     19  N   UNL A   1      41.898  29.412  31.916  1.00  0.00    -0.248 NA
ATOM     20  C   UNL A   1      39.978  28.728  33.028  1.00  0.00     0.031 C 
ATOM     21  C   UNL A   1      39.131  28.494  28.318  1.00  0.00     0.029 A 
ATOM     22  N   UNL A   1      41.116  27.968  29.165  1.00  0.00    -0.354 N 
ATOM     23  C   UNL A   1      42.248  28.950  33.187  1.00  0.00     0.074 A 
ATOM     24  C   UNL A   1      41.018  28.616  33.855  1.00  0.00     0.031 C 
ATOM     25  C   UNL A   1      39.646  27.507  27.552  1.00  0.00     0.029 A 
ATOM     26  C   UNL A   1      40.943  27.123  28.082  1.00  0.00     0.049 A 
ATOM     27  H   UNL A   1      41.957  28.027  29.672  1.00  0.00     0.167 HD
ATOM     28  C   UNL A   1      43.537  28.722  33.565  1.00  0.00     0.037 A 
ATOM     29  C   UNL A   1      41.773  26.127  27.697  1.00  0.00     0.037 A 
ATOM     30  C   UNL A   1      44.479  29.438  32.754  1.00  0.00     0.049 A 
ATOM     31  C   UNL A   1      43.103  26.365  28.307  1.00  0.00     0.074 A 
ATOM     32  C   UNL A   1      44.720  30.772  32.482  1.00  0.00     0.029 A 
ATOM     33  N   UNL A   1      45.233  28.742  31.845  1.00  0.00    -0.354 N 
ATOM     34  N   UNL A   1      43.914  27.328  27.976  1.00  0.00    -0.248 NA
ATOM     35  C   UNL A   1      43.408  25.694  29.561  1.00  0.00     0.031 C 
ATOM     36  C   UNL A   1      45.198  30.797  31.139  1.00  0.00     0.029 A 
ATOM     37  C   UNL A   1      45.217  29.477  30.688  1.00  0.00     0.049 A 
ATOM     38  H   UNL A   1      45.693  27.885  31.993  1.00  0.00     0.167 HD
ATOM     39  C   UNL A   1      44.584  27.647  29.146  1.00  0.00     0.074 A 
ATOM     40  C   UNL A   1      44.324  26.532  30.048  1.00  0.00     0.031 C 
ATOM     41  C   UNL A   1      45.059  28.906  29.372  1.00  0.00     0.037 A 
BRANCH  28  42
ATOM     42  C   UNL A   1      43.961  27.631  34.517  1.00  0.00     0.057 A 
ATOM     43  C   UNL A   1      43.966  26.263  34.179  1.00  0.00     0.134 A 
ATOM     44  C   UNL A   1      44.644  27.955  35.704  1.00  0.00     0.134 A 
ATOM     45  F   UNL A   1      43.450  25.814  33.027  1.00  0.00    -0.206 F 
ATOM     46  C   UNL A   1      44.590  25.289  34.966  1.00  0.00     0.040 A 
ATOM     47  C   UNL A   1      45.316  26.994  36.473  1.00  0.00     0.040 A 
ATOM     48  F   UNL A   1      44.744  29.227  36.118  1.00  0.00    -0.206 F 
ATOM     49  C   UNL A   1      45.291  25.656  36.103  1.00  0.00     0.006 A 
ENDBRANCH  28  42
BRANCH  29  50
ATOM     50  C   UNL A   1      41.416  24.836  27.069  1.00  0.00     0.057 A 
ATOM     51  C   UNL A   1      40.349  24.054  27.548  1.00  0.00     0.134 A 
ATOM     52  C   UNL A   1      42.276  24.213  26.155  1.00  0.00     0.134 A 
ATOM     53  F   UNL A   1      39.516  24.519  28.490  1.00  0.00    -0.206 F 
ATOM     54  C   UNL A   1      40.150  22.732  27.143  1.00  0.00     0.040 A 
ATOM     55  C   UNL A   1      42.095  22.884  25.751  1.00  0.00     0.040 A 
ATOM     56  F   UNL A   1      43.348  24.861  25.678  1.00  0.00    -0.206 F 
ATOM     57  C   UNL A   1      41.033  22.137  26.252  1.00  0.00     0.006 A 
ENDBRANCH  29  50
BRANCH  41  58
ATOM     58  C   UNL A   1      45.109  29.863  28.216  1.00  0.00     0.057 A 
ATOM     59  C   UNL A   1      46.330  30.092  27.574  1.00  0.00     0.134 A 
ATOM     60  C   UNL A   1      44.031  30.680  27.846  1.00  0.00     0.134 A 
ATOM     61  F   UNL A   1      47.421  29.393  27.924  1.00  0.00    -0.206 F 
ATOM     62  C   UNL A   1      46.475  31.083  26.600  1.00  0.00     0.040 A 
ATOM     63  C   UNL A   1      44.153  31.651  26.849  1.00  0.00     0.040 A 
ATOM     64  F   UNL A   1      42.854  30.604  28.481  1.00  0.00    -0.206 F 
ATOM     65  C   UNL A   1      45.381  31.861  26.227  1.00  0.00     0.006 A 
ENDBRANCH  41  58
ENDBRANCH  15  16
ENDBRANCH   8  10
ENDBRANCH   5   6
ENDBRANCH   4   5
ENDBRANCH   3   4
ENDBRANCH   2   3
ENDBRANCH   1   2
BRANCH   1  66
ATOM     66  C   UNL A   1      34.422  28.744  26.746  1.00  0.00     0.116 C 
BRANCH  66  67
ATOM     67  N   UNL A   1      33.258  28.447  27.558  1.00  0.00    -0.352 N 
ATOM     68  C   UNL A   1      31.968  28.208  27.164  1.00  0.00     0.254 C 
ATOM     69  H   UNL A   1      33.416  28.411  28.530  1.00  0.00     0.163 HD
ATOM     70  O   UNL A   1      31.074  28.072  27.992  1.00  0.00    -0.269 OA
BRANCH  68  71
ATOM     71  C   UNL A   1      31.627  28.195  25.734  1.00  0.00     0.076 A 
ATOM     72  C   UNL A   1      31.677  26.974  25.062  1.00  0.00     0.038 A 
ATOM     73  C   UNL A   1      31.282  29.353  25.042  1.00  0.00     0.136 A 
ATOM     74  C   UNL A   1      31.316  26.914  23.711  1.00  0.00     0.085 A 
ATOM     75  C   UNL A   1      30.898  29.290  23.703  1.00  0.00     0.041 A 
ATOM     76  F   UNL A   1      31.286  30.547  25.652  1.00  0.00    -0.206 F 
ATOM     77  C   UNL A   1      30.896  28.062  23.033  1.00  0.00     0.025 A 
BRANCH  74  78
ATOM     78  S   UNL A   1      31.503  25.342  22.925  1.00  0.00     0.257 S 
ATOM     79  O   UNL A   1      30.288  24.595  23.154  1.00  0.00    -0.205 OA
ATOM     80  O   UNL A   1      32.025  25.594  21.599  1.00  0.00    -0.205 OA
BRANCH  78  81
ATOM     81  N   UNL A   1      32.734  24.538  23.748  1.00  0.00    -0.123 NA
ATOM     82  H   UNL A   1      32.406  23.582  23.888  1.00  0.00     0.167 HD
BRANCH  81  83
ATOM     83  N   UNL A   1      34.070  24.431  23.217  1.00  0.00    -0.275 N 
ATOM     84  C   UNL A   1      34.936  23.382  23.467  1.00  0.00     0.265 C 
ATOM     85  H   UNL A   1      34.389  25.156  22.634  1.00  0.00     0.186 HD
ATOM     86  O   UNL A   1      35.949  23.275  22.776  1.00  0.00    -0.271 OA
BRANCH  84  87
ATOM     87  C   UNL A   1      34.595  22.478  24.655  1.00  0.00     0.244 C 
ATOM     88  C   UNL A   1      33.791  21.287  24.298  1.00  0.00     0.042 C 
ATOM     89  N   UNL A   1      35.836  21.864  25.217  1.00  0.00    -0.171 NA
ATOM     90  C   UNL A   1      34.514  20.244  24.698  1.00  0.00     0.091 C 
ATOM     91  N   UNL A   1      35.711  20.602  25.254  1.00  0.00    -0.155 NA
BRANCH  90  92
ATOM     92  C   UNL A   1      34.003  18.882  24.613  1.00  0.00     0.002 A 
ATOM     93  C   UNL A   1      34.850  17.828  24.254  1.00  0.00     0.010 A 
ATOM     94  C   UNL A   1      32.689  18.604  25.016  1.00  0.00     0.010 A 
ATOM     95  C   UNL A   1      34.394  16.510  24.323  1.00  0.00     0.001 A 
ATOM     96  C   UNL A   1      32.234  17.289  25.077  1.00  0.00     0.001 A 
ATOM     97  C   UNL A   1      33.089  16.242  24.739  1.00  0.00     0.000 A 
ENDBRANCH  90  92
ENDBRANCH  84  87
ENDBRANCH  81  83
ENDBRANCH  78  81
ENDBRANCH  74  78
ENDBRANCH  68  71
ENDBRANCH  66  67
ENDBRANCH   1  66
TORSDOF 18
ENDMDL
MODEL 2
REMARK VINA RESULT:     -12.5      1.881      3.237
REMARK SMILES O=C(NCCCCCCNC(=O)c1cc(S(=O)(=O)NNC(=O)[C@H]2C=C(c3ccccc3)N=N2)ccc1F)c1ccc(-c2c3nc(c(-c4c(F)cccc4F)c4ccc([nH]4)c(-c4c(F)cccc4F)c4nc(c(-c5c(F)cccc5F)c5ccc2[nH]5)C=C4)C=C3)cc1
REMARK SMILES IDX 8 1 7 2 6 3 5 4 4 5 3 6 1 7 2 8 38 10 39 11 91 12 40 13
REMARK SMILES IDX 90 14 41 15 42 16 43 17 84 18 44 19 89 20 83 21 85 22 45 23
REMARK SMILES IDX 88 24 82 25 81 26 46 28 72 29 55 30 71 31 56 32 59 33 70 34
REMARK SMILES IDX 86 35 57 36 58 37 69 39 87 40 60 41 47 42 48 43 53 44 49 45
REMARK SMILES IDX 50 46 52 47 54 48 51 49 73 50 74 51 79 52 75 53 76 54 78 55
REMARK SMILES IDX 80 56 77 57 61 58 62 59 67 60 63 61 64 62 66 63 68 64 65 65
REMARK SMILES IDX 9 66 10 67 11 68 12 70 13 71 14 72 36 73 15 74 35 75 37 76
REMARK SMILES IDX 34 77 16 78 17 79 18 80 19 81 20 83 21 84 22 86 23 87 24 88
REMARK SMILES IDX 33 89 25 90 32 91 26 92 27 93 31 94 28 95 30 96 29 97
REMARK H PARENT 3 9 85 27 59 38 10 69 19 82 20 85
REMARK Flexibility Score: inf
ROOT
ATOM      1  C   UNL A   1      34.029  28.570  23.899  1.00  0.00     0.021 C 
ENDROOT
BRANCH   1   2
ATOM      2  C   UNL A   1      33.195  28.364  25.166  1.00  0.00     0.002 C 
BRANCH   2   3
ATOM      3  C   UNL A   1      32.423  29.592  25.651  1.00  0.00     0.002 C 
BRANCH   3   4
ATOM      4  C   UNL A   1      32.699  30.020  27.096  1.00  0.00     0.021 C 
BRANCH   4   5
ATOM      5  C   UNL A   1      34.122  30.515  27.362  1.00  0.00     0.116 C 
BRANCH   5   6
ATOM      6  N   UNL A   1      34.226  31.425  28.481  1.00  0.00    -0.352 N 
ATOM      7  O   UNL A   1      34.949  32.641  30.176  1.00  0.00    -0.269 OA
ATOM      8  C   UNL A   1      35.202  31.725  29.388  1.00  0.00     0.251 C 
ATOM      9  H   UNL A   1      33.403  31.949  28.621  1.00  0.00     0.163 HD
BRANCH   8  10
ATOM     10  C   UNL A   1      36.507  31.015  29.512  1.00  0.00     0.039 A 
ATOM     11  C   UNL A   1      37.757  31.539  29.179  1.00  0.00     0.014 A 
ATOM     12  C   UNL A   1      36.448  29.694  29.995  1.00  0.00     0.014 A 
ATOM     13  C   UNL A   1      38.905  30.755  29.265  1.00  0.00     0.010 A 
ATOM     14  C   UNL A   1      37.595  28.913  30.108  1.00  0.00     0.010 A 
ATOM     15  C   UNL A   1      38.824  29.437  29.715  1.00  0.00    -0.014 A 
BRANCH  15  16
ATOM     16  C   UNL A   1      40.073  28.688  29.840  1.00  0.00     0.031 A 
ATOM     17  C   UNL A   1      40.686  28.623  31.204  1.00  0.00     0.074 A 
ATOM     18  C   UNL A   1      40.592  27.943  28.845  1.00  0.00     0.049 A 
ATOM     19  N   UNL A   1      41.897  28.904  31.569  1.00  0.00    -0.248 NA
ATOM     20  C   UNL A   1      39.810  28.203  32.310  1.00  0.00     0.031 C 
ATOM     21  C   UNL A   1      39.979  27.602  27.560  1.00  0.00     0.029 A 
ATOM     22  N   UNL A   1      41.759  27.236  28.836  1.00  0.00    -0.354 N 
ATOM     23  C   UNL A   1      41.988  28.548  32.916  1.00  0.00     0.074 A 
ATOM     24  C   UNL A   1      40.657  28.201  33.340  1.00  0.00     0.031 C 
ATOM     25  C   UNL A   1      40.677  26.592  26.995  1.00  0.00     0.029 A 
ATOM     26  C   UNL A   1      41.846  26.311  27.810  1.00  0.00     0.049 A 
ATOM     27  H   UNL A   1      42.473  27.372  29.500  1.00  0.00     0.167 HD
ATOM     28  C   UNL A   1      43.176  28.411  33.569  1.00  0.00     0.037 A 
ATOM     29  C   UNL A   1      42.772  25.333  27.683  1.00  0.00     0.037 A 
ATOM     30  C   UNL A   1      44.242  29.116  32.917  1.00  0.00     0.049 A 
ATOM     31  C   UNL A   1      43.935  25.678  28.535  1.00  0.00     0.074 A 
ATOM     32  C   UNL A   1      44.489  30.438  32.597  1.00  0.00     0.029 A 
ATOM     33  N   UNL A   1      45.193  28.398  32.241  1.00  0.00    -0.354 N 
ATOM     34  N   UNL A   1      44.765  26.656  28.304  1.00  0.00    -0.248 NA
ATOM     35  C   UNL A   1      43.994  25.112  29.873  1.00  0.00     0.031 C 
ATOM     36  C   UNL A   1      45.237  30.395  31.384  1.00  0.00     0.029 A 
ATOM     37  C   UNL A   1      45.396  29.049  31.052  1.00  0.00     0.049 A 
ATOM     38  H   UNL A   1      45.641  27.576  32.547  1.00  0.00     0.167 HD
ATOM     39  C   UNL A   1      45.163  27.088  29.559  1.00  0.00     0.074 A 
ATOM     40  C   UNL A   1      44.758  26.026  30.472  1.00  0.00     0.031 C 
ATOM     41  C   UNL A   1      45.537  28.381  29.780  1.00  0.00     0.037 A 
BRANCH  28  42
ATOM     42  C   UNL A   1      43.428  27.412  34.670  1.00  0.00     0.057 A 
ATOM     43  C   UNL A   1      43.332  27.725  36.041  1.00  0.00     0.134 A 
ATOM     44  C   UNL A   1      43.498  26.037  34.376  1.00  0.00     0.134 A 
ATOM     45  F   UNL A   1      43.152  28.980  36.472  1.00  0.00    -0.206 F 
ATOM     46  C   UNL A   1      43.319  26.749  37.044  1.00  0.00     0.040 A 
ATOM     47  C   UNL A   1      43.434  25.050  35.369  1.00  0.00     0.040 A 
ATOM     48  F   UNL A   1      43.557  25.605  33.107  1.00  0.00    -0.206 F 
ATOM     49  C   UNL A   1      43.344  25.405  36.708  1.00  0.00     0.006 A 
ENDBRANCH  28  42
BRANCH  29  50
ATOM     50  C   UNL A   1      42.600  23.985  27.098  1.00  0.00     0.057 A 
ATOM     51  C   UNL A   1      42.253  22.877  27.892  1.00  0.00     0.134 A 
ATOM     52  C   UNL A   1      43.027  23.702  25.794  1.00  0.00     0.134 A 
ATOM     53  F   UNL A   1      41.914  23.024  29.180  1.00  0.00    -0.206 F 
ATOM     54  C   UNL A   1      42.329  21.565  27.418  1.00  0.00     0.040 A 
ATOM     55  C   UNL A   1      43.121  22.391  25.312  1.00  0.00     0.040 A 
ATOM     56  F   UNL A   1      43.423  24.689  24.978  1.00  0.00    -0.206 F 
ATOM     57  C   UNL A   1      42.778  21.316  26.128  1.00  0.00     0.006 A 
ENDBRANCH  29  50
BRANCH  41  58
ATOM     58  C   UNL A   1      45.794  29.258  28.588  1.00  0.00     0.057 A 
ATOM     59  C   UNL A   1      47.115  29.526  28.214  1.00  0.00     0.134 A 
ATOM     60  C   UNL A   1      44.786  29.970  27.924  1.00  0.00     0.134 A 
ATOM     61  F   UNL A   1      48.135  28.930  28.852  1.00  0.00    -0.206 F 
ATOM     62  C   UNL A   1      47.424  30.454  27.217  1.00  0.00     0.040 A 
ATOM     63  C   UNL A   1      45.079  30.877  26.901  1.00  0.00     0.040 A 
ATOM     64  F   UNL A   1      43.503  29.858  28.288  1.00  0.00    -0.206 F 
ATOM     65  C   UNL A   1      46.402  31.128  26.549  1.00  0.00     0.006 A 
ENDBRANCH  41  58
ENDBRANCH  15  16
ENDBRANCH   8  10
ENDBRANCH   5   6
ENDBRANCH   4   5
ENDBRANCH   3   4
ENDBRANCH   2   3
ENDBRANCH   1   2
BRANCH   1  66
ATOM     66  C   UNL A   1      33.223  28.691  22.611  1.00  0.00     0.116 C 
BRANCH  66  67
ATOM     67  N   UNL A   1      33.322  27.502  21.785  1.00  0.00    -0.352 N 
ATOM     68  C   UNL A   1      32.635  26.322  21.887  1.00  0.00     0.254 C 
ATOM     69  H   UNL A   1      33.975  27.550  21.049  1.00  0.00     0.163 HD
ATOM     70  O   UNL A   1      32.914  25.370  21.165  1.00  0.00    -0.269 OA
BRANCH  68  71
ATOM     71  C   UNL A   1      31.606  26.156  22.924  1.00  0.00     0.076 A 
ATOM     72  C   UNL A   1      31.805  25.169  23.890  1.00  0.00     0.038 A 
ATOM     73  C   UNL A   1      30.450  26.931  22.953  1.00  0.00     0.136 A 
ATOM     74  C   UNL A   1      30.870  25.012  24.919  1.00  0.00     0.085 A 
ATOM     75  C   UNL A   1      29.530  26.791  23.992  1.00  0.00     0.041 A 
ATOM     76  F   UNL A   1      30.208  27.844  22.002  1.00  0.00    -0.206 F 
ATOM     77  C   UNL A   1      29.746  25.839  24.994  1.00  0.00     0.025 A 
BRANCH  74  78
ATOM     78  S   UNL A   1      31.162  23.674  26.037  1.00  0.00     0.257 S 
ATOM     79  O   UNL A   1      31.707  24.235  27.251  1.00  0.00    -0.205 OA
ATOM     80  O   UNL A   1      29.975  22.847  26.024  1.00  0.00    -0.205 OA
BRANCH  78  81
ATOM     81  N   UNL A   1      32.376  22.729  25.348  1.00  0.00    -0.123 NA
ATOM     82  H   UNL A   1      32.724  22.126  26.093  1.00  0.00     0.167 HD
BRANCH  81  83
ATOM     83  N   UNL A   1      32.130  21.870  24.217  1.00  0.00    -0.275 N 
ATOM     84  C   UNL A   1      32.619  20.583  24.084  1.00  0.00     0.265 C 
ATOM     85  H   UNL A   1      31.574  22.223  23.486  1.00  0.00     0.186 HD
ATOM     86  O   UNL A   1      32.152  19.863  23.201  1.00  0.00    -0.271 OA
BRANCH  84  87
ATOM     87  C   UNL A   1      33.774  20.188  25.008  1.00  0.00     0.244 C 
ATOM     88  C   UNL A   1      35.069  20.816  24.660  1.00  0.00     0.042 C 
ATOM     89  N   UNL A   1      33.536  20.701  26.390  1.00  0.00    -0.171 NA
ATOM     90  C   UNL A   1      35.439  21.483  25.750  1.00  0.00     0.091 C 
ATOM     91  N   UNL A   1      34.531  21.391  26.769  1.00  0.00    -0.155 NA
BRANCH  90  92
ATOM     92  C   UNL A   1      36.729  22.154  25.836  1.00  0.00     0.002 A 
ATOM     93  C   UNL A   1      36.800  23.521  26.129  1.00  0.00     0.010 A 
ATOM     94  C   UNL A   1      37.911  21.405  25.751  1.00  0.00     0.010 A 
ATOM     95  C   UNL A   1      38.038  24.123  26.359  1.00  0.00     0.001 A 
ATOM     96  C   UNL A   1      39.146  22.010  25.975  1.00  0.00     0.001 A 
ATOM     97  C   UNL A   1      39.208  23.367  26.288  1.00  0.00     0.000 A 
ENDBRANCH  90  92
ENDBRANCH  84  87
ENDBRANCH  81  83
ENDBRANCH  78  81
ENDBRANCH  74  78
ENDBRANCH  68  71
ENDBRANCH  66  67
ENDBRANCH   1  66
TORSDOF 18
ENDMDL
MODEL 3
REMARK VINA RESULT:     -12.5      1.668      2.534
REMARK SMILES O=C(NCCCCCCNC(=O)c1cc(S(=O)(=O)NNC(=O)[C@H]2C=C(c3ccccc3)N=N2)ccc1F)c1ccc(-c2c3nc(c(-c4c(F)cccc4F)c4ccc([nH]4)c(-c4c(F)cccc4F)c4nc(c(-c5c(F)cccc5F)c5ccc2[nH]5)C=C4)C=C3)cc1
REMARK SMILES IDX 8 1 7 2 6 3 5 4 4 5 3 6 1 7 2 8 38 10 39 11 91 12 40 13
REMARK SMILES IDX 90 14 41 15 42 16 43 17 84 18 44 19 89 20 83 21 85 22 45 23
REMARK SMILES IDX 88 24 82 25 81 26 46 28 72 29 55 30 71 31 56 32 59 33 70 34
REMARK SMILES IDX 86 35 57 36 58 37 69 39 87 40 60 41 47 42 48 43 53 44 49 45
REMARK SMILES IDX 50 46 52 47 54 48 51 49 73 50 74 51 79 52 75 53 76 54 78 55
REMARK SMILES IDX 80 56 77 57 61 58 62 59 67 60 63 61 64 62 66 63 68 64 65 65
REMARK SMILES IDX 9 66 10 67 11 68 12 70 13 71 14 72 36 73 15 74 35 75 37 76
REMARK SMILES IDX 34 77 16 78 17 79 18 80 19 81 20 83 21 84 22 86 23 87 24 88
REMARK SMILES IDX 33 89 25 90 32 91 26 92 27 93 31 94 28 95 30 96 29 97
REMARK H PARENT 3 9 85 27 59 38 10 69 19 82 20 85
REMARK Flexibility Score: inf
ROOT
ATOM      1  C   UNL A   1      34.306  28.513  23.975  1.00  0.00     0.021 C 
ENDROOT
BRANCH   1   2
ATOM      2  C   UNL A   1      33.540  28.368  25.292  1.00  0.00     0.002 C 
BRANCH   2   3
ATOM      3  C   UNL A   1      32.346  29.307  25.464  1.00  0.00     0.002 C 
BRANCH   3   4
ATOM      4  C   UNL A   1      32.474  30.344  26.585  1.00  0.00     0.021 C 
BRANCH   4   5
ATOM      5  C   UNL A   1      33.865  30.443  27.215  1.00  0.00     0.116 C 
BRANCH   5   6
ATOM      6  N   UNL A   1      33.947  31.391  28.305  1.00  0.00    -0.352 N 
ATOM      7  O   UNL A   1      34.645  32.685  29.952  1.00  0.00    -0.269 OA
ATOM      8  C   UNL A   1      34.924  31.758  29.187  1.00  0.00     0.251 C 
ATOM      9  H   UNL A   1      33.106  31.884  28.444  1.00  0.00     0.163 HD
BRANCH   8  10
ATOM     10  C   UNL A   1      36.259  31.107  29.310  1.00  0.00     0.039 A 
ATOM     11  C   UNL A   1      37.493  31.738  29.152  1.00  0.00     0.014 A 
ATOM     12  C   UNL A   1      36.250  29.728  29.596  1.00  0.00     0.014 A 
ATOM     13  C   UNL A   1      38.680  31.011  29.214  1.00  0.00     0.010 A 
ATOM     14  C   UNL A   1      37.434  29.001  29.687  1.00  0.00     0.010 A 
ATOM     15  C   UNL A   1      38.651  29.640  29.468  1.00  0.00    -0.014 A 
BRANCH  15  16
ATOM     16  C   UNL A   1      39.933  28.947  29.582  1.00  0.00     0.031 A 
ATOM     17  C   UNL A   1      40.533  28.861  30.950  1.00  0.00     0.074 A 
ATOM     18  C   UNL A   1      40.499  28.266  28.567  1.00  0.00     0.049 A 
ATOM     19  N   UNL A   1      41.724  29.185  31.342  1.00  0.00    -0.248 NA
ATOM     20  C   UNL A   1      39.665  28.358  32.028  1.00  0.00     0.031 C 
ATOM     21  C   UNL A   1      39.920  27.945  27.262  1.00  0.00     0.029 A 
ATOM     22  N   UNL A   1      41.699  27.616  28.548  1.00  0.00    -0.354 N 
ATOM     23  C   UNL A   1      41.817  28.784  32.677  1.00  0.00     0.074 A 
ATOM     24  C   UNL A   1      40.499  28.357  33.069  1.00  0.00     0.031 C 
ATOM     25  C   UNL A   1      40.671  26.991  26.670  1.00  0.00     0.029 A 
ATOM     26  C   UNL A   1      41.843  26.735  27.490  1.00  0.00     0.049 A 
ATOM     27  H   UNL A   1      42.398  27.761  29.226  1.00  0.00     0.167 HD
ATOM     28  C   UNL A   1      43.001  28.679  33.340  1.00  0.00     0.037 A 
ATOM     29  C   UNL A   1      42.817  25.808  27.340  1.00  0.00     0.037 A 
ATOM     30  C   UNL A   1      44.041  29.459  32.729  1.00  0.00     0.049 A 
ATOM     31  C   UNL A   1      43.952  26.177  28.219  1.00  0.00     0.074 A 
ATOM     32  C   UNL A   1      44.227  30.802  32.462  1.00  0.00     0.029 A 
ATOM     33  N   UNL A   1      45.033  28.812  32.040  1.00  0.00    -0.354 N 
ATOM     34  N   UNL A   1      44.736  27.201  28.036  1.00  0.00    -0.248 NA
ATOM     35  C   UNL A   1      44.022  25.564  29.536  1.00  0.00     0.031 C 
ATOM     36  C   UNL A   1      44.991  30.840  31.258  1.00  0.00     0.029 A 
ATOM     37  C   UNL A   1      45.218  29.516  30.879  1.00  0.00     0.049 A 
ATOM     38  H   UNL A   1      45.516  28.002  32.321  1.00  0.00     0.167 HD
ATOM     39  C   UNL A   1      45.098  27.604  29.311  1.00  0.00     0.074 A 
ATOM     40  C   UNL A   1      44.734  26.490  30.179  1.00  0.00     0.031 C 
ATOM     41  C   UNL A   1      45.406  28.904  29.585  1.00  0.00     0.037 A 
BRANCH  28  42
ATOM     42  C   UNL A   1      43.289  27.652  34.407  1.00  0.00     0.057 A 
ATOM     43  C   UNL A   1      43.160  27.908  35.787  1.00  0.00     0.134 A 
ATOM     44  C   UNL A   1      43.430  26.295  34.063  1.00  0.00     0.134 A 
ATOM     45  F   UNL A   1      42.912  29.136  36.262  1.00  0.00    -0.206 F 
ATOM     46  C   UNL A   1      43.182  26.896  36.752  1.00  0.00     0.040 A 
ATOM     47  C   UNL A   1      43.402  25.268  35.018  1.00  0.00     0.040 A 
ATOM     48  F   UNL A   1      43.526  25.914  32.780  1.00  0.00    -0.206 F 
ATOM     49  C   UNL A   1      43.277  25.568  36.368  1.00  0.00     0.006 A 
ENDBRANCH  28  42
BRANCH  29  50
ATOM     50  C   UNL A   1      42.717  24.477  26.703  1.00  0.00     0.057 A 
ATOM     51  C   UNL A   1      42.195  23.368  27.393  1.00  0.00     0.134 A 
ATOM     52  C   UNL A   1      43.372  24.201  25.496  1.00  0.00     0.134 A 
ATOM     53  F   UNL A   1      41.625  23.506  28.599  1.00  0.00    -0.206 F 
ATOM     54  C   UNL A   1      42.318  22.062  26.912  1.00  0.00     0.040 A 
ATOM     55  C   UNL A   1      43.515  22.895  25.010  1.00  0.00     0.040 A 
ATOM     56  F   UNL A   1      43.943  25.187  24.790  1.00  0.00    -0.206 F 
ATOM     57  C   UNL A   1      42.993  21.820  25.724  1.00  0.00     0.006 A 
ENDBRANCH  29  50
BRANCH  41  58
ATOM     58  C   UNL A   1      45.635  29.837  28.430  1.00  0.00     0.057 A 
ATOM     59  C   UNL A   1      46.946  30.180  28.083  1.00  0.00     0.134 A 
ATOM     60  C   UNL A   1      44.602  30.526  27.780  1.00  0.00     0.134 A 
ATOM     61  F   UNL A   1      47.986  29.608  28.711  1.00  0.00    -0.206 F 
ATOM     62  C   UNL A   1      47.221  31.159  27.125  1.00  0.00     0.040 A 
ATOM     63  C   UNL A   1      44.863  31.483  26.796  1.00  0.00     0.040 A 
ATOM     64  F   UNL A   1      43.322  30.340  28.124  1.00  0.00    -0.206 F 
ATOM     65  C   UNL A   1      46.177  31.808  26.470  1.00  0.00     0.006 A 
ENDBRANCH  41  58
ENDBRANCH  15  16
ENDBRANCH   8  10
ENDBRANCH   5   6
ENDBRANCH   4   5
ENDBRANCH   3   4
ENDBRANCH   2   3
ENDBRANCH   1   2
BRANCH   1  66
ATOM     66  C   UNL A   1      33.432  28.654  22.734  1.00  0.00     0.116 C 
BRANCH  66  67
ATOM     67  N   UNL A   1      33.485  27.478  21.887  1.00  0.00    -0.352 N 
ATOM     68  C   UNL A   1      32.747  26.327  21.962  1.00  0.00     0.254 C 
ATOM     69  H   UNL A   1      34.144  27.511  21.155  1.00  0.00     0.163 HD
ATOM     70  O   UNL A   1      32.989  25.378  21.224  1.00  0.00    -0.269 OA
BRANCH  68  71
ATOM     71  C   UNL A   1      31.706  26.186  22.990  1.00  0.00     0.076 A 
ATOM     72  C   UNL A   1      31.911  25.250  24.004  1.00  0.00     0.038 A 
ATOM     73  C   UNL A   1      30.533  26.936  22.966  1.00  0.00     0.136 A 
ATOM     74  C   UNL A   1      30.963  25.119  25.025  1.00  0.00     0.085 A 
ATOM     75  C   UNL A   1      29.600  26.824  23.997  1.00  0.00     0.041 A 
ATOM     76  F   UNL A   1      30.287  27.799  21.970  1.00  0.00    -0.206 F 
ATOM     77  C   UNL A   1      29.820  25.924  25.045  1.00  0.00     0.025 A 
BRANCH  74  78
ATOM     78  S   UNL A   1      31.265  23.841  26.208  1.00  0.00     0.257 S 
ATOM     79  O   UNL A   1      31.587  24.479  27.463  1.00  0.00    -0.205 OA
ATOM     80  O   UNL A   1      30.192  22.880  26.074  1.00  0.00    -0.205 OA
BRANCH  78  81
ATOM     81  N   UNL A   1      32.656  23.036  25.699  1.00  0.00    -0.123 NA
ATOM     82  H   UNL A   1      32.745  23.225  24.701  1.00  0.00     0.167 HD
BRANCH  81  83
ATOM     83  N   UNL A   1      33.951  23.301  26.275  1.00  0.00    -0.275 N 
ATOM     84  C   UNL A   1      35.158  22.975  25.684  1.00  0.00     0.265 C 
ATOM     85  H   UNL A   1      33.978  23.747  27.152  1.00  0.00     0.186 HD
ATOM     86  O   UNL A   1      36.190  23.461  26.146  1.00  0.00    -0.271 OA
BRANCH  84  87
ATOM     87  C   UNL A   1      35.111  21.959  24.540  1.00  0.00     0.244 C 
ATOM     88  C   UNL A   1      35.223  20.550  24.979  1.00  0.00     0.042 C 
ATOM     89  N   UNL A   1      33.771  21.979  23.879  1.00  0.00    -0.171 NA
ATOM     90  C   UNL A   1      34.121  19.955  24.529  1.00  0.00     0.091 C 
ATOM     91  N   UNL A   1      33.282  20.809  23.867  1.00  0.00    -0.155 NA
BRANCH  90  92
ATOM     92  C   UNL A   1      33.912  18.520  24.672  1.00  0.00     0.002 A 
ATOM     93  C   UNL A   1      34.982  17.629  24.529  1.00  0.00     0.010 A 
ATOM     94  C   UNL A   1      32.661  18.035  25.080  1.00  0.00     0.010 A 
ATOM     95  C   UNL A   1      34.807  16.275  24.816  1.00  0.00     0.001 A 
ATOM     96  C   UNL A   1      32.488  16.681  25.361  1.00  0.00     0.001 A 
ATOM     97  C   UNL A   1      33.563  15.803  25.237  1.00  0.00     0.000 A 
ENDBRANCH  90  92
ENDBRANCH  84  87
ENDBRANCH  81  83
ENDBRANCH  78  81
ENDBRANCH  74  78
ENDBRANCH  68  71
ENDBRANCH  66  67
ENDBRANCH   1  66
TORSDOF 18
ENDMDL
