MODEL 1
REMARK VINA RESULT:     -11.0      0.000      0.000
REMARK SMILES COc1ccc(/C=C2\SC(=S)[NH+]=C2NCCCCCCNC(=O)c2ccc(-c3c4nc(c(-c5c(F)cccc5F)c5ccc([nH]5)c(-c5c(F)cccc5F)c5nc(c(-c6c(F)cccc6F)c6ccc3[nH]6)C=C5)C=C4)cc2)c(C(=O)[O-])c1OC
REMARK SMILES IDX 18 1 17 2 16 3 15 4 14 5 7 6 8 7 9 8 13 9 10 10 12 11 11 12
REMARK SMILES IDX 6 15 3 16 4 17 82 18 5 19 78 20 2 21 1 22 83 23 84 24 79 25
REMARK SMILES IDX 80 26 81 27 19 28 20 29 21 30 22 31 23 33 24 34 25 35 77 36
REMARK SMILES IDX 26 37 76 38 27 39 28 40 29 41 70 42 30 43 75 44 69 45 71 46
REMARK SMILES IDX 31 47 74 48 68 49 67 50 32 52 58 53 41 54 57 55 42 56 45 57
REMARK SMILES IDX 56 58 72 59 43 60 44 61 55 63 73 64 46 65 33 66 34 67 39 68
REMARK SMILES IDX 35 69 36 70 38 71 40 72 37 73 59 74 60 75 65 76 61 77 62 78
REMARK SMILES IDX 64 79 66 80 63 81 47 82 48 83 53 84 49 85 50 86 52 87 54 88
REMARK SMILES IDX 51 89
REMARK H PARENT 12 13 14 14 21 32 71 51 45 62
REMARK Flexibility Score: inf
ROOT
ATOM      1  C   UNL A   1      34.508  33.647  28.715  1.00  0.00     0.002 C 
ENDROOT
BRANCH   1   2
ATOM      2  C   UNL A   1      34.312  32.138  28.899  1.00  0.00     0.004 C 
BRANCH   2   3
ATOM      3  C   UNL A   1      34.393  31.312  27.611  1.00  0.00     0.046 C 
BRANCH   3   4
ATOM      4  C   UNL A   1      33.106  30.567  27.258  1.00  0.00     0.234 C 
BRANCH   4   5
ATOM      5  N   UNL A   1      33.406  29.202  26.851  1.00  0.00    -0.273 N 
ATOM      6  C   UNL A   1      33.866  26.275  25.968  1.00  0.00     0.033 C 
ATOM      7  C   UNL A   1      33.095  27.167  25.312  1.00  0.00     0.106 C 
ATOM      8  S   UNL A   1      32.183  26.942  23.859  1.00  0.00    -0.027 SA
ATOM      9  C   UNL A   1      32.882  28.616  25.723  1.00  0.00     0.288 C 
ATOM     10  C   UNL A   1      31.702  28.632  23.828  1.00  0.00     0.230 C 
ATOM     11  N   UNL A   1      32.135  29.334  24.921  1.00  0.00    -0.225 N 
ATOM     12  S   UNL A   1      30.827  29.276  22.556  1.00  0.00    -0.026 S 
ATOM     13  H   UNL A   1      31.910  30.278  25.085  1.00  0.00     0.314 HD
ATOM     14  H   UNL A   1      34.015  28.671  27.413  1.00  0.00     0.305 HD
BRANCH   6  15
ATOM     15  C   UNL A   1      34.197  24.831  25.694  1.00  0.00    -0.011 A 
ATOM     16  C   UNL A   1      34.917  22.131  25.096  1.00  0.00     0.161 A 
ATOM     17  C   UNL A   1      35.843  23.158  24.969  1.00  0.00     0.051 A 
ATOM     18  C   UNL A   1      33.618  22.410  25.540  1.00  0.00     0.170 A 
ATOM     19  C   UNL A   1      35.479  24.478  25.240  1.00  0.00     0.013 A 
ATOM     20  C   UNL A   1      33.252  23.763  25.814  1.00  0.00     0.050 A 
BRANCH  16  21
ATOM     21  O   UNL A   1      35.344  20.849  24.874  1.00  0.00    -0.493 OA
ATOM     22  C   UNL A   1      36.772  20.756  24.877  1.00  0.00     0.278 C 
ENDBRANCH  16  21
BRANCH  18  23
ATOM     23  O   UNL A   1      32.687  21.437  25.829  1.00  0.00    -0.492 OA
ATOM     24  C   UNL A   1      32.148  20.687  24.746  1.00  0.00     0.278 C 
ENDBRANCH  18  23
BRANCH  20  25
ATOM     25  C   UNL A   1      31.857  24.038  26.260  1.00  0.00     0.076 C 
ATOM     26  O   UNL A   1      31.495  24.291  27.398  1.00  0.00    -0.545 OA
ATOM     27  O   UNL A   1      30.976  24.069  25.242  1.00  0.00    -0.545 OA
ENDBRANCH  20  25
ENDBRANCH   6  15
ENDBRANCH   4   5
ENDBRANCH   3   4
ENDBRANCH   2   3
ENDBRANCH   1   2
BRANCH   1  28
ATOM     28  C   UNL A   1      33.230  34.485  28.807  1.00  0.00     0.021 C 
BRANCH  28  29
ATOM     29  C   UNL A   1      33.422  35.877  29.399  1.00  0.00     0.116 C 
BRANCH  29  30
ATOM     30  N   UNL A   1      32.527  36.130  30.519  1.00  0.00    -0.352 N 
ATOM     31  C   UNL A   1      32.600  35.687  31.816  1.00  0.00     0.251 C 
ATOM     32  H   UNL A   1      31.754  36.704  30.316  1.00  0.00     0.163 HD
ATOM     33  O   UNL A   1      31.652  35.850  32.578  1.00  0.00    -0.269 OA
BRANCH  31  34
ATOM     34  C   UNL A   1      33.815  34.992  32.291  1.00  0.00     0.039 A 
ATOM     35  C   UNL A   1      33.697  33.697  32.805  1.00  0.00     0.014 A 
ATOM     36  C   UNL A   1      35.066  35.613  32.237  1.00  0.00     0.014 A 
ATOM     37  C   UNL A   1      34.841  33.003  33.202  1.00  0.00     0.010 A 
ATOM     38  C   UNL A   1      36.212  34.891  32.556  1.00  0.00     0.010 A 
ATOM     39  C   UNL A   1      36.113  33.580  33.046  1.00  0.00    -0.014 A 
BRANCH  39  40
ATOM     40  C   UNL A   1      37.347  32.826  33.381  1.00  0.00     0.031 A 
ATOM     41  C   UNL A   1      38.094  33.117  34.654  1.00  0.00     0.074 A 
ATOM     42  C   UNL A   1      37.833  31.922  32.508  1.00  0.00     0.049 A 
ATOM     43  N   UNL A   1      39.211  32.596  35.097  1.00  0.00    -0.248 NA
ATOM     44  C   UNL A   1      37.524  34.149  35.533  1.00  0.00     0.031 C 
ATOM     45  C   UNL A   1      37.225  31.577  31.222  1.00  0.00     0.029 A 
ATOM     46  N   UNL A   1      38.953  31.131  32.570  1.00  0.00    -0.354 N 
ATOM     47  C   UNL A   1      39.484  33.248  36.292  1.00  0.00     0.074 A 
ATOM     48  C   UNL A   1      38.448  34.240  36.476  1.00  0.00     0.031 C 
ATOM     49  C   UNL A   1      37.957  30.617  30.635  1.00  0.00     0.029 A 
ATOM     50  C   UNL A   1      39.108  30.312  31.477  1.00  0.00     0.049 A 
ATOM     51  H   UNL A   1      39.585  31.149  33.324  1.00  0.00     0.167 HD
ATOM     52  C   UNL A   1      40.495  33.027  37.167  1.00  0.00     0.037 A 
ATOM     53  C   UNL A   1      40.072  29.418  31.188  1.00  0.00     0.037 A 
ATOM     54  C   UNL A   1      41.517  32.029  36.984  1.00  0.00     0.049 A 
ATOM     55  C   UNL A   1      41.203  29.215  32.158  1.00  0.00     0.074 A 
ATOM     56  C   UNL A   1      42.544  31.679  37.844  1.00  0.00     0.029 A 
ATOM     57  N   UNL A   1      41.650  31.230  35.858  1.00  0.00    -0.354 N 
ATOM     58  N   UNL A   1      41.406  29.780  33.324  1.00  0.00    -0.248 NA
ATOM     59  C   UNL A   1      42.238  28.247  31.770  1.00  0.00     0.031 C 
ATOM     60  C   UNL A   1      43.336  30.716  37.209  1.00  0.00     0.029 A 
ATOM     61  C   UNL A   1      42.765  30.416  35.983  1.00  0.00     0.049 A 
ATOM     62  H   UNL A   1      41.042  31.239  35.083  1.00  0.00     0.167 HD
ATOM     63  C   UNL A   1      42.570  29.210  33.824  1.00  0.00     0.074 A 
ATOM     64  C   UNL A   1      43.022  28.250  32.839  1.00  0.00     0.031 C 
ATOM     65  C   UNL A   1      43.204  29.460  34.997  1.00  0.00     0.037 A 
BRANCH  52  66
ATOM     66  C   UNL A   1      40.553  33.899  38.390  1.00  0.00     0.057 A 
ATOM     67  C   UNL A   1      41.320  35.072  38.435  1.00  0.00     0.134 A 
ATOM     68  C   UNL A   1      39.821  33.566  39.538  1.00  0.00     0.134 A 
ATOM     69  F   UNL A   1      42.053  35.446  37.376  1.00  0.00    -0.206 F 
ATOM     70  C   UNL A   1      41.393  35.855  39.590  1.00  0.00     0.040 A 
ATOM     71  C   UNL A   1      39.859  34.360  40.686  1.00  0.00     0.040 A 
ATOM     72  F   UNL A   1      39.057  32.464  39.564  1.00  0.00    -0.206 F 
ATOM     73  C   UNL A   1      40.657  35.502  40.718  1.00  0.00     0.006 A 
ENDBRANCH  52  66
BRANCH  53  74
ATOM     74  C   UNL A   1      39.992  28.616  29.940  1.00  0.00     0.057 A 
ATOM     75  C   UNL A   1      39.271  27.416  29.905  1.00  0.00     0.134 A 
ATOM     76  C   UNL A   1      40.628  29.021  28.760  1.00  0.00     0.134 A 
ATOM     77  F   UNL A   1      38.656  26.967  31.009  1.00  0.00    -0.206 F 
ATOM     78  C   UNL A   1      39.200  26.639  28.748  1.00  0.00     0.040 A 
ATOM     79  C   UNL A   1      40.541  28.267  27.589  1.00  0.00     0.040 A 
ATOM     80  F   UNL A   1      41.327  30.164  28.725  1.00  0.00    -0.206 F 
ATOM     81  C   UNL A   1      39.831  27.068  27.583  1.00  0.00     0.006 A 
ENDBRANCH  53  74
BRANCH  65  82
ATOM     82  C   UNL A   1      44.433  28.650  35.301  1.00  0.00     0.057 A 
ATOM     83  C   UNL A   1      45.719  29.088  34.955  1.00  0.00     0.134 A 
ATOM     84  C   UNL A   1      44.330  27.429  35.982  1.00  0.00     0.134 A 
ATOM     85  F   UNL A   1      45.889  30.241  34.290  1.00  0.00    -0.206 F 
ATOM     86  C   UNL A   1      46.853  28.329  35.253  1.00  0.00     0.040 A 
ATOM     87  C   UNL A   1      45.459  26.678  36.313  1.00  0.00     0.040 A 
ATOM     88  F   UNL A   1      43.131  26.954  36.351  1.00  0.00    -0.206 F 
ATOM     89  C   UNL A   1      46.724  27.124  35.941  1.00  0.00     0.006 A 
ENDBRANCH  65  82
ENDBRANCH  39  40
ENDBRANCH  31  34
ENDBRANCH  29  30
ENDBRANCH  28  29
ENDBRANCH   1  28
TORSDOF 16
ENDMDL
MODEL 2
REMARK VINA RESULT:     -10.9      4.533      8.877
REMARK SMILES COc1ccc(/C=C2\SC(=S)[NH+]=C2NCCCCCCNC(=O)c2ccc(-c3c4nc(c(-c5c(F)cccc5F)c5ccc([nH]5)c(-c5c(F)cccc5F)c5nc(c(-c6c(F)cccc6F)c6ccc3[nH]6)C=C5)C=C4)cc2)c(C(=O)[O-])c1OC
REMARK SMILES IDX 18 1 17 2 16 3 15 4 14 5 7 6 8 7 9 8 13 9 10 10 12 11 11 12
REMARK SMILES IDX 6 15 3 16 4 17 82 18 5 19 78 20 2 21 1 22 83 23 84 24 79 25
REMARK SMILES IDX 80 26 81 27 19 28 20 29 21 30 22 31 23 33 24 34 25 35 77 36
REMARK SMILES IDX 26 37 76 38 27 39 28 40 29 41 70 42 30 43 75 44 69 45 71 46
REMARK SMILES IDX 31 47 74 48 68 49 67 50 32 52 58 53 41 54 57 55 42 56 45 57
REMARK SMILES IDX 56 58 72 59 43 60 44 61 55 63 73 64 46 65 33 66 34 67 39 68
REMARK SMILES IDX 35 69 36 70 38 71 40 72 37 73 59 74 60 75 65 76 61 77 62 78
REMARK SMILES IDX 64 79 66 80 63 81 47 82 48 83 53 84 49 85 50 86 52 87 54 88
REMARK SMILES IDX 51 89
REMARK H PARENT 12 13 14 14 21 32 71 51 45 62
REMARK Flexibility Score: inf
ROOT
ATOM      1  C   UNL A   1      32.864  35.796  31.433  1.00  0.00     0.002 C 
ENDROOT
BRANCH   1   2
ATOM      2  C   UNL A   1      33.597  35.962  32.769  1.00  0.00     0.004 C 
BRANCH   2   3
ATOM      3  C   UNL A   1      34.152  34.666  33.369  1.00  0.00     0.046 C 
BRANCH   3   4
ATOM      4  C   UNL A   1      35.642  34.441  33.113  1.00  0.00     0.234 C 
BRANCH   4   5
ATOM      5  N   UNL A   1      36.339  34.187  34.365  1.00  0.00    -0.273 N 
ATOM      6  C   UNL A   1      37.736  33.490  37.033  1.00  0.00     0.033 C 
ATOM      7  C   UNL A   1      37.672  32.675  35.960  1.00  0.00     0.106 C 
ATOM      8  S   UNL A   1      38.321  31.082  35.775  1.00  0.00    -0.027 SA
ATOM      9  C   UNL A   1      37.011  33.017  34.634  1.00  0.00     0.288 C 
ATOM     10  C   UNL A   1      37.817  31.007  34.093  1.00  0.00     0.230 C 
ATOM     11  N   UNL A   1      37.103  32.106  33.696  1.00  0.00    -0.225 N 
ATOM     12  S   UNL A   1      38.216  29.715  33.110  1.00  0.00    -0.026 S 
ATOM     13  H   UNL A   1      36.703  32.202  32.802  1.00  0.00     0.314 HD
ATOM     14  H   UNL A   1      36.330  34.889  35.054  1.00  0.00     0.305 HD
BRANCH   6  15
ATOM     15  C   UNL A   1      38.359  33.320  38.395  1.00  0.00    -0.011 A 
ATOM     16  C   UNL A   1      39.653  33.018  40.924  1.00  0.00     0.161 A 
ATOM     17  C   UNL A   1      40.245  33.755  39.906  1.00  0.00     0.051 A 
ATOM     18  C   UNL A   1      38.398  32.429  40.724  1.00  0.00     0.170 A 
ATOM     19  C   UNL A   1      39.619  33.879  38.666  1.00  0.00     0.013 A 
ATOM     20  C   UNL A   1      37.764  32.559  39.450  1.00  0.00     0.050 A 
BRANCH  16  21
ATOM     21  O   UNL A   1      40.283  32.978  42.140  1.00  0.00    -0.493 OA
ATOM     22  C   UNL A   1      41.358  32.033  42.151  1.00  0.00     0.278 C 
ENDBRANCH  16  21
BRANCH  18  23
ATOM     23  O   UNL A   1      37.681  31.807  41.721  1.00  0.00    -0.492 OA
ATOM     24  C   UNL A   1      36.938  32.625  42.618  1.00  0.00     0.278 C 
ENDBRANCH  18  23
BRANCH  20  25
ATOM     25  C   UNL A   1      36.441  31.901  39.252  1.00  0.00     0.076 C 
ATOM     26  O   UNL A   1      35.346  32.435  39.331  1.00  0.00    -0.545 OA
ATOM     27  O   UNL A   1      36.546  30.612  38.879  1.00  0.00    -0.545 OA
ENDBRANCH  20  25
ENDBRANCH   6  15
ENDBRANCH   4   5
ENDBRANCH   3   4
ENDBRANCH   2   3
ENDBRANCH   1   2
BRANCH   1  28
ATOM     28  C   UNL A   1      32.983  36.982  30.473  1.00  0.00     0.021 C 
BRANCH  28  29
ATOM     29  C   UNL A   1      33.489  36.627  29.080  1.00  0.00     0.116 C 
BRANCH  29  30
ATOM     30  N   UNL A   1      32.735  35.536  28.480  1.00  0.00    -0.352 N 
ATOM     31  C   UNL A   1      33.129  34.253  28.192  1.00  0.00     0.251 C 
ATOM     32  H   UNL A   1      31.803  35.750  28.245  1.00  0.00     0.163 HD
ATOM     33  O   UNL A   1      32.411  33.525  27.514  1.00  0.00    -0.269 OA
BRANCH  31  34
ATOM     34  C   UNL A   1      34.431  33.753  28.683  1.00  0.00     0.039 A 
ATOM     35  C   UNL A   1      34.464  32.977  29.844  1.00  0.00     0.014 A 
ATOM     36  C   UNL A   1      35.617  34.053  28.005  1.00  0.00     0.014 A 
ATOM     37  C   UNL A   1      35.677  32.446  30.288  1.00  0.00     0.010 A 
ATOM     38  C   UNL A   1      36.810  33.457  28.402  1.00  0.00     0.010 A 
ATOM     39  C   UNL A   1      36.855  32.651  29.550  1.00  0.00    -0.014 A 
BRANCH  39  40
ATOM     40  C   UNL A   1      38.138  32.024  29.957  1.00  0.00     0.031 A 
ATOM     41  C   UNL A   1      39.067  32.738  30.901  1.00  0.00     0.074 A 
ATOM     42  C   UNL A   1      38.498  30.839  29.427  1.00  0.00     0.049 A 
ATOM     43  N   UNL A   1      40.246  32.372  31.336  1.00  0.00    -0.248 NA
ATOM     44  C   UNL A   1      38.623  34.047  31.401  1.00  0.00     0.031 C 
ATOM     45  C   UNL A   1      37.705  30.064  28.471  1.00  0.00     0.029 A 
ATOM     46  N   UNL A   1      39.626  30.081  29.615  1.00  0.00    -0.354 N 
ATOM     47  C   UNL A   1      40.690  33.411  32.143  1.00  0.00     0.074 A 
ATOM     48  C   UNL A   1      39.679  34.445  32.092  1.00  0.00     0.031 C 
ATOM     49  C   UNL A   1      38.353  28.923  28.188  1.00  0.00     0.029 A 
ATOM     50  C   UNL A   1      39.625  28.906  28.901  1.00  0.00     0.049 A 
ATOM     51  H   UNL A   1      40.367  30.352  30.205  1.00  0.00     0.167 HD
ATOM     52  C   UNL A   1      41.827  33.490  32.876  1.00  0.00     0.037 A 
ATOM     53  C   UNL A   1      40.547  27.928  28.830  1.00  0.00     0.037 A 
ATOM     54  C   UNL A   1      42.824  32.453  32.934  1.00  0.00     0.049 A 
ATOM     55  C   UNL A   1      41.816  28.054  29.626  1.00  0.00     0.074 A 
ATOM     56  C   UNL A   1      43.976  32.405  33.699  1.00  0.00     0.029 A 
ATOM     57  N   UNL A   1      42.795  31.285  32.185  1.00  0.00    -0.354 N 
ATOM     58  N   UNL A   1      42.187  29.004  30.449  1.00  0.00    -0.248 NA
ATOM     59  C   UNL A   1      42.794  26.967  29.482  1.00  0.00     0.031 C 
ATOM     60  C   UNL A   1      44.676  31.242  33.364  1.00  0.00     0.029 A 
ATOM     61  C   UNL A   1      43.928  30.529  32.441  1.00  0.00     0.049 A 
ATOM     62  H   UNL A   1      42.075  31.031  31.563  1.00  0.00     0.167 HD
ATOM     63  C   UNL A   1      43.423  28.614  30.949  1.00  0.00     0.074 A 
ATOM     64  C   UNL A   1      43.733  27.336  30.343  1.00  0.00     0.031 C 
ATOM     65  C   UNL A   1      44.226  29.256  31.834  1.00  0.00     0.037 A 
BRANCH  52  66
ATOM     66  C   UNL A   1      42.058  34.753  33.658  1.00  0.00     0.057 A 
ATOM     67  C   UNL A   1      42.791  35.829  33.138  1.00  0.00     0.134 A 
ATOM     68  C   UNL A   1      41.531  34.900  34.948  1.00  0.00     0.134 A 
ATOM     69  F   UNL A   1      43.333  35.755  31.913  1.00  0.00    -0.206 F 
ATOM     70  C   UNL A   1      43.029  36.984  33.887  1.00  0.00     0.040 A 
ATOM     71  C   UNL A   1      41.733  36.063  35.694  1.00  0.00     0.040 A 
ATOM     72  F   UNL A   1      40.811  33.915  35.507  1.00  0.00    -0.206 F 
ATOM     73  C   UNL A   1      42.495  37.104  35.168  1.00  0.00     0.006 A 
ENDBRANCH  52  66
BRANCH  53  74
ATOM     74  C   UNL A   1      40.288  26.721  28.003  1.00  0.00     0.057 A 
ATOM     75  C   UNL A   1      39.475  25.686  28.481  1.00  0.00     0.134 A 
ATOM     76  C   UNL A   1      40.841  26.570  26.726  1.00  0.00     0.134 A 
ATOM     77  F   UNL A   1      38.932  25.765  29.704  1.00  0.00    -0.206 F 
ATOM     78  C   UNL A   1      39.235  24.536  27.727  1.00  0.00     0.040 A 
ATOM     79  C   UNL A   1      40.587  25.437  25.950  1.00  0.00     0.040 A 
ATOM     80  F   UNL A   1      41.622  27.528  26.208  1.00  0.00    -0.206 F 
ATOM     81  C   UNL A   1      39.788  24.413  26.454  1.00  0.00     0.006 A 
ENDBRANCH  53  74
BRANCH  65  82
ATOM     82  C   UNL A   1      45.500  28.566  32.234  1.00  0.00     0.057 A 
ATOM     83  C   UNL A   1      46.712  28.794  31.568  1.00  0.00     0.134 A 
ATOM     84  C   UNL A   1      45.519  27.687  33.326  1.00  0.00     0.134 A 
ATOM     85  F   UNL A   1      46.762  29.613  30.507  1.00  0.00    -0.206 F 
ATOM     86  C   UNL A   1      47.890  28.153  31.958  1.00  0.00     0.040 A 
ATOM     87  C   UNL A   1      46.697  27.066  33.744  1.00  0.00     0.040 A 
ATOM     88  F   UNL A   1      44.397  27.430  34.014  1.00  0.00    -0.206 F 
ATOM     89  C   UNL A   1      47.885  27.292  33.054  1.00  0.00     0.006 A 
ENDBRANCH  65  82
ENDBRANCH  39  40
ENDBRANCH  31  34
ENDBRANCH  29  30
ENDBRANCH  28  29
ENDBRANCH   1  28
TORSDOF 16
ENDMDL
MODEL 3
REMARK VINA RESULT:     -10.9      4.619     10.596
REMARK SMILES COc1ccc(/C=C2\SC(=S)[NH+]=C2NCCCCCCNC(=O)c2ccc(-c3c4nc(c(-c5c(F)cccc5F)c5ccc([nH]5)c(-c5c(F)cccc5F)c5nc(c(-c6c(F)cccc6F)c6ccc3[nH]6)C=C5)C=C4)cc2)c(C(=O)[O-])c1OC
REMARK SMILES IDX 18 1 17 2 16 3 15 4 14 5 7 6 8 7 9 8 13 9 10 10 12 11 11 12
REMARK SMILES IDX 6 15 3 16 4 17 82 18 5 19 78 20 2 21 1 22 83 23 84 24 79 25
REMARK SMILES IDX 80 26 81 27 19 28 20 29 21 30 22 31 23 33 24 34 25 35 77 36
REMARK SMILES IDX 26 37 76 38 27 39 28 40 29 41 70 42 30 43 75 44 69 45 71 46
REMARK SMILES IDX 31 47 74 48 68 49 67 50 32 52 58 53 41 54 57 55 42 56 45 57
REMARK SMILES IDX 56 58 72 59 43 60 44 61 55 63 73 64 46 65 33 66 34 67 39 68
REMARK SMILES IDX 35 69 36 70 38 71 40 72 37 73 59 74 60 75 65 76 61 77 62 78
REMARK SMILES IDX 64 79 66 80 63 81 47 82 48 83 53 84 49 85 50 86 52 87 54 88
REMARK SMILES IDX 51 89
REMARK H PARENT 12 13 14 14 21 32 71 51 45 62
REMARK Flexibility Score: inf
ROOT
ATOM      1  C   UNL A   1      32.780  35.798  31.886  1.00  0.00     0.002 C 
ENDROOT
BRANCH   1   2
ATOM      2  C   UNL A   1      33.704  35.770  33.108  1.00  0.00     0.004 C 
BRANCH   2   3
ATOM      3  C   UNL A   1      34.381  34.422  33.377  1.00  0.00     0.046 C 
BRANCH   3   4
ATOM      4  C   UNL A   1      35.909  34.466  33.342  1.00  0.00     0.234 C 
BRANCH   4   5
ATOM      5  N   UNL A   1      36.457  34.117  34.645  1.00  0.00    -0.273 N 
ATOM      6  C   UNL A   1      37.544  33.216  37.395  1.00  0.00     0.033 C 
ATOM      7  C   UNL A   1      37.648  32.505  36.253  1.00  0.00     0.106 C 
ATOM      8  S   UNL A   1      38.383  30.958  36.010  1.00  0.00    -0.027 SA
ATOM      9  C   UNL A   1      37.140  32.950  34.890  1.00  0.00     0.288 C 
ATOM     10  C   UNL A   1      38.094  31.026  34.277  1.00  0.00     0.230 C 
ATOM     11  N   UNL A   1      37.387  32.135  33.894  1.00  0.00    -0.225 N 
ATOM     12  S   UNL A   1      38.667  29.846  33.241  1.00  0.00    -0.026 S 
ATOM     13  H   UNL A   1      37.096  32.302  32.968  1.00  0.00     0.314 HD
ATOM     14  H   UNL A   1      36.332  34.750  35.388  1.00  0.00     0.305 HD
BRANCH   6  15
ATOM     15  C   UNL A   1      38.000  32.938  38.804  1.00  0.00    -0.011 A 
ATOM     16  C   UNL A   1      38.984  32.446  41.441  1.00  0.00     0.161 A 
ATOM     17  C   UNL A   1      39.629  33.340  40.597  1.00  0.00     0.051 A 
ATOM     18  C   UNL A   1      37.825  31.787  41.010  1.00  0.00     0.170 A 
ATOM     19  C   UNL A   1      39.158  33.559  39.302  1.00  0.00     0.013 A 
ATOM     20  C   UNL A   1      37.349  32.015  39.682  1.00  0.00     0.050 A 
BRANCH  16  21
ATOM     21  O   UNL A   1      39.454  32.314  42.721  1.00  0.00    -0.493 OA
ATOM     22  C   UNL A   1      40.390  31.238  42.834  1.00  0.00     0.278 C 
ENDBRANCH  16  21
BRANCH  18  23
ATOM     23  O   UNL A   1      37.048  30.999  41.828  1.00  0.00    -0.492 OA
ATOM     24  C   UNL A   1      36.138  31.648  42.711  1.00  0.00     0.278 C 
ENDBRANCH  18  23
BRANCH  20  25
ATOM     25  C   UNL A   1      36.130  31.283  39.236  1.00  0.00     0.076 C 
ATOM     26  O   UNL A   1      36.088  30.150  38.784  1.00  0.00    -0.545 OA
ATOM     27  O   UNL A   1      34.994  31.972  39.454  1.00  0.00    -0.545 OA
ENDBRANCH  20  25
ENDBRANCH   6  15
ENDBRANCH   4   5
ENDBRANCH   3   4
ENDBRANCH   2   3
ENDBRANCH   1   2
BRANCH   1  28
ATOM     28  C   UNL A   1      33.025  36.954  30.912  1.00  0.00     0.021 C 
BRANCH  28  29
ATOM     29  C   UNL A   1      33.604  36.539  29.564  1.00  0.00     0.116 C 
BRANCH  29  30
ATOM     30  N   UNL A   1      32.751  35.588  28.865  1.00  0.00    -0.352 N 
ATOM     31  C   UNL A   1      33.045  34.336  28.386  1.00  0.00     0.251 C 
ATOM     32  H   UNL A   1      31.826  35.888  28.714  1.00  0.00     0.163 HD
ATOM     33  O   UNL A   1      32.249  33.752  27.657  1.00  0.00    -0.269 OA
BRANCH  31  34
ATOM     34  C   UNL A   1      34.333  33.697  28.731  1.00  0.00     0.039 A 
ATOM     35  C   UNL A   1      35.426  33.875  27.878  1.00  0.00     0.014 A 
ATOM     36  C   UNL A   1      34.463  32.921  29.886  1.00  0.00     0.014 A 
ATOM     37  C   UNL A   1      36.666  33.329  28.219  1.00  0.00     0.010 A 
ATOM     38  C   UNL A   1      35.716  32.448  30.264  1.00  0.00     0.010 A 
ATOM     39  C   UNL A   1      36.830  32.643  29.433  1.00  0.00    -0.014 A 
BRANCH  39  40
ATOM     40  C   UNL A   1      38.158  32.130  29.854  1.00  0.00     0.031 A 
ATOM     41  C   UNL A   1      38.652  30.800  29.356  1.00  0.00     0.074 A 
ATOM     42  C   UNL A   1      38.894  32.833  30.737  1.00  0.00     0.049 A 
ATOM     43  N   UNL A   1      39.763  30.167  29.646  1.00  0.00    -0.248 NA
ATOM     44  C   UNL A   1      37.772  30.072  28.431  1.00  0.00     0.031 C 
ATOM     45  C   UNL A   1      38.511  34.118  31.325  1.00  0.00     0.029 A 
ATOM     46  N   UNL A   1      40.118  32.565  31.296  1.00  0.00    -0.354 N 
ATOM     47  C   UNL A   1      39.703  28.964  28.955  1.00  0.00     0.074 A 
ATOM     48  C   UNL A   1      38.425  28.931  28.278  1.00  0.00     0.031 C 
ATOM     49  C   UNL A   1      39.496  34.543  32.130  1.00  0.00     0.029 A 
ATOM     50  C   UNL A   1      40.558  33.544  32.154  1.00  0.00     0.049 A 
ATOM     51  H   UNL A   1      40.633  31.748  31.101  1.00  0.00     0.167 HD
ATOM     52  C   UNL A   1      40.636  27.985  28.875  1.00  0.00     0.037 A 
ATOM     53  C   UNL A   1      41.689  33.624  32.879  1.00  0.00     0.037 A 
ATOM     54  C   UNL A   1      41.912  28.029  29.541  1.00  0.00     0.049 A 
ATOM     55  C   UNL A   1      42.694  32.509  32.801  1.00  0.00     0.074 A 
ATOM     56  C   UNL A   1      42.954  27.121  29.470  1.00  0.00     0.029 A 
ATOM     57  N   UNL A   1      42.314  29.029  30.414  1.00  0.00    -0.354 N 
ATOM     58  N   UNL A   1      42.663  31.414  32.080  1.00  0.00    -0.248 NA
ATOM     59  C   UNL A   1      43.894  32.643  33.639  1.00  0.00     0.031 C 
ATOM     60  C   UNL A   1      43.958  27.538  30.349  1.00  0.00     0.029 A 
ATOM     61  C   UNL A   1      43.573  28.741  30.918  1.00  0.00     0.049 A 
ATOM     62  H   UNL A   1      41.784  29.827  30.643  1.00  0.00     0.167 HD
ATOM     63  C   UNL A   1      43.852  30.748  32.348  1.00  0.00     0.074 A 
ATOM     64  C   UNL A   1      44.586  31.566  33.291  1.00  0.00     0.031 C 
ATOM     65  C   UNL A   1      44.296  29.565  31.854  1.00  0.00     0.037 A 
BRANCH  52  66
ATOM     66  C   UNL A   1      40.296  26.773  28.053  1.00  0.00     0.057 A 
ATOM     67  C   UNL A   1      40.790  26.591  26.753  1.00  0.00     0.134 A 
ATOM     68  C   UNL A   1      39.471  25.767  28.572  1.00  0.00     0.134 A 
ATOM     69  F   UNL A   1      41.579  27.519  26.189  1.00  0.00    -0.206 F 
ATOM     70  C   UNL A   1      40.440  25.478  25.985  1.00  0.00     0.040 A 
ATOM     71  C   UNL A   1      39.142  24.633  27.826  1.00  0.00     0.040 A 
ATOM     72  F   UNL A   1      38.970  25.868  29.812  1.00  0.00    -0.206 F 
ATOM     73  C   UNL A   1      39.617  24.493  26.524  1.00  0.00     0.006 A 
ENDBRANCH  52  66
BRANCH  53  74
ATOM     74  C   UNL A   1      41.953  34.825  33.714  1.00  0.00     0.057 A 
ATOM     75  C   UNL A   1      41.429  34.927  35.008  1.00  0.00     0.134 A 
ATOM     76  C   UNL A   1      42.727  35.893  33.245  1.00  0.00     0.134 A 
ATOM     77  F   UNL A   1      40.665  33.943  35.506  1.00  0.00    -0.206 F 
ATOM     78  C   UNL A   1      41.650  36.054  35.801  1.00  0.00     0.040 A 
ATOM     79  C   UNL A   1      42.978  37.015  34.038  1.00  0.00     0.040 A 
ATOM     80  F   UNL A   1      43.263  35.855  32.018  1.00  0.00    -0.206 F 
ATOM     81  C   UNL A   1      42.433  37.100  35.317  1.00  0.00     0.006 A 
ENDBRANCH  53  74
BRANCH  65  82
ATOM     82  C   UNL A   1      45.658  29.105  32.291  1.00  0.00     0.057 A 
ATOM     83  C   UNL A   1      45.844  28.275  33.404  1.00  0.00     0.134 A 
ATOM     84  C   UNL A   1      46.799  29.470  31.562  1.00  0.00     0.134 A 
ATOM     85  F   UNL A   1      44.797  27.899  34.154  1.00  0.00    -0.206 F 
ATOM     86  C   UNL A   1      47.115  27.847  33.792  1.00  0.00     0.040 A 
ATOM     87  C   UNL A   1      48.071  29.022  31.921  1.00  0.00     0.040 A 
ATOM     88  F   UNL A   1      46.694  30.255  30.479  1.00  0.00    -0.206 F 
ATOM     89  C   UNL A   1      48.232  28.215  33.044  1.00  0.00     0.006 A 
ENDBRANCH  65  82
ENDBRANCH  39  40
ENDBRANCH  31  34
ENDBRANCH  29  30
ENDBRANCH  28  29
ENDBRANCH   1  28
TORSDOF 16
ENDMDL
