MODEL 1
REMARK VINA RESULT:     -12.2      0.000      0.000
REMARK SMILES COc1ccc(NC(=O)[C@@H]2CC=CC[C@H]2C(=O)NCCCCCCNC(=O)c2ccc(-c3c4nc(c(-c5c(F)cccc5F)c5ccc([nH]5)c(-c5c(F)cccc5F)c5nc(c(-c6c(F)cccc6F)c6ccc3[nH]6)C=C5)C=C4)cc2)cc1Cl
REMARK SMILES IDX 21 1 20 2 19 3 18 4 16 5 17 6 15 8 10 9 11 10 12 11 14 12
REMARK SMILES IDX 13 13 8 14 7 15 9 17 6 18 3 19 4 20 83 21 5 22 82 23 84 24
REMARK SMILES IDX 2 25 1 26 22 27 23 28 24 29 25 30 26 31 27 33 28 34 29 35
REMARK SMILES IDX 81 36 30 37 80 38 31 39 32 40 33 41 74 42 34 43 79 44 73 45
REMARK SMILES IDX 75 46 35 47 78 48 72 49 71 50 36 52 62 53 45 54 61 55 46 56
REMARK SMILES IDX 49 57 60 58 76 59 47 60 48 61 59 63 77 64 50 65 37 66 38 67
REMARK SMILES IDX 43 68 39 69 40 70 42 71 44 72 41 73 63 74 64 75 69 76 65 77
REMARK SMILES IDX 66 78 68 79 70 80 67 81 51 82 52 83 57 84 53 85 54 86 56 87
REMARK SMILES IDX 58 88 55 89
REMARK H PARENT 18 7 7 16 25 32 75 51 49 62
REMARK Flexibility Score: inf
ROOT
ATOM      1  C   UNL A   1      37.345  22.421  25.493  1.00  0.00     0.002 C 
ENDROOT
BRANCH   1   2
ATOM      2  C   UNL A   1      36.674  23.706  24.986  1.00  0.00     0.021 C 
BRANCH   2   3
ATOM      3  C   UNL A   1      35.391  24.064  25.725  1.00  0.00     0.116 C 
BRANCH   3   4
ATOM      4  N   UNL A   1      35.063  23.033  26.682  1.00  0.00    -0.356 N 
ATOM      5  C   UNL A   1      34.022  22.181  26.774  1.00  0.00     0.224 C 
ATOM      6  O   UNL A   1      34.072  21.369  27.698  1.00  0.00    -0.275 OA
ATOM      7  H   UNL A   1      35.724  22.934  27.405  1.00  0.00     0.163 HD
BRANCH   5   8
ATOM      8  C   UNL A   1      32.912  22.136  25.739  1.00  0.00     0.095 C 
ATOM      9  C   UNL A   1      32.166  23.459  25.501  1.00  0.00     0.095 C 
ATOM     10  C   UNL A   1      31.217  23.379  24.286  1.00  0.00     0.041 C 
ATOM     11  C   UNL A   1      31.742  22.594  23.124  1.00  0.00    -0.030 C 
ATOM     12  C   UNL A   1      33.504  21.463  24.476  1.00  0.00     0.041 C 
ATOM     13  C   UNL A   1      32.771  21.744  23.208  1.00  0.00    -0.030 C 
BRANCH   9  14
ATOM     14  C   UNL A   1      31.406  24.248  26.587  1.00  0.00     0.228 C 
ATOM     15  N   UNL A   1      31.296  25.583  26.777  1.00  0.00    -0.326 N 
ATOM     16  H   UNL A   1      30.670  25.811  27.501  1.00  0.00     0.169 HD
ATOM     17  O   UNL A   1      30.726  23.577  27.387  1.00  0.00    -0.274 OA
BRANCH  15  18
ATOM     18  C   UNL A   1      31.864  26.711  26.185  1.00  0.00     0.042 A 
ATOM     19  C   UNL A   1      32.874  28.660  24.478  1.00  0.00     0.137 A 
ATOM     20  C   UNL A   1      33.740  27.936  25.301  1.00  0.00     0.050 A 
ATOM     21  C   UNL A   1      31.495  28.538  24.648  1.00  0.00     0.085 A 
ATOM     22  C   UNL A   1      33.225  26.985  26.189  1.00  0.00     0.030 A 
ATOM     23  C   UNL A   1      30.988  27.582  25.528  1.00  0.00     0.050 A 
ATOM     24  Cl  UNL A   1      30.382  29.483  23.728  1.00  0.00    -0.080 Cl
BRANCH  19  25
ATOM     25  O   UNL A   1      33.380  29.272  23.361  1.00  0.00    -0.495 OA
ATOM     26  C   UNL A   1      33.968  28.360  22.448  1.00  0.00     0.278 C 
ENDBRANCH  19  25
ENDBRANCH  15  18
ENDBRANCH   9  14
ENDBRANCH   5   8
ENDBRANCH   3   4
ENDBRANCH   2   3
ENDBRANCH   1   2
BRANCH   1  27
ATOM     27  C   UNL A   1      37.214  21.204  24.569  1.00  0.00     0.002 C 
BRANCH  27  28
ATOM     28  C   UNL A   1      38.037  19.986  24.986  1.00  0.00     0.021 C 
BRANCH  28  29
ATOM     29  C   UNL A   1      39.273  20.330  25.797  1.00  0.00     0.116 C 
BRANCH  29  30
ATOM     30  N   UNL A   1      40.184  19.203  25.894  1.00  0.00    -0.352 N 
ATOM     31  C   UNL A   1      41.539  19.233  26.110  1.00  0.00     0.251 C 
ATOM     32  H   UNL A   1      39.782  18.310  25.793  1.00  0.00     0.163 HD
ATOM     33  O   UNL A   1      42.227  18.229  25.967  1.00  0.00    -0.269 OA
BRANCH  31  34
ATOM     34  C   UNL A   1      42.158  20.516  26.495  1.00  0.00     0.039 A 
ATOM     35  C   UNL A   1      42.640  21.367  25.499  1.00  0.00     0.014 A 
ATOM     36  C   UNL A   1      42.195  20.895  27.840  1.00  0.00     0.014 A 
ATOM     37  C   UNL A   1      43.114  22.632  25.851  1.00  0.00     0.010 A 
ATOM     38  C   UNL A   1      42.584  22.183  28.177  1.00  0.00     0.010 A 
ATOM     39  C   UNL A   1      43.060  23.059  27.187  1.00  0.00    -0.014 A 
BRANCH  39  40
ATOM     40  C   UNL A   1      43.520  24.410  27.594  1.00  0.00     0.031 A 
ATOM     41  C   UNL A   1      42.508  25.448  27.982  1.00  0.00     0.074 A 
ATOM     42  C   UNL A   1      44.826  24.728  27.516  1.00  0.00     0.049 A 
ATOM     43  N   UNL A   1      42.682  26.719  28.241  1.00  0.00    -0.248 NA
ATOM     44  C   UNL A   1      41.106  25.007  28.051  1.00  0.00     0.031 C 
ATOM     45  C   UNL A   1      45.897  23.820  27.103  1.00  0.00     0.029 A 
ATOM     46  N   UNL A   1      45.470  25.915  27.757  1.00  0.00    -0.354 N 
ATOM     47  C   UNL A   1      41.412  27.231  28.472  1.00  0.00     0.074 A 
ATOM     48  C   UNL A   1      40.474  26.149  28.269  1.00  0.00     0.031 C 
ATOM     49  C   UNL A   1      47.064  24.481  27.122  1.00  0.00     0.029 A 
ATOM     50  C   UNL A   1      46.819  25.869  27.506  1.00  0.00     0.049 A 
ATOM     51  H   UNL A   1      45.009  26.723  28.079  1.00  0.00     0.167 HD
ATOM     52  C   UNL A   1      41.061  28.486  28.838  1.00  0.00     0.037 A 
ATOM     53  C   UNL A   1      47.751  26.840  27.557  1.00  0.00     0.037 A 
ATOM     54  C   UNL A   1      42.004  29.547  29.064  1.00  0.00     0.049 A 
ATOM     55  C   UNL A   1      47.345  28.227  27.971  1.00  0.00     0.074 A 
ATOM     56  C   UNL A   1      41.763  30.831  29.520  1.00  0.00     0.029 A 
ATOM     57  N   UNL A   1      43.370  29.451  28.840  1.00  0.00    -0.354 N 
ATOM     58  N   UNL A   1      46.151  28.682  28.267  1.00  0.00    -0.248 NA
ATOM     59  C   UNL A   1      48.410  29.235  28.063  1.00  0.00     0.031 C 
ATOM     60  C   UNL A   1      42.975  31.530  29.514  1.00  0.00     0.029 A 
ATOM     61  C   UNL A   1      43.980  30.662  29.115  1.00  0.00     0.049 A 
ATOM     62  H   UNL A   1      43.836  28.640  28.532  1.00  0.00     0.167 HD
ATOM     63  C   UNL A   1      46.323  30.018  28.607  1.00  0.00     0.074 A 
ATOM     64  C   UNL A   1      47.739  30.299  28.484  1.00  0.00     0.031 C 
ATOM     65  C   UNL A   1      45.393  30.925  28.993  1.00  0.00     0.037 A 
BRANCH  52  66
ATOM     66  C   UNL A   1      39.595  28.774  28.996  1.00  0.00     0.057 A 
ATOM     67  C   UNL A   1      38.804  29.224  27.930  1.00  0.00     0.134 A 
ATOM     68  C   UNL A   1      38.967  28.600  30.235  1.00  0.00     0.134 A 
ATOM     69  F   UNL A   1      39.344  29.423  26.718  1.00  0.00    -0.206 F 
ATOM     70  C   UNL A   1      37.453  29.533  28.102  1.00  0.00     0.040 A 
ATOM     71  C   UNL A   1      37.609  28.872  30.412  1.00  0.00     0.040 A 
ATOM     72  F   UNL A   1      39.662  28.164  31.297  1.00  0.00    -0.206 F 
ATOM     73  C   UNL A   1      36.852  29.353  29.346  1.00  0.00     0.006 A 
ENDBRANCH  52  66
BRANCH  53  74
ATOM     74  C   UNL A   1      49.158  26.520  27.211  1.00  0.00     0.057 A 
ATOM     75  C   UNL A   1      50.032  25.975  28.160  1.00  0.00     0.134 A 
ATOM     76  C   UNL A   1      49.652  26.713  25.915  1.00  0.00     0.134 A 
ATOM     77  F   UNL A   1      49.622  25.781  29.421  1.00  0.00    -0.206 F 
ATOM     78  C   UNL A   1      51.347  25.641  27.833  1.00  0.00     0.040 A 
ATOM     79  C   UNL A   1      50.958  26.360  25.569  1.00  0.00     0.040 A 
ATOM     80  F   UNL A   1      48.861  27.221  24.958  1.00  0.00    -0.206 F 
ATOM     81  C   UNL A   1      51.810  25.824  26.531  1.00  0.00     0.006 A 
ENDBRANCH  53  74
BRANCH  65  82
ATOM     82  C   UNL A   1      45.869  32.304  29.346  1.00  0.00     0.057 A 
ATOM     83  C   UNL A   1      46.317  32.628  30.633  1.00  0.00     0.134 A 
ATOM     84  C   UNL A   1      45.959  33.295  28.360  1.00  0.00     0.134 A 
ATOM     85  F   UNL A   1      46.245  31.727  31.624  1.00  0.00    -0.206 F 
ATOM     86  C   UNL A   1      46.832  33.891  30.927  1.00  0.00     0.040 A 
ATOM     87  C   UNL A   1      46.497  34.552  28.635  1.00  0.00     0.040 A 
ATOM     88  F   UNL A   1      45.556  33.046  27.105  1.00  0.00    -0.206 F 
ATOM     89  C   UNL A   1      46.934  34.853  29.923  1.00  0.00     0.006 A 
ENDBRANCH  65  82
ENDBRANCH  39  40
ENDBRANCH  31  34
ENDBRANCH  29  30
ENDBRANCH  28  29
ENDBRANCH  27  28
ENDBRANCH   1  27
TORSDOF 16
ENDMDL
MODEL 2
REMARK VINA RESULT:     -12.2      1.445      6.164
REMARK SMILES COc1ccc(NC(=O)[C@@H]2CC=CC[C@H]2C(=O)NCCCCCCNC(=O)c2ccc(-c3c4nc(c(-c5c(F)cccc5F)c5ccc([nH]5)c(-c5c(F)cccc5F)c5nc(c(-c6c(F)cccc6F)c6ccc3[nH]6)C=C5)C=C4)cc2)cc1Cl
REMARK SMILES IDX 21 1 20 2 19 3 18 4 16 5 17 6 15 8 10 9 11 10 12 11 14 12
REMARK SMILES IDX 13 13 8 14 7 15 9 17 6 18 3 19 4 20 83 21 5 22 82 23 84 24
REMARK SMILES IDX 2 25 1 26 22 27 23 28 24 29 25 30 26 31 27 33 28 34 29 35
REMARK SMILES IDX 81 36 30 37 80 38 31 39 32 40 33 41 74 42 34 43 79 44 73 45
REMARK SMILES IDX 75 46 35 47 78 48 72 49 71 50 36 52 62 53 45 54 61 55 46 56
REMARK SMILES IDX 49 57 60 58 76 59 47 60 48 61 59 63 77 64 50 65 37 66 38 67
REMARK SMILES IDX 43 68 39 69 40 70 42 71 44 72 41 73 63 74 64 75 69 76 65 77
REMARK SMILES IDX 66 78 68 79 70 80 67 81 51 82 52 83 57 84 53 85 54 86 56 87
REMARK SMILES IDX 58 88 55 89
REMARK H PARENT 18 7 7 16 25 32 75 51 49 62
REMARK Flexibility Score: inf
ROOT
ATOM      1  C   UNL A   1      37.020  22.264  24.303  1.00  0.00     0.002 C 
ENDROOT
BRANCH   1   2
ATOM      2  C   UNL A   1      36.973  23.424  25.308  1.00  0.00     0.021 C 
BRANCH   2   3
ATOM      3  C   UNL A   1      35.565  23.791  25.760  1.00  0.00     0.116 C 
BRANCH   3   4
ATOM      4  N   UNL A   1      35.088  22.833  26.730  1.00  0.00    -0.356 N 
ATOM      5  C   UNL A   1      33.949  22.114  26.809  1.00  0.00     0.224 C 
ATOM      6  O   UNL A   1      33.875  21.328  27.753  1.00  0.00    -0.275 OA
ATOM      7  H   UNL A   1      35.711  22.675  27.476  1.00  0.00     0.163 HD
BRANCH   5   8
ATOM      8  C   UNL A   1      32.872  22.175  25.741  1.00  0.00     0.095 C 
ATOM      9  C   UNL A   1      32.226  23.553  25.521  1.00  0.00     0.095 C 
ATOM     10  C   UNL A   1      31.312  23.573  24.277  1.00  0.00     0.041 C 
ATOM     11  C   UNL A   1      31.819  22.786  23.108  1.00  0.00    -0.030 C 
ATOM     12  C   UNL A   1      33.456  21.499  24.477  1.00  0.00     0.041 C 
ATOM     13  C   UNL A   1      32.783  21.865  23.197  1.00  0.00    -0.030 C 
BRANCH   9  14
ATOM     14  C   UNL A   1      31.487  24.362  26.608  1.00  0.00     0.228 C 
ATOM     15  N   UNL A   1      31.385  25.700  26.778  1.00  0.00    -0.326 N 
ATOM     16  H   UNL A   1      30.774  25.942  27.509  1.00  0.00     0.169 HD
ATOM     17  O   UNL A   1      30.819  23.707  27.430  1.00  0.00    -0.274 OA
BRANCH  15  18
ATOM     18  C   UNL A   1      31.946  26.816  26.158  1.00  0.00     0.042 A 
ATOM     19  C   UNL A   1      33.002  28.704  24.410  1.00  0.00     0.137 A 
ATOM     20  C   UNL A   1      33.830  28.080  25.346  1.00  0.00     0.050 A 
ATOM     21  C   UNL A   1      31.620  28.519  24.477  1.00  0.00     0.085 A 
ATOM     22  C   UNL A   1      33.288  27.162  26.252  1.00  0.00     0.030 A 
ATOM     23  C   UNL A   1      31.088  27.597  25.376  1.00  0.00     0.050 A 
ATOM     24  Cl  UNL A   1      30.544  29.344  23.408  1.00  0.00    -0.080 Cl
BRANCH  19  25
ATOM     25  O   UNL A   1      33.569  29.268  23.297  1.00  0.00    -0.495 OA
ATOM     26  C   UNL A   1      33.861  28.322  22.282  1.00  0.00     0.278 C 
ENDBRANCH  19  25
ENDBRANCH  15  18
ENDBRANCH   9  14
ENDBRANCH   5   8
ENDBRANCH   3   4
ENDBRANCH   2   3
ENDBRANCH   1   2
BRANCH   1  27
ATOM     27  C   UNL A   1      36.936  20.861  24.916  1.00  0.00     0.002 C 
BRANCH  27  28
ATOM     28  C   UNL A   1      38.213  20.030  24.800  1.00  0.00     0.021 C 
BRANCH  28  29
ATOM     29  C   UNL A   1      39.204  20.268  25.925  1.00  0.00     0.116 C 
BRANCH  29  30
ATOM     30  N   UNL A   1      40.280  19.292  25.910  1.00  0.00    -0.352 N 
ATOM     31  C   UNL A   1      41.621  19.516  26.097  1.00  0.00     0.251 C 
ATOM     32  H   UNL A   1      40.016  18.357  25.745  1.00  0.00     0.163 HD
ATOM     33  O   UNL A   1      42.449  18.645  25.858  1.00  0.00    -0.269 OA
BRANCH  31  34
ATOM     34  C   UNL A   1      42.048  20.846  26.572  1.00  0.00     0.039 A 
ATOM     35  C   UNL A   1      42.457  21.803  25.642  1.00  0.00     0.014 A 
ATOM     36  C   UNL A   1      41.977  21.155  27.933  1.00  0.00     0.014 A 
ATOM     37  C   UNL A   1      42.745  23.098  26.076  1.00  0.00     0.010 A 
ATOM     38  C   UNL A   1      42.178  22.463  28.349  1.00  0.00     0.010 A 
ATOM     39  C   UNL A   1      42.577  23.444  27.426  1.00  0.00    -0.014 A 
BRANCH  39  40
ATOM     40  C   UNL A   1      42.838  24.819  27.917  1.00  0.00     0.031 A 
ATOM     41  C   UNL A   1      44.217  25.189  28.380  1.00  0.00     0.074 A 
ATOM     42  C   UNL A   1      41.822  25.694  28.039  1.00  0.00     0.049 A 
ATOM     43  N   UNL A   1      44.630  26.285  28.964  1.00  0.00    -0.248 NA
ATOM     44  C   UNL A   1      45.267  24.174  28.197  1.00  0.00     0.031 C 
ATOM     45  C   UNL A   1      40.430  25.434  27.671  1.00  0.00     0.029 A 
ATOM     46  N   UNL A   1      41.802  26.973  28.535  1.00  0.00    -0.354 N 
ATOM     47  C   UNL A   1      45.974  26.077  29.243  1.00  0.00     0.074 A 
ATOM     48  C   UNL A   1      46.294  24.733  28.816  1.00  0.00     0.031 C 
ATOM     49  C   UNL A   1      39.692  26.519  27.951  1.00  0.00     0.029 A 
ATOM     50  C   UNL A   1      40.549  27.534  28.557  1.00  0.00     0.049 A 
ATOM     51  H   UNL A   1      42.609  27.444  28.846  1.00  0.00     0.167 HD
ATOM     52  C   UNL A   1      46.866  26.936  29.791  1.00  0.00     0.037 A 
ATOM     53  C   UNL A   1      40.133  28.724  29.032  1.00  0.00     0.037 A 
ATOM     54  C   UNL A   1      46.543  28.280  30.187  1.00  0.00     0.049 A 
ATOM     55  C   UNL A   1      41.138  29.668  29.631  1.00  0.00     0.074 A 
ATOM     56  C   UNL A   1      47.390  29.261  30.671  1.00  0.00     0.029 A 
ATOM     57  N   UNL A   1      45.269  28.829  30.154  1.00  0.00    -0.354 N 
ATOM     58  N   UNL A   1      42.424  29.494  29.816  1.00  0.00    -0.248 NA
ATOM     59  C   UNL A   1      40.639  30.974  30.083  1.00  0.00     0.031 C 
ATOM     60  C   UNL A   1      46.618  30.384  30.988  1.00  0.00     0.029 A 
ATOM     61  C   UNL A   1      45.301  30.123  30.642  1.00  0.00     0.049 A 
ATOM     62  H   UNL A   1      44.463  28.365  29.830  1.00  0.00     0.167 HD
ATOM     63  C   UNL A   1      42.894  30.673  30.379  1.00  0.00     0.074 A 
ATOM     64  C   UNL A   1      41.754  31.559  30.502  1.00  0.00     0.031 C 
ATOM     65  C   UNL A   1      44.157  30.995  30.752  1.00  0.00     0.037 A 
BRANCH  52  66
ATOM     66  C   UNL A   1      48.265  26.434  30.005  1.00  0.00     0.057 A 
ATOM     67  C   UNL A   1      49.266  26.574  29.033  1.00  0.00     0.134 A 
ATOM     68  C   UNL A   1      48.616  25.797  31.202  1.00  0.00     0.134 A 
ATOM     69  F   UNL A   1      48.996  27.164  27.859  1.00  0.00    -0.206 F 
ATOM     70  C   UNL A   1      50.550  26.061  29.227  1.00  0.00     0.040 A 
ATOM     71  C   UNL A   1      49.905  25.310  31.422  1.00  0.00     0.040 A 
ATOM     72  F   UNL A   1      47.710  25.635  32.179  1.00  0.00    -0.206 F 
ATOM     73  C   UNL A   1      50.873  25.430  30.427  1.00  0.00     0.006 A 
ENDBRANCH  52  66
BRANCH  53  74
ATOM     74  C   UNL A   1      38.695  29.081  28.947  1.00  0.00     0.057 A 
ATOM     75  C   UNL A   1      37.858  28.992  30.066  1.00  0.00     0.134 A 
ATOM     76  C   UNL A   1      38.131  29.556  27.756  1.00  0.00     0.134 A 
ATOM     77  F   UNL A   1      38.336  28.530  31.230  1.00  0.00    -0.206 F 
ATOM     78  C   UNL A   1      36.513  29.357  30.001  1.00  0.00     0.040 A 
ATOM     79  C   UNL A   1      36.793  29.947  27.684  1.00  0.00     0.040 A 
ATOM     80  F   UNL A   1      38.883  29.674  26.652  1.00  0.00    -0.206 F 
ATOM     81  C   UNL A   1      35.979  29.845  28.810  1.00  0.00     0.006 A 
ENDBRANCH  53  74
BRANCH  65  82
ATOM     82  C   UNL A   1      44.392  32.373  31.300  1.00  0.00     0.057 A 
ATOM     83  C   UNL A   1      44.672  33.464  30.469  1.00  0.00     0.134 A 
ATOM     84  C   UNL A   1      44.251  32.621  32.672  1.00  0.00     0.134 A 
ATOM     85  F   UNL A   1      44.832  33.290  29.149  1.00  0.00    -0.206 F 
ATOM     86  C   UNL A   1      44.810  34.753  30.984  1.00  0.00     0.040 A 
ATOM     87  C   UNL A   1      44.360  33.910  33.195  1.00  0.00     0.040 A 
ATOM     88  F   UNL A   1      43.974  31.621  33.521  1.00  0.00    -0.206 F 
ATOM     89  C   UNL A   1      44.641  34.981  32.350  1.00  0.00     0.006 A 
ENDBRANCH  65  82
ENDBRANCH  39  40
ENDBRANCH  31  34
ENDBRANCH  29  30
ENDBRANCH  28  29
ENDBRANCH  27  28
ENDBRANCH   1  27
TORSDOF 16
ENDMDL
MODEL 3
REMARK VINA RESULT:     -12.1      0.863      6.157
REMARK SMILES COc1ccc(NC(=O)[C@@H]2CC=CC[C@H]2C(=O)NCCCCCCNC(=O)c2ccc(-c3c4nc(c(-c5c(F)cccc5F)c5ccc([nH]5)c(-c5c(F)cccc5F)c5nc(c(-c6c(F)cccc6F)c6ccc3[nH]6)C=C5)C=C4)cc2)cc1Cl
REMARK SMILES IDX 21 1 20 2 19 3 18 4 16 5 17 6 15 8 10 9 11 10 12 11 14 12
REMARK SMILES IDX 13 13 8 14 7 15 9 17 6 18 3 19 4 20 83 21 5 22 82 23 84 24
REMARK SMILES IDX 2 25 1 26 22 27 23 28 24 29 25 30 26 31 27 33 28 34 29 35
REMARK SMILES IDX 81 36 30 37 80 38 31 39 32 40 33 41 74 42 34 43 79 44 73 45
REMARK SMILES IDX 75 46 35 47 78 48 72 49 71 50 36 52 62 53 45 54 61 55 46 56
REMARK SMILES IDX 49 57 60 58 76 59 47 60 48 61 59 63 77 64 50 65 37 66 38 67
REMARK SMILES IDX 43 68 39 69 40 70 42 71 44 72 41 73 63 74 64 75 69 76 65 77
REMARK SMILES IDX 66 78 68 79 70 80 67 81 51 82 52 83 57 84 53 85 54 86 56 87
REMARK SMILES IDX 58 88 55 89
REMARK H PARENT 18 7 7 16 25 32 75 51 49 62
REMARK Flexibility Score: inf
ROOT
ATOM      1  C   UNL A   1      37.403  22.204  25.486  1.00  0.00     0.002 C 
ENDROOT
BRANCH   1   2
ATOM      2  C   UNL A   1      36.773  23.486  24.922  1.00  0.00     0.021 C 
BRANCH   2   3
ATOM      3  C   UNL A   1      35.556  23.969  25.701  1.00  0.00     0.116 C 
BRANCH   3   4
ATOM      4  N   UNL A   1      35.180  22.991  26.695  1.00  0.00    -0.356 N 
ATOM      5  C   UNL A   1      34.102  22.188  26.815  1.00  0.00     0.224 C 
ATOM      6  O   UNL A   1      34.114  21.411  27.769  1.00  0.00    -0.275 OA
ATOM      7  H   UNL A   1      35.834  22.889  27.424  1.00  0.00     0.163 HD
BRANCH   5   8
ATOM      8  C   UNL A   1      32.994  22.153  25.777  1.00  0.00     0.095 C 
ATOM      9  C   UNL A   1      32.266  23.485  25.532  1.00  0.00     0.095 C 
ATOM     10  C   UNL A   1      31.319  23.412  24.315  1.00  0.00     0.041 C 
ATOM     11  C   UNL A   1      31.836  22.614  23.158  1.00  0.00    -0.030 C 
ATOM     12  C   UNL A   1      33.579  21.467  24.519  1.00  0.00     0.041 C 
ATOM     13  C   UNL A   1      32.853  21.752  23.248  1.00  0.00    -0.030 C 
BRANCH   9  14
ATOM     14  C   UNL A   1      31.514  24.289  26.612  1.00  0.00     0.228 C 
ATOM     15  N   UNL A   1      31.407  25.626  26.786  1.00  0.00    -0.326 N 
ATOM     16  H   UNL A   1      30.787  25.865  27.510  1.00  0.00     0.169 HD
ATOM     17  O   UNL A   1      30.838  23.630  27.425  1.00  0.00    -0.274 OA
BRANCH  15  18
ATOM     18  C   UNL A   1      31.973  26.746  26.175  1.00  0.00     0.042 A 
ATOM     19  C   UNL A   1      32.943  28.688  24.438  1.00  0.00     0.137 A 
ATOM     20  C   UNL A   1      33.833  27.931  25.205  1.00  0.00     0.050 A 
ATOM     21  C   UNL A   1      31.572  28.600  24.681  1.00  0.00     0.085 A 
ATOM     22  C   UNL A   1      33.339  26.983  26.109  1.00  0.00     0.030 A 
ATOM     23  C   UNL A   1      31.088  27.648  25.577  1.00  0.00     0.050 A 
ATOM     24  Cl  UNL A   1      30.438  29.587  23.833  1.00  0.00    -0.080 Cl
BRANCH  19  25
ATOM     25  O   UNL A   1      33.405  29.299  23.301  1.00  0.00    -0.495 OA
ATOM     26  C   UNL A   1      33.957  28.387  22.366  1.00  0.00     0.278 C 
ENDBRANCH  19  25
ENDBRANCH  15  18
ENDBRANCH   9  14
ENDBRANCH   5   8
ENDBRANCH   3   4
ENDBRANCH   2   3
ENDBRANCH   1   2
BRANCH   1  27
ATOM     27  C   UNL A   1      37.292  20.968  24.585  1.00  0.00     0.002 C 
BRANCH  27  28
ATOM     28  C   UNL A   1      38.272  19.843  24.912  1.00  0.00     0.021 C 
BRANCH  28  29
ATOM     29  C   UNL A   1      39.360  20.242  25.893  1.00  0.00     0.116 C 
BRANCH  29  30
ATOM     30  N   UNL A   1      40.403  19.235  25.979  1.00  0.00    -0.352 N 
ATOM     31  C   UNL A   1      41.748  19.431  26.173  1.00  0.00     0.251 C 
ATOM     32  H   UNL A   1      40.111  18.299  25.887  1.00  0.00     0.163 HD
ATOM     33  O   UNL A   1      42.550  18.518  26.023  1.00  0.00    -0.269 OA
BRANCH  31  34
ATOM     34  C   UNL A   1      42.210  20.782  26.543  1.00  0.00     0.039 A 
ATOM     35  C   UNL A   1      42.610  21.666  25.540  1.00  0.00     0.014 A 
ATOM     36  C   UNL A   1      42.182  21.185  27.882  1.00  0.00     0.014 A 
ATOM     37  C   UNL A   1      42.933  22.982  25.875  1.00  0.00     0.010 A 
ATOM     38  C   UNL A   1      42.418  22.515  28.200  1.00  0.00     0.010 A 
ATOM     39  C   UNL A   1      42.808  23.422  27.202  1.00  0.00    -0.014 A 
BRANCH  39  40
ATOM     40  C   UNL A   1      43.106  24.823  27.590  1.00  0.00     0.031 A 
ATOM     41  C   UNL A   1      44.529  25.235  27.833  1.00  0.00     0.074 A 
ATOM     42  C   UNL A   1      42.099  25.686  27.820  1.00  0.00     0.049 A 
ATOM     43  N   UNL A   1      44.997  26.363  28.303  1.00  0.00    -0.248 NA
ATOM     44  C   UNL A   1      45.563  24.229  27.544  1.00  0.00     0.031 C 
ATOM     45  C   UNL A   1      40.675  25.387  27.669  1.00  0.00     0.029 A 
ATOM     46  N   UNL A   1      42.122  26.986  28.258  1.00  0.00    -0.354 N 
ATOM     47  C   UNL A   1      46.371  26.189  28.394  1.00  0.00     0.074 A 
ATOM     48  C   UNL A   1      46.656  24.832  27.984  1.00  0.00     0.031 C 
ATOM     49  C   UNL A   1      39.961  26.473  28.005  1.00  0.00     0.029 A 
ATOM     50  C   UNL A   1      40.873  27.528  28.436  1.00  0.00     0.049 A 
ATOM     51  H   UNL A   1      42.955  27.484  28.428  1.00  0.00     0.167 HD
ATOM     52  C   UNL A   1      47.313  27.086  28.769  1.00  0.00     0.037 A 
ATOM     53  C   UNL A   1      40.503  28.732  28.915  1.00  0.00     0.037 A 
ATOM     54  C   UNL A   1      47.021  28.442  29.149  1.00  0.00     0.049 A 
ATOM     55  C   UNL A   1      41.563  29.718  29.321  1.00  0.00     0.074 A 
ATOM     56  C   UNL A   1      47.906  29.458  29.463  1.00  0.00     0.029 A 
ATOM     57  N   UNL A   1      45.744  28.969  29.277  1.00  0.00    -0.354 N 
ATOM     58  N   UNL A   1      42.865  29.572  29.325  1.00  0.00    -0.248 NA
ATOM     59  C   UNL A   1      41.105  31.035  29.783  1.00  0.00     0.031 C 
ATOM     60  C   UNL A   1      47.164  30.581  29.840  1.00  0.00     0.029 A 
ATOM     61  C   UNL A   1      45.816  30.285  29.699  1.00  0.00     0.049 A 
ATOM     62  H   UNL A   1      44.910  28.478  29.093  1.00  0.00     0.167 HD
ATOM     63  C   UNL A   1      43.385  30.784  29.762  1.00  0.00     0.074 A 
ATOM     64  C   UNL A   1      42.255  31.656  30.011  1.00  0.00     0.031 C 
ATOM     65  C   UNL A   1      44.681  31.142  29.936  1.00  0.00     0.037 A 
BRANCH  52  66
ATOM     66  C   UNL A   1      48.739  26.617  28.800  1.00  0.00     0.057 A 
ATOM     67  C   UNL A   1      49.330  26.099  29.962  1.00  0.00     0.134 A 
ATOM     68  C   UNL A   1      49.536  26.686  27.650  1.00  0.00     0.134 A 
ATOM     69  F   UNL A   1      48.628  26.015  31.102  1.00  0.00    -0.206 F 
ATOM     70  C   UNL A   1      50.670  25.709  29.989  1.00  0.00     0.040 A 
ATOM     71  C   UNL A   1      50.867  26.267  27.656  1.00  0.00     0.040 A 
ATOM     72  F   UNL A   1      49.034  27.163  26.501  1.00  0.00    -0.206 F 
ATOM     73  C   UNL A   1      51.441  25.790  28.832  1.00  0.00     0.006 A 
ENDBRANCH  52  66
BRANCH  53  74
ATOM     74  C   UNL A   1      39.060  29.061  29.023  1.00  0.00     0.057 A 
ATOM     75  C   UNL A   1      38.329  29.493  27.910  1.00  0.00     0.134 A 
ATOM     76  C   UNL A   1      38.368  28.914  30.232  1.00  0.00     0.134 A 
ATOM     77  F   UNL A   1      38.939  29.668  26.729  1.00  0.00    -0.206 F 
ATOM     78  C   UNL A   1      36.965  29.773  27.998  1.00  0.00     0.040 A 
ATOM     79  C   UNL A   1      36.999  29.168  30.328  1.00  0.00     0.040 A 
ATOM     80  F   UNL A   1      39.010  28.493  31.332  1.00  0.00    -0.206 F 
ATOM     81  C   UNL A   1      36.294  29.601  29.207  1.00  0.00     0.006 A 
ENDBRANCH  53  74
BRANCH  65  82
ATOM     82  C   UNL A   1      44.962  32.547  30.384  1.00  0.00     0.057 A 
ATOM     83  C   UNL A   1      45.138  32.874  31.733  1.00  0.00     0.134 A 
ATOM     84  C   UNL A   1      45.143  33.567  29.440  1.00  0.00     0.134 A 
ATOM     85  F   UNL A   1      44.967  31.946  32.686  1.00  0.00    -0.206 F 
ATOM     86  C   UNL A   1      45.479  34.168  32.129  1.00  0.00     0.040 A 
ATOM     87  C   UNL A   1      45.509  34.858  29.822  1.00  0.00     0.040 A 
ATOM     88  F   UNL A   1      44.997  33.317  28.131  1.00  0.00    -0.206 F 
ATOM     89  C   UNL A   1      45.677  35.161  31.171  1.00  0.00     0.006 A 
ENDBRANCH  65  82
ENDBRANCH  39  40
ENDBRANCH  31  34
ENDBRANCH  29  30
ENDBRANCH  28  29
ENDBRANCH  27  28
ENDBRANCH   1  27
TORSDOF 16
ENDMDL
