MODEL 1
REMARK VINA RESULT:     -12.3      0.000      0.000
REMARK SMILES Cc1ccc(S(=O)(=O)Nc2ccc(C(=O)CCC(=O)NCCCCCCNC(=O)c3ccc(-c4c5nc(c(-c6c(F)cccc6F)c6ccc([nH]6)c(-c6c(F)cccc6F)c6nc(c(-c7c(F)cccc7F)c7ccc4[nH]7)C=C6)C=C5)cc3)cc2)c(C)c1
REMARK SMILES IDX 21 1 20 2 18 3 19 4 17 6 16 7 14 8 15 9 13 10 10 11 11 12
REMARK SMILES IDX 85 13 12 14 84 15 9 16 6 18 7 19 8 20 5 21 1 22 2 23 3 24
REMARK SMILES IDX 88 25 4 26 86 27 87 28 22 29 23 30 24 31 25 32 26 33 27 34
REMARK SMILES IDX 28 35 29 37 30 38 31 39 83 40 32 41 82 42 33 43 34 44 35 45
REMARK SMILES IDX 76 46 36 47 81 48 75 49 77 50 37 51 80 52 74 53 73 54 38 56
REMARK SMILES IDX 64 57 47 58 63 59 48 60 51 61 62 62 78 63 49 64 50 65 61 67
REMARK SMILES IDX 79 68 52 69 39 70 40 71 45 72 41 73 42 74 44 75 46 76 43 77
REMARK SMILES IDX 65 78 66 79 71 80 67 81 68 82 70 83 72 84 69 85 53 86 54 87
REMARK SMILES IDX 59 88 55 89 56 90 58 91 60 92 57 93
REMARK H PARENT 20 5 9 17 27 36 77 55 51 66
REMARK Flexibility Score: inf
ROOT
ATOM      1  C   UNL A   1      33.356  24.278  22.873  1.00  0.00     0.116 C 
ENDROOT
BRANCH   1   2
ATOM      2  N   UNL A   1      32.457  24.172  24.045  1.00  0.00    -0.356 N 
ATOM      3  C   UNL A   1      31.406  25.005  24.368  1.00  0.00     0.220 C 
ATOM      4  O   UNL A   1      31.059  25.074  25.549  1.00  0.00    -0.275 OA
ATOM      5  H   UNL A   1      32.628  23.426  24.662  1.00  0.00     0.163 HD
BRANCH   3   6
ATOM      6  C   UNL A   1      30.695  25.838  23.284  1.00  0.00     0.108 C 
BRANCH   6   7
ATOM      7  C   UNL A   1      30.594  27.366  23.557  1.00  0.00     0.091 C 
BRANCH   7   8
ATOM      8  C   UNL A   1      31.907  28.093  23.966  1.00  0.00     0.163 C 
ATOM      9  O   UNL A   1      32.855  28.241  23.202  1.00  0.00    -0.294 OA
BRANCH   8  10
ATOM     10  C   UNL A   1      32.102  28.444  25.422  1.00  0.00     0.018 A 
ATOM     11  C   UNL A   1      33.980  30.670  27.620  1.00  0.00     0.049 A 
ATOM     12  C   UNL A   1      32.392  31.214  26.897  1.00  0.00     0.027 A 
ATOM     13  C   UNL A   1      34.584  29.023  27.275  1.00  0.00     0.027 A 
ATOM     14  C   UNL A   1      31.443  30.099  25.823  1.00  0.00     0.014 A 
ATOM     15  C   UNL A   1      33.639  27.912  26.182  1.00  0.00     0.014 A 
BRANCH  11  16
ATOM     16  N   UNL A   1      34.455  31.447  28.737  1.00  0.00    -0.280 N 
ATOM     17  H   UNL A   1      34.494  30.988  29.608  1.00  0.00     0.180 HD
BRANCH  16  18
ATOM     18  S   UNL A   1      34.950  33.044  28.711  1.00  0.00     0.262 S 
ATOM     19  O   UNL A   1      33.838  33.859  29.144  1.00  0.00    -0.201 OA
ATOM     20  O   UNL A   1      35.543  33.217  27.402  1.00  0.00    -0.201 OA
BRANCH  18  21
ATOM     21  C   UNL A   1      36.252  33.166  29.890  1.00  0.00     0.090 A 
ATOM     22  C   UNL A   1      39.619  31.741  32.056  1.00  0.00     0.044 C 
ATOM     23  C   UNL A   1      38.442  32.367  31.373  1.00  0.00    -0.051 A 
ATOM     24  C   UNL A   1      38.632  33.082  30.191  1.00  0.00     0.005 A 
ATOM     25  C   UNL A   1      37.153  32.268  31.915  1.00  0.00     0.008 A 
ATOM     26  C   UNL A   1      37.531  33.508  29.460  1.00  0.00     0.023 A 
ATOM     27  C   UNL A   1      36.036  32.681  31.182  1.00  0.00    -0.030 A 
ATOM     28  C   UNL A   1      34.680  32.734  31.830  1.00  0.00     0.046 C 
ENDBRANCH  18  21
ENDBRANCH  16  18
ENDBRANCH  11  16
ENDBRANCH   8  10
ENDBRANCH   7   8
ENDBRANCH   6   7
ENDBRANCH   3   6
ENDBRANCH   1   2
BRANCH   1  29
ATOM     29  C   UNL A   1      34.507  23.127  23.075  1.00  0.00     0.021 C 
BRANCH  29  30
ATOM     30  C   UNL A   1      35.676  22.131  24.609  1.00  0.00     0.002 C 
BRANCH  30  31
ATOM     31  C   UNL A   1      37.335  22.073  25.041  1.00  0.00     0.002 C 
BRANCH  31  32
ATOM     32  C   UNL A   1      38.066  20.739  25.135  1.00  0.00     0.021 C 
BRANCH  32  33
ATOM     33  C   UNL A   1      39.223  20.843  26.094  1.00  0.00     0.116 C 
BRANCH  33  34
ATOM     34  N   UNL A   1      40.036  19.621  26.095  1.00  0.00    -0.352 N 
ATOM     35  C   UNL A   1      41.405  19.510  26.070  1.00  0.00     0.251 C 
ATOM     36  H   UNL A   1      39.536  18.772  26.116  1.00  0.00     0.163 HD
ATOM     37  O   UNL A   1      41.964  18.446  25.836  1.00  0.00    -0.269 OA
BRANCH  35  38
ATOM     38  C   UNL A   1      42.176  20.737  26.317  1.00  0.00     0.039 A 
ATOM     39  C   UNL A   1      42.492  21.589  25.260  1.00  0.00     0.014 A 
ATOM     40  C   UNL A   1      42.426  21.095  27.643  1.00  0.00     0.014 A 
ATOM     41  C   UNL A   1      42.996  22.855  25.550  1.00  0.00     0.010 A 
ATOM     42  C   UNL A   1      42.772  22.399  27.928  1.00  0.00     0.010 A 
ATOM     43  C   UNL A   1      43.095  23.278  26.886  1.00  0.00    -0.014 A 
BRANCH  43  44
ATOM     44  C   UNL A   1      43.597  24.617  27.252  1.00  0.00     0.031 A 
ATOM     45  C   UNL A   1      42.625  25.616  27.815  1.00  0.00     0.074 A 
ATOM     46  C   UNL A   1      44.868  24.959  26.974  1.00  0.00     0.049 A 
ATOM     47  N   UNL A   1      42.801  26.881  28.081  1.00  0.00    -0.248 NA
ATOM     48  C   UNL A   1      41.251  25.138  28.058  1.00  0.00     0.031 C 
ATOM     49  C   UNL A   1      45.868  24.086  26.356  1.00  0.00     0.029 A 
ATOM     50  N   UNL A   1      45.529  26.145  27.157  1.00  0.00    -0.354 N 
ATOM     51  C   UNL A   1      41.559  27.350  28.488  1.00  0.00     0.074 A 
ATOM     52  C   UNL A   1      40.622  26.260  28.359  1.00  0.00     0.031 C 
ATOM     53  C   UNL A   1      47.022  24.760  26.230  1.00  0.00     0.029 A 
ATOM     54  C   UNL A   1      46.829  26.122  26.716  1.00  0.00     0.049 A 
ATOM     55  H   UNL A   1      45.112  26.937  27.565  1.00  0.00     0.167 HD
ATOM     56  C   UNL A   1      41.238  28.574  28.962  1.00  0.00     0.037 A 
ATOM     57  C   UNL A   1      47.753  27.101  26.697  1.00  0.00     0.037 A 
ATOM     58  C   UNL A   1      42.195  29.632  29.121  1.00  0.00     0.049 A 
ATOM     59  C   UNL A   1      47.381  28.452  27.242  1.00  0.00     0.074 A 
ATOM     60  C   UNL A   1      42.016  30.879  29.688  1.00  0.00     0.029 A 
ATOM     61  N   UNL A   1      43.516  29.563  28.700  1.00  0.00    -0.354 N 
ATOM     62  N   UNL A   1      46.232  28.856  27.730  1.00  0.00    -0.248 NA
ATOM     63  C   UNL A   1      48.428  29.481  27.236  1.00  0.00     0.031 C 
ATOM     64  C   UNL A   1      43.213  31.588  29.553  1.00  0.00     0.029 A 
ATOM     65  C   UNL A   1      44.153  30.764  28.952  1.00  0.00     0.049 A 
ATOM     66  H   UNL A   1      43.936  28.775  28.284  1.00  0.00     0.167 HD
ATOM     67  C   UNL A   1      46.417  30.182  28.096  1.00  0.00     0.074 A 
ATOM     68  C   UNL A   1      47.798  30.505  27.796  1.00  0.00     0.031 C 
ATOM     69  C   UNL A   1      45.527  31.057  28.626  1.00  0.00     0.037 A 
BRANCH  56  70
ATOM     70  C   UNL A   1      39.802  28.819  29.326  1.00  0.00     0.057 A 
ATOM     71  C   UNL A   1      39.289  28.513  30.595  1.00  0.00     0.134 A 
ATOM     72  C   UNL A   1      38.914  29.364  28.390  1.00  0.00     0.134 A 
ATOM     73  F   UNL A   1      40.079  27.970  31.535  1.00  0.00    -0.206 F 
ATOM     74  C   UNL A   1      37.942  28.700  30.905  1.00  0.00     0.040 A 
ATOM     75  C   UNL A   1      37.572  29.588  28.699  1.00  0.00     0.040 A 
ATOM     76  F   UNL A   1      39.335  29.680  27.156  1.00  0.00    -0.206 F 
ATOM     77  C   UNL A   1      37.080  29.246  29.956  1.00  0.00     0.006 A 
ENDBRANCH  56  70
BRANCH  57  78
ATOM     78  C   UNL A   1      49.105  26.826  26.150  1.00  0.00     0.057 A 
ATOM     79  C   UNL A   1      49.402  27.054  24.802  1.00  0.00     0.134 A 
ATOM     80  C   UNL A   1      50.144  26.365  26.969  1.00  0.00     0.134 A 
ATOM     81  F   UNL A   1      48.448  27.483  23.964  1.00  0.00    -0.206 F 
ATOM     82  C   UNL A   1      50.679  26.826  24.285  1.00  0.00     0.040 A 
ATOM     83  C   UNL A   1      51.432  26.157  26.471  1.00  0.00     0.040 A 
ATOM     84  F   UNL A   1      49.929  26.140  28.273  1.00  0.00    -0.206 F 
ATOM     85  C   UNL A   1      51.701  26.382  25.124  1.00  0.00     0.006 A 
ENDBRANCH  57  78
BRANCH  69  86
ATOM     86  C   UNL A   1      46.016  32.447  28.904  1.00  0.00     0.057 A 
ATOM     87  C   UNL A   1      46.665  32.768  30.103  1.00  0.00     0.134 A 
ATOM     88  C   UNL A   1      45.898  33.454  27.938  1.00  0.00     0.134 A 
ATOM     89  F   UNL A   1      46.798  31.850  31.072  1.00  0.00    -0.206 F 
ATOM     90  C   UNL A   1      47.169  34.047  30.336  1.00  0.00     0.040 A 
ATOM     91  C   UNL A   1      46.424  34.729  28.148  1.00  0.00     0.040 A 
ATOM     92  F   UNL A   1      45.297  33.207  26.765  1.00  0.00    -0.206 F 
ATOM     93  C   UNL A   1      47.059  35.028  29.352  1.00  0.00     0.006 A 
ENDBRANCH  69  86
ENDBRANCH  43  44
ENDBRANCH  35  38
ENDBRANCH  33  34
ENDBRANCH  32  33
ENDBRANCH  31  32
ENDBRANCH  30  31
ENDBRANCH  29  30
ENDBRANCH   1  29
TORSDOF 19
ENDMDL
MODEL 2
REMARK VINA RESULT:     -12.2      5.521     11.475
REMARK SMILES Cc1ccc(S(=O)(=O)Nc2ccc(C(=O)CCC(=O)NCCCCCCNC(=O)c3ccc(-c4c5nc(c(-c6c(F)cccc6F)c6ccc([nH]6)c(-c6c(F)cccc6F)c6nc(c(-c7c(F)cccc7F)c7ccc4[nH]7)C=C6)C=C5)cc3)cc2)c(C)c1
REMARK SMILES IDX 21 1 20 2 18 3 19 4 17 6 16 7 14 8 15 9 13 10 10 11 11 12
REMARK SMILES IDX 85 13 12 14 84 15 9 16 6 18 7 19 8 20 5 21 1 22 2 23 3 24
REMARK SMILES IDX 88 25 4 26 86 27 87 28 22 29 23 30 24 31 25 32 26 33 27 34
REMARK SMILES IDX 28 35 29 37 30 38 31 39 83 40 32 41 82 42 33 43 34 44 35 45
REMARK SMILES IDX 76 46 36 47 81 48 75 49 77 50 37 51 80 52 74 53 73 54 38 56
REMARK SMILES IDX 64 57 47 58 63 59 48 60 51 61 62 62 78 63 49 64 50 65 61 67
REMARK SMILES IDX 79 68 52 69 39 70 40 71 45 72 41 73 42 74 44 75 46 76 43 77
REMARK SMILES IDX 65 78 66 79 71 80 67 81 68 82 70 83 72 84 69 85 53 86 54 87
REMARK SMILES IDX 59 88 55 89 56 90 58 91 60 92 57 93
REMARK H PARENT 20 5 9 17 27 36 77 55 51 66
REMARK Flexibility Score: inf
ROOT
ATOM      1  C   UNL A   1      34.918  29.015  27.104  1.00  0.00     0.116 C 
ENDROOT
BRANCH   1   2
ATOM      2  N   UNL A   1      33.598  28.587  27.621  1.00  0.00    -0.356 N 
ATOM      3  C   UNL A   1      32.423  28.463  26.909  1.00  0.00     0.220 C 
ATOM      4  O   UNL A   1      31.359  28.546  27.524  1.00  0.00    -0.275 OA
ATOM      5  H   UNL A   1      33.554  28.366  28.579  1.00  0.00     0.163 HD
BRANCH   3   6
ATOM      6  C   UNL A   1      32.442  28.243  25.384  1.00  0.00     0.108 C 
BRANCH   6   7
ATOM      7  C   UNL A   1      31.721  29.326  24.531  1.00  0.00     0.091 C 
BRANCH   7   8
ATOM      8  C   UNL A   1      30.470  28.867  23.728  1.00  0.00     0.163 C 
ATOM      9  O   UNL A   1      29.511  29.599  23.509  1.00  0.00    -0.294 OA
BRANCH   8  10
ATOM     10  C   UNL A   1      30.343  27.402  23.385  1.00  0.00     0.018 A 
ATOM     11  C   UNL A   1      31.908  24.159  23.979  1.00  0.00     0.049 A 
ATOM     12  C   UNL A   1      30.642  24.797  25.133  1.00  0.00     0.027 A 
ATOM     13  C   UNL A   1      32.342  25.119  22.534  1.00  0.00     0.027 A 
ATOM     14  C   UNL A   1      29.844  26.399  24.826  1.00  0.00     0.014 A 
ATOM     15  C   UNL A   1      31.553  26.735  22.237  1.00  0.00     0.014 A 
BRANCH  11  16
ATOM     16  N   UNL A   1      32.194  22.750  24.083  1.00  0.00    -0.280 N 
ATOM     17  H   UNL A   1      31.604  22.143  23.580  1.00  0.00     0.180 HD
BRANCH  16  18
ATOM     18  S   UNL A   1      33.423  22.039  24.966  1.00  0.00     0.262 S 
ATOM     19  O   UNL A   1      32.972  21.919  26.334  1.00  0.00    -0.201 OA
ATOM     20  O   UNL A   1      34.602  22.807  24.628  1.00  0.00    -0.201 OA
BRANCH  18  21
ATOM     21  C   UNL A   1      33.639  20.430  24.284  1.00  0.00     0.090 A 
ATOM     22  C   UNL A   1      33.284  16.196  24.242  1.00  0.00     0.044 C 
ATOM     23  C   UNL A   1      33.482  17.676  24.128  1.00  0.00    -0.051 A 
ATOM     24  C   UNL A   1      32.498  18.458  23.527  1.00  0.00     0.005 A 
ATOM     25  C   UNL A   1      34.654  18.288  24.596  1.00  0.00     0.008 A 
ATOM     26  C   UNL A   1      32.591  19.843  23.580  1.00  0.00     0.023 A 
ATOM     27  C   UNL A   1      34.753  19.680  24.667  1.00  0.00    -0.030 A 
ATOM     28  C   UNL A   1      36.066  20.332  25.004  1.00  0.00     0.046 C 
ENDBRANCH  18  21
ENDBRANCH  16  18
ENDBRANCH  11  16
ENDBRANCH   8  10
ENDBRANCH   7   8
ENDBRANCH   6   7
ENDBRANCH   3   6
ENDBRANCH   1   2
BRANCH   1  29
ATOM     29  C   UNL A   1      35.237  30.462  27.806  1.00  0.00     0.021 C 
BRANCH  29  30
ATOM     30  C   UNL A   1      34.277  32.092  28.873  1.00  0.00     0.002 C 
BRANCH  30  31
ATOM     31  C   UNL A   1      34.572  33.771  29.069  1.00  0.00     0.002 C 
BRANCH  31  32
ATOM     32  C   UNL A   1      33.437  34.778  28.935  1.00  0.00     0.021 C 
BRANCH  32  33
ATOM     33  C   UNL A   1      33.763  36.038  29.693  1.00  0.00     0.116 C 
BRANCH  33  34
ATOM     34  N   UNL A   1      32.685  36.409  30.617  1.00  0.00    -0.352 N 
ATOM     35  C   UNL A   1      32.460  35.948  31.892  1.00  0.00     0.251 C 
ATOM     36  H   UNL A   1      32.040  37.073  30.279  1.00  0.00     0.163 HD
ATOM     37  O   UNL A   1      31.403  36.149  32.475  1.00  0.00    -0.269 OA
BRANCH  35  38
ATOM     38  C   UNL A   1      33.544  35.180  32.521  1.00  0.00     0.039 A 
ATOM     39  C   UNL A   1      33.340  33.849  32.882  1.00  0.00     0.014 A 
ATOM     40  C   UNL A   1      34.809  35.768  32.586  1.00  0.00     0.014 A 
ATOM     41  C   UNL A   1      34.442  33.077  33.239  1.00  0.00     0.010 A 
ATOM     42  C   UNL A   1      35.909  34.962  32.784  1.00  0.00     0.010 A 
ATOM     43  C   UNL A   1      35.735  33.620  33.148  1.00  0.00    -0.014 A 
BRANCH  43  44
ATOM     44  C   UNL A   1      36.942  32.841  33.488  1.00  0.00     0.031 A 
ATOM     45  C   UNL A   1      37.677  33.176  34.755  1.00  0.00     0.074 A 
ATOM     46  C   UNL A   1      37.426  31.936  32.618  1.00  0.00     0.049 A 
ATOM     47  N   UNL A   1      38.822  32.726  35.190  1.00  0.00    -0.248 NA
ATOM     48  C   UNL A   1      37.067  34.201  35.623  1.00  0.00     0.031 C 
ATOM     49  C   UNL A   1      36.827  31.595  31.325  1.00  0.00     0.029 A 
ATOM     50  N   UNL A   1      38.548  31.153  32.683  1.00  0.00    -0.354 N 
ATOM     51  C   UNL A   1      39.079  33.435  36.356  1.00  0.00     0.074 A 
ATOM     52  C   UNL A   1      38.017  34.397  36.521  1.00  0.00     0.031 C 
ATOM     53  C   UNL A   1      37.579  30.656  30.729  1.00  0.00     0.029 A 
ATOM     54  C   UNL A   1      38.731  30.363  31.574  1.00  0.00     0.049 A 
ATOM     55  H   UNL A   1      39.163  31.156  33.450  1.00  0.00     0.167 HD
ATOM     56  C   UNL A   1      40.095  33.270  37.232  1.00  0.00     0.037 A 
ATOM     57  C   UNL A   1      39.728  29.511  31.275  1.00  0.00     0.037 A 
ATOM     58  C   UNL A   1      41.120  32.277  37.070  1.00  0.00     0.049 A 
ATOM     59  C   UNL A   1      40.842  29.330  32.269  1.00  0.00     0.074 A 
ATOM     60  C   UNL A   1      42.139  31.941  37.940  1.00  0.00     0.029 A 
ATOM     61  N   UNL A   1      41.254  31.465  35.953  1.00  0.00    -0.354 N 
ATOM     62  N   UNL A   1      41.019  29.925  33.425  1.00  0.00    -0.248 NA
ATOM     63  C   UNL A   1      41.892  28.365  31.920  1.00  0.00     0.031 C 
ATOM     64  C   UNL A   1      42.929  30.969  37.320  1.00  0.00     0.029 A 
ATOM     65  C   UNL A   1      42.370  30.660  36.089  1.00  0.00     0.049 A 
ATOM     66  H   UNL A   1      40.645  31.463  35.179  1.00  0.00     0.167 HD
ATOM     67  C   UNL A   1      42.195  29.402  33.948  1.00  0.00     0.074 A 
ATOM     68  C   UNL A   1      42.673  28.424  32.991  1.00  0.00     0.031 C 
ATOM     69  C   UNL A   1      42.826  29.706  35.109  1.00  0.00     0.037 A 
BRANCH  56  70
ATOM     70  C   UNL A   1      40.138  34.186  38.421  1.00  0.00     0.057 A 
ATOM     71  C   UNL A   1      40.856  35.391  38.411  1.00  0.00     0.134 A 
ATOM     72  C   UNL A   1      39.457  33.853  39.599  1.00  0.00     0.134 A 
ATOM     73  F   UNL A   1      41.548  35.762  37.323  1.00  0.00    -0.206 F 
ATOM     74  C   UNL A   1      40.928  36.209  39.540  1.00  0.00     0.040 A 
ATOM     75  C   UNL A   1      39.494  34.680  40.722  1.00  0.00     0.040 A 
ATOM     76  F   UNL A   1      38.751  32.715  39.680  1.00  0.00    -0.206 F 
ATOM     77  C   UNL A   1      40.239  35.856  40.699  1.00  0.00     0.006 A 
ENDBRANCH  56  70
BRANCH  57  78
ATOM     78  C   UNL A   1      39.704  28.772  29.988  1.00  0.00     0.057 A 
ATOM     79  C   UNL A   1      40.301  29.298  28.838  1.00  0.00     0.134 A 
ATOM     80  C   UNL A   1      39.116  27.504  29.886  1.00  0.00     0.134 A 
ATOM     81  F   UNL A   1      40.869  30.513  28.868  1.00  0.00    -0.206 F 
ATOM     82  C   UNL A   1      40.308  28.597  27.631  1.00  0.00     0.040 A 
ATOM     83  C   UNL A   1      39.138  26.781  28.692  1.00  0.00     0.040 A 
ATOM     84  F   UNL A   1      38.539  26.937  30.955  1.00  0.00    -0.206 F 
ATOM     85  C   UNL A   1      39.731  27.330  27.558  1.00  0.00     0.006 A 
ENDBRANCH  57  78
BRANCH  69  86
ATOM     86  C   UNL A   1      44.106  28.981  35.402  1.00  0.00     0.057 A 
ATOM     87  C   UNL A   1      45.340  29.463  34.949  1.00  0.00     0.134 A 
ATOM     88  C   UNL A   1      44.110  27.831  36.200  1.00  0.00     0.134 A 
ATOM     89  F   UNL A   1      45.401  30.553  34.170  1.00  0.00    -0.206 F 
ATOM     90  C   UNL A   1      46.534  28.818  35.270  1.00  0.00     0.040 A 
ATOM     91  C   UNL A   1      45.300  27.193  36.553  1.00  0.00     0.040 A 
ATOM     92  F   UNL A   1      42.961  27.326  36.674  1.00  0.00    -0.206 F 
ATOM     93  C   UNL A   1      46.516  27.686  36.084  1.00  0.00     0.006 A 
ENDBRANCH  69  86
ENDBRANCH  43  44
ENDBRANCH  35  38
ENDBRANCH  33  34
ENDBRANCH  32  33
ENDBRANCH  31  32
ENDBRANCH  30  31
ENDBRANCH  29  30
ENDBRANCH   1  29
TORSDOF 19
ENDMDL
MODEL 3
REMARK VINA RESULT:     -12.0      0.873      6.167
REMARK SMILES Cc1ccc(S(=O)(=O)Nc2ccc(C(=O)CCC(=O)NCCCCCCNC(=O)c3ccc(-c4c5nc(c(-c6c(F)cccc6F)c6ccc([nH]6)c(-c6c(F)cccc6F)c6nc(c(-c7c(F)cccc7F)c7ccc4[nH]7)C=C6)C=C5)cc3)cc2)c(C)c1
REMARK SMILES IDX 21 1 20 2 18 3 19 4 17 6 16 7 14 8 15 9 13 10 10 11 11 12
REMARK SMILES IDX 85 13 12 14 84 15 9 16 6 18 7 19 8 20 5 21 1 22 2 23 3 24
REMARK SMILES IDX 88 25 4 26 86 27 87 28 22 29 23 30 24 31 25 32 26 33 27 34
REMARK SMILES IDX 28 35 29 37 30 38 31 39 83 40 32 41 82 42 33 43 34 44 35 45
REMARK SMILES IDX 76 46 36 47 81 48 75 49 77 50 37 51 80 52 74 53 73 54 38 56
REMARK SMILES IDX 64 57 47 58 63 59 48 60 51 61 62 62 78 63 49 64 50 65 61 67
REMARK SMILES IDX 79 68 52 69 39 70 40 71 45 72 41 73 42 74 44 75 46 76 43 77
REMARK SMILES IDX 65 78 66 79 71 80 67 81 68 82 70 83 72 84 69 85 53 86 54 87
REMARK SMILES IDX 59 88 55 89 56 90 58 91 60 92 57 93
REMARK H PARENT 20 5 9 17 27 36 77 55 51 66
REMARK Flexibility Score: inf
ROOT
ATOM      1  C   UNL A   1      33.975  23.913  24.237  1.00  0.00     0.116 C 
ENDROOT
BRANCH   1   2
ATOM      2  N   UNL A   1      32.665  23.375  24.673  1.00  0.00    -0.356 N 
ATOM      3  C   UNL A   1      31.459  24.043  24.710  1.00  0.00     0.220 C 
ATOM      4  O   UNL A   1      30.596  23.641  25.491  1.00  0.00    -0.275 OA
ATOM      5  H   UNL A   1      32.655  22.436  24.969  1.00  0.00     0.163 HD
BRANCH   3   6
ATOM      6  C   UNL A   1      31.206  25.267  23.810  1.00  0.00     0.108 C 
BRANCH   6   7
ATOM      7  C   UNL A   1      30.463  26.459  24.476  1.00  0.00     0.091 C 
BRANCH   7   8
ATOM      8  C   UNL A   1      31.146  27.105  25.716  1.00  0.00     0.163 C 
ATOM      9  O   UNL A   1      30.826  26.840  26.870  1.00  0.00    -0.294 OA
BRANCH   8  10
ATOM     10  C   UNL A   1      32.096  28.257  25.486  1.00  0.00     0.018 A 
ATOM     11  C   UNL A   1      34.072  30.758  27.261  1.00  0.00     0.049 A 
ATOM     12  C   UNL A   1      34.768  29.101  26.927  1.00  0.00     0.027 A 
ATOM     13  C   UNL A   1      32.431  31.156  26.673  1.00  0.00     0.027 A 
ATOM     14  C   UNL A   1      33.796  27.862  26.022  1.00  0.00     0.014 A 
ATOM     15  C   UNL A   1      31.450  29.906  25.780  1.00  0.00     0.014 A 
BRANCH  11  16
ATOM     16  N   UNL A   1      35.028  31.774  27.626  1.00  0.00    -0.280 N 
ATOM     17  H   UNL A   1      35.944  31.662  27.282  1.00  0.00     0.180 HD
BRANCH  16  18
ATOM     18  S   UNL A   1      34.743  33.124  28.572  1.00  0.00     0.262 S 
ATOM     19  O   UNL A   1      33.655  32.813  29.470  1.00  0.00    -0.201 OA
ATOM     20  O   UNL A   1      34.649  34.214  27.626  1.00  0.00    -0.201 OA
BRANCH  18  21
ATOM     21  C   UNL A   1      36.213  33.375  29.508  1.00  0.00     0.090 A 
ATOM     22  C   UNL A   1      39.471  32.151  31.947  1.00  0.00     0.044 C 
ATOM     23  C   UNL A   1      38.374  32.721  31.101  1.00  0.00    -0.051 A 
ATOM     24  C   UNL A   1      38.527  32.768  29.716  1.00  0.00     0.005 A 
ATOM     25  C   UNL A   1      37.204  33.231  31.680  1.00  0.00     0.008 A 
ATOM     26  C   UNL A   1      37.448  33.125  28.917  1.00  0.00     0.023 A 
ATOM     27  C   UNL A   1      36.107  33.579  30.886  1.00  0.00    -0.030 A 
ATOM     28  C   UNL A   1      34.924  34.284  31.491  1.00  0.00     0.046 C 
ENDBRANCH  18  21
ENDBRANCH  16  18
ENDBRANCH  11  16
ENDBRANCH   8  10
ENDBRANCH   7   8
ENDBRANCH   6   7
ENDBRANCH   3   6
ENDBRANCH   1   2
BRANCH   1  29
ATOM     29  C   UNL A   1      34.979  22.623  24.109  1.00  0.00     0.021 C 
BRANCH  29  30
ATOM     30  C   UNL A   1      35.891  21.044  25.288  1.00  0.00     0.002 C 
BRANCH  30  31
ATOM     31  C   UNL A   1      37.066  19.826  25.005  1.00  0.00     0.002 C 
BRANCH  31  32
ATOM     32  C   UNL A   1      38.515  20.197  24.718  1.00  0.00     0.021 C 
BRANCH  32  33
ATOM     33  C   UNL A   1      39.301  20.271  26.001  1.00  0.00     0.116 C 
BRANCH  33  34
ATOM     34  N   UNL A   1      40.241  19.152  26.125  1.00  0.00    -0.352 N 
ATOM     35  C   UNL A   1      41.614  19.195  26.173  1.00  0.00     0.251 C 
ATOM     36  H   UNL A   1      39.837  18.255  26.181  1.00  0.00     0.163 HD
ATOM     37  O   UNL A   1      42.297  18.189  26.040  1.00  0.00    -0.269 OA
BRANCH  35  38
ATOM     38  C   UNL A   1      42.230  20.515  26.371  1.00  0.00     0.039 A 
ATOM     39  C   UNL A   1      42.544  21.312  25.272  1.00  0.00     0.014 A 
ATOM     40  C   UNL A   1      42.330  20.999  27.677  1.00  0.00     0.014 A 
ATOM     41  C   UNL A   1      42.889  22.644  25.489  1.00  0.00     0.010 A 
ATOM     42  C   UNL A   1      42.514  22.351  27.873  1.00  0.00     0.010 A 
ATOM     43  C   UNL A   1      42.832  23.177  26.787  1.00  0.00    -0.014 A 
BRANCH  43  44
ATOM     44  C   UNL A   1      43.160  24.588  27.073  1.00  0.00     0.031 A 
ATOM     45  C   UNL A   1      44.580  25.044  26.887  1.00  0.00     0.074 A 
ATOM     46  C   UNL A   1      42.227  25.403  27.599  1.00  0.00     0.049 A 
ATOM     47  N   UNL A   1      45.129  26.187  27.199  1.00  0.00    -0.248 NA
ATOM     48  C   UNL A   1      45.523  24.060  26.326  1.00  0.00     0.031 C 
ATOM     49  C   UNL A   1      40.840  25.032  27.890  1.00  0.00     0.029 A 
ATOM     50  N   UNL A   1      42.314  26.709  28.001  1.00  0.00    -0.354 N 
ATOM     51  C   UNL A   1      46.477  26.042  26.903  1.00  0.00     0.074 A 
ATOM     52  C   UNL A   1      46.681  24.683  26.464  1.00  0.00     0.031 C 
ATOM     53  C   UNL A   1      40.201  26.093  28.406  1.00  0.00     0.029 A 
ATOM     54  C   UNL A   1      41.142  27.202  28.522  1.00  0.00     0.049 A 
ATOM     55  H   UNL A   1      43.136  27.243  27.925  1.00  0.00     0.167 HD
ATOM     56  C   UNL A   1      47.453  26.975  26.960  1.00  0.00     0.037 A 
ATOM     57  C   UNL A   1      40.871  28.411  29.047  1.00  0.00     0.037 A 
ATOM     58  C   UNL A   1      47.221  28.334  27.361  1.00  0.00     0.049 A 
ATOM     59  C   UNL A   1      41.966  29.441  29.087  1.00  0.00     0.074 A 
ATOM     60  C   UNL A   1      48.103  29.397  27.357  1.00  0.00     0.029 A 
ATOM     61  N   UNL A   1      46.011  28.811  27.845  1.00  0.00    -0.354 N 
ATOM     62  N   UNL A   1      43.215  29.330  28.700  1.00  0.00    -0.248 NA
ATOM     63  C   UNL A   1      41.619  30.758  29.634  1.00  0.00     0.031 C 
ATOM     64  C   UNL A   1      47.444  30.503  27.900  1.00  0.00     0.029 A 
ATOM     65  C   UNL A   1      46.137  30.145  28.191  1.00  0.00     0.049 A 
ATOM     66  H   UNL A   1      45.187  28.279  27.932  1.00  0.00     0.167 HD
ATOM     67  C   UNL A   1      43.803  30.563  28.948  1.00  0.00     0.074 A 
ATOM     68  C   UNL A   1      42.764  31.413  29.496  1.00  0.00     0.031 C 
ATOM     69  C   UNL A   1      45.084  30.958  28.749  1.00  0.00     0.037 A 
BRANCH  56  70
ATOM     70  C   UNL A   1      48.843  26.545  26.588  1.00  0.00     0.057 A 
ATOM     71  C   UNL A   1      49.382  26.776  25.313  1.00  0.00     0.134 A 
ATOM     72  C   UNL A   1      49.653  25.880  27.516  1.00  0.00     0.134 A 
ATOM     73  F   UNL A   1      48.653  27.391  24.368  1.00  0.00    -0.206 F 
ATOM     74  C   UNL A   1      50.656  26.328  24.965  1.00  0.00     0.040 A 
ATOM     75  C   UNL A   1      50.943  25.457  27.190  1.00  0.00     0.040 A 
ATOM     76  F   UNL A   1      49.203  25.624  28.754  1.00  0.00    -0.206 F 
ATOM     77  C   UNL A   1      51.444  25.671  25.909  1.00  0.00     0.006 A 
ENDBRANCH  56  70
BRANCH  57  78
ATOM     78  C   UNL A   1      39.510  28.701  29.562  1.00  0.00     0.057 A 
ATOM     79  C   UNL A   1      39.199  28.545  30.918  1.00  0.00     0.134 A 
ATOM     80  C   UNL A   1      38.496  29.176  28.721  1.00  0.00     0.134 A 
ATOM     81  F   UNL A   1      40.122  28.081  31.773  1.00  0.00    -0.206 F 
ATOM     82  C   UNL A   1      37.929  28.842  31.416  1.00  0.00     0.040 A 
ATOM     83  C   UNL A   1      37.230  29.502  29.210  1.00  0.00     0.040 A 
ATOM     84  F   UNL A   1      38.733  29.361  27.413  1.00  0.00    -0.206 F 
ATOM     85  C   UNL A   1      36.942  29.330  30.561  1.00  0.00     0.006 A 
ENDBRANCH  57  78
BRANCH  69  86
ATOM     86  C   UNL A   1      45.436  32.364  29.134  1.00  0.00     0.057 A 
ATOM     87  C   UNL A   1      45.144  33.447  28.296  1.00  0.00     0.134 A 
ATOM     88  C   UNL A   1      46.007  32.642  30.382  1.00  0.00     0.134 A 
ATOM     89  F   UNL A   1      44.608  33.244  27.083  1.00  0.00    -0.206 F 
ATOM     90  C   UNL A   1      45.421  34.758  28.681  1.00  0.00     0.040 A 
ATOM     91  C   UNL A   1      46.261  33.952  30.791  1.00  0.00     0.040 A 
ATOM     92  F   UNL A   1      46.299  31.649  31.235  1.00  0.00    -0.206 F 
ATOM     93  C   UNL A   1      45.971  35.014  29.936  1.00  0.00     0.006 A 
ENDBRANCH  69  86
ENDBRANCH  43  44
ENDBRANCH  35  38
ENDBRANCH  33  34
ENDBRANCH  32  33
ENDBRANCH  31  32
ENDBRANCH  30  31
ENDBRANCH  29  30
ENDBRANCH   1  29
TORSDOF 19
ENDMDL
