MODEL 1
REMARK VINA RESULT:     -10.8      0.000      0.000
REMARK SMILES CN(CC(=O)N1C[C@@H](O)C[C@H]1C(=O)NCCCCCCNC(=O)c1ccc(-c2c3nc(c(-c4c(F)cccc4F)c4ccc([nH]4)c(-c4c(F)cccc4F)c4nc(c(-c5c(F)cccc5F)c5ccc2[nH]5)C=C4)C=C3)cc1)C(=O)c1cccs1
REMARK SMILES IDX 16 1 15 2 14 3 12 4 13 5 11 7 6 8 7 9 8 10 10 11 4 12 5 13
REMARK SMILES IDX 3 14 2 15 1 16 78 17 79 18 80 19 81 20 84 21 82 22 83 23
REMARK SMILES IDX 9 24 17 26 18 27 19 28 20 29 21 30 22 31 23 33 24 34 25 35
REMARK SMILES IDX 77 36 26 37 76 38 27 39 28 40 29 41 70 42 30 43 75 44 69 45
REMARK SMILES IDX 71 46 31 47 74 48 68 49 67 50 32 52 58 53 41 54 57 55 42 56
REMARK SMILES IDX 45 57 56 58 72 59 43 60 44 61 55 63 73 64 46 65 33 66 34 67
REMARK SMILES IDX 39 68 35 69 36 70 38 71 40 72 37 73 59 74 60 75 65 76 61 77
REMARK SMILES IDX 62 78 64 79 66 80 63 81 47 82 48 83 53 84 49 85 50 86 52 87
REMARK SMILES IDX 54 88 51 89
REMARK H PARENT 14 6 9 25 21 32 71 51 45 62
REMARK Flexibility Score: inf
ROOT
ATOM      1  C   UNL A   1      32.639  28.584  27.176  1.00  0.00     0.021 C 
ENDROOT
BRANCH   1   2
ATOM      2  C   UNL A   1      33.704  27.891  26.337  1.00  0.00     0.116 C 
BRANCH   2   3
ATOM      3  N   UNL A   1      33.975  28.598  25.105  1.00  0.00    -0.354 N 
ATOM      4  C   UNL A   1      33.701  28.283  23.807  1.00  0.00     0.242 C 
ATOM      5  O   UNL A   1      33.845  29.190  22.980  1.00  0.00    -0.273 OA
ATOM      6  H   UNL A   1      34.438  29.459  25.224  1.00  0.00     0.163 HD
BRANCH   4   7
ATOM      7  C   UNL A   1      33.096  26.924  23.383  1.00  0.00     0.177 C 
ATOM      8  N   UNL A   1      31.662  26.925  23.053  1.00  0.00    -0.326 N 
ATOM      9  C   UNL A   1      31.425  26.396  21.725  1.00  0.00     0.152 C 
ATOM     10  C   UNL A   1      32.732  25.730  21.300  1.00  0.00     0.136 C 
ATOM     11  C   UNL A   1      33.822  26.356  22.162  1.00  0.00     0.069 C 
BRANCH   8  12
ATOM     12  C   UNL A   1      30.737  27.070  24.069  1.00  0.00     0.242 C 
ATOM     13  O   UNL A   1      30.333  28.199  24.372  1.00  0.00    -0.273 OA
BRANCH  12  14
ATOM     14  C   UNL A   1      30.269  25.879  24.939  1.00  0.00     0.219 C 
BRANCH  14  15
ATOM     15  N   UNL A   1      31.148  24.730  25.158  1.00  0.00    -0.332 N 
ATOM     16  C   UNL A   1      31.577  24.482  26.530  1.00  0.00     0.147 C 
BRANCH  15  17
ATOM     17  C   UNL A   1      31.327  23.656  24.264  1.00  0.00     0.264 C 
ATOM     18  O   UNL A   1      30.490  23.496  23.370  1.00  0.00    -0.268 OA
BRANCH  17  19
ATOM     19  C   UNL A   1      32.490  22.775  24.366  1.00  0.00     0.092 A 
ATOM     20  C   UNL A   1      33.836  22.957  24.106  1.00  0.00     0.025 A 
ATOM     21  S   UNL A   1      32.220  21.183  24.985  1.00  0.00    -0.139 S 
ATOM     22  C   UNL A   1      34.634  21.819  24.428  1.00  0.00     0.012 A 
ATOM     23  C   UNL A   1      33.876  20.781  24.911  1.00  0.00     0.065 A 
ENDBRANCH  17  19
ENDBRANCH  15  17
ENDBRANCH  14  15
ENDBRANCH  12  14
ENDBRANCH   8  12
BRANCH  10  24
ATOM     24  O   UNL A   1      33.006  25.908  19.918  1.00  0.00    -0.391 OA
ATOM     25  H   UNL A   1      32.343  25.433  19.393  1.00  0.00     0.211 HD
ENDBRANCH  10  24
ENDBRANCH   4   7
ENDBRANCH   2   3
ENDBRANCH   1   2
BRANCH   1  26
ATOM     26  C   UNL A   1      32.675  30.113  27.120  1.00  0.00     0.002 C 
BRANCH  26  27
ATOM     27  C   UNL A   1      31.414  30.764  26.548  1.00  0.00     0.002 C 
BRANCH  27  28
ATOM     28  C   UNL A   1      31.380  32.292  26.634  1.00  0.00     0.021 C 
BRANCH  28  29
ATOM     29  C   UNL A   1      32.649  32.925  27.198  1.00  0.00     0.116 C 
BRANCH  29  30
ATOM     30  N   UNL A   1      32.420  34.284  27.663  1.00  0.00    -0.352 N 
ATOM     31  C   UNL A   1      33.038  34.963  28.681  1.00  0.00     0.251 C 
ATOM     32  H   UNL A   1      31.724  34.786  27.180  1.00  0.00     0.163 HD
ATOM     33  O   UNL A   1      32.583  36.032  29.082  1.00  0.00    -0.269 OA
BRANCH  31  34
ATOM     34  C   UNL A   1      34.246  34.393  29.310  1.00  0.00     0.039 A 
ATOM     35  C   UNL A   1      34.116  33.669  30.497  1.00  0.00     0.014 A 
ATOM     36  C   UNL A   1      35.503  34.567  28.722  1.00  0.00     0.014 A 
ATOM     37  C   UNL A   1      35.240  33.064  31.062  1.00  0.00     0.010 A 
ATOM     38  C   UNL A   1      36.607  33.904  29.245  1.00  0.00     0.010 A 
ATOM     39  C   UNL A   1      36.488  33.146  30.420  1.00  0.00    -0.014 A 
BRANCH  39  40
ATOM     40  C   UNL A   1      37.678  32.443  30.960  1.00  0.00     0.031 A 
ATOM     41  C   UNL A   1      38.375  32.967  32.185  1.00  0.00     0.074 A 
ATOM     42  C   UNL A   1      38.170  31.371  30.309  1.00  0.00     0.049 A 
ATOM     43  N   UNL A   1      39.466  32.532  32.765  1.00  0.00    -0.248 NA
ATOM     44  C   UNL A   1      37.783  34.151  32.827  1.00  0.00     0.031 C 
ATOM     45  C   UNL A   1      37.608  30.792  29.087  1.00  0.00     0.029 A 
ATOM     46  N   UNL A   1      39.261  30.584  30.578  1.00  0.00    -0.354 N 
ATOM     47  C   UNL A   1      39.695  33.394  33.830  1.00  0.00     0.074 A 
ATOM     48  C   UNL A   1      38.664  34.408  33.782  1.00  0.00     0.031 C 
ATOM     49  C   UNL A   1      38.344  29.729  28.727  1.00  0.00     0.029 A 
ATOM     50  C   UNL A   1      39.452  29.577  29.663  1.00  0.00     0.049 A 
ATOM     51  H   UNL A   1      39.852  30.728  31.352  1.00  0.00     0.167 HD
ATOM     52  C   UNL A   1      40.662  33.333  34.775  1.00  0.00     0.037 A 
ATOM     53  C   UNL A   1      40.417  28.641  29.584  1.00  0.00     0.037 A 
ATOM     54  C   UNL A   1      41.679  32.314  34.826  1.00  0.00     0.049 A 
ATOM     55  C   UNL A   1      41.497  28.611  30.629  1.00  0.00     0.074 A 
ATOM     56  C   UNL A   1      42.671  32.133  35.773  1.00  0.00     0.029 A 
ATOM     57  N   UNL A   1      41.838  31.310  33.883  1.00  0.00    -0.354 N 
ATOM     58  N   UNL A   1      41.663  29.390  31.671  1.00  0.00    -0.248 NA
ATOM     59  C   UNL A   1      42.524  27.569  30.490  1.00  0.00     0.031 C 
ATOM     60  C   UNL A   1      43.463  31.050  35.375  1.00  0.00     0.029 A 
ATOM     61  C   UNL A   1      42.929  30.521  34.211  1.00  0.00     0.049 A 
ATOM     62  H   UNL A   1      41.260  31.176  33.097  1.00  0.00     0.167 HD
ATOM     63  C   UNL A   1      42.791  28.915  32.326  1.00  0.00     0.074 A 
ATOM     64  C   UNL A   1      43.263  27.773  31.571  1.00  0.00     0.031 C 
ATOM     65  C   UNL A   1      43.384  29.384  33.452  1.00  0.00     0.037 A 
BRANCH  52  66
ATOM     66  C   UNL A   1      40.666  34.401  35.830  1.00  0.00     0.057 A 
ATOM     67  C   UNL A   1      41.382  35.596  35.671  1.00  0.00     0.134 A 
ATOM     68  C   UNL A   1      39.928  34.247  37.010  1.00  0.00     0.134 A 
ATOM     69  F   UNL A   1      42.119  35.805  34.569  1.00  0.00    -0.206 F 
ATOM     70  C   UNL A   1      41.388  36.582  36.659  1.00  0.00     0.040 A 
ATOM     71  C   UNL A   1      39.902  35.238  37.993  1.00  0.00     0.040 A 
ATOM     72  F   UNL A   1      39.213  33.132  37.227  1.00  0.00    -0.206 F 
ATOM     73  C   UNL A   1      40.641  36.408  37.821  1.00  0.00     0.006 A 
ENDBRANCH  52  66
BRANCH  53  74
ATOM     74  C   UNL A   1      40.396  27.644  28.484  1.00  0.00     0.057 A 
ATOM     75  C   UNL A   1      39.689  26.443  28.615  1.00  0.00     0.134 A 
ATOM     76  C   UNL A   1      41.080  27.862  27.282  1.00  0.00     0.134 A 
ATOM     77  F   UNL A   1      39.029  26.169  29.749  1.00  0.00    -0.206 F 
ATOM     78  C   UNL A   1      39.678  25.486  27.597  1.00  0.00     0.040 A 
ATOM     79  C   UNL A   1      41.055  26.927  26.247  1.00  0.00     0.040 A 
ATOM     80  F   UNL A   1      41.770  28.996  27.091  1.00  0.00    -0.206 F 
ATOM     81  C   UNL A   1      40.358  25.730  26.407  1.00  0.00     0.006 A 
ENDBRANCH  53  74
BRANCH  65  82
ATOM     82  C   UNL A   1      44.586  28.640  33.958  1.00  0.00     0.057 A 
ATOM     83  C   UNL A   1      44.471  27.539  34.814  1.00  0.00     0.134 A 
ATOM     84  C   UNL A   1      45.874  29.006  33.545  1.00  0.00     0.134 A 
ATOM     85  F   UNL A   1      43.267  27.144  35.258  1.00  0.00    -0.206 F 
ATOM     86  C   UNL A   1      45.595  26.840  35.261  1.00  0.00     0.040 A 
ATOM     87  C   UNL A   1      47.003  28.299  33.961  1.00  0.00     0.040 A 
ATOM     88  F   UNL A   1      46.055  30.046  32.717  1.00  0.00    -0.206 F 
ATOM     89  C   UNL A   1      46.865  27.216  34.826  1.00  0.00     0.006 A 
ENDBRANCH  65  82
ENDBRANCH  39  40
ENDBRANCH  31  34
ENDBRANCH  29  30
ENDBRANCH  28  29
ENDBRANCH  27  28
ENDBRANCH  26  27
ENDBRANCH   1  26
TORSDOF 19
ENDMDL
MODEL 2
REMARK VINA RESULT:     -10.8      2.114      7.031
REMARK SMILES CN(CC(=O)N1C[C@@H](O)C[C@H]1C(=O)NCCCCCCNC(=O)c1ccc(-c2c3nc(c(-c4c(F)cccc4F)c4ccc([nH]4)c(-c4c(F)cccc4F)c4nc(c(-c5c(F)cccc5F)c5ccc2[nH]5)C=C4)C=C3)cc1)C(=O)c1cccs1
REMARK SMILES IDX 16 1 15 2 14 3 12 4 13 5 11 7 6 8 7 9 8 10 10 11 4 12 5 13
REMARK SMILES IDX 3 14 2 15 1 16 78 17 79 18 80 19 81 20 84 21 82 22 83 23
REMARK SMILES IDX 9 24 17 26 18 27 19 28 20 29 21 30 22 31 23 33 24 34 25 35
REMARK SMILES IDX 77 36 26 37 76 38 27 39 28 40 29 41 70 42 30 43 75 44 69 45
REMARK SMILES IDX 71 46 31 47 74 48 68 49 67 50 32 52 58 53 41 54 57 55 42 56
REMARK SMILES IDX 45 57 56 58 72 59 43 60 44 61 55 63 73 64 46 65 33 66 34 67
REMARK SMILES IDX 39 68 35 69 36 70 38 71 40 72 37 73 59 74 60 75 65 76 61 77
REMARK SMILES IDX 62 78 64 79 66 80 63 81 47 82 48 83 53 84 49 85 50 86 52 87
REMARK SMILES IDX 54 88 51 89
REMARK H PARENT 14 6 9 25 21 32 71 51 45 62
REMARK Flexibility Score: inf
ROOT
ATOM      1  C   UNL A   1      33.761  29.354  26.302  1.00  0.00     0.021 C 
ENDROOT
BRANCH   1   2
ATOM      2  C   UNL A   1      33.381  28.904  24.898  1.00  0.00     0.116 C 
BRANCH   2   3
ATOM      3  N   UNL A   1      34.029  27.666  24.526  1.00  0.00    -0.354 N 
ATOM      4  C   UNL A   1      33.534  26.408  24.350  1.00  0.00     0.242 C 
ATOM      5  O   UNL A   1      34.286  25.594  23.804  1.00  0.00    -0.273 OA
ATOM      6  H   UNL A   1      34.998  27.746  24.371  1.00  0.00     0.163 HD
BRANCH   4   7
ATOM      7  C   UNL A   1      32.066  26.032  24.664  1.00  0.00     0.177 C 
ATOM      8  N   UNL A   1      31.202  25.761  23.504  1.00  0.00    -0.326 N 
ATOM      9  C   UNL A   1      30.586  24.454  23.598  1.00  0.00     0.152 C 
ATOM     10  C   UNL A   1      30.813  23.985  25.034  1.00  0.00     0.136 C 
ATOM     11  C   UNL A   1      31.996  24.791  25.556  1.00  0.00     0.069 C 
BRANCH   8  12
ATOM     12  C   UNL A   1      30.807  26.813  22.700  1.00  0.00     0.242 C 
ATOM     13  O   UNL A   1      31.251  26.904  21.549  1.00  0.00    -0.273 OA
BRANCH  12  14
ATOM     14  C   UNL A   1      29.915  27.966  23.221  1.00  0.00     0.219 C 
BRANCH  14  15
ATOM     15  N   UNL A   1      28.462  27.813  23.275  1.00  0.00    -0.332 N 
ATOM     16  C   UNL A   1      27.950  26.613  23.928  1.00  0.00     0.147 C 
BRANCH  15  17
ATOM     17  C   UNL A   1      27.523  28.846  23.087  1.00  0.00     0.264 C 
ATOM     18  O   UNL A   1      26.372  28.670  23.499  1.00  0.00    -0.268 OA
BRANCH  17  19
ATOM     19  C   UNL A   1      27.905  30.109  22.455  1.00  0.00     0.092 A 
ATOM     20  C   UNL A   1      28.043  30.498  21.135  1.00  0.00     0.025 A 
ATOM     21  S   UNL A   1      28.205  31.454  23.499  1.00  0.00    -0.139 S 
ATOM     22  C   UNL A   1      28.368  31.878  20.982  1.00  0.00     0.012 A 
ATOM     23  C   UNL A   1      28.491  32.513  22.193  1.00  0.00     0.065 A 
ENDBRANCH  17  19
ENDBRANCH  15  17
ENDBRANCH  14  15
ENDBRANCH  12  14
ENDBRANCH   8  12
BRANCH  10  24
ATOM     24  O   UNL A   1      31.066  22.591  25.115  1.00  0.00    -0.391 OA
ATOM     25  H   UNL A   1      30.592  22.133  24.403  1.00  0.00     0.211 HD
ENDBRANCH  10  24
ENDBRANCH   4   7
ENDBRANCH   2   3
ENDBRANCH   1   2
BRANCH   1  26
ATOM     26  C   UNL A   1      32.610  29.940  27.121  1.00  0.00     0.002 C 
BRANCH  26  27
ATOM     27  C   UNL A   1      31.544  30.671  26.300  1.00  0.00     0.002 C 
BRANCH  27  28
ATOM     28  C   UNL A   1      31.361  32.150  26.649  1.00  0.00     0.021 C 
BRANCH  28  29
ATOM     29  C   UNL A   1      32.570  32.799  27.316  1.00  0.00     0.116 C 
BRANCH  29  30
ATOM     30  N   UNL A   1      32.351  34.211  27.587  1.00  0.00    -0.352 N 
ATOM     31  C   UNL A   1      32.949  35.013  28.524  1.00  0.00     0.251 C 
ATOM     32  H   UNL A   1      31.679  34.652  27.018  1.00  0.00     0.163 HD
ATOM     33  O   UNL A   1      32.500  36.132  28.763  1.00  0.00    -0.269 OA
BRANCH  31  34
ATOM     34  C   UNL A   1      34.127  34.517  29.264  1.00  0.00     0.039 A 
ATOM     35  C   UNL A   1      33.939  33.885  30.494  1.00  0.00     0.014 A 
ATOM     36  C   UNL A   1      35.413  34.671  28.735  1.00  0.00     0.014 A 
ATOM     37  C   UNL A   1      35.038  33.348  31.167  1.00  0.00     0.010 A 
ATOM     38  C   UNL A   1      36.495  34.071  29.371  1.00  0.00     0.010 A 
ATOM     39  C   UNL A   1      36.320  33.405  30.593  1.00  0.00    -0.014 A 
BRANCH  39  40
ATOM     40  C   UNL A   1      37.487  32.770  31.253  1.00  0.00     0.031 A 
ATOM     41  C   UNL A   1      38.146  31.569  30.632  1.00  0.00     0.074 A 
ATOM     42  C   UNL A   1      37.912  33.233  32.444  1.00  0.00     0.049 A 
ATOM     43  N   UNL A   1      39.130  30.837  31.091  1.00  0.00    -0.248 NA
ATOM     44  C   UNL A   1      37.611  31.117  29.338  1.00  0.00     0.031 C 
ATOM     45  C   UNL A   1      37.329  34.364  33.169  1.00  0.00     0.029 A 
ATOM     46  N   UNL A   1      38.926  32.803  33.262  1.00  0.00    -0.354 N 
ATOM     47  C   UNL A   1      39.323  29.834  30.149  1.00  0.00     0.074 A 
ATOM     48  C   UNL A   1      38.319  30.018  29.124  1.00  0.00     0.031 C 
ATOM     49  C   UNL A   1      38.010  34.552  34.310  1.00  0.00     0.029 A 
ATOM     50  C   UNL A   1      39.048  33.532  34.419  1.00  0.00     0.049 A 
ATOM     51  H   UNL A   1      39.511  32.042  33.040  1.00  0.00     0.167 HD
ATOM     52  C   UNL A   1      40.266  28.863  30.128  1.00  0.00     0.037 A 
ATOM     53  C   UNL A   1      39.894  33.389  35.457  1.00  0.00     0.037 A 
ATOM     54  C   UNL A   1      41.271  28.690  31.145  1.00  0.00     0.049 A 
ATOM     55  C   UNL A   1      40.913  32.284  35.425  1.00  0.00     0.074 A 
ATOM     56  C   UNL A   1      42.303  27.771  31.189  1.00  0.00     0.029 A 
ATOM     57  N   UNL A   1      41.362  29.451  32.301  1.00  0.00    -0.354 N 
ATOM     58  N   UNL A   1      41.131  31.385  34.496  1.00  0.00    -0.248 NA
ATOM     59  C   UNL A   1      41.809  32.176  36.585  1.00  0.00     0.031 C 
ATOM     60  C   UNL A   1      42.988  27.941  32.398  1.00  0.00     0.029 A 
ATOM     61  C   UNL A   1      42.418  29.004  33.080  1.00  0.00     0.049 A 
ATOM     62  H   UNL A   1      40.765  30.199  32.535  1.00  0.00     0.167 HD
ATOM     63  C   UNL A   1      42.203  30.626  34.943  1.00  0.00     0.074 A 
ATOM     64  C   UNL A   1      42.601  31.177  36.222  1.00  0.00     0.031 C 
ATOM     65  C   UNL A   1      42.805  29.566  34.349  1.00  0.00     0.037 A 
BRANCH  52  66
ATOM     66  C   UNL A   1      40.250  27.909  28.969  1.00  0.00     0.057 A 
ATOM     67  C   UNL A   1      39.525  26.709  29.006  1.00  0.00     0.134 A 
ATOM     68  C   UNL A   1      40.948  28.201  27.790  1.00  0.00     0.134 A 
ATOM     69  F   UNL A   1      38.843  26.362  30.109  1.00  0.00    -0.206 F 
ATOM     70  C   UNL A   1      39.521  25.823  27.928  1.00  0.00     0.040 A 
ATOM     71  C   UNL A   1      40.927  27.337  26.693  1.00  0.00     0.040 A 
ATOM     72  F   UNL A   1      41.657  29.336  27.681  1.00  0.00    -0.206 F 
ATOM     73  C   UNL A   1      40.219  26.139  26.765  1.00  0.00     0.006 A 
ENDBRANCH  52  66
BRANCH  53  74
ATOM     74  C   UNL A   1      39.826  34.327  36.606  1.00  0.00     0.057 A 
ATOM     75  C   UNL A   1      40.510  35.548  36.580  1.00  0.00     0.134 A 
ATOM     76  C   UNL A   1      39.082  34.029  37.755  1.00  0.00     0.134 A 
ATOM     77  F   UNL A   1      41.253  35.882  35.516  1.00  0.00    -0.206 F 
ATOM     78  C   UNL A   1      40.472  36.430  37.662  1.00  0.00     0.040 A 
ATOM     79  C   UNL A   1      39.014  34.913  38.831  1.00  0.00     0.040 A 
ATOM     80  F   UNL A   1      38.397  32.878  37.838  1.00  0.00    -0.206 F 
ATOM     81  C   UNL A   1      39.718  36.115  38.790  1.00  0.00     0.006 A 
ENDBRANCH  53  74
BRANCH  65  82
ATOM     82  C   UNL A   1      43.980  28.956  35.056  1.00  0.00     0.057 A 
ATOM     83  C   UNL A   1      45.288  29.410  34.850  1.00  0.00     0.134 A 
ATOM     84  C   UNL A   1      43.792  27.927  35.990  1.00  0.00     0.134 A 
ATOM     85  F   UNL A   1      45.538  30.382  33.959  1.00  0.00    -0.206 F 
ATOM     86  C   UNL A   1      46.371  28.849  35.530  1.00  0.00     0.040 A 
ATOM     87  C   UNL A   1      44.863  27.380  36.697  1.00  0.00     0.040 A 
ATOM     88  F   UNL A   1      42.564  27.451  36.243  1.00  0.00    -0.206 F 
ATOM     89  C   UNL A   1      46.157  27.836  36.463  1.00  0.00     0.006 A 
ENDBRANCH  65  82
ENDBRANCH  39  40
ENDBRANCH  31  34
ENDBRANCH  29  30
ENDBRANCH  28  29
ENDBRANCH  27  28
ENDBRANCH  26  27
ENDBRANCH   1  26
TORSDOF 19
ENDMDL
MODEL 3
REMARK VINA RESULT:     -10.8      3.943      8.858
REMARK SMILES CN(CC(=O)N1C[C@@H](O)C[C@H]1C(=O)NCCCCCCNC(=O)c1ccc(-c2c3nc(c(-c4c(F)cccc4F)c4ccc([nH]4)c(-c4c(F)cccc4F)c4nc(c(-c5c(F)cccc5F)c5ccc2[nH]5)C=C4)C=C3)cc1)C(=O)c1cccs1
REMARK SMILES IDX 16 1 15 2 14 3 12 4 13 5 11 7 6 8 7 9 8 10 10 11 4 12 5 13
REMARK SMILES IDX 3 14 2 15 1 16 78 17 79 18 80 19 81 20 84 21 82 22 83 23
REMARK SMILES IDX 9 24 17 26 18 27 19 28 20 29 21 30 22 31 23 33 24 34 25 35
REMARK SMILES IDX 77 36 26 37 76 38 27 39 28 40 29 41 70 42 30 43 75 44 69 45
REMARK SMILES IDX 71 46 31 47 74 48 68 49 67 50 32 52 58 53 41 54 57 55 42 56
REMARK SMILES IDX 45 57 56 58 72 59 43 60 44 61 55 63 73 64 46 65 33 66 34 67
REMARK SMILES IDX 39 68 35 69 36 70 38 71 40 72 37 73 59 74 60 75 65 76 61 77
REMARK SMILES IDX 62 78 64 79 66 80 63 81 47 82 48 83 53 84 49 85 50 86 52 87
REMARK SMILES IDX 54 88 51 89
REMARK H PARENT 14 6 9 25 21 32 71 51 45 62
REMARK Flexibility Score: inf
ROOT
ATOM      1  C   UNL A   1      36.638  23.271  25.249  1.00  0.00     0.021 C 
ENDROOT
BRANCH   1   2
ATOM      2  C   UNL A   1      35.367  23.860  24.654  1.00  0.00     0.116 C 
BRANCH   2   3
ATOM      3  N   UNL A   1      34.794  24.888  25.496  1.00  0.00    -0.354 N 
ATOM      4  C   UNL A   1      33.994  25.952  25.201  1.00  0.00     0.242 C 
ATOM      5  O   UNL A   1      33.469  26.527  26.160  1.00  0.00    -0.273 OA
ATOM      6  H   UNL A   1      35.021  24.804  26.451  1.00  0.00     0.163 HD
BRANCH   4   7
ATOM      7  C   UNL A   1      33.621  26.344  23.751  1.00  0.00     0.177 C 
ATOM      8  N   UNL A   1      32.235  26.073  23.340  1.00  0.00    -0.326 N 
ATOM      9  C   UNL A   1      31.585  27.271  22.848  1.00  0.00     0.152 C 
ATOM     10  C   UNL A   1      32.699  28.295  22.636  1.00  0.00     0.136 C 
ATOM     11  C   UNL A   1      33.862  27.835  23.507  1.00  0.00     0.069 C 
BRANCH   8  12
ATOM     12  C   UNL A   1      31.838  24.766  23.135  1.00  0.00     0.242 C 
ATOM     13  O   UNL A   1      32.296  24.128  22.179  1.00  0.00    -0.273 OA
BRANCH  12  14
ATOM     14  C   UNL A   1      30.735  24.092  23.988  1.00  0.00     0.219 C 
BRANCH  14  15
ATOM     15  N   UNL A   1      30.631  24.371  25.419  1.00  0.00    -0.332 N 
ATOM     16  C   UNL A   1      29.957  25.608  25.800  1.00  0.00     0.147 C 
BRANCH  15  17
ATOM     17  C   UNL A   1      30.788  23.425  26.451  1.00  0.00     0.264 C 
ATOM     18  O   UNL A   1      29.947  23.405  27.356  1.00  0.00    -0.268 OA
BRANCH  17  19
ATOM     19  C   UNL A   1      31.896  22.469  26.438  1.00  0.00     0.092 A 
ATOM     20  C   UNL A   1      32.281  21.487  25.545  1.00  0.00     0.025 A 
ATOM     21  S   UNL A   1      33.032  22.563  27.737  1.00  0.00    -0.139 S 
ATOM     22  C   UNL A   1      33.496  20.835  25.910  1.00  0.00     0.012 A 
ATOM     23  C   UNL A   1      34.007  21.323  27.088  1.00  0.00     0.065 A 
ENDBRANCH  17  19
ENDBRANCH  15  17
ENDBRANCH  14  15
ENDBRANCH  12  14
ENDBRANCH   8  12
BRANCH  10  24
ATOM     24  O   UNL A   1      32.294  29.613  22.975  1.00  0.00    -0.391 OA
ATOM     25  H   UNL A   1      31.407  29.781  22.618  1.00  0.00     0.211 HD
ENDBRANCH  10  24
ENDBRANCH   4   7
ENDBRANCH   2   3
ENDBRANCH   1   2
BRANCH   1  26
ATOM     26  C   UNL A   1      37.284  22.166  24.413  1.00  0.00     0.002 C 
BRANCH  26  27
ATOM     27  C   UNL A   1      36.816  20.748  24.751  1.00  0.00     0.002 C 
BRANCH  27  28
ATOM     28  C   UNL A   1      37.940  19.729  24.957  1.00  0.00     0.021 C 
BRANCH  28  29
ATOM     29  C   UNL A   1      39.092  20.221  25.828  1.00  0.00     0.116 C 
BRANCH  29  30
ATOM     30  N   UNL A   1      40.202  19.281  25.847  1.00  0.00    -0.352 N 
ATOM     31  C   UNL A   1      41.532  19.520  26.076  1.00  0.00     0.251 C 
ATOM     32  H   UNL A   1      39.964  18.342  25.671  1.00  0.00     0.163 HD
ATOM     33  O   UNL A   1      42.369  18.649  25.850  1.00  0.00    -0.269 OA
BRANCH  31  34
ATOM     34  C   UNL A   1      41.960  20.842  26.578  1.00  0.00     0.039 A 
ATOM     35  C   UNL A   1      42.336  21.826  25.663  1.00  0.00     0.014 A 
ATOM     36  C   UNL A   1      41.979  21.107  27.951  1.00  0.00     0.014 A 
ATOM     37  C   UNL A   1      42.672  23.101  26.121  1.00  0.00     0.010 A 
ATOM     38  C   UNL A   1      42.243  22.397  28.400  1.00  0.00     0.010 A 
ATOM     39  C   UNL A   1      42.593  23.406  27.491  1.00  0.00    -0.014 A 
BRANCH  39  40
ATOM     40  C   UNL A   1      42.867  24.777  27.990  1.00  0.00     0.031 A 
ATOM     41  C   UNL A   1      44.262  25.174  28.383  1.00  0.00     0.074 A 
ATOM     42  C   UNL A   1      41.847  25.642  28.152  1.00  0.00     0.049 A 
ATOM     43  N   UNL A   1      44.686  26.298  28.904  1.00  0.00    -0.248 NA
ATOM     44  C   UNL A   1      45.315  24.164  28.190  1.00  0.00     0.031 C 
ATOM     45  C   UNL A   1      40.443  25.362  27.847  1.00  0.00     0.029 A 
ATOM     46  N   UNL A   1      41.833  26.930  28.625  1.00  0.00    -0.354 N 
ATOM     47  C   UNL A   1      46.050  26.126  29.110  1.00  0.00     0.074 A 
ATOM     48  C   UNL A   1      46.370  24.773  28.712  1.00  0.00     0.031 C 
ATOM     49  C   UNL A   1      39.709  26.453  28.116  1.00  0.00     0.029 A 
ATOM     50  C   UNL A   1      40.580  27.493  28.653  1.00  0.00     0.049 A 
ATOM     51  H   UNL A   1      42.644  27.406  28.916  1.00  0.00     0.167 HD
ATOM     52  C   UNL A   1      46.955  27.023  29.567  1.00  0.00     0.037 A 
ATOM     53  C   UNL A   1      40.177  28.707  29.075  1.00  0.00     0.037 A 
ATOM     54  C   UNL A   1      46.634  28.373  29.951  1.00  0.00     0.049 A 
ATOM     55  C   UNL A   1      41.198  29.675  29.606  1.00  0.00     0.074 A 
ATOM     56  C   UNL A   1      47.488  29.375  30.376  1.00  0.00     0.029 A 
ATOM     57  N   UNL A   1      45.354  28.905  29.964  1.00  0.00    -0.354 N 
ATOM     58  N   UNL A   1      42.495  29.525  29.731  1.00  0.00    -0.248 NA
ATOM     59  C   UNL A   1      40.700  30.983  30.052  1.00  0.00     0.031 C 
ATOM     60  C   UNL A   1      46.718  30.499  30.696  1.00  0.00     0.029 A 
ATOM     61  C   UNL A   1      45.391  30.215  30.416  1.00  0.00     0.049 A 
ATOM     62  H   UNL A   1      44.538  28.425  29.692  1.00  0.00     0.167 HD
ATOM     63  C   UNL A   1      42.970  30.725  30.239  1.00  0.00     0.074 A 
ATOM     64  C   UNL A   1      41.824  31.599  30.389  1.00  0.00     0.031 C 
ATOM     65  C   UNL A   1      44.242  31.074  30.555  1.00  0.00     0.037 A 
BRANCH  52  66
ATOM     66  C   UNL A   1      48.382  26.567  29.680  1.00  0.00     0.057 A 
ATOM     67  C   UNL A   1      48.862  25.910  30.822  1.00  0.00     0.134 A 
ATOM     68  C   UNL A   1      49.283  26.766  28.626  1.00  0.00     0.134 A 
ATOM     69  F   UNL A   1      48.054  25.696  31.872  1.00  0.00    -0.206 F 
ATOM     70  C   UNL A   1      50.191  25.496  30.923  1.00  0.00     0.040 A 
ATOM     71  C   UNL A   1      50.607  26.330  28.704  1.00  0.00     0.040 A 
ATOM     72  F   UNL A   1      48.891  27.381  27.500  1.00  0.00    -0.206 F 
ATOM     73  C   UNL A   1      51.067  25.700  29.859  1.00  0.00     0.006 A 
ENDBRANCH  52  66
BRANCH  53  74
ATOM     74  C   UNL A   1      38.743  29.083  28.995  1.00  0.00     0.057 A 
ATOM     75  C   UNL A   1      38.186  29.543  27.796  1.00  0.00     0.134 A 
ATOM     76  C   UNL A   1      37.898  28.996  30.108  1.00  0.00     0.134 A 
ATOM     77  F   UNL A   1      38.948  29.665  26.700  1.00  0.00    -0.206 F 
ATOM     78  C   UNL A   1      36.844  29.920  27.711  1.00  0.00     0.040 A 
ATOM     79  C   UNL A   1      36.549  29.344  30.030  1.00  0.00     0.040 A 
ATOM     80  F   UNL A   1      38.369  28.555  31.284  1.00  0.00    -0.206 F 
ATOM     81  C   UNL A   1      36.020  29.816  28.830  1.00  0.00     0.006 A 
ENDBRANCH  53  74
BRANCH  65  82
ATOM     82  C   UNL A   1      44.468  32.470  31.059  1.00  0.00     0.057 A 
ATOM     83  C   UNL A   1      44.467  32.775  32.425  1.00  0.00     0.134 A 
ATOM     84  C   UNL A   1      44.733  33.515  30.163  1.00  0.00     0.134 A 
ATOM     85  F   UNL A   1      44.206  31.823  33.334  1.00  0.00    -0.206 F 
ATOM     86  C   UNL A   1      44.700  34.073  32.884  1.00  0.00     0.040 A 
ATOM     87  C   UNL A   1      44.996  34.810  30.610  1.00  0.00     0.040 A 
ATOM     88  F   UNL A   1      44.758  33.291  28.841  1.00  0.00    -0.206 F 
ATOM     89  C   UNL A   1      44.974  35.093  31.974  1.00  0.00     0.006 A 
ENDBRANCH  65  82
ENDBRANCH  39  40
ENDBRANCH  31  34
ENDBRANCH  29  30
ENDBRANCH  28  29
ENDBRANCH  27  28
ENDBRANCH  26  27
ENDBRANCH   1  26
TORSDOF 19
ENDMDL
