MODEL 1
REMARK VINA RESULT:     -12.5      0.000      0.000
REMARK SMILES Cc1ccccc1/C=C1\SC(=O)N(CC(=O)Nc2ccccc2C(=O)NCCCCCCNC(=O)c2ccc(-c3c4nc(c(-c5c(F)cccc5F)c5ccc([nH]5)c(-c5c(F)cccc5F)c5nc(c(-c6c(F)cccc6F)c6ccc3[nH]6)C=C5)C=C4)cc2)C1=O
REMARK SMILES IDX 28 1 27 2 26 3 24 4 25 5 23 7 18 8 19 9 20 10 22 11 21 12
REMARK SMILES IDX 17 13 15 14 16 15 14 17 13 18 8 19 9 20 10 21 90 22 11 23
REMARK SMILES IDX 91 24 12 25 7 26 1 27 2 28 3 29 4 30 6 31 5 32 29 33 30 34
REMARK SMILES IDX 31 35 32 36 33 37 34 38 35 40 36 41 37 42 89 43 38 44 88 45
REMARK SMILES IDX 39 46 40 47 41 48 82 49 42 50 87 51 81 52 83 53 43 54 86 55
REMARK SMILES IDX 80 56 79 57 44 59 70 60 53 61 69 62 54 63 57 64 68 65 84 66
REMARK SMILES IDX 55 67 56 68 67 70 85 71 58 72 45 73 46 74 51 75 47 76 48 77
REMARK SMILES IDX 50 78 52 79 49 80 71 81 72 82 77 83 73 84 74 85 76 86 78 87
REMARK SMILES IDX 75 88 59 89 60 90 65 91 61 92 62 93 64 94 66 95 63 96
REMARK H PARENT 26 6 17 16 33 39 83 58 57 69
REMARK Flexibility Score: inf
ROOT
ATOM      1  C   UNL A   1      33.438  28.892  24.543  1.00  0.00     0.021 C 
ENDROOT
BRANCH   1   2
ATOM      2  C   UNL A   1      33.509  27.368  24.472  1.00  0.00     0.116 C 
BRANCH   2   3
ATOM      3  N   UNL A   1      33.245  26.724  23.192  1.00  0.00    -0.352 N 
ATOM      4  C   UNL A   1      32.104  26.650  22.408  1.00  0.00     0.253 C 
ATOM      5  O   UNL A   1      32.213  26.229  21.260  1.00  0.00    -0.269 OA
ATOM      6  H   UNL A   1      34.022  26.254  22.812  1.00  0.00     0.163 HD
BRANCH   4   7
ATOM      7  C   UNL A   1      30.767  27.065  22.897  1.00  0.00     0.063 A 
ATOM      8  C   UNL A   1      29.868  26.216  23.579  1.00  0.00     0.054 A 
ATOM      9  C   UNL A   1      28.573  26.706  23.863  1.00  0.00     0.027 A 
ATOM     10  C   UNL A   1      28.166  27.990  23.502  1.00  0.00     0.002 A 
ATOM     11  C   UNL A   1      30.280  28.302  22.422  1.00  0.00     0.016 A 
ATOM     12  C   UNL A   1      29.018  28.786  22.759  1.00  0.00     0.001 A 
BRANCH   8  13
ATOM     13  N   UNL A   1      29.988  24.836  23.842  1.00  0.00    -0.324 N 
ATOM     14  C   UNL A   1      30.833  24.004  24.504  1.00  0.00     0.244 C 
ATOM     15  O   UNL A   1      30.638  22.791  24.340  1.00  0.00    -0.273 OA
ATOM     16  H   UNL A   1      29.250  24.333  23.428  1.00  0.00     0.170 HD
BRANCH  14  17
ATOM     17  C   UNL A   1      31.801  24.466  25.578  1.00  0.00     0.230 C 
BRANCH  17  18
ATOM     18  N   UNL A   1      33.026  23.731  25.765  1.00  0.00    -0.259 N 
ATOM     19  C   UNL A   1      36.419  23.159  24.997  1.00  0.00     0.029 C 
ATOM     20  C   UNL A   1      35.164  22.869  25.382  1.00  0.00     0.083 C 
ATOM     21  S   UNL A   1      34.627  22.014  26.759  1.00  0.00    -0.022 SA
ATOM     22  C   UNL A   1      33.979  23.560  24.777  1.00  0.00     0.268 C 
ATOM     23  C   UNL A   1      33.153  22.934  26.859  1.00  0.00     0.294 C 
ATOM     24  O   UNL A   1      33.905  23.891  23.608  1.00  0.00    -0.268 OA
ATOM     25  O   UNL A   1      32.364  22.815  27.795  1.00  0.00    -0.261 OA
BRANCH  19  26
ATOM     26  C   UNL A   1      37.711  22.950  25.704  1.00  0.00    -0.021 A 
ATOM     27  C   UNL A   1      38.179  20.503  25.038  1.00  0.00     0.045 C 
ATOM     28  C   UNL A   1      38.508  21.787  25.746  1.00  0.00    -0.044 A 
ATOM     29  C   UNL A   1      39.670  21.770  26.554  1.00  0.00     0.004 A 
ATOM     30  C   UNL A   1      40.080  22.892  27.270  1.00  0.00     0.000 A 
ATOM     31  C   UNL A   1      38.169  24.083  26.416  1.00  0.00     0.008 A 
ATOM     32  C   UNL A   1      39.336  24.058  27.187  1.00  0.00     0.001 A 
ENDBRANCH  19  26
ENDBRANCH  17  18
ENDBRANCH  14  17
ENDBRANCH   8  13
ENDBRANCH   4   7
ENDBRANCH   2   3
ENDBRANCH   1   2
BRANCH   1  33
ATOM     33  C   UNL A   1      33.426  29.643  25.879  1.00  0.00     0.002 C 
BRANCH  33  34
ATOM     34  C   UNL A   1      34.136  29.029  27.085  1.00  0.00     0.002 C 
BRANCH  34  35
ATOM     35  C   UNL A   1      35.496  29.610  27.452  1.00  0.00     0.021 C 
BRANCH  35  36
ATOM     36  C   UNL A   1      35.464  30.459  28.706  1.00  0.00     0.116 C 
BRANCH  36  37
ATOM     37  N   UNL A   1      34.491  31.543  28.746  1.00  0.00    -0.352 N 
ATOM     38  C   UNL A   1      34.521  32.716  29.492  1.00  0.00     0.251 C 
ATOM     39  H   UNL A   1      33.704  31.429  28.165  1.00  0.00     0.163 HD
ATOM     40  O   UNL A   1      33.568  33.490  29.444  1.00  0.00    -0.269 OA
BRANCH  38  41
ATOM     41  C   UNL A   1      35.773  33.134  30.192  1.00  0.00     0.039 A 
ATOM     42  C   UNL A   1      36.723  33.808  29.413  1.00  0.00     0.014 A 
ATOM     43  C   UNL A   1      36.178  32.472  31.338  1.00  0.00     0.014 A 
ATOM     44  C   UNL A   1      38.060  33.454  29.536  1.00  0.00     0.010 A 
ATOM     45  C   UNL A   1      37.450  31.958  31.340  1.00  0.00     0.010 A 
ATOM     46  C   UNL A   1      38.367  32.401  30.388  1.00  0.00    -0.014 A 
BRANCH  46  47
ATOM     47  C   UNL A   1      39.662  31.768  30.479  1.00  0.00     0.031 A 
ATOM     48  C   UNL A   1      39.804  30.494  29.770  1.00  0.00     0.074 A 
ATOM     49  C   UNL A   1      40.692  32.403  31.077  1.00  0.00     0.049 A 
ATOM     50  N   UNL A   1      40.664  29.592  30.062  1.00  0.00    -0.248 NA
ATOM     51  C   UNL A   1      38.897  30.104  28.696  1.00  0.00     0.031 C 
ATOM     52  C   UNL A   1      42.108  32.055  31.055  1.00  0.00     0.029 A 
ATOM     53  N   UNL A   1      40.610  33.435  32.015  1.00  0.00    -0.354 N 
ATOM     54  C   UNL A   1      40.635  28.657  29.051  1.00  0.00     0.074 A 
ATOM     55  C   UNL A   1      39.436  28.947  28.311  1.00  0.00     0.031 C 
ATOM     56  C   UNL A   1      42.710  32.624  32.115  1.00  0.00     0.029 A 
ATOM     57  C   UNL A   1      41.673  33.234  32.929  1.00  0.00     0.049 A 
ATOM     58  H   UNL A   1      39.943  34.158  32.036  1.00  0.00     0.167 HD
ATOM     59  C   UNL A   1      41.728  27.860  28.890  1.00  0.00     0.037 A 
ATOM     60  C   UNL A   1      41.379  32.898  34.223  1.00  0.00     0.037 A 
ATOM     61  C   UNL A   1      42.684  28.111  29.980  1.00  0.00     0.049 A 
ATOM     62  C   UNL A   1      41.712  31.455  34.554  1.00  0.00     0.074 A 
ATOM     63  C   UNL A   1      43.823  28.893  30.095  1.00  0.00     0.029 A 
ATOM     64  N   UNL A   1      42.290  27.836  31.279  1.00  0.00    -0.354 N 
ATOM     65  N   UNL A   1      42.226  30.601  33.709  1.00  0.00    -0.248 NA
ATOM     66  C   UNL A   1      41.411  30.843  35.845  1.00  0.00     0.031 C 
ATOM     67  C   UNL A   1      44.074  29.109  31.487  1.00  0.00     0.029 A 
ATOM     68  C   UNL A   1      43.116  28.427  32.216  1.00  0.00     0.049 A 
ATOM     69  H   UNL A   1      41.508  27.282  31.508  1.00  0.00     0.167 HD
ATOM     70  C   UNL A   1      42.301  29.361  34.287  1.00  0.00     0.074 A 
ATOM     71  C   UNL A   1      41.748  29.562  35.617  1.00  0.00     0.031 C 
ATOM     72  C   UNL A   1      42.790  28.262  33.630  1.00  0.00     0.037 A 
BRANCH  59  73
ATOM     73  C   UNL A   1      42.054  27.072  27.636  1.00  0.00     0.057 A 
ATOM     74  C   UNL A   1      42.428  25.719  27.740  1.00  0.00     0.134 A 
ATOM     75  C   UNL A   1      42.089  27.568  26.316  1.00  0.00     0.134 A 
ATOM     76  F   UNL A   1      42.367  25.061  28.905  1.00  0.00    -0.206 F 
ATOM     77  C   UNL A   1      42.886  24.961  26.650  1.00  0.00     0.040 A 
ATOM     78  C   UNL A   1      42.577  26.835  25.224  1.00  0.00     0.040 A 
ATOM     79  F   UNL A   1      41.605  28.764  25.983  1.00  0.00    -0.206 F 
ATOM     80  C   UNL A   1      42.990  25.526  25.391  1.00  0.00     0.006 A 
ENDBRANCH  59  73
BRANCH  60  81
ATOM     81  C   UNL A   1      40.179  33.657  34.707  1.00  0.00     0.057 A 
ATOM     82  C   UNL A   1      39.013  32.896  34.928  1.00  0.00     0.134 A 
ATOM     83  C   UNL A   1      40.344  34.810  35.477  1.00  0.00     0.134 A 
ATOM     84  F   UNL A   1      38.753  31.823  34.165  1.00  0.00    -0.206 F 
ATOM     85  C   UNL A   1      38.227  33.093  36.065  1.00  0.00     0.040 A 
ATOM     86  C   UNL A   1      39.522  35.048  36.582  1.00  0.00     0.040 A 
ATOM     87  F   UNL A   1      41.391  35.624  35.282  1.00  0.00    -0.206 F 
ATOM     88  C   UNL A   1      38.525  34.137  36.934  1.00  0.00     0.006 A 
ENDBRANCH  60  81
BRANCH  72  89
ATOM     89  C   UNL A   1      42.952  26.905  34.278  1.00  0.00     0.057 A 
ATOM     90  C   UNL A   1      44.189  26.252  34.380  1.00  0.00     0.134 A 
ATOM     91  C   UNL A   1      41.853  26.153  34.750  1.00  0.00     0.134 A 
ATOM     92  F   UNL A   1      45.291  26.752  33.801  1.00  0.00    -0.206 F 
ATOM     93  C   UNL A   1      44.345  25.030  35.045  1.00  0.00     0.040 A 
ATOM     94  C   UNL A   1      41.986  24.906  35.364  1.00  0.00     0.040 A 
ATOM     95  F   UNL A   1      40.588  26.578  34.647  1.00  0.00    -0.206 F 
ATOM     96  C   UNL A   1      43.241  24.356  35.550  1.00  0.00     0.006 A 
ENDBRANCH  72  89
ENDBRANCH  46  47
ENDBRANCH  38  41
ENDBRANCH  36  37
ENDBRANCH  35  36
ENDBRANCH  34  35
ENDBRANCH  33  34
ENDBRANCH   1  33
TORSDOF 17
ENDMDL
MODEL 2
REMARK VINA RESULT:     -12.4      2.224      3.357
REMARK SMILES Cc1ccccc1/C=C1\SC(=O)N(CC(=O)Nc2ccccc2C(=O)NCCCCCCNC(=O)c2ccc(-c3c4nc(c(-c5c(F)cccc5F)c5ccc([nH]5)c(-c5c(F)cccc5F)c5nc(c(-c6c(F)cccc6F)c6ccc3[nH]6)C=C5)C=C4)cc2)C1=O
REMARK SMILES IDX 28 1 27 2 26 3 24 4 25 5 23 7 18 8 19 9 20 10 22 11 21 12
REMARK SMILES IDX 17 13 15 14 16 15 14 17 13 18 8 19 9 20 10 21 90 22 11 23
REMARK SMILES IDX 91 24 12 25 7 26 1 27 2 28 3 29 4 30 6 31 5 32 29 33 30 34
REMARK SMILES IDX 31 35 32 36 33 37 34 38 35 40 36 41 37 42 89 43 38 44 88 45
REMARK SMILES IDX 39 46 40 47 41 48 82 49 42 50 87 51 81 52 83 53 43 54 86 55
REMARK SMILES IDX 80 56 79 57 44 59 70 60 53 61 69 62 54 63 57 64 68 65 84 66
REMARK SMILES IDX 55 67 56 68 67 70 85 71 58 72 45 73 46 74 51 75 47 76 48 77
REMARK SMILES IDX 50 78 52 79 49 80 71 81 72 82 77 83 73 84 74 85 76 86 78 87
REMARK SMILES IDX 75 88 59 89 60 90 65 91 61 92 62 93 64 94 66 95 63 96
REMARK H PARENT 26 6 17 16 33 39 83 58 57 69
REMARK Flexibility Score: inf
ROOT
ATOM      1  C   UNL A   1      34.078  29.772  27.617  1.00  0.00     0.021 C 
ENDROOT
BRANCH   1   2
ATOM      2  C   UNL A   1      32.914  29.068  26.920  1.00  0.00     0.116 C 
BRANCH   2   3
ATOM      3  N   UNL A   1      32.001  29.874  26.120  1.00  0.00    -0.352 N 
ATOM      4  C   UNL A   1      31.471  29.692  24.853  1.00  0.00     0.253 C 
ATOM      5  O   UNL A   1      30.546  30.418  24.500  1.00  0.00    -0.269 OA
ATOM      6  H   UNL A   1      31.704  30.701  26.563  1.00  0.00     0.163 HD
BRANCH   4   7
ATOM      7  C   UNL A   1      31.971  28.658  23.915  1.00  0.00     0.063 A 
ATOM      8  C   UNL A   1      31.617  27.293  23.970  1.00  0.00     0.054 A 
ATOM      9  C   UNL A   1      32.279  26.396  23.100  1.00  0.00     0.027 A 
ATOM     10  C   UNL A   1      33.251  26.819  22.194  1.00  0.00     0.002 A 
ATOM     11  C   UNL A   1      33.055  29.030  23.090  1.00  0.00     0.016 A 
ATOM     12  C   UNL A   1      33.656  28.140  22.203  1.00  0.00     0.001 A 
BRANCH   8  13
ATOM     13  N   UNL A   1      30.837  26.624  24.935  1.00  0.00    -0.324 N 
ATOM     14  C   UNL A   1      30.998  25.647  25.864  1.00  0.00     0.244 C 
ATOM     15  O   UNL A   1      29.962  25.243  26.412  1.00  0.00    -0.273 OA
ATOM     16  H   UNL A   1      29.911  26.963  24.936  1.00  0.00     0.170 HD
BRANCH  14  17
ATOM     17  C   UNL A   1      32.347  25.219  26.412  1.00  0.00     0.230 C 
BRANCH  17  18
ATOM     18  N   UNL A   1      32.859  23.922  26.051  1.00  0.00    -0.259 N 
ATOM     19  C   UNL A   1      32.436  20.442  25.680  1.00  0.00     0.029 C 
ATOM     20  C   UNL A   1      33.082  21.601  25.897  1.00  0.00     0.083 C 
ATOM     21  S   UNL A   1      34.515  22.191  25.179  1.00  0.00    -0.022 SA
ATOM     22  C   UNL A   1      32.427  22.739  26.622  1.00  0.00     0.268 C 
ATOM     23  C   UNL A   1      34.003  23.848  25.319  1.00  0.00     0.294 C 
ATOM     24  O   UNL A   1      31.658  22.601  27.555  1.00  0.00    -0.268 OA
ATOM     25  O   UNL A   1      34.641  24.779  24.830  1.00  0.00    -0.261 OA
BRANCH  19  26
ATOM     26  C   UNL A   1      32.684  19.382  24.665  1.00  0.00    -0.021 A 
ATOM     27  C   UNL A   1      32.050  20.676  22.526  1.00  0.00     0.045 C 
ATOM     28  C   UNL A   1      32.515  19.454  23.266  1.00  0.00    -0.044 A 
ATOM     29  C   UNL A   1      32.727  18.295  22.481  1.00  0.00     0.004 A 
ATOM     30  C   UNL A   1      33.151  17.095  23.047  1.00  0.00     0.000 A 
ATOM     31  C   UNL A   1      33.144  18.160  25.207  1.00  0.00     0.008 A 
ATOM     32  C   UNL A   1      33.376  17.033  24.413  1.00  0.00     0.001 A 
ENDBRANCH  19  26
ENDBRANCH  17  18
ENDBRANCH  14  17
ENDBRANCH   8  13
ENDBRANCH   4   7
ENDBRANCH   2   3
ENDBRANCH   1   2
BRANCH   1  33
ATOM     33  C   UNL A   1      34.204  31.299  27.644  1.00  0.00     0.002 C 
BRANCH  33  34
ATOM     34  C   UNL A   1      35.571  31.929  27.911  1.00  0.00     0.002 C 
BRANCH  34  35
ATOM     35  C   UNL A   1      35.682  32.842  29.125  1.00  0.00     0.021 C 
BRANCH  35  36
ATOM     36  C   UNL A   1      35.160  32.210  30.399  1.00  0.00     0.116 C 
BRANCH  36  37
ATOM     37  N   UNL A   1      34.252  33.012  31.210  1.00  0.00    -0.352 N 
ATOM     38  C   UNL A   1      34.477  33.595  32.452  1.00  0.00     0.251 C 
ATOM     39  H   UNL A   1      33.358  33.160  30.827  1.00  0.00     0.163 HD
ATOM     40  O   UNL A   1      33.561  34.186  33.019  1.00  0.00    -0.269 OA
BRANCH  38  41
ATOM     41  C   UNL A   1      35.861  33.679  33.008  1.00  0.00     0.039 A 
ATOM     42  C   UNL A   1      36.765  34.484  32.303  1.00  0.00     0.014 A 
ATOM     43  C   UNL A   1      36.342  32.666  33.821  1.00  0.00     0.014 A 
ATOM     44  C   UNL A   1      38.049  34.007  32.077  1.00  0.00     0.010 A 
ATOM     45  C   UNL A   1      37.524  32.080  33.446  1.00  0.00     0.010 A 
ATOM     46  C   UNL A   1      38.340  32.722  32.517  1.00  0.00    -0.014 A 
BRANCH  46  47
ATOM     47  C   UNL A   1      39.544  31.993  32.188  1.00  0.00     0.031 A 
ATOM     48  C   UNL A   1      39.358  30.777  31.392  1.00  0.00     0.074 A 
ATOM     49  C   UNL A   1      40.755  32.500  32.496  1.00  0.00     0.049 A 
ATOM     50  N   UNL A   1      40.179  29.795  31.366  1.00  0.00    -0.248 NA
ATOM     51  C   UNL A   1      38.150  30.545  30.608  1.00  0.00     0.031 C 
ATOM     52  C   UNL A   1      42.068  32.056  32.042  1.00  0.00     0.029 A 
ATOM     53  N   UNL A   1      41.041  33.452  33.479  1.00  0.00    -0.354 N 
ATOM     54  C   UNL A   1      39.775  28.953  30.352  1.00  0.00     0.074 A 
ATOM     55  C   UNL A   1      38.447  29.390  30.013  1.00  0.00     0.031 C 
ATOM     56  C   UNL A   1      42.997  32.489  32.912  1.00  0.00     0.029 A 
ATOM     57  C   UNL A   1      42.297  33.099  34.029  1.00  0.00     0.049 A 
ATOM     58  H   UNL A   1      40.478  34.216  33.737  1.00  0.00     0.167 HD
ATOM     59  C   UNL A   1      40.698  28.097  29.832  1.00  0.00     0.037 A 
ATOM     60  C   UNL A   1      42.355  32.677  35.330  1.00  0.00     0.037 A 
ATOM     61  C   UNL A   1      41.945  28.186  30.608  1.00  0.00     0.049 A 
ATOM     62  C   UNL A   1      42.634  31.190  35.461  1.00  0.00     0.074 A 
ATOM     63  C   UNL A   1      43.136  28.872  30.433  1.00  0.00     0.029 A 
ATOM     64  N   UNL A   1      41.914  27.830  31.946  1.00  0.00    -0.354 N 
ATOM     65  N   UNL A   1      42.803  30.376  34.452  1.00  0.00    -0.248 NA
ATOM     66  C   UNL A   1      42.658  30.494  36.744  1.00  0.00     0.031 C 
ATOM     67  C   UNL A   1      43.794  28.951  31.702  1.00  0.00     0.029 A 
ATOM     68  C   UNL A   1      43.024  28.280  32.636  1.00  0.00     0.049 A 
ATOM     69  H   UNL A   1      41.182  27.316  32.359  1.00  0.00     0.167 HD
ATOM     70  C   UNL A   1      42.925  29.090  34.906  1.00  0.00     0.074 A 
ATOM     71  C   UNL A   1      42.796  29.216  36.350  1.00  0.00     0.031 C 
ATOM     72  C   UNL A   1      43.102  28.019  34.070  1.00  0.00     0.037 A 
BRANCH  59  73
ATOM     73  C   UNL A   1      40.578  27.397  28.491  1.00  0.00     0.057 A 
ATOM     74  C   UNL A   1      39.810  26.223  28.383  1.00  0.00     0.134 A 
ATOM     75  C   UNL A   1      41.221  27.763  27.291  1.00  0.00     0.134 A 
ATOM     76  F   UNL A   1      39.061  25.778  29.401  1.00  0.00    -0.206 F 
ATOM     77  C   UNL A   1      39.766  25.436  27.222  1.00  0.00     0.040 A 
ATOM     78  C   UNL A   1      41.216  26.969  26.134  1.00  0.00     0.040 A 
ATOM     79  F   UNL A   1      41.848  28.930  27.135  1.00  0.00    -0.206 F 
ATOM     80  C   UNL A   1      40.494  25.792  26.099  1.00  0.00     0.006 A 
ENDBRANCH  59  73
BRANCH  60  81
ATOM     81  C   UNL A   1      41.419  33.474  36.188  1.00  0.00     0.057 A 
ATOM     82  C   UNL A   1      41.804  34.803  36.456  1.00  0.00     0.134 A 
ATOM     83  C   UNL A   1      40.050  33.198  36.174  1.00  0.00     0.134 A 
ATOM     84  F   UNL A   1      43.105  35.120  36.565  1.00  0.00    -0.206 F 
ATOM     85  C   UNL A   1      40.883  35.850  36.392  1.00  0.00     0.040 A 
ATOM     86  C   UNL A   1      39.117  34.238  36.172  1.00  0.00     0.040 A 
ATOM     87  F   UNL A   1      39.603  31.947  35.994  1.00  0.00    -0.206 F 
ATOM     88  C   UNL A   1      39.538  35.568  36.181  1.00  0.00     0.006 A 
ENDBRANCH  60  81
BRANCH  72  89
ATOM     89  C   UNL A   1      43.316  26.603  34.560  1.00  0.00     0.057 A 
ATOM     90  C   UNL A   1      44.558  25.954  34.494  1.00  0.00     0.134 A 
ATOM     91  C   UNL A   1      42.259  25.798  35.038  1.00  0.00     0.134 A 
ATOM     92  F   UNL A   1      45.608  26.520  33.882  1.00  0.00    -0.206 F 
ATOM     93  C   UNL A   1      44.766  24.671  35.013  1.00  0.00     0.040 A 
ATOM     94  C   UNL A   1      42.441  24.495  35.507  1.00  0.00     0.040 A 
ATOM     95  F   UNL A   1      40.990  26.221  35.082  1.00  0.00    -0.206 F 
ATOM     96  C   UNL A   1      43.707  23.940  35.533  1.00  0.00     0.006 A 
ENDBRANCH  72  89
ENDBRANCH  46  47
ENDBRANCH  38  41
ENDBRANCH  36  37
ENDBRANCH  35  36
ENDBRANCH  34  35
ENDBRANCH  33  34
ENDBRANCH   1  33
TORSDOF 17
ENDMDL
MODEL 3
REMARK VINA RESULT:     -12.1      2.901      8.560
REMARK SMILES Cc1ccccc1/C=C1\SC(=O)N(CC(=O)Nc2ccccc2C(=O)NCCCCCCNC(=O)c2ccc(-c3c4nc(c(-c5c(F)cccc5F)c5ccc([nH]5)c(-c5c(F)cccc5F)c5nc(c(-c6c(F)cccc6F)c6ccc3[nH]6)C=C5)C=C4)cc2)C1=O
REMARK SMILES IDX 28 1 27 2 26 3 24 4 25 5 23 7 18 8 19 9 20 10 22 11 21 12
REMARK SMILES IDX 17 13 15 14 16 15 14 17 13 18 8 19 9 20 10 21 90 22 11 23
REMARK SMILES IDX 91 24 12 25 7 26 1 27 2 28 3 29 4 30 6 31 5 32 29 33 30 34
REMARK SMILES IDX 31 35 32 36 33 37 34 38 35 40 36 41 37 42 89 43 38 44 88 45
REMARK SMILES IDX 39 46 40 47 41 48 82 49 42 50 87 51 81 52 83 53 43 54 86 55
REMARK SMILES IDX 80 56 79 57 44 59 70 60 53 61 69 62 54 63 57 64 68 65 84 66
REMARK SMILES IDX 55 67 56 68 67 70 85 71 58 72 45 73 46 74 51 75 47 76 48 77
REMARK SMILES IDX 50 78 52 79 49 80 71 81 72 82 77 83 73 84 74 85 76 86 78 87
REMARK SMILES IDX 75 88 59 89 60 90 65 91 61 92 62 93 64 94 66 95 63 96
REMARK H PARENT 26 6 17 16 33 39 83 58 57 69
REMARK Flexibility Score: inf
ROOT
ATOM      1  C   UNL A   1      38.056  21.606  25.303  1.00  0.00     0.021 C 
ENDROOT
BRANCH   1   2
ATOM      2  C   UNL A   1      36.797  22.460  25.163  1.00  0.00     0.116 C 
BRANCH   2   3
ATOM      3  N   UNL A   1      35.908  22.572  26.312  1.00  0.00    -0.352 N 
ATOM      4  C   UNL A   1      34.762  21.880  26.669  1.00  0.00     0.253 C 
ATOM      5  O   UNL A   1      34.325  22.025  27.807  1.00  0.00    -0.269 OA
ATOM      6  H   UNL A   1      36.171  23.269  26.955  1.00  0.00     0.163 HD
BRANCH   4   7
ATOM      7  C   UNL A   1      34.050  20.972  25.737  1.00  0.00     0.063 A 
ATOM      8  C   UNL A   1      32.650  20.947  25.560  1.00  0.00     0.054 A 
ATOM      9  C   UNL A   1      32.099  19.933  24.743  1.00  0.00     0.027 A 
ATOM     10  C   UNL A   1      32.889  18.977  24.107  1.00  0.00     0.002 A 
ATOM     11  C   UNL A   1      34.806  19.909  25.197  1.00  0.00     0.016 A 
ATOM     12  C   UNL A   1      34.250  18.952  24.352  1.00  0.00     0.001 A 
BRANCH   8  13
ATOM     13  N   UNL A   1      31.661  21.665  26.264  1.00  0.00    -0.324 N 
ATOM     14  C   UNL A   1      31.056  22.879  26.199  1.00  0.00     0.244 C 
ATOM     15  O   UNL A   1      30.322  23.170  27.153  1.00  0.00    -0.273 OA
ATOM     16  H   UNL A   1      31.309  21.135  27.015  1.00  0.00     0.170 HD
BRANCH  14  17
ATOM     17  C   UNL A   1      31.046  23.750  24.956  1.00  0.00     0.230 C 
BRANCH  17  18
ATOM     18  N   UNL A   1      31.690  25.037  25.010  1.00  0.00    -0.259 N 
ATOM     19  C   UNL A   1      31.789  28.384  26.114  1.00  0.00     0.029 C 
ATOM     20  C   UNL A   1      32.017  27.332  25.309  1.00  0.00     0.083 C 
ATOM     21  S   UNL A   1      33.482  26.805  24.607  1.00  0.00    -0.022 SA
ATOM     22  C   UNL A   1      31.009  26.233  25.151  1.00  0.00     0.268 C 
ATOM     23  C   UNL A   1      32.995  25.135  24.639  1.00  0.00     0.294 C 
ATOM     24  O   UNL A   1      29.804  26.407  25.146  1.00  0.00    -0.268 OA
ATOM     25  O   UNL A   1      33.756  24.220  24.330  1.00  0.00    -0.261 OA
BRANCH  19  26
ATOM     26  C   UNL A   1      32.746  29.330  26.750  1.00  0.00    -0.021 A 
ATOM     27  C   UNL A   1      31.417  31.525  26.496  1.00  0.00     0.045 C 
ATOM     28  C   UNL A   1      32.612  30.723  26.927  1.00  0.00    -0.044 A 
ATOM     29  C   UNL A   1      33.685  31.458  27.485  1.00  0.00     0.004 A 
ATOM     30  C   UNL A   1      34.853  30.835  27.916  1.00  0.00     0.000 A 
ATOM     31  C   UNL A   1      33.930  28.720  27.224  1.00  0.00     0.008 A 
ATOM     32  C   UNL A   1      34.969  29.459  27.801  1.00  0.00     0.001 A 
ENDBRANCH  19  26
ENDBRANCH  17  18
ENDBRANCH  14  17
ENDBRANCH   8  13
ENDBRANCH   4   7
ENDBRANCH   2   3
ENDBRANCH   1   2
BRANCH   1  33
ATOM     33  C   UNL A   1      39.285  22.093  26.080  1.00  0.00     0.002 C 
BRANCH  33  34
ATOM     34  C   UNL A   1      40.201  21.065  26.744  1.00  0.00     0.002 C 
BRANCH  34  35
ATOM     35  C   UNL A   1      41.632  20.985  26.228  1.00  0.00     0.021 C 
BRANCH  35  36
ATOM     36  C   UNL A   1      42.571  21.958  26.911  1.00  0.00     0.116 C 
BRANCH  36  37
ATOM     37  N   UNL A   1      43.349  22.840  26.051  1.00  0.00    -0.352 N 
ATOM     38  C   UNL A   1      43.032  24.113  25.591  1.00  0.00     0.251 C 
ATOM     39  H   UNL A   1      44.218  22.485  25.754  1.00  0.00     0.163 HD
ATOM     40  O   UNL A   1      43.792  24.684  24.813  1.00  0.00    -0.269 OA
BRANCH  38  41
ATOM     41  C   UNL A   1      41.887  24.867  26.185  1.00  0.00     0.039 A 
ATOM     42  C   UNL A   1      41.639  26.139  25.653  1.00  0.00     0.014 A 
ATOM     43  C   UNL A   1      41.452  24.568  27.465  1.00  0.00     0.014 A 
ATOM     44  C   UNL A   1      41.372  27.187  26.524  1.00  0.00     0.010 A 
ATOM     45  C   UNL A   1      41.394  25.607  28.358  1.00  0.00     0.010 A 
ATOM     46  C   UNL A   1      41.428  26.917  27.885  1.00  0.00    -0.014 A 
BRANCH  46  47
ATOM     47  C   UNL A   1      41.385  27.920  28.924  1.00  0.00     0.031 A 
ATOM     48  C   UNL A   1      40.308  28.907  28.817  1.00  0.00     0.074 A 
ATOM     49  C   UNL A   1      42.218  27.843  29.983  1.00  0.00     0.049 A 
ATOM     50  N   UNL A   1      40.341  30.076  29.338  1.00  0.00    -0.248 NA
ATOM     51  C   UNL A   1      39.113  28.662  28.017  1.00  0.00     0.031 C 
ATOM     52  C   UNL A   1      42.169  28.591  31.233  1.00  0.00     0.029 A 
ATOM     53  N   UNL A   1      43.436  27.160  30.043  1.00  0.00    -0.354 N 
ATOM     54  C   UNL A   1      39.080  30.615  29.210  1.00  0.00     0.074 A 
ATOM     55  C   UNL A   1      38.405  29.762  28.269  1.00  0.00     0.031 C 
ATOM     56  C   UNL A   1      43.391  28.576  31.795  1.00  0.00     0.029 A 
ATOM     57  C   UNL A   1      44.296  27.940  30.853  1.00  0.00     0.049 A 
ATOM     58  H   UNL A   1      43.652  26.305  29.608  1.00  0.00     0.167 HD
ATOM     59  C   UNL A   1      38.733  31.629  30.051  1.00  0.00     0.037 A 
ATOM     60  C   UNL A   1      45.389  28.532  30.280  1.00  0.00     0.037 A 
ATOM     61  C   UNL A   1      39.900  32.020  30.858  1.00  0.00     0.049 A 
ATOM     62  C   UNL A   1      45.249  30.038  30.145  1.00  0.00     0.074 A 
ATOM     63  C   UNL A   1      40.333  31.702  32.135  1.00  0.00     0.029 A 
ATOM     64  N   UNL A   1      41.011  32.527  30.205  1.00  0.00    -0.354 N 
ATOM     65  N   UNL A   1      44.203  30.722  30.528  1.00  0.00    -0.248 NA
ATOM     66  C   UNL A   1      46.249  30.875  29.489  1.00  0.00     0.031 C 
ATOM     67  C   UNL A   1      41.732  31.994  32.216  1.00  0.00     0.029 A 
ATOM     68  C   UNL A   1      42.139  32.525  31.005  1.00  0.00     0.049 A 
ATOM     69  H   UNL A   1      40.999  32.851  29.274  1.00  0.00     0.167 HD
ATOM     70  C   UNL A   1      44.348  32.035  30.168  1.00  0.00     0.074 A 
ATOM     71  C   UNL A   1      45.634  32.071  29.490  1.00  0.00     0.031 C 
ATOM     72  C   UNL A   1      43.398  32.988  30.430  1.00  0.00     0.037 A 
BRANCH  59  73
ATOM     73  C   UNL A   1      37.312  32.075  30.339  1.00  0.00     0.057 A 
ATOM     74  C   UNL A   1      36.838  33.285  29.800  1.00  0.00     0.134 A 
ATOM     75  C   UNL A   1      36.378  31.423  31.171  1.00  0.00     0.134 A 
ATOM     76  F   UNL A   1      37.559  33.991  28.919  1.00  0.00    -0.206 F 
ATOM     77  C   UNL A   1      35.593  33.842  30.134  1.00  0.00     0.040 A 
ATOM     78  C   UNL A   1      35.146  31.982  31.542  1.00  0.00     0.040 A 
ATOM     79  F   UNL A   1      36.564  30.186  31.633  1.00  0.00    -0.206 F 
ATOM     80  C   UNL A   1      34.752  33.204  31.031  1.00  0.00     0.006 A 
ENDBRANCH  59  73
BRANCH  60  81
ATOM     81  C   UNL A   1      46.021  27.615  29.276  1.00  0.00     0.057 A 
ATOM     82  C   UNL A   1      46.695  26.493  29.799  1.00  0.00     0.134 A 
ATOM     83  C   UNL A   1      45.470  27.489  27.998  1.00  0.00     0.134 A 
ATOM     84  F   UNL A   1      47.319  26.573  30.985  1.00  0.00    -0.206 F 
ATOM     85  C   UNL A   1      46.549  25.229  29.225  1.00  0.00     0.040 A 
ATOM     86  C   UNL A   1      45.374  26.236  27.389  1.00  0.00     0.040 A 
ATOM     87  F   UNL A   1      44.872  28.529  27.402  1.00  0.00    -0.206 F 
ATOM     88  C   UNL A   1      45.825  25.090  28.046  1.00  0.00     0.006 A 
ENDBRANCH  60  81
BRANCH  72  89
ATOM     89  C   UNL A   1      43.576  34.455  30.107  1.00  0.00     0.057 A 
ATOM     90  C   UNL A   1      43.630  35.450  31.094  1.00  0.00     0.134 A 
ATOM     91  C   UNL A   1      43.609  34.942  28.782  1.00  0.00     0.134 A 
ATOM     92  F   UNL A   1      43.413  35.165  32.385  1.00  0.00    -0.206 F 
ATOM     93  C   UNL A   1      43.866  36.797  30.794  1.00  0.00     0.040 A 
ATOM     94  C   UNL A   1      43.787  36.291  28.466  1.00  0.00     0.040 A 
ATOM     95  F   UNL A   1      43.474  34.145  27.714  1.00  0.00    -0.206 F 
ATOM     96  C   UNL A   1      43.957  37.221  29.475  1.00  0.00     0.006 A 
ENDBRANCH  72  89
ENDBRANCH  46  47
ENDBRANCH  38  41
ENDBRANCH  36  37
ENDBRANCH  35  36
ENDBRANCH  34  35
ENDBRANCH  33  34
ENDBRANCH   1  33
TORSDOF 17
ENDMDL
