MODEL 1
REMARK VINA RESULT:     -12.6      0.000      0.000
REMARK SMILES Cc1cc(OCC(=O)N[C@@H](Cc2ccc(Cl)cc2)C(=O)NCCCCCCNC(=O)c2ccc(-c3c4nc(c(-c5c(F)cccc5F)c5ccc([nH]5)c(-c5c(F)cccc5F)c5nc(c(-c6c(F)cccc6F)c6ccc3[nH]6)C=C5)C=C4)cc2)c2c(C)c(C)c(=O)oc2c1
REMARK SMILES IDX 23 1 22 2 21 3 19 4 20 5 10 7 9 8 7 9 8 10 6 12 5 13 4 14
REMARK SMILES IDX 1 15 2 16 3 17 94 18 93 19 85 20 92 21 86 22 90 23 87 24
REMARK SMILES IDX 88 25 91 26 89 27 11 28 12 29 13 30 18 31 14 32 17 33 15 34
REMARK SMILES IDX 16 35 24 36 25 37 26 38 27 39 28 40 29 41 30 43 31 44 32 45
REMARK SMILES IDX 84 46 33 47 83 48 34 49 35 50 36 51 77 52 37 53 82 54 76 55
REMARK SMILES IDX 78 56 38 57 81 58 75 59 74 60 39 62 65 63 48 64 64 65 49 66
REMARK SMILES IDX 52 67 63 68 79 69 50 70 51 71 62 73 80 74 53 75 40 76 41 77
REMARK SMILES IDX 46 78 42 79 43 80 45 81 47 82 44 83 66 84 67 85 72 86 68 87
REMARK SMILES IDX 69 88 71 89 73 90 70 91 54 92 55 93 60 94 56 95 57 96 59 97
REMARK SMILES IDX 61 98 58 99
REMARK H PARENT 21 6 9 11 28 42 78 61 52 72
REMARK Flexibility Score: inf
ROOT
ATOM      1  C   UNL A   1      34.104  28.613  26.212  1.00  0.00     0.021 C 
ENDROOT
BRANCH   1   2
ATOM      2  C   UNL A   1      33.326  27.734  25.241  1.00  0.00     0.116 C 
BRANCH   2   3
ATOM      3  N   UNL A   1      33.923  27.641  23.926  1.00  0.00    -0.354 N 
ATOM      4  C   UNL A   1      33.364  27.316  22.725  1.00  0.00     0.242 C 
ATOM      5  O   UNL A   1      33.947  27.726  21.715  1.00  0.00    -0.273 OA
ATOM      6  H   UNL A   1      34.885  27.845  23.892  1.00  0.00     0.163 HD
BRANCH   4   7
ATOM      7  C   UNL A   1      32.013  26.573  22.575  1.00  0.00     0.175 C 
BRANCH   7   8
ATOM      8  N   UNL A   1      32.149  25.152  22.261  1.00  0.00    -0.341 N 
ATOM      9  C   UNL A   1      32.284  24.114  23.134  1.00  0.00     0.258 C 
ATOM     10  O   UNL A   1      32.044  22.974  22.730  1.00  0.00    -0.271 OA
ATOM     11  H   UNL A   1      32.143  24.917  21.305  1.00  0.00     0.164 HD
BRANCH   9  12
ATOM     12  C   UNL A   1      32.770  24.372  24.570  1.00  0.00     0.329 C 
BRANCH  12  13
ATOM     13  O   UNL A   1      33.027  23.233  25.390  1.00  0.00    -0.483 OA
BRANCH  13  14
ATOM     14  C   UNL A   1      34.270  22.655  25.356  1.00  0.00     0.131 A 
ATOM     15  C   UNL A   1      37.914  23.735  25.779  1.00  0.00     0.044 C 
ATOM     16  C   UNL A   1      36.709  22.873  25.552  1.00  0.00    -0.044 A 
ATOM     17  C   UNL A   1      35.435  23.440  25.511  1.00  0.00     0.050 A 
ATOM     18  C   UNL A   1      36.824  21.507  25.354  1.00  0.00     0.051 A 
ATOM     19  C   UNL A   1      35.674  20.736  25.141  1.00  0.00     0.142 A 
ATOM     20  C   UNL A   1      34.371  21.256  25.142  1.00  0.00     0.063 A 
ATOM     21  O   UNL A   1      35.946  19.377  24.911  1.00  0.00    -0.422 OA
ATOM     22  C   UNL A   1      33.260  20.280  24.925  1.00  0.00    -0.026 A 
ATOM     23  C   UNL A   1      34.950  18.479  24.604  1.00  0.00     0.339 A 
ATOM     24  C   UNL A   1      31.811  20.693  24.995  1.00  0.00     0.046 C 
ATOM     25  C   UNL A   1      33.555  18.986  24.652  1.00  0.00     0.038 A 
ATOM     26  O   UNL A   1      35.210  17.313  24.332  1.00  0.00    -0.246 OA
ATOM     27  C   UNL A   1      32.552  17.899  24.354  1.00  0.00     0.052 C 
ENDBRANCH  13  14
ENDBRANCH  12  13
ENDBRANCH   9  12
ENDBRANCH   7   8
BRANCH   7  28
ATOM     28  C   UNL A   1      31.002  26.878  23.696  1.00  0.00     0.070 C 
BRANCH  28  29
ATOM     29  C   UNL A   1      30.099  28.073  23.511  1.00  0.00    -0.045 A 
ATOM     30  C   UNL A   1      28.745  27.905  23.183  1.00  0.00     0.005 A 
ATOM     31  C   UNL A   1      30.606  29.373  23.656  1.00  0.00     0.005 A 
ATOM     32  C   UNL A   1      27.908  29.015  23.041  1.00  0.00     0.021 A 
ATOM     33  C   UNL A   1      29.768  30.482  23.523  1.00  0.00     0.021 A 
ATOM     34  C   UNL A   1      28.420  30.297  23.224  1.00  0.00     0.041 A 
ATOM     35  Cl  UNL A   1      27.378  31.662  23.107  1.00  0.00    -0.084 Cl
ENDBRANCH  28  29
ENDBRANCH   7  28
ENDBRANCH   4   7
ENDBRANCH   2   3
ENDBRANCH   1   2
BRANCH   1  36
ATOM     36  C   UNL A   1      33.256  29.298  27.290  1.00  0.00     0.002 C 
BRANCH  36  37
ATOM     37  C   UNL A   1      31.862  29.780  26.865  1.00  0.00     0.002 C 
BRANCH  37  38
ATOM     38  C   UNL A   1      31.691  31.288  26.659  1.00  0.00     0.021 C 
BRANCH  38  39
ATOM     39  C   UNL A   1      32.890  32.146  27.035  1.00  0.00     0.116 C 
BRANCH  39  40
ATOM     40  N   UNL A   1      32.534  33.490  27.455  1.00  0.00    -0.352 N 
ATOM     41  C   UNL A   1      33.119  34.283  28.419  1.00  0.00     0.251 C 
ATOM     42  H   UNL A   1      31.767  33.890  26.986  1.00  0.00     0.163 HD
ATOM     43  O   UNL A   1      32.618  35.362  28.712  1.00  0.00    -0.269 OA
BRANCH  41  44
ATOM     44  C   UNL A   1      34.327  33.810  29.137  1.00  0.00     0.039 A 
ATOM     45  C   UNL A   1      35.597  34.291  28.811  1.00  0.00     0.014 A 
ATOM     46  C   UNL A   1      34.186  32.852  30.146  1.00  0.00     0.014 A 
ATOM     47  C   UNL A   1      36.725  33.691  29.360  1.00  0.00     0.010 A 
ATOM     48  C   UNL A   1      35.320  32.312  30.763  1.00  0.00     0.010 A 
ATOM     49  C   UNL A   1      36.603  32.687  30.335  1.00  0.00    -0.014 A 
BRANCH  49  50
ATOM     50  C   UNL A   1      37.834  32.041  30.866  1.00  0.00     0.031 A 
ATOM     51  C   UNL A   1      38.312  32.323  32.267  1.00  0.00     0.074 A 
ATOM     52  C   UNL A   1      38.480  31.133  30.109  1.00  0.00     0.049 A 
ATOM     53  N   UNL A   1      39.317  31.790  32.919  1.00  0.00    -0.248 NA
ATOM     54  C   UNL A   1      37.571  33.334  33.036  1.00  0.00     0.031 C 
ATOM     55  C   UNL A   1      38.123  30.774  28.734  1.00  0.00     0.029 A 
ATOM     56  N   UNL A   1      39.548  30.321  30.397  1.00  0.00    -0.354 N 
ATOM     57  C   UNL A   1      39.339  32.412  34.161  1.00  0.00     0.074 A 
ATOM     58  C   UNL A   1      38.268  33.385  34.163  1.00  0.00     0.031 C 
ATOM     59  C   UNL A   1      38.913  29.770  28.324  1.00  0.00     0.029 A 
ATOM     60  C   UNL A   1      39.867  29.453  29.382  1.00  0.00     0.049 A 
ATOM     61  H   UNL A   1      40.039  30.358  31.250  1.00  0.00     0.167 HD
ATOM     62  C   UNL A   1      40.164  32.184  35.213  1.00  0.00     0.037 A 
ATOM     63  C   UNL A   1      40.819  28.505  29.309  1.00  0.00     0.037 A 
ATOM     64  C   UNL A   1      41.215  31.201  35.227  1.00  0.00     0.049 A 
ATOM     65  C   UNL A   1      41.732  28.290  30.481  1.00  0.00     0.074 A 
ATOM     66  C   UNL A   1      42.084  30.878  36.254  1.00  0.00     0.029 A 
ATOM     67  N   UNL A   1      41.538  30.377  34.159  1.00  0.00    -0.354 N 
ATOM     68  N   UNL A   1      41.722  28.870  31.656  1.00  0.00    -0.248 NA
ATOM     69  C   UNL A   1      42.794  27.289  30.312  1.00  0.00     0.031 C 
ATOM     70  C   UNL A   1      42.957  29.884  35.797  1.00  0.00     0.029 A 
ATOM     71  C   UNL A   1      42.606  29.560  34.496  1.00  0.00     0.049 A 
ATOM     72  H   UNL A   1      41.077  30.373  33.288  1.00  0.00     0.167 HD
ATOM     73  C   UNL A   1      42.768  28.301  32.369  1.00  0.00     0.074 A 
ATOM     74  C   UNL A   1      43.371  27.307  31.504  1.00  0.00     0.031 C 
ATOM     75  C   UNL A   1      43.199  28.582  33.622  1.00  0.00     0.037 A 
BRANCH  62  76
ATOM     76  C   UNL A   1      39.964  33.026  36.440  1.00  0.00     0.057 A 
ATOM     77  C   UNL A   1      40.722  34.186  36.642  1.00  0.00     0.134 A 
ATOM     78  C   UNL A   1      39.041  32.675  37.435  1.00  0.00     0.134 A 
ATOM     79  F   UNL A   1      41.628  34.574  35.733  1.00  0.00    -0.206 F 
ATOM     80  C   UNL A   1      40.570  34.968  37.788  1.00  0.00     0.040 A 
ATOM     81  C   UNL A   1      38.863  33.462  38.575  1.00  0.00     0.040 A 
ATOM     82  F   UNL A   1      38.276  31.583  37.297  1.00  0.00    -0.206 F 
ATOM     83  C   UNL A   1      39.632  34.610  38.756  1.00  0.00     0.006 A 
ENDBRANCH  62  76
BRANCH  63  84
ATOM     84  C   UNL A   1      40.964  27.686  28.081  1.00  0.00     0.057 A 
ATOM     85  C   UNL A   1      41.716  28.137  26.989  1.00  0.00     0.134 A 
ATOM     86  C   UNL A   1      40.374  26.421  27.981  1.00  0.00     0.134 A 
ATOM     87  F   UNL A   1      42.304  29.341  27.023  1.00  0.00    -0.206 F 
ATOM     88  C   UNL A   1      41.872  27.361  25.840  1.00  0.00     0.040 A 
ATOM     89  C   UNL A   1      40.542  25.624  26.847  1.00  0.00     0.040 A 
ATOM     90  F   UNL A   1      39.659  25.927  29.002  1.00  0.00    -0.206 F 
ATOM     91  C   UNL A   1      41.291  26.096  25.771  1.00  0.00     0.006 A 
ENDBRANCH  63  84
BRANCH  75  92
ATOM     92  C   UNL A   1      44.369  27.790  34.126  1.00  0.00     0.057 A 
ATOM     93  C   UNL A   1      45.676  28.268  33.976  1.00  0.00     0.134 A 
ATOM     94  C   UNL A   1      44.199  26.555  34.766  1.00  0.00     0.134 A 
ATOM     95  F   UNL A   1      45.908  29.441  33.368  1.00  0.00    -0.206 F 
ATOM     96  C   UNL A   1      46.774  27.548  34.451  1.00  0.00     0.040 A 
ATOM     97  C   UNL A   1      45.287  25.839  35.266  1.00  0.00     0.040 A 
ATOM     98  F   UNL A   1      42.970  26.052  34.956  1.00  0.00    -0.206 F 
ATOM     99  C   UNL A   1      46.580  26.334  35.106  1.00  0.00     0.006 A 
ENDBRANCH  75  92
ENDBRANCH  49  50
ENDBRANCH  41  44
ENDBRANCH  39  40
ENDBRANCH  38  39
ENDBRANCH  37  38
ENDBRANCH  36  37
ENDBRANCH   1  36
TORSDOF 19
ENDMDL
MODEL 2
REMARK VINA RESULT:     -12.6      4.270      7.819
REMARK SMILES Cc1cc(OCC(=O)N[C@@H](Cc2ccc(Cl)cc2)C(=O)NCCCCCCNC(=O)c2ccc(-c3c4nc(c(-c5c(F)cccc5F)c5ccc([nH]5)c(-c5c(F)cccc5F)c5nc(c(-c6c(F)cccc6F)c6ccc3[nH]6)C=C5)C=C4)cc2)c2c(C)c(C)c(=O)oc2c1
REMARK SMILES IDX 23 1 22 2 21 3 19 4 20 5 10 7 9 8 7 9 8 10 6 12 5 13 4 14
REMARK SMILES IDX 1 15 2 16 3 17 94 18 93 19 85 20 92 21 86 22 90 23 87 24
REMARK SMILES IDX 88 25 91 26 89 27 11 28 12 29 13 30 18 31 14 32 17 33 15 34
REMARK SMILES IDX 16 35 24 36 25 37 26 38 27 39 28 40 29 41 30 43 31 44 32 45
REMARK SMILES IDX 84 46 33 47 83 48 34 49 35 50 36 51 77 52 37 53 82 54 76 55
REMARK SMILES IDX 78 56 38 57 81 58 75 59 74 60 39 62 65 63 48 64 64 65 49 66
REMARK SMILES IDX 52 67 63 68 79 69 50 70 51 71 62 73 80 74 53 75 40 76 41 77
REMARK SMILES IDX 46 78 42 79 43 80 45 81 47 82 44 83 66 84 67 85 72 86 68 87
REMARK SMILES IDX 69 88 71 89 73 90 70 91 54 92 55 93 60 94 56 95 57 96 59 97
REMARK SMILES IDX 61 98 58 99
REMARK H PARENT 21 6 9 11 28 42 78 61 52 72
REMARK Flexibility Score: inf
ROOT
ATOM      1  C   UNL A   1      31.524  27.997  26.390  1.00  0.00     0.021 C 
ENDROOT
BRANCH   1   2
ATOM      2  C   UNL A   1      32.248  26.961  25.542  1.00  0.00     0.116 C 
BRANCH   2   3
ATOM      3  N   UNL A   1      33.319  27.506  24.735  1.00  0.00    -0.354 N 
ATOM      4  C   UNL A   1      33.444  27.595  23.380  1.00  0.00     0.242 C 
ATOM      5  O   UNL A   1      34.206  28.469  22.952  1.00  0.00    -0.273 OA
ATOM      6  H   UNL A   1      34.078  27.870  25.245  1.00  0.00     0.163 HD
BRANCH   4   7
ATOM      7  C   UNL A   1      32.615  26.752  22.380  1.00  0.00     0.175 C 
BRANCH   7   8
ATOM      8  N   UNL A   1      33.274  25.520  21.954  1.00  0.00    -0.341 N 
ATOM      9  C   UNL A   1      32.939  24.239  22.277  1.00  0.00     0.258 C 
ATOM     10  O   UNL A   1      33.373  23.324  21.574  1.00  0.00    -0.271 OA
ATOM     11  H   UNL A   1      34.055  25.628  21.362  1.00  0.00     0.164 HD
BRANCH   9  12
ATOM     12  C   UNL A   1      32.077  23.958  23.520  1.00  0.00     0.329 C 
BRANCH  12  13
ATOM     13  O   UNL A   1      32.751  23.520  24.699  1.00  0.00    -0.483 OA
BRANCH  13  14
ATOM     14  C   UNL A   1      33.365  22.293  24.698  1.00  0.00     0.131 A 
ATOM     15  C   UNL A   1      32.433  18.654  23.984  1.00  0.00     0.044 C 
ATOM     16  C   UNL A   1      33.239  19.866  24.341  1.00  0.00    -0.044 A 
ATOM     17  C   UNL A   1      32.629  21.119  24.419  1.00  0.00     0.050 A 
ATOM     18  C   UNL A   1      34.591  19.777  24.626  1.00  0.00     0.051 A 
ATOM     19  C   UNL A   1      35.309  20.932  24.960  1.00  0.00     0.142 A 
ATOM     20  C   UNL A   1      34.748  22.218  25.001  1.00  0.00     0.063 A 
ATOM     21  O   UNL A   1      36.658  20.685  25.266  1.00  0.00    -0.422 OA
ATOM     22  C   UNL A   1      35.672  23.341  25.351  1.00  0.00    -0.026 A 
ATOM     23  C   UNL A   1      37.500  21.684  25.693  1.00  0.00     0.339 A 
ATOM     24  C   UNL A   1      35.218  24.779  25.340  1.00  0.00     0.046 C 
ATOM     25  C   UNL A   1      36.954  23.065  25.694  1.00  0.00     0.038 A 
ATOM     26  O   UNL A   1      38.654  21.441  26.029  1.00  0.00    -0.246 OA
ATOM     27  C   UNL A   1      37.986  24.078  26.126  1.00  0.00     0.052 C 
ENDBRANCH  13  14
ENDBRANCH  12  13
ENDBRANCH   9  12
ENDBRANCH   7   8
BRANCH   7  28
ATOM     28  C   UNL A   1      31.139  26.572  22.783  1.00  0.00     0.070 C 
BRANCH  28  29
ATOM     29  C   UNL A   1      30.250  27.790  22.729  1.00  0.00    -0.045 A 
ATOM     30  C   UNL A   1      28.915  27.722  23.153  1.00  0.00     0.005 A 
ATOM     31  C   UNL A   1      30.748  29.009  22.243  1.00  0.00     0.005 A 
ATOM     32  C   UNL A   1      28.105  28.862  23.127  1.00  0.00     0.021 A 
ATOM     33  C   UNL A   1      29.941  30.150  22.225  1.00  0.00     0.021 A 
ATOM     34  C   UNL A   1      28.626  30.072  22.676  1.00  0.00     0.041 A 
ATOM     35  Cl  UNL A   1      27.648  31.488  22.697  1.00  0.00    -0.084 Cl
ENDBRANCH  28  29
ENDBRANCH   7  28
ENDBRANCH   4   7
ENDBRANCH   2   3
ENDBRANCH   1   2
BRANCH   1  36
ATOM     36  C   UNL A   1      31.859  29.456  26.061  1.00  0.00     0.002 C 
BRANCH  36  37
ATOM     37  C   UNL A   1      32.772  30.192  27.052  1.00  0.00     0.002 C 
BRANCH  37  38
ATOM     38  C   UNL A   1      34.164  29.595  27.276  1.00  0.00     0.021 C 
BRANCH  38  39
ATOM     39  C   UNL A   1      35.245  30.578  27.701  1.00  0.00     0.116 C 
BRANCH  39  40
ATOM     40  N   UNL A   1      35.222  30.891  29.119  1.00  0.00    -0.352 N 
ATOM     41  C   UNL A   1      36.168  30.622  30.084  1.00  0.00     0.251 C 
ATOM     42  H   UNL A   1      34.418  31.362  29.434  1.00  0.00     0.163 HD
ATOM     43  O   UNL A   1      35.934  30.874  31.260  1.00  0.00    -0.269 OA
BRANCH  41  44
ATOM     44  C   UNL A   1      37.452  29.983  29.707  1.00  0.00     0.039 A 
ATOM     45  C   UNL A   1      38.205  29.266  30.640  1.00  0.00     0.014 A 
ATOM     46  C   UNL A   1      37.920  30.121  28.397  1.00  0.00     0.014 A 
ATOM     47  C   UNL A   1      39.491  28.847  30.315  1.00  0.00     0.010 A 
ATOM     48  C   UNL A   1      39.179  29.620  28.046  1.00  0.00     0.010 A 
ATOM     49  C   UNL A   1      39.999  29.027  29.018  1.00  0.00    -0.014 A 
BRANCH  49  50
ATOM     50  C   UNL A   1      41.396  28.604  28.723  1.00  0.00     0.031 A 
ATOM     51  C   UNL A   1      41.702  27.189  28.303  1.00  0.00     0.074 A 
ATOM     52  C   UNL A   1      42.382  29.520  28.757  1.00  0.00     0.049 A 
ATOM     53  N   UNL A   1      42.846  26.668  27.933  1.00  0.00    -0.248 NA
ATOM     54  C   UNL A   1      40.582  26.235  28.299  1.00  0.00     0.031 C 
ATOM     55  C   UNL A   1      42.220  30.921  29.153  1.00  0.00     0.029 A 
ATOM     56  N   UNL A   1      43.709  29.422  28.420  1.00  0.00    -0.354 N 
ATOM     57  C   UNL A   1      42.588  25.327  27.672  1.00  0.00     0.074 A 
ATOM     58  C   UNL A   1      41.187  25.106  27.956  1.00  0.00     0.031 C 
ATOM     59  C   UNL A   1      43.383  31.565  28.974  1.00  0.00     0.029 A 
ATOM     60  C   UNL A   1      44.385  30.615  28.504  1.00  0.00     0.049 A 
ATOM     61  H   UNL A   1      44.135  28.578  28.144  1.00  0.00     0.167 HD
ATOM     62  C   UNL A   1      43.435  24.370  27.220  1.00  0.00     0.037 A 
ATOM     63  C   UNL A   1      45.669  30.912  28.233  1.00  0.00     0.037 A 
ATOM     64  C   UNL A   1      44.824  24.589  26.912  1.00  0.00     0.049 A 
ATOM     65  C   UNL A   1      46.590  29.827  27.756  1.00  0.00     0.074 A 
ATOM     66  C   UNL A   1      45.755  23.688  26.423  1.00  0.00     0.029 A 
ATOM     67  N   UNL A   1      45.483  25.801  27.060  1.00  0.00    -0.354 N 
ATOM     68  N   UNL A   1      46.323  28.571  27.491  1.00  0.00    -0.248 NA
ATOM     69  C   UNL A   1      47.994  30.202  27.544  1.00  0.00     0.031 C 
ATOM     70  C   UNL A   1      46.985  24.345  26.310  1.00  0.00     0.029 A 
ATOM     71  C   UNL A   1      46.812  25.666  26.692  1.00  0.00     0.049 A 
ATOM     72  H   UNL A   1      45.068  26.634  27.381  1.00  0.00     0.167 HD
ATOM     73  C   UNL A   1      47.521  28.008  27.076  1.00  0.00     0.074 A 
ATOM     74  C   UNL A   1      48.509  29.068  27.093  1.00  0.00     0.031 C 
ATOM     75  C   UNL A   1      47.784  26.727  26.721  1.00  0.00     0.037 A 
BRANCH  62  76
ATOM     76  C   UNL A   1      42.879  22.987  27.040  1.00  0.00     0.057 A 
ATOM     77  C   UNL A   1      42.631  22.166  28.148  1.00  0.00     0.134 A 
ATOM     78  C   UNL A   1      42.613  22.456  25.771  1.00  0.00     0.134 A 
ATOM     79  F   UNL A   1      42.870  22.610  29.391  1.00  0.00    -0.206 F 
ATOM     80  C   UNL A   1      42.138  20.869  28.000  1.00  0.00     0.040 A 
ATOM     81  C   UNL A   1      42.097  21.168  25.611  1.00  0.00     0.040 A 
ATOM     82  F   UNL A   1      42.817  23.194  24.669  1.00  0.00    -0.206 F 
ATOM     83  C   UNL A   1      41.863  20.369  26.729  1.00  0.00     0.006 A 
ENDBRANCH  62  76
BRANCH  63  84
ATOM     84  C   UNL A   1      46.167  32.299  28.409  1.00  0.00     0.057 A 
ATOM     85  C   UNL A   1      46.173  33.210  27.346  1.00  0.00     0.134 A 
ATOM     86  C   UNL A   1      46.625  32.751  29.651  1.00  0.00     0.134 A 
ATOM     87  F   UNL A   1      45.750  32.836  26.130  1.00  0.00    -0.206 F 
ATOM     88  C   UNL A   1      46.622  34.521  27.511  1.00  0.00     0.040 A 
ATOM     89  C   UNL A   1      47.053  34.067  29.837  1.00  0.00     0.040 A 
ATOM     90  F   UNL A   1      46.623  31.930  30.711  1.00  0.00    -0.206 F 
ATOM     91  C   UNL A   1      47.055  34.955  28.763  1.00  0.00     0.006 A 
ENDBRANCH  63  84
BRANCH  75  92
ATOM     92  C   UNL A   1      49.194  26.417  26.314  1.00  0.00     0.057 A 
ATOM     93  C   UNL A   1      50.101  25.869  27.229  1.00  0.00     0.134 A 
ATOM     94  C   UNL A   1      49.651  26.656  25.011  1.00  0.00     0.134 A 
ATOM     95  F   UNL A   1      49.728  25.621  28.494  1.00  0.00    -0.206 F 
ATOM     96  C   UNL A   1      51.412  25.563  26.862  1.00  0.00     0.040 A 
ATOM     97  C   UNL A   1      50.952  26.331  24.626  1.00  0.00     0.040 A 
ATOM     98  F   UNL A   1      48.825  27.161  24.083  1.00  0.00    -0.206 F 
ATOM     99  C   UNL A   1      51.838  25.786  25.553  1.00  0.00     0.006 A 
ENDBRANCH  75  92
ENDBRANCH  49  50
ENDBRANCH  41  44
ENDBRANCH  39  40
ENDBRANCH  38  39
ENDBRANCH  37  38
ENDBRANCH  36  37
ENDBRANCH   1  36
TORSDOF 19
ENDMDL
MODEL 3
REMARK VINA RESULT:     -12.4      1.898      3.493
REMARK SMILES Cc1cc(OCC(=O)N[C@@H](Cc2ccc(Cl)cc2)C(=O)NCCCCCCNC(=O)c2ccc(-c3c4nc(c(-c5c(F)cccc5F)c5ccc([nH]5)c(-c5c(F)cccc5F)c5nc(c(-c6c(F)cccc6F)c6ccc3[nH]6)C=C5)C=C4)cc2)c2c(C)c(C)c(=O)oc2c1
REMARK SMILES IDX 23 1 22 2 21 3 19 4 20 5 10 7 9 8 7 9 8 10 6 12 5 13 4 14
REMARK SMILES IDX 1 15 2 16 3 17 94 18 93 19 85 20 92 21 86 22 90 23 87 24
REMARK SMILES IDX 88 25 91 26 89 27 11 28 12 29 13 30 18 31 14 32 17 33 15 34
REMARK SMILES IDX 16 35 24 36 25 37 26 38 27 39 28 40 29 41 30 43 31 44 32 45
REMARK SMILES IDX 84 46 33 47 83 48 34 49 35 50 36 51 77 52 37 53 82 54 76 55
REMARK SMILES IDX 78 56 38 57 81 58 75 59 74 60 39 62 65 63 48 64 64 65 49 66
REMARK SMILES IDX 52 67 63 68 79 69 50 70 51 71 62 73 80 74 53 75 40 76 41 77
REMARK SMILES IDX 46 78 42 79 43 80 45 81 47 82 44 83 66 84 67 85 72 86 68 87
REMARK SMILES IDX 69 88 71 89 73 90 70 91 54 92 55 93 60 94 56 95 57 96 59 97
REMARK SMILES IDX 61 98 58 99
REMARK H PARENT 21 6 9 11 28 42 78 61 52 72
REMARK Flexibility Score: inf
ROOT
ATOM      1  C   UNL A   1      30.306  29.524  23.915  1.00  0.00     0.021 C 
ENDROOT
BRANCH   1   2
ATOM      2  C   UNL A   1      31.181  28.984  22.791  1.00  0.00     0.116 C 
BRANCH   2   3
ATOM      3  N   UNL A   1      32.593  29.252  22.965  1.00  0.00    -0.354 N 
ATOM      4  C   UNL A   1      33.650  28.395  23.049  1.00  0.00     0.242 C 
ATOM      5  O   UNL A   1      34.759  28.854  22.755  1.00  0.00    -0.273 OA
ATOM      6  H   UNL A   1      32.828  30.206  23.032  1.00  0.00     0.163 HD
BRANCH   4   7
ATOM      7  C   UNL A   1      33.514  26.888  23.380  1.00  0.00     0.175 C 
BRANCH   7   8
ATOM      8  N   UNL A   1      33.722  26.008  22.232  1.00  0.00    -0.341 N 
ATOM      9  C   UNL A   1      32.780  25.506  21.384  1.00  0.00     0.258 C 
ATOM     10  O   UNL A   1      33.148  25.073  20.290  1.00  0.00    -0.271 OA
ATOM     11  H   UNL A   1      34.654  25.746  22.050  1.00  0.00     0.164 HD
BRANCH   9  12
ATOM     12  C   UNL A   1      31.306  25.447  21.817  1.00  0.00     0.329 C 
BRANCH  12  13
ATOM     13  O   UNL A   1      30.895  24.321  22.591  1.00  0.00    -0.483 OA
BRANCH  13  14
ATOM     14  C   UNL A   1      31.153  24.310  23.938  1.00  0.00     0.131 A 
ATOM     15  C   UNL A   1      30.817  26.689  26.912  1.00  0.00     0.044 C 
ATOM     16  C   UNL A   1      31.119  25.462  26.107  1.00  0.00    -0.044 A 
ATOM     17  C   UNL A   1      30.933  25.463  24.724  1.00  0.00     0.050 A 
ATOM     18  C   UNL A   1      31.610  24.310  26.701  1.00  0.00     0.051 A 
ATOM     19  C   UNL A   1      31.884  23.185  25.913  1.00  0.00     0.142 A 
ATOM     20  C   UNL A   1      31.664  23.126  24.528  1.00  0.00     0.063 A 
ATOM     21  O   UNL A   1      32.417  22.108  26.641  1.00  0.00    -0.422 OA
ATOM     22  C   UNL A   1      31.989  21.832  23.853  1.00  0.00    -0.026 A 
ATOM     23  C   UNL A   1      32.822  20.946  26.027  1.00  0.00     0.339 A 
ATOM     24  C   UNL A   1      31.714  21.606  22.388  1.00  0.00     0.046 C 
ATOM     25  C   UNL A   1      32.552  20.830  24.572  1.00  0.00     0.038 A 
ATOM     26  O   UNL A   1      33.354  20.044  26.664  1.00  0.00    -0.246 OA
ATOM     27  C   UNL A   1      32.988  19.493  24.024  1.00  0.00     0.052 C 
ENDBRANCH  13  14
ENDBRANCH  12  13
ENDBRANCH   9  12
ENDBRANCH   7   8
BRANCH   7  28
ATOM     28  C   UNL A   1      34.265  26.455  24.652  1.00  0.00     0.070 C 
BRANCH  28  29
ATOM     29  C   UNL A   1      34.817  25.051  24.691  1.00  0.00    -0.045 A 
ATOM     30  C   UNL A   1      35.253  24.485  25.898  1.00  0.00     0.005 A 
ATOM     31  C   UNL A   1      34.908  24.294  23.513  1.00  0.00     0.005 A 
ATOM     32  C   UNL A   1      35.737  23.173  25.931  1.00  0.00     0.021 A 
ATOM     33  C   UNL A   1      35.382  22.980  23.547  1.00  0.00     0.021 A 
ATOM     34  C   UNL A   1      35.787  22.424  24.758  1.00  0.00     0.041 A 
ATOM     35  Cl  UNL A   1      36.327  20.790  24.807  1.00  0.00    -0.084 Cl
ENDBRANCH  28  29
ENDBRANCH   7  28
ENDBRANCH   4   7
ENDBRANCH   2   3
ENDBRANCH   1   2
BRANCH   1  36
ATOM     36  C   UNL A   1      31.069  30.103  25.112  1.00  0.00     0.002 C 
BRANCH  36  37
ATOM     37  C   UNL A   1      30.697  31.529  25.540  1.00  0.00     0.002 C 
BRANCH  37  38
ATOM     38  C   UNL A   1      31.208  31.989  26.908  1.00  0.00     0.021 C 
BRANCH  38  39
ATOM     39  C   UNL A   1      32.482  32.820  26.894  1.00  0.00     0.116 C 
BRANCH  39  40
ATOM     40  N   UNL A   1      32.386  34.046  27.667  1.00  0.00    -0.352 N 
ATOM     41  C   UNL A   1      33.207  34.504  28.675  1.00  0.00     0.251 C 
ATOM     42  H   UNL A   1      31.630  34.631  27.438  1.00  0.00     0.163 HD
ATOM     43  O   UNL A   1      32.913  35.523  29.289  1.00  0.00    -0.269 OA
BRANCH  41  44
ATOM     44  C   UNL A   1      34.420  33.739  29.051  1.00  0.00     0.039 A 
ATOM     45  C   UNL A   1      34.327  32.514  29.715  1.00  0.00     0.014 A 
ATOM     46  C   UNL A   1      35.678  34.269  28.747  1.00  0.00     0.014 A 
ATOM     47  C   UNL A   1      35.473  31.915  30.226  1.00  0.00     0.010 A 
ATOM     48  C   UNL A   1      36.837  33.619  29.186  1.00  0.00     0.010 A 
ATOM     49  C   UNL A   1      36.742  32.464  29.978  1.00  0.00    -0.014 A 
BRANCH  49  50
ATOM     50  C   UNL A   1      37.940  31.818  30.581  1.00  0.00     0.031 A 
ATOM     51  C   UNL A   1      38.335  32.099  32.007  1.00  0.00     0.074 A 
ATOM     52  C   UNL A   1      38.630  30.911  29.862  1.00  0.00     0.049 A 
ATOM     53  N   UNL A   1      39.299  31.567  32.717  1.00  0.00    -0.248 NA
ATOM     54  C   UNL A   1      37.549  33.110  32.732  1.00  0.00     0.031 C 
ATOM     55  C   UNL A   1      38.355  30.552  28.469  1.00  0.00     0.029 A 
ATOM     56  N   UNL A   1      39.679  30.099  30.213  1.00  0.00    -0.354 N 
ATOM     57  C   UNL A   1      39.248  32.188  33.959  1.00  0.00     0.074 A 
ATOM     58  C   UNL A   1      38.178  33.161  33.898  1.00  0.00     0.031 C 
ATOM     59  C   UNL A   1      39.168  29.549  28.105  1.00  0.00     0.029 A 
ATOM     60  C   UNL A   1      40.058  29.231  29.218  1.00  0.00     0.049 A 
ATOM     61  H   UNL A   1      40.119  30.136  31.093  1.00  0.00     0.167 HD
ATOM     62  C   UNL A   1      40.009  31.960  35.058  1.00  0.00     0.037 A 
ATOM     63  C   UNL A   1      41.013  28.284  29.201  1.00  0.00     0.037 A 
ATOM     64  C   UNL A   1      41.058  30.977  35.133  1.00  0.00     0.049 A 
ATOM     65  C   UNL A   1      41.855  28.069  30.425  1.00  0.00     0.074 A 
ATOM     66  C   UNL A   1      41.866  30.654  36.210  1.00  0.00     0.029 A 
ATOM     67  N   UNL A   1      41.444  30.153  34.085  1.00  0.00    -0.354 N 
ATOM     68  N   UNL A   1      41.776  28.648  31.597  1.00  0.00    -0.248 NA
ATOM     69  C   UNL A   1      42.926  27.068  30.318  1.00  0.00     0.031 C 
ATOM     70  C   UNL A   1      42.764  29.661  35.804  1.00  0.00     0.029 A 
ATOM     71  C   UNL A   1      42.491  29.337  34.485  1.00  0.00     0.049 A 
ATOM     72  H   UNL A   1      41.035  30.150  33.189  1.00  0.00     0.167 HD
ATOM     73  C   UNL A   1      42.778  28.079  32.370  1.00  0.00     0.074 A 
ATOM     74  C   UNL A   1      43.432  27.086  31.542  1.00  0.00     0.031 C 
ATOM     75  C   UNL A   1      43.135  28.360  33.647  1.00  0.00     0.037 A 
BRANCH  62  76
ATOM     76  C   UNL A   1      39.737  32.801  36.271  1.00  0.00     0.057 A 
ATOM     77  C   UNL A   1      40.489  33.955  36.524  1.00  0.00     0.134 A 
ATOM     78  C   UNL A   1      38.750  32.455  37.204  1.00  0.00     0.134 A 
ATOM     79  F   UNL A   1      41.454  34.338  35.676  1.00  0.00    -0.206 F 
ATOM     80  C   UNL A   1      40.269  34.736  37.660  1.00  0.00     0.040 A 
ATOM     81  C   UNL A   1      38.504  33.242  38.332  1.00  0.00     0.040 A 
ATOM     82  F   UNL A   1      37.987  31.369  37.015  1.00  0.00    -0.206 F 
ATOM     83  C   UNL A   1      39.268  34.383  38.564  1.00  0.00     0.006 A 
ENDBRANCH  62  76
BRANCH  63  84
ATOM     84  C   UNL A   1      41.231  27.465  27.983  1.00  0.00     0.057 A 
ATOM     85  C   UNL A   1      40.618  26.216  27.826  1.00  0.00     0.134 A 
ATOM     86  C   UNL A   1      42.037  27.926  26.937  1.00  0.00     0.134 A 
ATOM     87  F   UNL A   1      39.836  25.719  28.795  1.00  0.00    -0.206 F 
ATOM     88  C   UNL A   1      40.804  25.452  26.674  1.00  0.00     0.040 A 
ATOM     89  C   UNL A   1      42.212  27.183  25.767  1.00  0.00     0.040 A 
ATOM     90  F   UNL A   1      42.634  29.124  27.020  1.00  0.00    -0.206 F 
ATOM     91  C   UNL A   1      41.596  25.940  25.636  1.00  0.00     0.006 A 
ENDBRANCH  63  84
BRANCH  75  92
ATOM     92  C   UNL A   1      44.273  27.568  34.219  1.00  0.00     0.057 A 
ATOM     93  C   UNL A   1      45.583  28.061  34.174  1.00  0.00     0.134 A 
ATOM     94  C   UNL A   1      44.070  26.318  34.819  1.00  0.00     0.134 A 
ATOM     95  F   UNL A   1      45.845  29.248  33.609  1.00  0.00    -0.206 F 
ATOM     96  C   UNL A   1      46.651  27.341  34.713  1.00  0.00     0.040 A 
ATOM     97  C   UNL A   1      45.126  25.602  35.383  1.00  0.00     0.040 A 
ATOM     98  F   UNL A   1      42.836  25.800  34.909  1.00  0.00    -0.206 F 
ATOM     99  C   UNL A   1      46.422  26.111  35.328  1.00  0.00     0.006 A 
ENDBRANCH  75  92
ENDBRANCH  49  50
ENDBRANCH  41  44
ENDBRANCH  39  40
ENDBRANCH  38  39
ENDBRANCH  37  38
ENDBRANCH  36  37
ENDBRANCH   1  36
TORSDOF 19
ENDMDL
