MODEL 1
REMARK VINA RESULT:     -11.7      0.000      0.000
REMARK SMILES O=C(Cc1cncnc1N1CCC2(CC1)OCCC[C@@H]2O)NCCCCCCNC(=O)c1ccc(-c2c3nc(c(-c4c(F)cccc4F)c4ccc([nH]4)c(-c4c(F)cccc4F)c4nc(c(-c5c(F)cccc5F)c5ccc2[nH]5)C=C4)C=C3)cc1
REMARK SMILES IDX 25 1 24 2 23 3 22 4 1 5 2 6 3 8 4 9 5 10 9 11 6 12 8 13 7 14
REMARK SMILES IDX 10 15 11 16 15 17 12 18 14 19 13 20 16 21 20 22 17 23 19 24
REMARK SMILES IDX 18 25 21 26 26 28 27 29 28 30 29 31 30 32 31 34 32 35 33 36
REMARK SMILES IDX 85 37 34 38 84 39 35 40 36 41 37 42 78 43 38 44 83 45 77 46
REMARK SMILES IDX 79 47 39 48 82 49 76 50 75 51 40 53 66 54 49 55 65 56 50 57
REMARK SMILES IDX 53 58 64 59 80 60 51 61 52 62 63 64 81 65 54 66 41 67 42 68
REMARK SMILES IDX 47 69 43 70 44 71 46 72 48 73 45 74 67 75 68 76 73 77 69 78
REMARK SMILES IDX 70 79 72 80 74 81 71 82 55 83 56 84 61 85 57 86 58 87 60 88
REMARK SMILES IDX 62 89 59 90
REMARK H PARENT 22 7 21 27 29 33 79 52 53 63
REMARK Flexibility Score: inf
ROOT
ATOM      1  C   UNL A   1      34.334  32.186  28.973  1.00  0.00     0.002 C 
ENDROOT
BRANCH   1   2
ATOM      2  C   UNL A   1      35.154  31.594  27.818  1.00  0.00     0.021 C 
BRANCH   2   3
ATOM      3  C   UNL A   1      35.240  30.069  27.819  1.00  0.00     0.116 C 
BRANCH   3   4
ATOM      4  N   UNL A   1      33.930  29.473  27.675  1.00  0.00    -0.356 N 
ATOM      5  O   UNL A   1      34.354  28.451  25.665  1.00  0.00    -0.275 OA
ATOM      6  C   UNL A   1      33.582  28.718  26.580  1.00  0.00     0.224 C 
ATOM      7  H   UNL A   1      33.265  29.611  28.387  1.00  0.00     0.163 HD
BRANCH   6   8
ATOM      8  C   UNL A   1      32.134  28.288  26.558  1.00  0.00     0.141 C 
BRANCH   8   9
ATOM      9  C   UNL A   1      31.421  28.362  25.234  1.00  0.00     0.022 A 
ATOM     10  C   UNL A   1      30.935  29.541  24.698  1.00  0.00     0.121 A 
ATOM     11  C   UNL A   1      31.238  27.220  24.449  1.00  0.00     0.135 A 
ATOM     12  N   UNL A   1      30.374  29.637  23.481  1.00  0.00    -0.244 NA
ATOM     13  N   UNL A   1      30.705  27.287  23.216  1.00  0.00    -0.219 NA
ATOM     14  C   UNL A   1      30.293  28.491  22.796  1.00  0.00     0.224 A 
BRANCH  11  15
ATOM     15  N   UNL A   1      31.662  25.987  24.914  1.00  0.00    -0.356 N 
ATOM     16  C   UNL A   1      32.904  25.426  24.407  1.00  0.00     0.121 C 
ATOM     17  C   UNL A   1      30.651  24.978  25.224  1.00  0.00     0.121 C 
ATOM     18  C   UNL A   1      33.522  24.613  25.550  1.00  0.00     0.060 C 
ATOM     19  C   UNL A   1      31.165  24.181  26.418  1.00  0.00     0.060 C 
ATOM     20  C   UNL A   1      32.549  23.550  26.130  1.00  0.00     0.097 C 
ATOM     21  O   UNL A   1      32.303  22.505  25.164  1.00  0.00    -0.372 OA
ATOM     22  C   UNL A   1      33.125  22.957  27.453  1.00  0.00     0.146 C 
ATOM     23  C   UNL A   1      33.395  21.635  24.889  1.00  0.00     0.161 C 
ATOM     24  C   UNL A   1      34.319  22.042  27.186  1.00  0.00     0.037 C 
ATOM     25  C   UNL A   1      33.954  20.989  26.147  1.00  0.00     0.031 C 
BRANCH  22  26
ATOM     26  O   UNL A   1      32.124  22.199  28.146  1.00  0.00    -0.390 OA
ATOM     27  H   UNL A   1      31.247  22.436  27.804  1.00  0.00     0.211 HD
ENDBRANCH  22  26
ENDBRANCH  11  15
ENDBRANCH   8   9
ENDBRANCH   6   8
ENDBRANCH   3   4
ENDBRANCH   2   3
ENDBRANCH   1   2
BRANCH   1  28
ATOM     28  C   UNL A   1      34.554  33.680  29.231  1.00  0.00     0.002 C 
BRANCH  28  29
ATOM     29  C   UNL A   1      33.311  34.554  29.063  1.00  0.00     0.021 C 
BRANCH  29  30
ATOM     30  C   UNL A   1      33.468  35.988  29.553  1.00  0.00     0.116 C 
BRANCH  30  31
ATOM     31  N   UNL A   1      32.539  36.317  30.623  1.00  0.00    -0.352 N 
ATOM     32  C   UNL A   1      32.556  35.909  31.934  1.00  0.00     0.251 C 
ATOM     33  H   UNL A   1      31.796  36.914  30.372  1.00  0.00     0.163 HD
ATOM     34  O   UNL A   1      31.607  36.148  32.675  1.00  0.00    -0.269 OA
BRANCH  32  35
ATOM     35  C   UNL A   1      33.719  35.153  32.443  1.00  0.00     0.039 A 
ATOM     36  C   UNL A   1      33.535  33.841  32.887  1.00  0.00     0.014 A 
ATOM     37  C   UNL A   1      34.992  35.730  32.455  1.00  0.00     0.014 A 
ATOM     38  C   UNL A   1      34.641  33.083  33.281  1.00  0.00     0.010 A 
ATOM     39  C   UNL A   1      36.099  34.952  32.779  1.00  0.00     0.010 A 
ATOM     40  C   UNL A   1      35.936  33.621  33.195  1.00  0.00    -0.014 A 
BRANCH  40  41
ATOM     41  C   UNL A   1      37.139  32.818  33.537  1.00  0.00     0.031 A 
ATOM     42  C   UNL A   1      37.898  33.109  34.803  1.00  0.00     0.074 A 
ATOM     43  C   UNL A   1      37.596  31.891  32.671  1.00  0.00     0.049 A 
ATOM     44  N   UNL A   1      39.036  32.613  35.217  1.00  0.00    -0.248 NA
ATOM     45  C   UNL A   1      37.316  34.111  35.710  1.00  0.00     0.031 C 
ATOM     46  C   UNL A   1      36.973  31.540  31.394  1.00  0.00     0.029 A 
ATOM     47  N   UNL A   1      38.709  31.087  32.727  1.00  0.00    -0.354 N 
ATOM     48  C   UNL A   1      39.318  33.261  36.414  1.00  0.00     0.074 A 
ATOM     49  C   UNL A   1      38.253  34.213  36.642  1.00  0.00     0.031 C 
ATOM     50  C   UNL A   1      37.704  30.586  30.793  1.00  0.00     0.029 A 
ATOM     51  C   UNL A   1      38.871  30.289  31.619  1.00  0.00     0.049 A 
ATOM     52  H   UNL A   1      39.332  31.083  33.489  1.00  0.00     0.167 HD
ATOM     53  C   UNL A   1      40.362  33.067  37.253  1.00  0.00     0.037 A 
ATOM     54  C   UNL A   1      39.859  29.432  31.296  1.00  0.00     0.037 A 
ATOM     55  C   UNL A   1      41.396  32.089  37.046  1.00  0.00     0.049 A 
ATOM     56  C   UNL A   1      41.011  29.246  32.248  1.00  0.00     0.074 A 
ATOM     57  C   UNL A   1      42.450  31.764  37.881  1.00  0.00     0.029 A 
ATOM     58  N   UNL A   1      41.506  31.281  35.926  1.00  0.00    -0.354 N 
ATOM     59  N   UNL A   1      41.222  29.810  33.412  1.00  0.00    -0.248 NA
ATOM     60  C   UNL A   1      42.063  28.302  31.841  1.00  0.00     0.031 C 
ATOM     61  C   UNL A   1      43.228  30.794  37.244  1.00  0.00     0.029 A 
ATOM     62  C   UNL A   1      42.628  30.476  36.037  1.00  0.00     0.049 A 
ATOM     63  H   UNL A   1      40.882  31.279  35.165  1.00  0.00     0.167 HD
ATOM     64  C   UNL A   1      42.402  29.258  33.893  1.00  0.00     0.074 A 
ATOM     65  C   UNL A   1      42.859  28.310  32.900  1.00  0.00     0.031 C 
ATOM     66  C   UNL A   1      43.051  29.513  35.055  1.00  0.00     0.037 A 
BRANCH  53  67
ATOM     67  C   UNL A   1      40.447  33.926  38.481  1.00  0.00     0.057 A 
ATOM     68  C   UNL A   1      39.817  33.568  39.679  1.00  0.00     0.134 A 
ATOM     69  C   UNL A   1      41.238  35.082  38.486  1.00  0.00     0.134 A 
ATOM     70  F   UNL A   1      39.038  32.477  39.739  1.00  0.00    -0.206 F 
ATOM     71  C   UNL A   1      39.962  34.336  40.836  1.00  0.00     0.040 A 
ATOM     72  C   UNL A   1      41.412  35.843  39.642  1.00  0.00     0.040 A 
ATOM     73  F   UNL A   1      41.874  35.477  37.373  1.00  0.00    -0.206 F 
ATOM     74  C   UNL A   1      40.770  35.471  40.822  1.00  0.00     0.006 A 
ENDBRANCH  53  67
BRANCH  54  75
ATOM     75  C   UNL A   1      39.819  28.676  30.017  1.00  0.00     0.057 A 
ATOM     76  C   UNL A   1      39.193  27.425  29.936  1.00  0.00     0.134 A 
ATOM     77  C   UNL A   1      40.450  29.154  28.862  1.00  0.00     0.134 A 
ATOM     78  F   UNL A   1      38.587  26.904  31.013  1.00  0.00    -0.206 F 
ATOM     79  C   UNL A   1      39.228  26.662  28.769  1.00  0.00     0.040 A 
ATOM     80  C   UNL A   1      40.468  28.413  27.678  1.00  0.00     0.040 A 
ATOM     81  F   UNL A   1      41.062  30.347  28.868  1.00  0.00    -0.206 F 
ATOM     82  C   UNL A   1      39.868  27.157  27.634  1.00  0.00     0.006 A 
ENDBRANCH  54  75
BRANCH  66  83
ATOM     83  C   UNL A   1      44.286  28.714  35.352  1.00  0.00     0.057 A 
ATOM     84  C   UNL A   1      45.563  29.154  34.982  1.00  0.00     0.134 A 
ATOM     85  C   UNL A   1      44.197  27.514  36.070  1.00  0.00     0.134 A 
ATOM     86  F   UNL A   1      45.716  30.288  34.283  1.00  0.00    -0.206 F 
ATOM     87  C   UNL A   1      46.706  28.419  35.301  1.00  0.00     0.040 A 
ATOM     88  C   UNL A   1      45.334  26.786  36.420  1.00  0.00     0.040 A 
ATOM     89  F   UNL A   1      43.003  27.042  36.463  1.00  0.00    -0.206 F 
ATOM     90  C   UNL A   1      46.594  27.236  36.030  1.00  0.00     0.006 A 
ENDBRANCH  66  83
ENDBRANCH  40  41
ENDBRANCH  32  35
ENDBRANCH  30  31
ENDBRANCH  29  30
ENDBRANCH  28  29
ENDBRANCH   1  28
TORSDOF 16
ENDMDL
MODEL 2
REMARK VINA RESULT:     -11.4      1.336      3.220
REMARK SMILES O=C(Cc1cncnc1N1CCC2(CC1)OCCC[C@@H]2O)NCCCCCCNC(=O)c1ccc(-c2c3nc(c(-c4c(F)cccc4F)c4ccc([nH]4)c(-c4c(F)cccc4F)c4nc(c(-c5c(F)cccc5F)c5ccc2[nH]5)C=C4)C=C3)cc1
REMARK SMILES IDX 25 1 24 2 23 3 22 4 1 5 2 6 3 8 4 9 5 10 9 11 6 12 8 13 7 14
REMARK SMILES IDX 10 15 11 16 15 17 12 18 14 19 13 20 16 21 20 22 17 23 19 24
REMARK SMILES IDX 18 25 21 26 26 28 27 29 28 30 29 31 30 32 31 34 32 35 33 36
REMARK SMILES IDX 85 37 34 38 84 39 35 40 36 41 37 42 78 43 38 44 83 45 77 46
REMARK SMILES IDX 79 47 39 48 82 49 76 50 75 51 40 53 66 54 49 55 65 56 50 57
REMARK SMILES IDX 53 58 64 59 80 60 51 61 52 62 63 64 81 65 54 66 41 67 42 68
REMARK SMILES IDX 47 69 43 70 44 71 46 72 48 73 45 74 67 75 68 76 73 77 69 78
REMARK SMILES IDX 70 79 72 80 74 81 71 82 55 83 56 84 61 85 57 86 58 87 60 88
REMARK SMILES IDX 62 89 59 90
REMARK H PARENT 22 7 21 27 29 33 79 52 53 63
REMARK Flexibility Score: inf
ROOT
ATOM      1  C   UNL A   1      34.443  32.296  28.807  1.00  0.00     0.002 C 
ENDROOT
BRANCH   1   2
ATOM      2  C   UNL A   1      34.319  31.360  27.596  1.00  0.00     0.021 C 
BRANCH   2   3
ATOM      3  C   UNL A   1      34.909  29.968  27.808  1.00  0.00     0.116 C 
BRANCH   3   4
ATOM      4  N   UNL A   1      34.856  29.188  26.591  1.00  0.00    -0.356 N 
ATOM      5  O   UNL A   1      33.104  27.855  27.239  1.00  0.00    -0.275 OA
ATOM      6  C   UNL A   1      33.956  28.164  26.412  1.00  0.00     0.224 C 
ATOM      7  H   UNL A   1      35.485  29.399  25.864  1.00  0.00     0.163 HD
BRANCH   6   8
ATOM      8  C   UNL A   1      34.141  27.394  25.126  1.00  0.00     0.141 C 
BRANCH   8   9
ATOM      9  C   UNL A   1      33.754  25.938  25.141  1.00  0.00     0.022 A 
ATOM     10  C   UNL A   1      34.581  24.937  25.617  1.00  0.00     0.121 A 
ATOM     11  C   UNL A   1      32.497  25.522  24.693  1.00  0.00     0.135 A 
ATOM     12  N   UNL A   1      34.219  23.648  25.717  1.00  0.00    -0.244 NA
ATOM     13  N   UNL A   1      32.094  24.244  24.804  1.00  0.00    -0.219 NA
ATOM     14  C   UNL A   1      32.977  23.369  25.304  1.00  0.00     0.224 A 
BRANCH  11  15
ATOM     15  N   UNL A   1      31.609  26.446  24.169  1.00  0.00    -0.356 N 
ATOM     16  C   UNL A   1      30.582  27.011  25.028  1.00  0.00     0.121 C 
ATOM     17  C   UNL A   1      31.184  26.288  22.779  1.00  0.00     0.121 C 
ATOM     18  C   UNL A   1      30.337  28.444  24.544  1.00  0.00     0.060 C 
ATOM     19  C   UNL A   1      31.004  27.688  22.204  1.00  0.00     0.060 C 
ATOM     20  C   UNL A   1      29.994  28.520  23.031  1.00  0.00     0.097 C 
ATOM     21  O   UNL A   1      28.703  27.928  22.772  1.00  0.00    -0.372 OA
ATOM     22  C   UNL A   1      30.033  30.002  22.544  1.00  0.00     0.146 C 
ATOM     23  C   UNL A   1      27.574  28.645  23.260  1.00  0.00     0.161 C 
ATOM     24  C   UNL A   1      28.846  30.801  23.081  1.00  0.00     0.037 C 
ATOM     25  C   UNL A   1      27.541  30.082  22.764  1.00  0.00     0.031 C 
BRANCH  22  26
ATOM     26  O   UNL A   1      30.006  30.064  21.112  1.00  0.00    -0.390 OA
ATOM     27  H   UNL A   1      29.783  30.966  20.832  1.00  0.00     0.211 HD
ENDBRANCH  22  26
ENDBRANCH  11  15
ENDBRANCH   8   9
ENDBRANCH   6   8
ENDBRANCH   3   4
ENDBRANCH   2   3
ENDBRANCH   1   2
BRANCH   1  28
ATOM     28  C   UNL A   1      34.452  33.791  28.477  1.00  0.00     0.002 C 
BRANCH  28  29
ATOM     29  C   UNL A   1      33.204  34.558  28.917  1.00  0.00     0.021 C 
BRANCH  29  30
ATOM     30  C   UNL A   1      33.474  35.945  29.487  1.00  0.00     0.116 C 
BRANCH  30  31
ATOM     31  N   UNL A   1      32.553  36.297  30.557  1.00  0.00    -0.352 N 
ATOM     32  C   UNL A   1      32.570  35.904  31.873  1.00  0.00     0.251 C 
ATOM     33  H   UNL A   1      31.815  36.899  30.302  1.00  0.00     0.163 HD
ATOM     34  O   UNL A   1      31.627  36.163  32.614  1.00  0.00    -0.269 OA
BRANCH  32  35
ATOM     35  C   UNL A   1      33.727  35.141  32.386  1.00  0.00     0.039 A 
ATOM     36  C   UNL A   1      33.546  33.811  32.772  1.00  0.00     0.014 A 
ATOM     37  C   UNL A   1      34.991  35.732  32.461  1.00  0.00     0.014 A 
ATOM     38  C   UNL A   1      34.649  33.050  33.169  1.00  0.00     0.010 A 
ATOM     39  C   UNL A   1      36.098  34.954  32.787  1.00  0.00     0.010 A 
ATOM     40  C   UNL A   1      35.939  33.605  33.145  1.00  0.00    -0.014 A 
BRANCH  40  41
ATOM     41  C   UNL A   1      37.141  32.803  33.490  1.00  0.00     0.031 A 
ATOM     42  C   UNL A   1      37.891  33.089  34.763  1.00  0.00     0.074 A 
ATOM     43  C   UNL A   1      37.605  31.880  32.623  1.00  0.00     0.049 A 
ATOM     44  N   UNL A   1      39.027  32.593  35.182  1.00  0.00    -0.248 NA
ATOM     45  C   UNL A   1      37.301  34.086  35.671  1.00  0.00     0.031 C 
ATOM     46  C   UNL A   1      36.991  31.534  31.340  1.00  0.00     0.029 A 
ATOM     47  N   UNL A   1      38.718  31.078  32.683  1.00  0.00    -0.354 N 
ATOM     48  C   UNL A   1      39.299  33.236  36.384  1.00  0.00     0.074 A 
ATOM     49  C   UNL A   1      38.232  34.185  36.609  1.00  0.00     0.031 C 
ATOM     50  C   UNL A   1      37.727  30.584  30.740  1.00  0.00     0.029 A 
ATOM     51  C   UNL A   1      38.889  30.285  31.572  1.00  0.00     0.049 A 
ATOM     52  H   UNL A   1      39.337  31.071  33.449  1.00  0.00     0.167 HD
ATOM     53  C   UNL A   1      40.338  33.040  37.229  1.00  0.00     0.037 A 
ATOM     54  C   UNL A   1      39.881  29.431  31.252  1.00  0.00     0.037 A 
ATOM     55  C   UNL A   1      41.375  32.064  37.024  1.00  0.00     0.049 A 
ATOM     56  C   UNL A   1      41.027  29.243  32.211  1.00  0.00     0.074 A 
ATOM     57  C   UNL A   1      42.424  31.737  37.865  1.00  0.00     0.029 A 
ATOM     58  N   UNL A   1      41.494  31.261  35.901  1.00  0.00    -0.354 N 
ATOM     59  N   UNL A   1      41.229  29.801  33.379  1.00  0.00    -0.248 NA
ATOM     60  C   UNL A   1      42.082  28.302  31.806  1.00  0.00     0.031 C 
ATOM     61  C   UNL A   1      43.208  30.771  37.229  1.00  0.00     0.029 A 
ATOM     62  C   UNL A   1      42.616  30.457  36.016  1.00  0.00     0.049 A 
ATOM     63  H   UNL A   1      40.875  31.262  35.137  1.00  0.00     0.167 HD
ATOM     64  C   UNL A   1      42.407  29.249  33.865  1.00  0.00     0.074 A 
ATOM     65  C   UNL A   1      42.872  28.307  32.871  1.00  0.00     0.031 C 
ATOM     66  C   UNL A   1      43.048  29.500  35.033  1.00  0.00     0.037 A 
BRANCH  53  67
ATOM     67  C   UNL A   1      40.414  33.893  38.461  1.00  0.00     0.057 A 
ATOM     68  C   UNL A   1      39.760  33.539  39.647  1.00  0.00     0.134 A 
ATOM     69  C   UNL A   1      41.220  35.038  38.484  1.00  0.00     0.134 A 
ATOM     70  F   UNL A   1      38.965  32.459  39.690  1.00  0.00    -0.206 F 
ATOM     71  C   UNL A   1      39.895  34.301  40.809  1.00  0.00     0.040 A 
ATOM     72  C   UNL A   1      41.384  35.793  39.646  1.00  0.00     0.040 A 
ATOM     73  F   UNL A   1      41.880  35.429  37.383  1.00  0.00    -0.206 F 
ATOM     74  C   UNL A   1      40.718  35.425  40.813  1.00  0.00     0.006 A 
ENDBRANCH  53  67
BRANCH  54  75
ATOM     75  C   UNL A   1      39.850  28.681  29.969  1.00  0.00     0.057 A 
ATOM     76  C   UNL A   1      39.221  27.433  29.877  1.00  0.00     0.134 A 
ATOM     77  C   UNL A   1      40.494  29.162  28.823  1.00  0.00     0.134 A 
ATOM     78  F   UNL A   1      38.604  26.908  30.947  1.00  0.00    -0.206 F 
ATOM     79  C   UNL A   1      39.265  26.674  28.707  1.00  0.00     0.040 A 
ATOM     80  C   UNL A   1      40.521  28.427  27.635  1.00  0.00     0.040 A 
ATOM     81  F   UNL A   1      41.110  30.353  28.839  1.00  0.00    -0.206 F 
ATOM     82  C   UNL A   1      39.917  27.172  27.580  1.00  0.00     0.006 A 
ENDBRANCH  54  75
BRANCH  66  83
ATOM     83  C   UNL A   1      44.282  28.702  35.334  1.00  0.00     0.057 A 
ATOM     84  C   UNL A   1      45.561  29.146  34.977  1.00  0.00     0.134 A 
ATOM     85  C   UNL A   1      44.189  27.497  36.044  1.00  0.00     0.134 A 
ATOM     86  F   UNL A   1      45.717  30.285  34.286  1.00  0.00    -0.206 F 
ATOM     87  C   UNL A   1      46.703  28.412  35.301  1.00  0.00     0.040 A 
ATOM     88  C   UNL A   1      45.325  26.769  36.398  1.00  0.00     0.040 A 
ATOM     89  F   UNL A   1      42.994  27.020  36.424  1.00  0.00    -0.206 F 
ATOM     90  C   UNL A   1      46.587  27.224  36.021  1.00  0.00     0.006 A 
ENDBRANCH  66  83
ENDBRANCH  40  41
ENDBRANCH  32  35
ENDBRANCH  30  31
ENDBRANCH  29  30
ENDBRANCH  28  29
ENDBRANCH   1  28
TORSDOF 16
ENDMDL
MODEL 3
REMARK VINA RESULT:     -11.3      5.016     10.256
REMARK SMILES O=C(Cc1cncnc1N1CCC2(CC1)OCCC[C@@H]2O)NCCCCCCNC(=O)c1ccc(-c2c3nc(c(-c4c(F)cccc4F)c4ccc([nH]4)c(-c4c(F)cccc4F)c4nc(c(-c5c(F)cccc5F)c5ccc2[nH]5)C=C4)C=C3)cc1
REMARK SMILES IDX 25 1 24 2 23 3 22 4 1 5 2 6 3 8 4 9 5 10 9 11 6 12 8 13 7 14
REMARK SMILES IDX 10 15 11 16 15 17 12 18 14 19 13 20 16 21 20 22 17 23 19 24
REMARK SMILES IDX 18 25 21 26 26 28 27 29 28 30 29 31 30 32 31 34 32 35 33 36
REMARK SMILES IDX 85 37 34 38 84 39 35 40 36 41 37 42 78 43 38 44 83 45 77 46
REMARK SMILES IDX 79 47 39 48 82 49 76 50 75 51 40 53 66 54 49 55 65 56 50 57
REMARK SMILES IDX 53 58 64 59 80 60 51 61 52 62 63 64 81 65 54 66 41 67 42 68
REMARK SMILES IDX 47 69 43 70 44 71 46 72 48 73 45 74 67 75 68 76 73 77 69 78
REMARK SMILES IDX 70 79 72 80 74 81 71 82 55 83 56 84 61 85 57 86 58 87 60 88
REMARK SMILES IDX 62 89 59 90
REMARK H PARENT 22 7 21 27 29 33 79 52 53 63
REMARK Flexibility Score: inf
ROOT
ATOM      1  C   UNL A   1      36.799  21.967  24.107  1.00  0.00     0.002 C 
ENDROOT
BRANCH   1   2
ATOM      2  C   UNL A   1      37.048  23.256  24.902  1.00  0.00     0.021 C 
BRANCH   2   3
ATOM      3  C   UNL A   1      36.163  23.421  26.136  1.00  0.00     0.116 C 
BRANCH   3   4
ATOM      4  N   UNL A   1      34.772  23.194  25.813  1.00  0.00    -0.356 N 
ATOM      5  O   UNL A   1      34.140  22.553  27.924  1.00  0.00    -0.275 OA
ATOM      6  C   UNL A   1      33.863  22.750  26.745  1.00  0.00     0.224 C 
ATOM      7  H   UNL A   1      34.464  23.365  24.894  1.00  0.00     0.163 HD
BRANCH   6   8
ATOM      8  C   UNL A   1      32.492  22.457  26.184  1.00  0.00     0.141 C 
BRANCH   8   9
ATOM      9  C   UNL A   1      32.433  21.652  24.912  1.00  0.00     0.022 A 
ATOM     10  C   UNL A   1      32.565  20.275  24.879  1.00  0.00     0.121 A 
ATOM     11  C   UNL A   1      32.206  22.268  23.679  1.00  0.00     0.135 A 
ATOM     12  N   UNL A   1      32.428  19.535  23.766  1.00  0.00    -0.244 NA
ATOM     13  N   UNL A   1      32.038  21.554  22.552  1.00  0.00    -0.219 NA
ATOM     14  C   UNL A   1      32.165  20.224  22.650  1.00  0.00     0.224 A 
BRANCH  11  15
ATOM     15  N   UNL A   1      32.093  23.646  23.605  1.00  0.00    -0.356 N 
ATOM     16  C   UNL A   1      30.772  24.252  23.627  1.00  0.00     0.121 C 
ATOM     17  C   UNL A   1      33.056  24.378  22.784  1.00  0.00     0.121 C 
ATOM     18  C   UNL A   1      30.916  25.605  24.333  1.00  0.00     0.060 C 
ATOM     19  C   UNL A   1      33.315  25.710  23.478  1.00  0.00     0.060 C 
ATOM     20  C   UNL A   1      32.005  26.508  23.690  1.00  0.00     0.097 C 
ATOM     21  O   UNL A   1      31.598  26.937  22.373  1.00  0.00    -0.372 OA
ATOM     22  C   UNL A   1      32.297  27.735  24.608  1.00  0.00     0.146 C 
ATOM     23  C   UNL A   1      30.522  27.868  22.321  1.00  0.00     0.161 C 
ATOM     24  C   UNL A   1      31.143  28.735  24.593  1.00  0.00     0.037 C 
ATOM     25  C   UNL A   1      30.788  29.109  23.159  1.00  0.00     0.031 C 
BRANCH  22  26
ATOM     26  O   UNL A   1      33.486  28.413  24.181  1.00  0.00    -0.390 OA
ATOM     27  H   UNL A   1      33.478  29.323  24.520  1.00  0.00     0.211 HD
ENDBRANCH  22  26
ENDBRANCH  11  15
ENDBRANCH   8   9
ENDBRANCH   6   8
ENDBRANCH   3   4
ENDBRANCH   2   3
ENDBRANCH   1   2
BRANCH   1  28
ATOM     28  C   UNL A   1      36.703  20.690  24.948  1.00  0.00     0.002 C 
BRANCH  28  29
ATOM     29  C   UNL A   1      37.938  19.789  24.896  1.00  0.00     0.021 C 
BRANCH  29  30
ATOM     30  C   UNL A   1      39.082  20.222  25.805  1.00  0.00     0.116 C 
BRANCH  30  31
ATOM     31  N   UNL A   1      40.172  19.258  25.826  1.00  0.00    -0.352 N 
ATOM     32  C   UNL A   1      41.503  19.469  26.090  1.00  0.00     0.251 C 
ATOM     33  H   UNL A   1      39.920  18.327  25.623  1.00  0.00     0.163 HD
ATOM     34  O   UNL A   1      42.324  18.575  25.911  1.00  0.00    -0.269 OA
BRANCH  32  35
ATOM     35  C   UNL A   1      41.946  20.796  26.567  1.00  0.00     0.039 A 
ATOM     36  C   UNL A   1      42.379  21.743  25.637  1.00  0.00     0.014 A 
ATOM     37  C   UNL A   1      41.908  21.110  27.928  1.00  0.00     0.014 A 
ATOM     38  C   UNL A   1      42.710  23.031  26.065  1.00  0.00     0.010 A 
ATOM     39  C   UNL A   1      42.168  22.412  28.344  1.00  0.00     0.010 A 
ATOM     40  C   UNL A   1      42.572  23.387  27.417  1.00  0.00    -0.014 A 
BRANCH  40  41
ATOM     41  C   UNL A   1      42.845  24.767  27.893  1.00  0.00     0.031 A 
ATOM     42  C   UNL A   1      44.243  25.158  28.293  1.00  0.00     0.074 A 
ATOM     43  C   UNL A   1      41.828  25.639  28.047  1.00  0.00     0.049 A 
ATOM     44  N   UNL A   1      44.664  26.265  28.850  1.00  0.00    -0.248 NA
ATOM     45  C   UNL A   1      45.302  24.162  28.063  1.00  0.00     0.031 C 
ATOM     46  C   UNL A   1      40.424  25.371  27.731  1.00  0.00     0.029 A 
ATOM     47  N   UNL A   1      41.818  26.924  28.532  1.00  0.00    -0.354 N 
ATOM     48  C   UNL A   1      46.026  26.087  29.061  1.00  0.00     0.074 A 
ATOM     49  C   UNL A   1      46.355  24.754  28.608  1.00  0.00     0.031 C 
ATOM     50  C   UNL A   1      39.692  26.460  28.018  1.00  0.00     0.029 A 
ATOM     51  C   UNL A   1      40.564  27.487  28.580  1.00  0.00     0.049 A 
ATOM     52  H   UNL A   1      42.631  27.399  28.818  1.00  0.00     0.167 HD
ATOM     53  C   UNL A   1      46.922  26.963  29.572  1.00  0.00     0.037 A 
ATOM     54  C   UNL A   1      40.161  28.685  29.046  1.00  0.00     0.037 A 
ATOM     55  C   UNL A   1      46.600  28.304  29.980  1.00  0.00     0.049 A 
ATOM     56  C   UNL A   1      41.183  29.634  29.616  1.00  0.00     0.074 A 
ATOM     57  C   UNL A   1      47.457  29.292  30.434  1.00  0.00     0.029 A 
ATOM     58  N   UNL A   1      45.324  28.844  29.985  1.00  0.00    -0.354 N 
ATOM     59  N   UNL A   1      42.478  29.479  29.737  1.00  0.00    -0.248 NA
ATOM     60  C   UNL A   1      40.685  30.925  30.113  1.00  0.00     0.031 C 
ATOM     61  C   UNL A   1      46.692  30.415  30.762  1.00  0.00     0.029 A 
ATOM     62  C   UNL A   1      45.367  30.144  30.460  1.00  0.00     0.049 A 
ATOM     63  H   UNL A   1      44.510  28.375  29.695  1.00  0.00     0.167 HD
ATOM     64  C   UNL A   1      42.953  30.666  30.281  1.00  0.00     0.074 A 
ATOM     65  C   UNL A   1      41.810  31.533  30.461  1.00  0.00     0.031 C 
ATOM     66  C   UNL A   1      44.224  31.007  30.603  1.00  0.00     0.037 A 
BRANCH  53  67
ATOM     67  C   UNL A   1      48.345  26.509  29.720  1.00  0.00     0.057 A 
ATOM     68  C   UNL A   1      49.311  26.773  28.743  1.00  0.00     0.134 A 
ATOM     69  C   UNL A   1      48.769  25.873  30.894  1.00  0.00     0.134 A 
ATOM     70  F   UNL A   1      48.970  27.371  27.591  1.00  0.00    -0.206 F 
ATOM     71  C   UNL A   1      50.647  26.410  28.922  1.00  0.00     0.040 A 
ATOM     72  C   UNL A   1      50.106  25.529  31.096  1.00  0.00     0.040 A 
ATOM     73  F   UNL A   1      47.894  25.596  31.873  1.00  0.00    -0.206 F 
ATOM     74  C   UNL A   1      51.050  25.796  30.107  1.00  0.00     0.006 A 
ENDBRANCH  53  67
BRANCH  54  75
ATOM     75  C   UNL A   1      38.727  29.073  29.001  1.00  0.00     0.057 A 
ATOM     76  C   UNL A   1      38.153  29.581  27.828  1.00  0.00     0.134 A 
ATOM     77  C   UNL A   1      37.911  29.000  30.136  1.00  0.00     0.134 A 
ATOM     78  F   UNL A   1      38.887  29.694  26.712  1.00  0.00    -0.206 F 
ATOM     79  C   UNL A   1      36.834  30.037  27.796  1.00  0.00     0.040 A 
ATOM     80  C   UNL A   1      36.581  29.426  30.111  1.00  0.00     0.040 A 
ATOM     81  F   UNL A   1      38.395  28.517  31.290  1.00  0.00    -0.206 F 
ATOM     82  C   UNL A   1      36.044  29.959  28.941  1.00  0.00     0.006 A 
ENDBRANCH  54  75
BRANCH  66  83
ATOM     83  C   UNL A   1      44.462  32.396  31.120  1.00  0.00     0.057 A 
ATOM     84  C   UNL A   1      44.470  32.688  32.489  1.00  0.00     0.134 A 
ATOM     85  C   UNL A   1      44.743  33.443  30.232  1.00  0.00     0.134 A 
ATOM     86  F   UNL A   1      44.197  31.733  33.390  1.00  0.00    -0.206 F 
ATOM     87  C   UNL A   1      44.733  33.977  32.957  1.00  0.00     0.040 A 
ATOM     88  C   UNL A   1      45.035  34.728  30.688  1.00  0.00     0.040 A 
ATOM     89  F   UNL A   1      44.760  33.227  28.908  1.00  0.00    -0.206 F 
ATOM     90  C   UNL A   1      45.025  34.999  32.055  1.00  0.00     0.006 A 
ENDBRANCH  66  83
ENDBRANCH  40  41
ENDBRANCH  32  35
ENDBRANCH  30  31
ENDBRANCH  29  30
ENDBRANCH  28  29
ENDBRANCH   1  28
TORSDOF 16
ENDMDL
