MODEL 1
REMARK VINA RESULT:     -10.7      0.000      0.000
REMARK SMILES CC[C@](C)(NC(=O)N1CCC[C@@H]1C)C(=O)NCCCCCCNC(=O)c1ccc(-c2c3nc(c(-c4c(F)cccc4F)c4ccc([nH]4)c(-c4c(F)cccc4F)c4nc(c(-c5c(F)cccc5F)c5ccc2[nH]5)C=C4)C=C3)cc1
REMARK SMILES IDX 19 1 18 2 17 3 16 4 14 5 15 6 3 8 4 9 2 10 1 11 5 12 6 13
REMARK SMILES IDX 7 15 8 16 9 17 12 18 10 19 11 20 13 21 20 22 21 23 22 24
REMARK SMILES IDX 23 25 24 26 25 28 26 29 27 30 79 31 28 32 78 33 29 34 30 35
REMARK SMILES IDX 31 36 72 37 32 38 77 39 71 40 73 41 33 42 76 43 70 44 69 45
REMARK SMILES IDX 34 47 60 48 43 49 59 50 44 51 47 52 58 53 74 54 45 55 46 56
REMARK SMILES IDX 57 58 75 59 48 60 35 61 36 62 41 63 37 64 38 65 40 66 42 67
REMARK SMILES IDX 39 68 61 69 62 70 67 71 63 72 64 73 66 74 68 75 65 76 49 77
REMARK SMILES IDX 50 78 55 79 51 80 52 81 54 82 56 83 53 84
REMARK H PARENT 16 7 5 14 23 27 73 46 47 57
REMARK Flexibility Score: inf
ROOT
ATOM      1  C   UNL A   1      32.112  29.611  25.118  1.00  0.00     0.002 C 
ENDROOT
BRANCH   1   2
ATOM      2  C   UNL A   1      30.895  29.305  24.246  1.00  0.00     0.021 C 
BRANCH   2   3
ATOM      3  C   UNL A   1      30.894  28.127  23.257  1.00  0.00     0.116 C 
BRANCH   3   4
ATOM      4  N   UNL A   1      32.065  27.824  22.437  1.00  0.00    -0.354 N 
ATOM      5  C   UNL A   1      32.953  26.776  22.356  1.00  0.00     0.245 C 
ATOM      6  O   UNL A   1      33.748  26.791  21.410  1.00  0.00    -0.272 OA
ATOM      7  H   UNL A   1      32.267  28.540  21.790  1.00  0.00     0.163 HD
BRANCH   5   8
ATOM      8  C   UNL A   1      32.870  25.564  23.301  1.00  0.00     0.117 C 
ATOM      9  C   UNL A   1      31.498  24.879  23.391  1.00  0.00     0.045 C 
BRANCH   8  10
ATOM     10  C   UNL A   1      33.238  26.120  24.727  1.00  0.00     0.035 C 
ATOM     11  C   UNL A   1      32.246  25.789  25.846  1.00  0.00     0.007 C 
ENDBRANCH   8  10
BRANCH   8  12
ATOM     12  N   UNL A   1      33.859  24.568  22.871  1.00  0.00    -0.324 N 
ATOM     13  C   UNL A   1      34.535  23.543  23.404  1.00  0.00     0.318 C 
ATOM     14  H   UNL A   1      34.091  24.688  21.921  1.00  0.00     0.166 HD
ATOM     15  O   UNL A   1      35.503  23.215  22.700  1.00  0.00    -0.249 OA
BRANCH  13  16
ATOM     16  N   UNL A   1      34.262  22.872  24.557  1.00  0.00    -0.322 N 
ATOM     17  C   UNL A   1      35.293  23.015  25.585  1.00  0.00     0.122 C 
ATOM     18  C   UNL A   1      33.121  22.105  25.143  1.00  0.00     0.083 C 
ATOM     19  C   UNL A   1      34.551  22.957  26.902  1.00  0.00     0.024 C 
ATOM     20  C   UNL A   1      33.513  21.900  26.628  1.00  0.00     0.027 C 
ATOM     21  C   UNL A   1      32.844  20.686  24.644  1.00  0.00     0.031 C 
ENDBRANCH  13  16
ENDBRANCH   8  12
ENDBRANCH   5   8
ENDBRANCH   3   4
ENDBRANCH   2   3
ENDBRANCH   1   2
BRANCH   1  22
ATOM     22  C   UNL A   1      31.832  30.171  26.510  1.00  0.00     0.002 C 
BRANCH  22  23
ATOM     23  C   UNL A   1      31.629  31.682  26.543  1.00  0.00     0.021 C 
BRANCH  23  24
ATOM     24  C   UNL A   1      32.745  32.454  27.234  1.00  0.00     0.116 C 
BRANCH  24  25
ATOM     25  N   UNL A   1      32.384  33.831  27.543  1.00  0.00    -0.352 N 
ATOM     26  C   UNL A   1      32.992  34.684  28.433  1.00  0.00     0.251 C 
ATOM     27  H   UNL A   1      31.611  34.196  27.054  1.00  0.00     0.163 HD
ATOM     28  O   UNL A   1      32.506  35.780  28.698  1.00  0.00    -0.269 OA
BRANCH  26  29
ATOM     29  C   UNL A   1      34.230  34.239  29.104  1.00  0.00     0.039 A 
ATOM     30  C   UNL A   1      34.139  33.471  30.265  1.00  0.00     0.014 A 
ATOM     31  C   UNL A   1      35.475  34.515  28.528  1.00  0.00     0.014 A 
ATOM     32  C   UNL A   1      35.297  32.917  30.810  1.00  0.00     0.010 A 
ATOM     33  C   UNL A   1      36.612  33.886  29.019  1.00  0.00     0.010 A 
ATOM     34  C   UNL A   1      36.537  33.086  30.168  1.00  0.00    -0.014 A 
BRANCH  34  35
ATOM     35  C   UNL A   1      37.760  32.426  30.690  1.00  0.00     0.031 A 
ATOM     36  C   UNL A   1      38.420  32.938  31.938  1.00  0.00     0.074 A 
ATOM     37  C   UNL A   1      38.300  31.397  30.008  1.00  0.00     0.049 A 
ATOM     38  N   UNL A   1      39.478  32.481  32.560  1.00  0.00    -0.248 NA
ATOM     39  C   UNL A   1      37.838  34.140  32.554  1.00  0.00     0.031 C 
ATOM     40  C   UNL A   1      37.794  30.861  28.742  1.00  0.00     0.029 A 
ATOM     41  N   UNL A   1      39.390  30.614  30.288  1.00  0.00    -0.354 N 
ATOM     42  C   UNL A   1      39.693  33.347  33.625  1.00  0.00     0.074 A 
ATOM     43  C   UNL A   1      38.698  34.392  33.528  1.00  0.00     0.031 C 
ATOM     44  C   UNL A   1      38.540  29.803  28.384  1.00  0.00     0.029 A 
ATOM     45  C   UNL A   1      39.591  29.606  29.376  1.00  0.00     0.049 A 
ATOM     46  H   UNL A   1      39.972  30.758  31.068  1.00  0.00     0.167 HD
ATOM     47  C   UNL A   1      40.616  33.263  34.612  1.00  0.00     0.037 A 
ATOM     48  C   UNL A   1      40.510  28.623  29.355  1.00  0.00     0.037 A 
ATOM     49  C   UNL A   1      41.584  32.203  34.718  1.00  0.00     0.049 A 
ATOM     50  C   UNL A   1      41.510  28.536  30.475  1.00  0.00     0.074 A 
ATOM     51  C   UNL A   1      42.509  31.975  35.721  1.00  0.00     0.029 A 
ATOM     52  N   UNL A   1      41.755  31.196  33.779  1.00  0.00    -0.354 N 
ATOM     53  N   UNL A   1      41.641  29.302  31.530  1.00  0.00    -0.248 NA
ATOM     54  C   UNL A   1      42.485  27.440  30.402  1.00  0.00     0.031 C 
ATOM     55  C   UNL A   1      43.273  30.858  35.364  1.00  0.00     0.029 A 
ATOM     56  C   UNL A   1      42.790  30.360  34.164  1.00  0.00     0.049 A 
ATOM     57  H   UNL A   1      41.219  31.091  32.959  1.00  0.00     0.167 HD
ATOM     58  C   UNL A   1      42.694  28.770  32.260  1.00  0.00     0.074 A 
ATOM     59  C   UNL A   1      43.152  27.600  31.536  1.00  0.00     0.031 C 
ATOM     60  C   UNL A   1      43.237  29.207  33.423  1.00  0.00     0.037 A 
BRANCH  47  61
ATOM     61  C   UNL A   1      40.615  34.349  35.650  1.00  0.00     0.057 A 
ATOM     62  C   UNL A   1      41.366  35.523  35.498  1.00  0.00     0.134 A 
ATOM     63  C   UNL A   1      39.848  34.222  36.815  1.00  0.00     0.134 A 
ATOM     64  F   UNL A   1      42.133  35.704  34.413  1.00  0.00    -0.206 F 
ATOM     65  C   UNL A   1      41.385  36.513  36.482  1.00  0.00     0.040 A 
ATOM     66  C   UNL A   1      39.835  35.219  37.793  1.00  0.00     0.040 A 
ATOM     67  F   UNL A   1      39.101  33.129  37.024  1.00  0.00    -0.206 F 
ATOM     68  C   UNL A   1      40.613  36.364  37.633  1.00  0.00     0.006 A 
ENDBRANCH  47  61
BRANCH  48  69
ATOM     69  C   UNL A   1      40.492  27.607  28.272  1.00  0.00     0.057 A 
ATOM     70  C   UNL A   1      41.170  27.830  27.067  1.00  0.00     0.134 A 
ATOM     71  C   UNL A   1      39.803  26.396  28.409  1.00  0.00     0.134 A 
ATOM     72  F   UNL A   1      41.834  28.978  26.869  1.00  0.00    -0.206 F 
ATOM     73  C   UNL A   1      41.150  26.895  26.031  1.00  0.00     0.040 A 
ATOM     74  C   UNL A   1      39.794  25.442  27.389  1.00  0.00     0.040 A 
ATOM     75  F   UNL A   1      39.141  26.117  29.541  1.00  0.00    -0.206 F 
ATOM     76  C   UNL A   1      40.464  25.694  26.194  1.00  0.00     0.006 A 
ENDBRANCH  48  69
BRANCH  60  77
ATOM     77  C   UNL A   1      44.373  28.403  33.986  1.00  0.00     0.057 A 
ATOM     78  C   UNL A   1      44.155  27.309  34.832  1.00  0.00     0.134 A 
ATOM     79  C   UNL A   1      45.700  28.724  33.670  1.00  0.00     0.134 A 
ATOM     80  F   UNL A   1      42.909  26.958  35.184  1.00  0.00    -0.206 F 
ATOM     81  C   UNL A   1      45.218  26.584  35.374  1.00  0.00     0.040 A 
ATOM     82  C   UNL A   1      46.769  27.987  34.181  1.00  0.00     0.040 A 
ATOM     83  F   UNL A   1      45.978  29.753  32.856  1.00  0.00    -0.206 F 
ATOM     84  C   UNL A   1      46.530  26.920  35.044  1.00  0.00     0.006 A 
ENDBRANCH  60  77
ENDBRANCH  34  35
ENDBRANCH  26  29
ENDBRANCH  24  25
ENDBRANCH  23  24
ENDBRANCH  22  23
ENDBRANCH   1  22
TORSDOF 16
ENDMDL
MODEL 2
REMARK VINA RESULT:     -10.7      0.445      1.670
REMARK SMILES CC[C@](C)(NC(=O)N1CCC[C@@H]1C)C(=O)NCCCCCCNC(=O)c1ccc(-c2c3nc(c(-c4c(F)cccc4F)c4ccc([nH]4)c(-c4c(F)cccc4F)c4nc(c(-c5c(F)cccc5F)c5ccc2[nH]5)C=C4)C=C3)cc1
REMARK SMILES IDX 19 1 18 2 17 3 16 4 14 5 15 6 3 8 4 9 2 10 1 11 5 12 6 13
REMARK SMILES IDX 7 15 8 16 9 17 12 18 10 19 11 20 13 21 20 22 21 23 22 24
REMARK SMILES IDX 23 25 24 26 25 28 26 29 27 30 79 31 28 32 78 33 29 34 30 35
REMARK SMILES IDX 31 36 72 37 32 38 77 39 71 40 73 41 33 42 76 43 70 44 69 45
REMARK SMILES IDX 34 47 60 48 43 49 59 50 44 51 47 52 58 53 74 54 45 55 46 56
REMARK SMILES IDX 57 58 75 59 48 60 35 61 36 62 41 63 37 64 38 65 40 66 42 67
REMARK SMILES IDX 39 68 61 69 62 70 67 71 63 72 64 73 66 74 68 75 65 76 49 77
REMARK SMILES IDX 50 78 55 79 51 80 52 81 54 82 56 83 53 84
REMARK H PARENT 16 7 5 14 23 27 73 46 47 57
REMARK Flexibility Score: inf
ROOT
ATOM      1  C   UNL A   1      32.100  29.893  25.268  1.00  0.00     0.002 C 
ENDROOT
BRANCH   1   2
ATOM      2  C   UNL A   1      30.862  29.658  24.403  1.00  0.00     0.021 C 
BRANCH   2   3
ATOM      3  C   UNL A   1      30.880  28.660  23.232  1.00  0.00     0.116 C 
BRANCH   3   4
ATOM      4  N   UNL A   1      32.121  28.340  22.529  1.00  0.00    -0.354 N 
ATOM      5  C   UNL A   1      33.015  27.295  22.559  1.00  0.00     0.245 C 
ATOM      6  O   UNL A   1      33.891  27.285  21.687  1.00  0.00    -0.272 OA
ATOM      7  H   UNL A   1      32.377  29.036  21.880  1.00  0.00     0.163 HD
BRANCH   5   8
ATOM      8  C   UNL A   1      32.852  26.112  23.531  1.00  0.00     0.117 C 
ATOM      9  C   UNL A   1      31.406  25.721  23.871  1.00  0.00     0.045 C 
BRANCH   8  10
ATOM     10  C   UNL A   1      33.568  26.560  24.859  1.00  0.00     0.035 C 
ATOM     11  C   UNL A   1      32.732  26.443  26.137  1.00  0.00     0.007 C 
ENDBRANCH   8  10
BRANCH   8  12
ATOM     12  N   UNL A   1      33.527  24.940  22.959  1.00  0.00    -0.324 N 
ATOM     13  C   UNL A   1      34.085  23.804  23.392  1.00  0.00     0.318 C 
ATOM     14  H   UNL A   1      33.588  25.012  21.978  1.00  0.00     0.166 HD
ATOM     15  O   UNL A   1      34.815  23.291  22.528  1.00  0.00    -0.249 OA
BRANCH  13  16
ATOM     16  N   UNL A   1      33.919  23.200  24.601  1.00  0.00    -0.322 N 
ATOM     17  C   UNL A   1      35.172  22.931  25.306  1.00  0.00     0.122 C 
ATOM     18  C   UNL A   1      32.787  22.830  25.503  1.00  0.00     0.083 C 
ATOM     19  C   UNL A   1      34.835  23.052  26.775  1.00  0.00     0.024 C 
ATOM     20  C   UNL A   1      33.468  22.423  26.834  1.00  0.00     0.027 C 
ATOM     21  C   UNL A   1      31.923  21.617  25.154  1.00  0.00     0.031 C 
ENDBRANCH  13  16
ENDBRANCH   8  12
ENDBRANCH   5   8
ENDBRANCH   3   4
ENDBRANCH   2   3
ENDBRANCH   1   2
BRANCH   1  22
ATOM     22  C   UNL A   1      31.854  30.362  26.699  1.00  0.00     0.002 C 
BRANCH  22  23
ATOM     23  C   UNL A   1      31.571  31.856  26.823  1.00  0.00     0.021 C 
BRANCH  23  24
ATOM     24  C   UNL A   1      32.744  32.680  27.337  1.00  0.00     0.116 C 
BRANCH  24  25
ATOM     25  N   UNL A   1      32.382  34.054  27.659  1.00  0.00    -0.352 N 
ATOM     26  C   UNL A   1      32.981  34.893  28.569  1.00  0.00     0.251 C 
ATOM     27  H   UNL A   1      31.615  34.427  27.167  1.00  0.00     0.163 HD
ATOM     28  O   UNL A   1      32.493  35.986  28.842  1.00  0.00    -0.269 OA
BRANCH  26  29
ATOM     29  C   UNL A   1      34.209  34.437  29.248  1.00  0.00     0.039 A 
ATOM     30  C   UNL A   1      34.105  33.765  30.467  1.00  0.00     0.014 A 
ATOM     31  C   UNL A   1      35.453  34.603  28.629  1.00  0.00     0.014 A 
ATOM     32  C   UNL A   1      35.246  33.194  31.031  1.00  0.00     0.010 A 
ATOM     33  C   UNL A   1      36.568  33.954  29.146  1.00  0.00     0.010 A 
ATOM     34  C   UNL A   1      36.478  33.249  30.355  1.00  0.00    -0.014 A 
BRANCH  34  35
ATOM     35  C   UNL A   1      37.678  32.568  30.903  1.00  0.00     0.031 A 
ATOM     36  C   UNL A   1      38.301  33.049  32.183  1.00  0.00     0.074 A 
ATOM     37  C   UNL A   1      38.231  31.548  30.218  1.00  0.00     0.049 A 
ATOM     38  N   UNL A   1      39.334  32.570  32.829  1.00  0.00    -0.248 NA
ATOM     39  C   UNL A   1      37.709  34.244  32.804  1.00  0.00     0.031 C 
ATOM     40  C   UNL A   1      37.763  31.042  28.926  1.00  0.00     0.029 A 
ATOM     41  N   UNL A   1      39.305  30.749  30.518  1.00  0.00    -0.354 N 
ATOM     42  C   UNL A   1      39.521  33.412  33.918  1.00  0.00     0.074 A 
ATOM     43  C   UNL A   1      38.539  34.468  33.809  1.00  0.00     0.031 C 
ATOM     44  C   UNL A   1      38.511  29.984  28.572  1.00  0.00     0.029 A 
ATOM     45  C   UNL A   1      39.528  29.758  29.593  1.00  0.00     0.049 A 
ATOM     46  H   UNL A   1      39.863  30.873  31.320  1.00  0.00     0.167 HD
ATOM     47  C   UNL A   1      40.410  33.300  34.933  1.00  0.00     0.037 A 
ATOM     48  C   UNL A   1      40.439  28.768  29.582  1.00  0.00     0.037 A 
ATOM     49  C   UNL A   1      41.366  32.230  35.049  1.00  0.00     0.049 A 
ATOM     50  C   UNL A   1      41.401  28.650  30.732  1.00  0.00     0.074 A 
ATOM     51  C   UNL A   1      42.255  31.974  36.077  1.00  0.00     0.029 A 
ATOM     52  N   UNL A   1      41.558  31.241  34.096  1.00  0.00    -0.354 N 
ATOM     53  N   UNL A   1      41.503  29.394  31.806  1.00  0.00    -0.248 NA
ATOM     54  C   UNL A   1      42.368  27.546  30.670  1.00  0.00     0.031 C 
ATOM     55  C   UNL A   1      43.021  30.857  35.723  1.00  0.00     0.029 A 
ATOM     56  C   UNL A   1      42.574  30.388  34.497  1.00  0.00     0.049 A 
ATOM     57  H   UNL A   1      41.049  31.157  33.257  1.00  0.00     0.167 HD
ATOM     58  C   UNL A   1      42.527  28.837  32.560  1.00  0.00     0.074 A 
ATOM     59  C   UNL A   1      42.998  27.678  31.828  1.00  0.00     0.031 C 
ATOM     60  C   UNL A   1      43.035  29.246  33.749  1.00  0.00     0.037 A 
BRANCH  47  61
ATOM     61  C   UNL A   1      40.384  34.366  35.992  1.00  0.00     0.057 A 
ATOM     62  C   UNL A   1      39.573  34.262  37.130  1.00  0.00     0.134 A 
ATOM     63  C   UNL A   1      41.183  35.510  35.874  1.00  0.00     0.134 A 
ATOM     64  F   UNL A   1      38.771  33.200  37.300  1.00  0.00    -0.206 F 
ATOM     65  C   UNL A   1      39.529  35.272  38.093  1.00  0.00     0.040 A 
ATOM     66  C   UNL A   1      41.171  36.513  36.845  1.00  0.00     0.040 A 
ATOM     67  F   UNL A   1      41.988  35.673  34.814  1.00  0.00    -0.206 F 
ATOM     68  C   UNL A   1      40.335  36.401  37.953  1.00  0.00     0.006 A 
ENDBRANCH  47  61
BRANCH  48  69
ATOM     69  C   UNL A   1      40.448  27.774  28.479  1.00  0.00     0.057 A 
ATOM     70  C   UNL A   1      39.739  26.571  28.589  1.00  0.00     0.134 A 
ATOM     71  C   UNL A   1      41.157  27.997  27.293  1.00  0.00     0.134 A 
ATOM     72  F   UNL A   1      39.053  26.293  29.708  1.00  0.00    -0.206 F 
ATOM     73  C   UNL A   1      39.750  25.618  27.571  1.00  0.00     0.040 A 
ATOM     74  C   UNL A   1      41.157  27.062  26.255  1.00  0.00     0.040 A 
ATOM     75  F   UNL A   1      41.849  29.133  27.120  1.00  0.00    -0.206 F 
ATOM     76  C   UNL A   1      40.457  25.865  26.396  1.00  0.00     0.006 A 
ENDBRANCH  48  69
BRANCH  60  77
ATOM     77  C   UNL A   1      44.146  28.421  34.332  1.00  0.00     0.057 A 
ATOM     78  C   UNL A   1      45.492  28.716  34.086  1.00  0.00     0.134 A 
ATOM     79  C   UNL A   1      43.863  27.323  35.154  1.00  0.00     0.134 A 
ATOM     80  F   UNL A   1      45.831  29.746  33.296  1.00  0.00    -0.206 F 
ATOM     81  C   UNL A   1      46.518  27.927  34.610  1.00  0.00     0.040 A 
ATOM     82  C   UNL A   1      44.881  26.545  35.707  1.00  0.00     0.040 A 
ATOM     83  F   UNL A   1      42.594  26.992  35.438  1.00  0.00    -0.206 F 
ATOM     84  C   UNL A   1      46.213  26.840  35.427  1.00  0.00     0.006 A 
ENDBRANCH  60  77
ENDBRANCH  34  35
ENDBRANCH  26  29
ENDBRANCH  24  25
ENDBRANCH  23  24
ENDBRANCH  22  23
ENDBRANCH   1  22
TORSDOF 16
ENDMDL
MODEL 3
REMARK VINA RESULT:     -10.6      0.839      6.292
REMARK SMILES CC[C@](C)(NC(=O)N1CCC[C@@H]1C)C(=O)NCCCCCCNC(=O)c1ccc(-c2c3nc(c(-c4c(F)cccc4F)c4ccc([nH]4)c(-c4c(F)cccc4F)c4nc(c(-c5c(F)cccc5F)c5ccc2[nH]5)C=C4)C=C3)cc1
REMARK SMILES IDX 19 1 18 2 17 3 16 4 14 5 15 6 3 8 4 9 2 10 1 11 5 12 6 13
REMARK SMILES IDX 7 15 8 16 9 17 12 18 10 19 11 20 13 21 20 22 21 23 22 24
REMARK SMILES IDX 23 25 24 26 25 28 26 29 27 30 79 31 28 32 78 33 29 34 30 35
REMARK SMILES IDX 31 36 72 37 32 38 77 39 71 40 73 41 33 42 76 43 70 44 69 45
REMARK SMILES IDX 34 47 60 48 43 49 59 50 44 51 47 52 58 53 74 54 45 55 46 56
REMARK SMILES IDX 57 58 75 59 48 60 35 61 36 62 41 63 37 64 38 65 40 66 42 67
REMARK SMILES IDX 39 68 61 69 62 70 67 71 63 72 64 73 66 74 68 75 65 76 49 77
REMARK SMILES IDX 50 78 55 79 51 80 52 81 54 82 56 83 53 84
REMARK H PARENT 16 7 5 14 23 27 73 46 47 57
REMARK Flexibility Score: inf
ROOT
ATOM      1  C   UNL A   1      32.222  29.705  24.962  1.00  0.00     0.002 C 
ENDROOT
BRANCH   1   2
ATOM      2  C   UNL A   1      31.028  29.296  24.100  1.00  0.00     0.021 C 
BRANCH   2   3
ATOM      3  C   UNL A   1      31.006  27.952  23.350  1.00  0.00     0.116 C 
BRANCH   3   4
ATOM      4  N   UNL A   1      32.060  27.596  22.402  1.00  0.00    -0.354 N 
ATOM      5  C   UNL A   1      33.012  26.605  22.333  1.00  0.00     0.245 C 
ATOM      6  O   UNL A   1      33.650  26.517  21.277  1.00  0.00    -0.272 OA
ATOM      7  H   UNL A   1      32.097  28.209  21.632  1.00  0.00     0.163 HD
BRANCH   5   8
ATOM      8  C   UNL A   1      33.181  25.557  23.448  1.00  0.00     0.117 C 
ATOM      9  C   UNL A   1      31.890  24.868  23.917  1.00  0.00     0.045 C 
BRANCH   8  10
ATOM     10  C   UNL A   1      33.793  26.341  24.669  1.00  0.00     0.035 C 
ATOM     11  C   UNL A   1      32.994  26.269  25.973  1.00  0.00     0.007 C 
ENDBRANCH   8  10
BRANCH   8  12
ATOM     12  N   UNL A   1      34.116  24.526  22.983  1.00  0.00    -0.324 N 
ATOM     13  C   UNL A   1      34.760  23.467  23.487  1.00  0.00     0.318 C 
ATOM     14  H   UNL A   1      34.331  24.649  22.029  1.00  0.00     0.166 HD
ATOM     15  O   UNL A   1      35.697  23.107  22.756  1.00  0.00    -0.249 OA
BRANCH  13  16
ATOM     16  N   UNL A   1      34.486  22.794  24.639  1.00  0.00    -0.322 N 
ATOM     17  C   UNL A   1      35.293  23.220  25.782  1.00  0.00     0.122 C 
ATOM     18  C   UNL A   1      33.483  21.796  25.121  1.00  0.00     0.083 C 
ATOM     19  C   UNL A   1      34.401  23.033  26.989  1.00  0.00     0.024 C 
ATOM     20  C   UNL A   1      33.690  21.747  26.656  1.00  0.00     0.027 C 
ATOM     21  C   UNL A   1      33.621  20.334  24.692  1.00  0.00     0.031 C 
ENDBRANCH  13  16
ENDBRANCH   8  12
ENDBRANCH   5   8
ENDBRANCH   3   4
ENDBRANCH   2   3
ENDBRANCH   1   2
BRANCH   1  22
ATOM     22  C   UNL A   1      31.918  30.100  26.405  1.00  0.00     0.002 C 
BRANCH  22  23
ATOM     23  C   UNL A   1      31.633  31.586  26.596  1.00  0.00     0.021 C 
BRANCH  23  24
ATOM     24  C   UNL A   1      32.747  32.357  27.291  1.00  0.00     0.116 C 
BRANCH  24  25
ATOM     25  N   UNL A   1      32.439  33.769  27.474  1.00  0.00    -0.352 N 
ATOM     26  C   UNL A   1      32.997  34.645  28.375  1.00  0.00     0.251 C 
ATOM     27  H   UNL A   1      31.746  34.142  26.882  1.00  0.00     0.163 HD
ATOM     28  O   UNL A   1      32.551  35.781  28.517  1.00  0.00    -0.269 OA
BRANCH  26  29
ATOM     29  C   UNL A   1      34.127  34.181  29.204  1.00  0.00     0.039 A 
ATOM     30  C   UNL A   1      33.865  33.471  30.376  1.00  0.00     0.014 A 
ATOM     31  C   UNL A   1      35.441  34.379  28.769  1.00  0.00     0.014 A 
ATOM     32  C   UNL A   1      34.925  32.894  31.076  1.00  0.00     0.010 A 
ATOM     33  C   UNL A   1      36.483  33.726  29.416  1.00  0.00     0.010 A 
ATOM     34  C   UNL A   1      36.237  32.983  30.580  1.00  0.00    -0.014 A 
BRANCH  34  35
ATOM     35  C   UNL A   1      37.359  32.298  31.268  1.00  0.00     0.031 A 
ATOM     36  C   UNL A   1      38.072  31.156  30.600  1.00  0.00     0.074 A 
ATOM     37  C   UNL A   1      37.701  32.675  32.516  1.00  0.00     0.049 A 
ATOM     38  N   UNL A   1      39.087  30.451  31.031  1.00  0.00    -0.248 NA
ATOM     39  C   UNL A   1      37.558  30.727  29.290  1.00  0.00     0.031 C 
ATOM     40  C   UNL A   1      37.033  33.718  33.299  1.00  0.00     0.029 A 
ATOM     41  N   UNL A   1      38.701  32.230  33.342  1.00  0.00    -0.354 N 
ATOM     42  C   UNL A   1      39.320  29.490  30.055  1.00  0.00     0.074 A 
ATOM     43  C   UNL A   1      38.301  29.659  29.043  1.00  0.00     0.031 C 
ATOM     44  C   UNL A   1      37.676  33.869  34.468  1.00  0.00     0.029 A 
ATOM     45  C   UNL A   1      38.778  32.915  34.530  1.00  0.00     0.049 A 
ATOM     46  H   UNL A   1      39.306  31.490  33.107  1.00  0.00     0.167 HD
ATOM     47  C   UNL A   1      40.311  28.569  29.992  1.00  0.00     0.037 A 
ATOM     48  C   UNL A   1      39.653  32.798  35.546  1.00  0.00     0.037 A 
ATOM     49  C   UNL A   1      41.339  28.425  30.989  1.00  0.00     0.049 A 
ATOM     50  C   UNL A   1      40.759  31.784  35.443  1.00  0.00     0.074 A 
ATOM     51  C   UNL A   1      42.436  27.584  30.983  1.00  0.00     0.029 A 
ATOM     52  N   UNL A   1      41.388  29.141  32.176  1.00  0.00    -0.354 N 
ATOM     53  N   UNL A   1      41.029  30.950  34.469  1.00  0.00    -0.248 NA
ATOM     54  C   UNL A   1      41.688  31.706  36.578  1.00  0.00     0.031 C 
ATOM     55  C   UNL A   1      43.123  27.755  32.191  1.00  0.00     0.029 A 
ATOM     56  C   UNL A   1      42.482  28.740  32.926  1.00  0.00     0.049 A 
ATOM     57  H   UNL A   1      40.741  29.833  32.446  1.00  0.00     0.167 HD
ATOM     58  C   UNL A   1      42.170  30.262  34.861  1.00  0.00     0.074 A 
ATOM     59  C   UNL A   1      42.553  30.797  36.153  1.00  0.00     0.031 C 
ATOM     60  C   UNL A   1      42.840  29.277  34.215  1.00  0.00     0.037 A 
BRANCH  47  61
ATOM     61  C   UNL A   1      40.322  27.651  28.802  1.00  0.00     0.057 A 
ATOM     62  C   UNL A   1      39.615  26.441  28.791  1.00  0.00     0.134 A 
ATOM     63  C   UNL A   1      41.046  27.983  27.651  1.00  0.00     0.134 A 
ATOM     64  F   UNL A   1      38.912  26.053  29.866  1.00  0.00    -0.206 F 
ATOM     65  C   UNL A   1      39.658  25.577  27.695  1.00  0.00     0.040 A 
ATOM     66  C   UNL A   1      41.072  27.143  26.536  1.00  0.00     0.040 A 
ATOM     67  F   UNL A   1      41.741  29.128  27.589  1.00  0.00    -0.206 F 
ATOM     68  C   UNL A   1      40.385  25.931  26.559  1.00  0.00     0.006 A 
ENDBRANCH  47  61
BRANCH  48  69
ATOM     69  C   UNL A   1      39.558  33.702  36.721  1.00  0.00     0.057 A 
ATOM     70  C   UNL A   1      40.286  34.898  36.768  1.00  0.00     0.134 A 
ATOM     71  C   UNL A   1      38.744  33.401  37.818  1.00  0.00     0.134 A 
ATOM     72  F   UNL A   1      41.096  35.234  35.753  1.00  0.00    -0.206 F 
ATOM     73  C   UNL A   1      40.223  35.751  37.870  1.00  0.00     0.040 A 
ATOM     74  C   UNL A   1      38.653  34.257  38.918  1.00  0.00     0.040 A 
ATOM     75  F   UNL A   1      38.014  32.275  37.832  1.00  0.00    -0.206 F 
ATOM     76  C   UNL A   1      39.400  35.433  38.948  1.00  0.00     0.006 A 
ENDBRANCH  48  69
BRANCH  60  77
ATOM     77  C   UNL A   1      44.064  28.732  34.892  1.00  0.00     0.057 A 
ATOM     78  C   UNL A   1      44.003  27.625  35.747  1.00  0.00     0.134 A 
ATOM     79  C   UNL A   1      45.318  29.318  34.680  1.00  0.00     0.134 A 
ATOM     80  F   UNL A   1      42.830  27.026  36.003  1.00  0.00    -0.206 F 
ATOM     81  C   UNL A   1      45.141  27.141  36.395  1.00  0.00     0.040 A 
ATOM     82  C   UNL A   1      46.468  28.824  35.298  1.00  0.00     0.040 A 
ATOM     83  F   UNL A   1      45.448  30.375  33.864  1.00  0.00    -0.206 F 
ATOM     84  C   UNL A   1      46.379  27.739  36.167  1.00  0.00     0.006 A 
ENDBRANCH  60  77
ENDBRANCH  34  35
ENDBRANCH  26  29
ENDBRANCH  24  25
ENDBRANCH  23  24
ENDBRANCH  22  23
ENDBRANCH   1  22
TORSDOF 16
ENDMDL
