MODEL 1
REMARK VINA RESULT:      -8.9      0.000      0.000
REMARK SMILES O=C(NCCCCCCNC(=O)[C@@]1(Cc2ccccc2Cl)CCC[NH2+]1)c1ccc(-c2c3nc(c(-c4c(F)cccc4F)c4ccc([nH]4)c(-c4c(F)cccc4F)c4nc(c(-c5c(F)cccc5F)c5ccc2[nH]5)C=C4)C=C3)cc1
REMARK SMILES IDX 6 1 5 2 4 3 3 4 1 5 2 6 26 8 27 9 79 10 28 11 78 12 29 13
REMARK SMILES IDX 30 14 31 15 72 16 32 17 77 18 71 19 73 20 33 21 76 22 70 23
REMARK SMILES IDX 69 24 34 26 60 27 43 28 59 29 44 30 47 31 58 32 74 33 45 34
REMARK SMILES IDX 46 35 57 37 75 38 48 39 35 40 36 41 41 42 37 43 38 44 40 45
REMARK SMILES IDX 42 46 39 47 61 48 62 49 67 50 63 51 64 52 66 53 68 54 65 55
REMARK SMILES IDX 49 56 50 57 55 58 51 59 52 60 54 61 56 62 53 63 7 64 8 65
REMARK SMILES IDX 9 66 10 67 11 68 12 70 13 71 22 72 25 73 23 74 24 75 14 78
REMARK SMILES IDX 15 79 16 80 20 81 17 82 19 83 21 84 18 85
REMARK H PARENT 3 7 73 25 47 36 10 69 25 76 25 77
REMARK Flexibility Score: inf
ROOT
ATOM      1  C   UNL A   1      34.945  35.322  33.307  1.00  0.00     0.002 C 
ENDROOT
BRANCH   1   2
ATOM      2  C   UNL A   1      33.575  35.500  32.649  1.00  0.00     0.021 C 
BRANCH   2   3
ATOM      3  C   UNL A   1      33.632  36.100  31.252  1.00  0.00     0.116 C 
BRANCH   3   4
ATOM      4  N   UNL A   1      32.852  35.328  30.297  1.00  0.00    -0.352 N 
ATOM      5  O   UNL A   1      32.535  33.939  28.544  1.00  0.00    -0.269 OA
ATOM      6  C   UNL A   1      33.272  34.347  29.430  1.00  0.00     0.251 C 
ATOM      7  H   UNL A   1      31.891  35.537  30.267  1.00  0.00     0.163 HD
BRANCH   6   8
ATOM      8  C   UNL A   1      34.635  33.793  29.576  1.00  0.00     0.039 A 
ATOM      9  C   UNL A   1      35.667  34.247  28.752  1.00  0.00     0.014 A 
ATOM     10  C   UNL A   1      34.885  32.821  30.549  1.00  0.00     0.014 A 
ATOM     11  C   UNL A   1      36.910  33.634  28.807  1.00  0.00     0.010 A 
ATOM     12  C   UNL A   1      36.165  32.271  30.667  1.00  0.00     0.010 A 
ATOM     13  C   UNL A   1      37.182  32.659  29.782  1.00  0.00    -0.014 A 
BRANCH  13  14
ATOM     14  C   UNL A   1      38.567  32.140  29.894  1.00  0.00     0.031 A 
ATOM     15  C   UNL A   1      39.635  32.897  30.629  1.00  0.00     0.074 A 
ATOM     16  C   UNL A   1      38.831  30.927  29.369  1.00  0.00     0.049 A 
ATOM     17  N   UNL A   1      40.871  32.540  30.874  1.00  0.00    -0.248 NA
ATOM     18  C   UNL A   1      39.280  34.225  31.150  1.00  0.00     0.031 C 
ATOM     19  C   UNL A   1      37.874  30.115  28.611  1.00  0.00     0.029 A 
ATOM     20  N   UNL A   1      39.959  30.153  29.415  1.00  0.00    -0.354 N 
ATOM     21  C   UNL A   1      41.443  33.598  31.570  1.00  0.00     0.074 A 
ATOM     22  C   UNL A   1      40.428  34.625  31.681  1.00  0.00     0.031 C 
ATOM     23  C   UNL A   1      38.436  28.934  28.318  1.00  0.00     0.029 A 
ATOM     24  C   UNL A   1      39.807  28.929  28.810  1.00  0.00     0.049 A 
ATOM     25  H   UNL A   1      40.798  30.444  29.841  1.00  0.00     0.167 HD
ATOM     26  C   UNL A   1      42.696  33.695  32.078  1.00  0.00     0.037 A 
ATOM     27  C   UNL A   1      40.677  27.915  28.658  1.00  0.00     0.037 A 
ATOM     28  C   UNL A   1      43.700  32.666  31.965  1.00  0.00     0.049 A 
ATOM     29  C   UNL A   1      42.056  28.053  29.230  1.00  0.00     0.074 A 
ATOM     30  C   UNL A   1      44.998  32.669  32.445  1.00  0.00     0.029 A 
ATOM     31  N   UNL A   1      43.515  31.449  31.326  1.00  0.00    -0.354 N 
ATOM     32  N   UNL A   1      42.574  29.053  29.902  1.00  0.00    -0.248 NA
ATOM     33  C   UNL A   1      42.971  26.924  29.024  1.00  0.00     0.031 C 
ATOM     34  C   UNL A   1      45.609  31.467  32.070  1.00  0.00     0.029 A 
ATOM     35  C   UNL A   1      44.678  30.697  31.392  1.00  0.00     0.049 A 
ATOM     36  H   UNL A   1      42.680  31.160  30.890  1.00  0.00     0.167 HD
ATOM     37  C   UNL A   1      43.873  28.674  30.201  1.00  0.00     0.074 A 
ATOM     38  C   UNL A   1      44.053  27.337  29.669  1.00  0.00     0.031 C 
ATOM     39  C   UNL A   1      44.838  29.373  30.849  1.00  0.00     0.037 A 
BRANCH  26  40
ATOM     40  C   UNL A   1      43.058  34.961  32.799  1.00  0.00     0.057 A 
ATOM     41  C   UNL A   1      43.417  36.124  32.107  1.00  0.00     0.134 A 
ATOM     42  C   UNL A   1      42.993  35.036  34.196  1.00  0.00     0.134 A 
ATOM     43  F   UNL A   1      43.510  36.119  30.769  1.00  0.00    -0.206 F 
ATOM     44  C   UNL A   1      43.713  37.312  32.779  1.00  0.00     0.040 A 
ATOM     45  C   UNL A   1      43.265  36.223  34.878  1.00  0.00     0.040 A 
ATOM     46  F   UNL A   1      42.649  33.959  34.920  1.00  0.00    -0.206 F 
ATOM     47  C   UNL A   1      43.630  37.366  34.169  1.00  0.00     0.006 A 
ENDBRANCH  26  40
BRANCH  27  48
ATOM     48  C   UNL A   1      40.266  26.693  27.924  1.00  0.00     0.057 A 
ATOM     49  C   UNL A   1      40.686  26.454  26.611  1.00  0.00     0.134 A 
ATOM     50  C   UNL A   1      39.449  25.728  28.527  1.00  0.00     0.134 A 
ATOM     51  F   UNL A   1      41.459  27.348  25.977  1.00  0.00    -0.206 F 
ATOM     52  C   UNL A   1      40.295  25.309  25.918  1.00  0.00     0.040 A 
ATOM     53  C   UNL A   1      39.074  24.565  27.856  1.00  0.00     0.040 A 
ATOM     54  F   UNL A   1      39.022  25.894  29.788  1.00  0.00    -0.206 F 
ATOM     55  C   UNL A   1      39.491  24.356  26.543  1.00  0.00     0.006 A 
ENDBRANCH  27  48
BRANCH  39  56
ATOM     56  C   UNL A   1      46.161  28.690  31.020  1.00  0.00     0.057 A 
ATOM     57  C   UNL A   1      46.432  27.880  32.131  1.00  0.00     0.134 A 
ATOM     58  C   UNL A   1      47.173  28.842  30.064  1.00  0.00     0.134 A 
ATOM     59  F   UNL A   1      45.509  27.709  33.089  1.00  0.00    -0.206 F 
ATOM     60  C   UNL A   1      47.677  27.272  32.301  1.00  0.00     0.040 A 
ATOM     61  C   UNL A   1      48.412  28.218  30.212  1.00  0.00     0.040 A 
ATOM     62  F   UNL A   1      46.973  29.599  28.975  1.00  0.00    -0.206 F 
ATOM     63  C   UNL A   1      48.669  27.437  31.336  1.00  0.00     0.006 A 
ENDBRANCH  39  56
ENDBRANCH  13  14
ENDBRANCH   6   8
ENDBRANCH   3   4
ENDBRANCH   2   3
ENDBRANCH   1   2
BRANCH   1  64
ATOM     64  C   UNL A   1      35.116  34.027  34.112  1.00  0.00     0.002 C 
BRANCH  64  65
ATOM     65  C   UNL A   1      36.538  33.449  34.118  1.00  0.00     0.021 C 
BRANCH  65  66
ATOM     66  C   UNL A   1      37.219  33.538  35.482  1.00  0.00     0.116 C 
BRANCH  66  67
ATOM     67  N   UNL A   1      37.381  32.220  36.064  1.00  0.00    -0.351 N 
ATOM     68  C   UNL A   1      38.435  31.367  36.156  1.00  0.00     0.281 C 
ATOM     69  H   UNL A   1      36.559  31.871  36.478  1.00  0.00     0.163 HD
ATOM     70  O   UNL A   1      38.166  30.260  36.648  1.00  0.00    -0.268 OA
BRANCH  68  71
ATOM     71  C   UNL A   1      39.903  31.668  35.700  1.00  0.00     0.179 C 
ATOM     72  C   UNL A   1      40.310  33.028  36.299  1.00  0.00     0.085 C 
ATOM     73  N   UNL A   1      40.886  30.709  36.248  1.00  0.00    -0.333 N 
ATOM     74  C   UNL A   1      41.103  32.660  37.538  1.00  0.00     0.068 C 
ATOM     75  C   UNL A   1      41.834  31.413  37.101  1.00  0.00     0.261 C 
ATOM     76  H   UNL A   1      41.386  30.261  35.481  1.00  0.00     0.347 HD
ATOM     77  H   UNL A   1      40.397  30.000  36.797  1.00  0.00     0.347 HD
BRANCH  71  78
ATOM     78  C   UNL A   1      39.835  31.677  34.139  1.00  0.00     0.116 C 
BRANCH  78  79
ATOM     79  C   UNL A   1      39.380  30.398  33.461  1.00  0.00    -0.023 A 
ATOM     80  C   UNL A   1      38.017  30.250  33.147  1.00  0.00     0.005 A 
ATOM     81  C   UNL A   1      40.255  29.352  33.121  1.00  0.00     0.044 A 
ATOM     82  C   UNL A   1      37.553  29.124  32.465  1.00  0.00     0.000 A 
ATOM     83  C   UNL A   1      39.788  28.228  32.435  1.00  0.00     0.021 A 
ATOM     84  Cl  UNL A   1      41.936  29.395  33.520  1.00  0.00    -0.084 Cl
ATOM     85  C   UNL A   1      38.441  28.118  32.098  1.00  0.00     0.002 A 
ENDBRANCH  78  79
ENDBRANCH  71  78
ENDBRANCH  68  71
ENDBRANCH  66  67
ENDBRANCH  65  66
ENDBRANCH  64  65
ENDBRANCH   1  64
TORSDOF 15
ENDMDL
MODEL 2
REMARK VINA RESULT:      -8.8      0.364      6.265
REMARK SMILES O=C(NCCCCCCNC(=O)[C@@]1(Cc2ccccc2Cl)CCC[NH2+]1)c1ccc(-c2c3nc(c(-c4c(F)cccc4F)c4ccc([nH]4)c(-c4c(F)cccc4F)c4nc(c(-c5c(F)cccc5F)c5ccc2[nH]5)C=C4)C=C3)cc1
REMARK SMILES IDX 6 1 5 2 4 3 3 4 1 5 2 6 26 8 27 9 79 10 28 11 78 12 29 13
REMARK SMILES IDX 30 14 31 15 72 16 32 17 77 18 71 19 73 20 33 21 76 22 70 23
REMARK SMILES IDX 69 24 34 26 60 27 43 28 59 29 44 30 47 31 58 32 74 33 45 34
REMARK SMILES IDX 46 35 57 37 75 38 48 39 35 40 36 41 41 42 37 43 38 44 40 45
REMARK SMILES IDX 42 46 39 47 61 48 62 49 67 50 63 51 64 52 66 53 68 54 65 55
REMARK SMILES IDX 49 56 50 57 55 58 51 59 52 60 54 61 56 62 53 63 7 64 8 65
REMARK SMILES IDX 9 66 10 67 11 68 12 70 13 71 22 72 25 73 23 74 24 75 14 78
REMARK SMILES IDX 15 79 16 80 20 81 17 82 19 83 21 84 18 85
REMARK H PARENT 3 7 73 25 47 36 10 69 25 76 25 77
REMARK Flexibility Score: inf
ROOT
ATOM      1  C   UNL A   1      34.996  35.304  33.150  1.00  0.00     0.002 C 
ENDROOT
BRANCH   1   2
ATOM      2  C   UNL A   1      33.618  35.399  32.492  1.00  0.00     0.021 C 
BRANCH   2   3
ATOM      3  C   UNL A   1      33.618  36.124  31.154  1.00  0.00     0.116 C 
BRANCH   3   4
ATOM      4  N   UNL A   1      32.872  35.394  30.140  1.00  0.00    -0.352 N 
ATOM      5  O   UNL A   1      32.617  34.043  28.349  1.00  0.00    -0.269 OA
ATOM      6  C   UNL A   1      33.312  34.412  29.285  1.00  0.00     0.251 C 
ATOM      7  H   UNL A   1      31.923  35.637  30.056  1.00  0.00     0.163 HD
BRANCH   6   8
ATOM      8  C   UNL A   1      34.644  33.809  29.504  1.00  0.00     0.039 A 
ATOM      9  C   UNL A   1      35.737  34.233  28.746  1.00  0.00     0.014 A 
ATOM     10  C   UNL A   1      34.802  32.820  30.480  1.00  0.00     0.014 A 
ATOM     11  C   UNL A   1      36.953  33.577  28.868  1.00  0.00     0.010 A 
ATOM     12  C   UNL A   1      36.054  32.225  30.666  1.00  0.00     0.010 A 
ATOM     13  C   UNL A   1      37.133  32.584  29.845  1.00  0.00    -0.014 A 
BRANCH  13  14
ATOM     14  C   UNL A   1      38.490  32.015  30.033  1.00  0.00     0.031 A 
ATOM     15  C   UNL A   1      38.873  30.682  29.458  1.00  0.00     0.074 A 
ATOM     16  C   UNL A   1      39.403  32.761  30.687  1.00  0.00     0.049 A 
ATOM     17  N   UNL A   1      40.038  30.086  29.476  1.00  0.00    -0.248 NA
ATOM     18  C   UNL A   1      37.816  29.914  28.783  1.00  0.00     0.031 C 
ATOM     19  C   UNL A   1      39.133  34.060  31.310  1.00  0.00     0.029 A 
ATOM     20  N   UNL A   1      40.738  32.558  30.912  1.00  0.00    -0.354 N 
ATOM     21  C   UNL A   1      39.857  28.872  28.823  1.00  0.00     0.074 A 
ATOM     22  C   UNL A   1      38.460  28.803  28.448  1.00  0.00     0.031 C 
ATOM     23  C   UNL A   1      40.278  34.564  31.791  1.00  0.00     0.029 A 
ATOM     24  C   UNL A   1      41.348  33.600  31.566  1.00  0.00     0.049 A 
ATOM     25  H   UNL A   1      41.215  31.743  30.630  1.00  0.00     0.167 HD
ATOM     26  C   UNL A   1      40.775  27.914  28.554  1.00  0.00     0.037 A 
ATOM     27  C   UNL A   1      42.625  33.761  31.954  1.00  0.00     0.037 A 
ATOM     28  C   UNL A   1      42.165  27.992  28.929  1.00  0.00     0.049 A 
ATOM     29  C   UNL A   1      43.617  32.682  31.641  1.00  0.00     0.074 A 
ATOM     30  C   UNL A   1      43.175  27.073  28.702  1.00  0.00     0.029 A 
ATOM     31  N   UNL A   1      42.741  29.055  29.610  1.00  0.00    -0.354 N 
ATOM     32  N   UNL A   1      43.432  31.550  31.007  1.00  0.00    -0.248 NA
ATOM     33  C   UNL A   1      44.995  32.900  32.099  1.00  0.00     0.031 C 
ATOM     34  C   UNL A   1      44.354  27.564  29.274  1.00  0.00     0.029 A 
ATOM     35  C   UNL A   1      44.089  28.810  29.820  1.00  0.00     0.049 A 
ATOM     36  H   UNL A   1      42.262  29.865  29.902  1.00  0.00     0.167 HD
ATOM     37  C   UNL A   1      44.668  30.922  30.985  1.00  0.00     0.074 A 
ATOM     38  C   UNL A   1      45.603  31.817  31.639  1.00  0.00     0.031 C 
ATOM     39  C   UNL A   1      45.000  29.709  30.480  1.00  0.00     0.037 A 
BRANCH  26  40
ATOM     40  C   UNL A   1      40.308  26.689  27.822  1.00  0.00     0.057 A 
ATOM     41  C   UNL A   1      40.677  26.441  26.494  1.00  0.00     0.134 A 
ATOM     42  C   UNL A   1      39.529  25.720  28.466  1.00  0.00     0.134 A 
ATOM     43  F   UNL A   1      41.413  27.333  25.814  1.00  0.00    -0.206 F 
ATOM     44  C   UNL A   1      40.276  25.280  25.829  1.00  0.00     0.040 A 
ATOM     45  C   UNL A   1      39.140  24.545  27.820  1.00  0.00     0.040 A 
ATOM     46  F   UNL A   1      39.146  25.892  29.741  1.00  0.00    -0.206 F 
ATOM     47  C   UNL A   1      39.511  24.325  26.495  1.00  0.00     0.006 A 
ENDBRANCH  26  40
BRANCH  27  48
ATOM     48  C   UNL A   1      43.025  34.988  32.687  1.00  0.00     0.057 A 
ATOM     49  C   UNL A   1      43.372  36.161  32.009  1.00  0.00     0.134 A 
ATOM     50  C   UNL A   1      43.058  35.016  34.086  1.00  0.00     0.134 A 
ATOM     51  F   UNL A   1      43.373  36.192  30.669  1.00  0.00    -0.206 F 
ATOM     52  C   UNL A   1      43.754  37.314  32.696  1.00  0.00     0.040 A 
ATOM     53  C   UNL A   1      43.409  36.169  34.787  1.00  0.00     0.040 A 
ATOM     54  F   UNL A   1      42.725  33.925  34.794  1.00  0.00    -0.206 F 
ATOM     55  C   UNL A   1      43.768  37.322  34.091  1.00  0.00     0.006 A 
ENDBRANCH  27  48
BRANCH  39  56
ATOM     56  C   UNL A   1      46.434  29.297  30.612  1.00  0.00     0.057 A 
ATOM     57  C   UNL A   1      47.381  29.601  29.623  1.00  0.00     0.134 A 
ATOM     58  C   UNL A   1      46.876  28.590  31.738  1.00  0.00     0.134 A 
ATOM     59  F   UNL A   1      47.016  30.261  28.514  1.00  0.00    -0.206 F 
ATOM     60  C   UNL A   1      48.709  29.187  29.736  1.00  0.00     0.040 A 
ATOM     61  C   UNL A   1      48.207  28.195  31.872  1.00  0.00     0.040 A 
ATOM     62  F   UNL A   1      46.021  28.274  32.722  1.00  0.00    -0.206 F 
ATOM     63  C   UNL A   1      49.125  28.486  30.866  1.00  0.00     0.006 A 
ENDBRANCH  39  56
ENDBRANCH  13  14
ENDBRANCH   6   8
ENDBRANCH   3   4
ENDBRANCH   2   3
ENDBRANCH   1   2
BRANCH   1  64
ATOM     64  C   UNL A   1      35.156  34.162  34.161  1.00  0.00     0.002 C 
BRANCH  64  65
ATOM     65  C   UNL A   1      36.525  33.468  34.147  1.00  0.00     0.021 C 
BRANCH  65  66
ATOM     66  C   UNL A   1      37.274  33.586  35.473  1.00  0.00     0.116 C 
BRANCH  66  67
ATOM     67  N   UNL A   1      37.401  32.289  36.109  1.00  0.00    -0.351 N 
ATOM     68  C   UNL A   1      38.421  31.397  36.208  1.00  0.00     0.281 C 
ATOM     69  H   UNL A   1      36.578  31.994  36.563  1.00  0.00     0.163 HD
ATOM     70  O   UNL A   1      38.123  30.325  36.759  1.00  0.00    -0.268 OA
BRANCH  68  71
ATOM     71  C   UNL A   1      39.884  31.615  35.695  1.00  0.00     0.179 C 
ATOM     72  C   UNL A   1      40.390  32.951  36.272  1.00  0.00     0.085 C 
ATOM     73  N   UNL A   1      40.833  30.604  36.209  1.00  0.00    -0.333 N 
ATOM     74  C   UNL A   1      41.209  32.543  37.482  1.00  0.00     0.068 C 
ATOM     75  C   UNL A   1      41.852  31.255  37.022  1.00  0.00     0.261 C 
ATOM     76  H   UNL A   1      41.278  30.127  35.425  1.00  0.00     0.347 HD
ATOM     77  H   UNL A   1      40.328  29.925  36.779  1.00  0.00     0.347 HD
BRANCH  71  78
ATOM     78  C   UNL A   1      39.757  31.625  34.138  1.00  0.00     0.116 C 
BRANCH  78  79
ATOM     79  C   UNL A   1      39.347  30.324  33.471  1.00  0.00    -0.023 A 
ATOM     80  C   UNL A   1      37.980  30.089  33.238  1.00  0.00     0.005 A 
ATOM     81  C   UNL A   1      40.267  29.343  33.064  1.00  0.00     0.044 A 
ATOM     82  C   UNL A   1      37.551  28.941  32.570  1.00  0.00     0.000 A 
ATOM     83  C   UNL A   1      39.834  28.196  32.393  1.00  0.00     0.021 A 
ATOM     84  Cl  UNL A   1      41.963  29.494  33.362  1.00  0.00    -0.084 Cl
ATOM     85  C   UNL A   1      38.479  28.000  32.137  1.00  0.00     0.002 A 
ENDBRANCH  78  79
ENDBRANCH  71  78
ENDBRANCH  68  71
ENDBRANCH  66  67
ENDBRANCH  65  66
ENDBRANCH  64  65
ENDBRANCH   1  64
TORSDOF 15
ENDMDL
MODEL 3
REMARK VINA RESULT:      -8.7      4.171      7.216
REMARK SMILES O=C(NCCCCCCNC(=O)[C@@]1(Cc2ccccc2Cl)CCC[NH2+]1)c1ccc(-c2c3nc(c(-c4c(F)cccc4F)c4ccc([nH]4)c(-c4c(F)cccc4F)c4nc(c(-c5c(F)cccc5F)c5ccc2[nH]5)C=C4)C=C3)cc1
REMARK SMILES IDX 6 1 5 2 4 3 3 4 1 5 2 6 26 8 27 9 79 10 28 11 78 12 29 13
REMARK SMILES IDX 30 14 31 15 72 16 32 17 77 18 71 19 73 20 33 21 76 22 70 23
REMARK SMILES IDX 69 24 34 26 60 27 43 28 59 29 44 30 47 31 58 32 74 33 45 34
REMARK SMILES IDX 46 35 57 37 75 38 48 39 35 40 36 41 41 42 37 43 38 44 40 45
REMARK SMILES IDX 42 46 39 47 61 48 62 49 67 50 63 51 64 52 66 53 68 54 65 55
REMARK SMILES IDX 49 56 50 57 55 58 51 59 52 60 54 61 56 62 53 63 7 64 8 65
REMARK SMILES IDX 9 66 10 67 11 68 12 70 13 71 22 72 25 73 23 74 24 75 14 78
REMARK SMILES IDX 15 79 16 80 20 81 17 82 19 83 21 84 18 85
REMARK H PARENT 3 7 73 25 47 36 10 69 25 76 25 77
REMARK Flexibility Score: inf
ROOT
ATOM      1  C   UNL A   1      31.315  30.835  26.129  1.00  0.00     0.002 C 
ENDROOT
BRANCH   1   2
ATOM      2  C   UNL A   1      31.279  32.330  26.451  1.00  0.00     0.021 C 
BRANCH   2   3
ATOM      3  C   UNL A   1      32.478  32.822  27.248  1.00  0.00     0.116 C 
BRANCH   3   4
ATOM      4  N   UNL A   1      32.314  34.200  27.683  1.00  0.00    -0.352 N 
ATOM      5  O   UNL A   1      32.584  35.970  29.061  1.00  0.00    -0.269 OA
ATOM      6  C   UNL A   1      32.980  34.879  28.675  1.00  0.00     0.251 C 
ATOM      7  H   UNL A   1      31.631  34.718  27.199  1.00  0.00     0.163 HD
BRANCH   6   8
ATOM      8  C   UNL A   1      34.182  34.269  29.282  1.00  0.00     0.039 A 
ATOM      9  C   UNL A   1      35.446  34.528  28.746  1.00  0.00     0.014 A 
ATOM     10  C   UNL A   1      34.046  33.440  30.400  1.00  0.00     0.014 A 
ATOM     11  C   UNL A   1      36.553  33.854  29.240  1.00  0.00     0.010 A 
ATOM     12  C   UNL A   1      35.178  32.835  30.956  1.00  0.00     0.010 A 
ATOM     13  C   UNL A   1      36.437  33.021  30.365  1.00  0.00    -0.014 A 
BRANCH  13  14
ATOM     14  C   UNL A   1      37.673  32.438  30.943  1.00  0.00     0.031 A 
ATOM     15  C   UNL A   1      38.255  32.944  32.231  1.00  0.00     0.074 A 
ATOM     16  C   UNL A   1      38.233  31.389  30.309  1.00  0.00     0.049 A 
ATOM     17  N   UNL A   1      39.287  32.491  32.898  1.00  0.00    -0.248 NA
ATOM     18  C   UNL A   1      37.607  34.110  32.850  1.00  0.00     0.031 C 
ATOM     19  C   UNL A   1      37.765  30.832  29.036  1.00  0.00     0.029 A 
ATOM     20  N   UNL A   1      39.287  30.586  30.654  1.00  0.00    -0.354 N 
ATOM     21  C   UNL A   1      39.417  33.316  34.009  1.00  0.00     0.074 A 
ATOM     22  C   UNL A   1      38.377  34.318  33.910  1.00  0.00     0.031 C 
ATOM     23  C   UNL A   1      38.489  29.743  28.741  1.00  0.00     0.029 A 
ATOM     24  C   UNL A   1      39.508  29.562  29.766  1.00  0.00     0.049 A 
ATOM     25  H   UNL A   1      39.833  30.729  31.461  1.00  0.00     0.167 HD
ATOM     26  C   UNL A   1      40.314  33.234  35.020  1.00  0.00     0.037 A 
ATOM     27  C   UNL A   1      40.435  28.588  29.769  1.00  0.00     0.037 A 
ATOM     28  C   UNL A   1      41.346  32.230  35.112  1.00  0.00     0.049 A 
ATOM     29  C   UNL A   1      41.414  28.525  30.902  1.00  0.00     0.074 A 
ATOM     30  C   UNL A   1      42.303  32.063  36.097  1.00  0.00     0.029 A 
ATOM     31  N   UNL A   1      41.551  31.222  34.182  1.00  0.00    -0.354 N 
ATOM     32  N   UNL A   1      41.511  29.302  31.953  1.00  0.00    -0.248 NA
ATOM     33  C   UNL A   1      42.415  27.452  30.849  1.00  0.00     0.031 C 
ATOM     34  C   UNL A   1      43.109  30.973  35.747  1.00  0.00     0.029 A 
ATOM     35  C   UNL A   1      42.627  30.435  34.565  1.00  0.00     0.049 A 
ATOM     36  H   UNL A   1      41.013  31.085  33.368  1.00  0.00     0.167 HD
ATOM     37  C   UNL A   1      42.578  28.811  32.689  1.00  0.00     0.074 A 
ATOM     38  C   UNL A   1      43.074  27.647  31.982  1.00  0.00     0.031 C 
ATOM     39  C   UNL A   1      43.109  29.286  33.842  1.00  0.00     0.037 A 
BRANCH  26  40
ATOM     40  C   UNL A   1      40.228  34.261  36.111  1.00  0.00     0.057 A 
ATOM     41  C   UNL A   1      40.911  35.481  36.029  1.00  0.00     0.134 A 
ATOM     42  C   UNL A   1      39.411  34.055  37.230  1.00  0.00     0.134 A 
ATOM     43  F   UNL A   1      41.720  35.739  34.990  1.00  0.00    -0.206 F 
ATOM     44  C   UNL A   1      40.796  36.453  37.025  1.00  0.00     0.040 A 
ATOM     45  C   UNL A   1      39.269  35.027  38.222  1.00  0.00     0.040 A 
ATOM     46  F   UNL A   1      38.723  32.911  37.369  1.00  0.00    -0.206 F 
ATOM     47  C   UNL A   1      39.967  36.229  38.123  1.00  0.00     0.006 A 
ENDBRANCH  26  40
BRANCH  27  48
ATOM     48  C   UNL A   1      40.479  27.608  28.655  1.00  0.00     0.057 A 
ATOM     49  C   UNL A   1      39.704  26.444  28.678  1.00  0.00     0.134 A 
ATOM     50  C   UNL A   1      41.293  27.822  27.536  1.00  0.00     0.134 A 
ATOM     51  F   UNL A   1      38.916  26.178  29.729  1.00  0.00    -0.206 F 
ATOM     52  C   UNL A   1      39.749  25.519  27.634  1.00  0.00     0.040 A 
ATOM     53  C   UNL A   1      41.326  26.920  26.473  1.00  0.00     0.040 A 
ATOM     54  F   UNL A   1      42.052  28.925  27.450  1.00  0.00    -0.206 F 
ATOM     55  C   UNL A   1      40.558  25.759  26.524  1.00  0.00     0.006 A 
ENDBRANCH  27  48
BRANCH  39  56
ATOM     56  C   UNL A   1      44.277  28.533  34.403  1.00  0.00     0.057 A 
ATOM     57  C   UNL A   1      44.104  27.457  35.284  1.00  0.00     0.134 A 
ATOM     58  C   UNL A   1      45.588  28.887  34.060  1.00  0.00     0.134 A 
ATOM     59  F   UNL A   1      42.873  27.082  35.664  1.00  0.00    -0.206 F 
ATOM     60  C   UNL A   1      45.195  26.779  35.828  1.00  0.00     0.040 A 
ATOM     61  C   UNL A   1      46.686  28.199  34.578  1.00  0.00     0.040 A 
ATOM     62  F   UNL A   1      45.821  29.904  33.217  1.00  0.00    -0.206 F 
ATOM     63  C   UNL A   1      46.491  27.148  35.471  1.00  0.00     0.006 A 
ENDBRANCH  39  56
ENDBRANCH  13  14
ENDBRANCH   6   8
ENDBRANCH   3   4
ENDBRANCH   2   3
ENDBRANCH   1   2
BRANCH   1  64
ATOM     64  C   UNL A   1      32.354  30.026  26.916  1.00  0.00     0.002 C 
BRANCH  64  65
ATOM     65  C   UNL A   1      31.862  28.671  27.441  1.00  0.00     0.021 C 
BRANCH  65  66
ATOM     66  C   UNL A   1      31.464  27.701  26.330  1.00  0.00     0.116 C 
BRANCH  66  67
ATOM     67  N   UNL A   1      31.138  26.398  26.876  1.00  0.00    -0.351 N 
ATOM     68  C   UNL A   1      31.429  25.129  26.491  1.00  0.00     0.281 C 
ATOM     69  H   UNL A   1      30.594  26.443  27.696  1.00  0.00     0.163 HD
ATOM     70  O   UNL A   1      30.884  24.242  27.167  1.00  0.00    -0.268 OA
BRANCH  68  71
ATOM     71  C   UNL A   1      32.363  24.722  25.300  1.00  0.00     0.179 C 
ATOM     72  C   UNL A   1      31.893  23.347  24.786  1.00  0.00     0.085 C 
ATOM     73  N   UNL A   1      32.235  25.620  24.133  1.00  0.00    -0.333 N 
ATOM     74  C   UNL A   1      31.030  23.679  23.585  1.00  0.00     0.068 C 
ATOM     75  C   UNL A   1      31.745  24.867  22.986  1.00  0.00     0.261 C 
ATOM     76  H   UNL A   1      33.146  26.021  23.912  1.00  0.00     0.347 HD
ATOM     77  H   UNL A   1      31.577  26.369  24.352  1.00  0.00     0.347 HD
BRANCH  71  78
ATOM     78  C   UNL A   1      33.797  24.693  25.919  1.00  0.00     0.116 C 
BRANCH  78  79
ATOM     79  C   UNL A   1      34.729  23.592  25.446  1.00  0.00    -0.023 A 
ATOM     80  C   UNL A   1      35.426  23.772  24.238  1.00  0.00     0.005 A 
ATOM     81  C   UNL A   1      34.942  22.402  26.162  1.00  0.00     0.044 A 
ATOM     82  C   UNL A   1      36.345  22.824  23.788  1.00  0.00     0.000 A 
ATOM     83  C   UNL A   1      35.866  21.455  25.711  1.00  0.00     0.021 A 
ATOM     84  Cl  UNL A   1      34.090  22.044  27.622  1.00  0.00    -0.084 Cl
ATOM     85  C   UNL A   1      36.574  21.670  24.531  1.00  0.00     0.002 A 
ENDBRANCH  78  79
ENDBRANCH  71  78
ENDBRANCH  68  71
ENDBRANCH  66  67
ENDBRANCH  65  66
ENDBRANCH  64  65
ENDBRANCH   1  64
TORSDOF 15
ENDMDL
