MODEL 1
REMARK VINA RESULT:     -11.4      0.000      0.000
REMARK SMILES N#C/C(=C\c1ccc(Oc2ccccc2)cc1Cl)C(=O)NCCCCCCNC(=O)c1ccc(-c2c3nc(c(-c4c(F)cccc4F)c4ccc([nH]4)c(-c4c(F)cccc4F)c4nc(c(-c5c(F)cccc5F)c5ccc2[nH]5)C=C4)C=C3)cc1
REMARK SMILES IDX 24 1 23 2 22 3 21 4 19 5 20 6 3 8 4 9 2 10 1 11 5 12 6 13
REMARK SMILES IDX 17 14 7 15 16 16 18 17 8 18 9 19 10 20 11 21 15 22 12 23
REMARK SMILES IDX 14 24 13 25 25 26 26 27 27 28 28 29 29 30 30 32 31 33 32 34
REMARK SMILES IDX 84 35 33 36 83 37 34 38 35 39 36 40 77 41 37 42 82 43 76 44
REMARK SMILES IDX 78 45 38 46 81 47 75 48 74 49 39 51 65 52 48 53 64 54 49 55
REMARK SMILES IDX 52 56 63 57 79 58 50 59 51 60 62 62 80 63 53 64 40 65 41 66
REMARK SMILES IDX 46 67 42 68 43 69 45 70 47 71 44 72 66 73 67 74 72 75 68 76
REMARK SMILES IDX 69 77 71 78 73 79 70 80 54 81 55 82 60 83 56 84 57 85 59 86
REMARK SMILES IDX 61 87 58 88
REMARK H PARENT 21 7 28 31 78 50 52 61
REMARK Flexibility Score: inf
ROOT
ATOM      1  C   UNL A   1      31.171  29.371  24.507  1.00  0.00     0.002 C 
ENDROOT
BRANCH   1   2
ATOM      2  C   UNL A   1      30.352  28.186  23.978  1.00  0.00     0.021 C 
BRANCH   2   3
ATOM      3  C   UNL A   1      30.562  27.933  22.483  1.00  0.00     0.116 C 
BRANCH   3   4
ATOM      4  N   UNL A   1      31.956  28.102  22.132  1.00  0.00    -0.351 N 
ATOM      5  C   UNL A   1      33.039  27.285  22.238  1.00  0.00     0.261 C 
ATOM      6  O   UNL A   1      34.118  27.733  21.851  1.00  0.00    -0.268 OA
ATOM      7  H   UNL A   1      32.161  28.980  21.739  1.00  0.00     0.163 HD
BRANCH   5   8
ATOM      8  C   UNL A   1      32.955  25.891  22.752  1.00  0.00     0.117 C 
ATOM      9  C   UNL A   1      32.988  25.483  24.044  1.00  0.00     0.035 C 
BRANCH   8  10
ATOM     10  C   UNL A   1      33.133  24.780  21.730  1.00  0.00     0.105 C 
ATOM     11  N   UNL A   1      33.281  23.859  20.882  1.00  0.00    -0.192 NA
ENDBRANCH   8  10
BRANCH   9  12
ATOM     12  C   UNL A   1      32.873  24.064  24.466  1.00  0.00    -0.005 A 
ATOM     13  C   UNL A   1      31.582  23.529  24.577  1.00  0.00     0.013 A 
ATOM     14  C   UNL A   1      33.969  23.209  24.680  1.00  0.00     0.052 A 
ATOM     15  C   UNL A   1      31.394  22.172  24.865  1.00  0.00     0.048 A 
ATOM     16  C   UNL A   1      33.777  21.839  24.891  1.00  0.00     0.068 A 
ATOM     17  Cl  UNL A   1      35.596  23.803  24.721  1.00  0.00    -0.084 Cl
ATOM     18  C   UNL A   1      32.489  21.316  25.012  1.00  0.00     0.128 A 
BRANCH  18  19
ATOM     19  O   UNL A   1      32.166  19.995  25.252  1.00  0.00    -0.457 OA
BRANCH  19  20
ATOM     20  C   UNL A   1      32.754  19.004  24.506  1.00  0.00     0.127 A 
ATOM     21  C   UNL A   1      33.956  18.474  24.976  1.00  0.00     0.047 A 
ATOM     22  C   UNL A   1      32.231  18.576  23.284  1.00  0.00     0.047 A 
ATOM     23  C   UNL A   1      34.592  17.455  24.265  1.00  0.00     0.004 A 
ATOM     24  C   UNL A   1      32.852  17.537  22.589  1.00  0.00     0.004 A 
ATOM     25  C   UNL A   1      34.027  16.972  23.084  1.00  0.00     0.000 A 
ENDBRANCH  19  20
ENDBRANCH  18  19
ENDBRANCH   9  12
ENDBRANCH   5   8
ENDBRANCH   3   4
ENDBRANCH   2   3
ENDBRANCH   1   2
BRANCH   1  26
ATOM     26  C   UNL A   1      31.822  29.135  25.876  1.00  0.00     0.002 C 
BRANCH  26  27
ATOM     27  C   UNL A   1      33.238  28.553  25.824  1.00  0.00     0.021 C 
BRANCH  27  28
ATOM     28  C   UNL A   1      34.013  28.682  27.132  1.00  0.00     0.116 C 
BRANCH  28  29
ATOM     29  N   UNL A   1      33.925  30.030  27.671  1.00  0.00    -0.352 N 
ATOM     30  C   UNL A   1      34.825  30.718  28.443  1.00  0.00     0.251 C 
ATOM     31  H   UNL A   1      33.100  30.520  27.448  1.00  0.00     0.163 HD
ATOM     32  O   UNL A   1      34.486  31.746  29.019  1.00  0.00    -0.269 OA
BRANCH  30  33
ATOM     33  C   UNL A   1      36.206  30.213  28.586  1.00  0.00     0.039 A 
ATOM     34  C   UNL A   1      37.080  30.317  27.501  1.00  0.00     0.014 A 
ATOM     35  C   UNL A   1      36.627  29.614  29.777  1.00  0.00     0.014 A 
ATOM     36  C   UNL A   1      38.394  29.865  27.629  1.00  0.00     0.010 A 
ATOM     37  C   UNL A   1      37.955  29.226  29.926  1.00  0.00     0.010 A 
ATOM     38  C   UNL A   1      38.849  29.342  28.851  1.00  0.00    -0.014 A 
BRANCH  38  39
ATOM     39  C   UNL A   1      40.257  28.911  29.022  1.00  0.00     0.031 A 
ATOM     40  C   UNL A   1      41.278  29.861  29.580  1.00  0.00     0.074 A 
ATOM     41  C   UNL A   1      40.627  27.680  28.616  1.00  0.00     0.049 A 
ATOM     42  N   UNL A   1      42.565  29.689  29.745  1.00  0.00    -0.248 NA
ATOM     43  C   UNL A   1      40.796  31.193  29.979  1.00  0.00     0.031 C 
ATOM     44  C   UNL A   1      39.736  26.685  28.015  1.00  0.00     0.029 A 
ATOM     45  N   UNL A   1      41.851  27.061  28.638  1.00  0.00    -0.354 N 
ATOM     46  C   UNL A   1      43.046  30.888  30.256  1.00  0.00     0.074 A 
ATOM     47  C   UNL A   1      41.923  31.798  30.323  1.00  0.00     0.031 C 
ATOM     48  C   UNL A   1      40.440  25.573  27.746  1.00  0.00     0.029 A 
ATOM     49  C   UNL A   1      41.833  25.789  28.122  1.00  0.00     0.049 A 
ATOM     50  H   UNL A   1      42.664  27.489  28.991  1.00  0.00     0.167 HD
ATOM     51  C   UNL A   1      44.303  31.195  30.653  1.00  0.00     0.037 A 
ATOM     52  C   UNL A   1      42.830  24.899  27.964  1.00  0.00     0.037 A 
ATOM     53  C   UNL A   1      45.411  30.278  30.608  1.00  0.00     0.049 A 
ATOM     54  C   UNL A   1      44.218  25.264  28.413  1.00  0.00     0.074 A 
ATOM     55  C   UNL A   1      46.711  30.473  31.042  1.00  0.00     0.029 A 
ATOM     56  N   UNL A   1      45.351  28.990  30.095  1.00  0.00    -0.354 N 
ATOM     57  N   UNL A   1      44.644  26.380  28.956  1.00  0.00    -0.248 NA
ATOM     58  C   UNL A   1      45.261  24.246  28.233  1.00  0.00     0.031 C 
ATOM     59  C   UNL A   1      47.446  29.318  30.755  1.00  0.00     0.029 A 
ATOM     60  C   UNL A   1      46.594  28.387  30.184  1.00  0.00     0.049 A 
ATOM     61  H   UNL A   1      44.543  28.568  29.723  1.00  0.00     0.167 HD
ATOM     62  C   UNL A   1      45.996  26.187  29.207  1.00  0.00     0.074 A 
ATOM     63  C   UNL A   1      46.315  24.844  28.771  1.00  0.00     0.031 C 
ATOM     64  C   UNL A   1      46.893  27.046  29.750  1.00  0.00     0.037 A 
BRANCH  51  65
ATOM     65  C   UNL A   1      44.545  32.580  31.178  1.00  0.00     0.057 A 
ATOM     66  C   UNL A   1      44.296  32.915  32.516  1.00  0.00     0.134 A 
ATOM     67  C   UNL A   1      45.069  33.579  30.349  1.00  0.00     0.134 A 
ATOM     68  F   UNL A   1      43.783  32.008  33.361  1.00  0.00    -0.206 F 
ATOM     69  C   UNL A   1      44.535  34.201  33.004  1.00  0.00     0.040 A 
ATOM     70  C   UNL A   1      45.338  34.861  30.831  1.00  0.00     0.040 A 
ATOM     71  F   UNL A   1      45.336  33.324  29.060  1.00  0.00    -0.206 F 
ATOM     72  C   UNL A   1      45.066  35.176  32.161  1.00  0.00     0.006 A 
ENDBRANCH  51  65
BRANCH  52  73
ATOM     73  C   UNL A   1      42.550  23.565  27.376  1.00  0.00     0.057 A 
ATOM     74  C   UNL A   1      42.617  23.358  25.994  1.00  0.00     0.134 A 
ATOM     75  C   UNL A   1      42.203  22.471  28.177  1.00  0.00     0.134 A 
ATOM     76  F   UNL A   1      42.927  24.373  25.174  1.00  0.00    -0.206 F 
ATOM     77  C   UNL A   1      42.328  22.117  25.425  1.00  0.00     0.040 A 
ATOM     78  C   UNL A   1      41.936  21.217  27.624  1.00  0.00     0.040 A 
ATOM     79  F   UNL A   1      42.132  22.601  29.509  1.00  0.00    -0.206 F 
ATOM     80  C   UNL A   1      41.990  21.041  26.243  1.00  0.00     0.006 A 
ENDBRANCH  52  73
BRANCH  64  81
ATOM     81  C   UNL A   1      48.295  26.547  29.931  1.00  0.00     0.057 A 
ATOM     82  C   UNL A   1      48.681  25.821  31.065  1.00  0.00     0.134 A 
ATOM     83  C   UNL A   1      49.263  26.765  28.942  1.00  0.00     0.134 A 
ATOM     84  F   UNL A   1      47.804  25.590  32.055  1.00  0.00    -0.206 F 
ATOM     85  C   UNL A   1      49.986  25.350  31.220  1.00  0.00     0.040 A 
ATOM     86  C   UNL A   1      50.563  26.277  29.073  1.00  0.00     0.040 A 
ATOM     87  F   UNL A   1      48.956  27.446  27.828  1.00  0.00    -0.206 F 
ATOM     88  C   UNL A   1      50.928  25.573  30.218  1.00  0.00     0.006 A 
ENDBRANCH  64  81
ENDBRANCH  38  39
ENDBRANCH  30  33
ENDBRANCH  28  29
ENDBRANCH  27  28
ENDBRANCH  26  27
ENDBRANCH   1  26
TORSDOF 17
ENDMDL
MODEL 2
REMARK VINA RESULT:     -11.4      3.803      7.738
REMARK SMILES N#C/C(=C\c1ccc(Oc2ccccc2)cc1Cl)C(=O)NCCCCCCNC(=O)c1ccc(-c2c3nc(c(-c4c(F)cccc4F)c4ccc([nH]4)c(-c4c(F)cccc4F)c4nc(c(-c5c(F)cccc5F)c5ccc2[nH]5)C=C4)C=C3)cc1
REMARK SMILES IDX 24 1 23 2 22 3 21 4 19 5 20 6 3 8 4 9 2 10 1 11 5 12 6 13
REMARK SMILES IDX 17 14 7 15 16 16 18 17 8 18 9 19 10 20 11 21 15 22 12 23
REMARK SMILES IDX 14 24 13 25 25 26 26 27 27 28 28 29 29 30 30 32 31 33 32 34
REMARK SMILES IDX 84 35 33 36 83 37 34 38 35 39 36 40 77 41 37 42 82 43 76 44
REMARK SMILES IDX 78 45 38 46 81 47 75 48 74 49 39 51 65 52 48 53 64 54 49 55
REMARK SMILES IDX 52 56 63 57 79 58 50 59 51 60 62 62 80 63 53 64 40 65 41 66
REMARK SMILES IDX 46 67 42 68 43 69 45 70 47 71 44 72 66 73 67 74 72 75 68 76
REMARK SMILES IDX 69 77 71 78 73 79 70 80 54 81 55 82 60 83 56 84 57 85 59 86
REMARK SMILES IDX 61 87 58 88
REMARK H PARENT 21 7 28 31 78 50 52 61
REMARK Flexibility Score: inf
ROOT
ATOM      1  C   UNL A   1      30.962  30.163  24.671  1.00  0.00     0.002 C 
ENDROOT
BRANCH   1   2
ATOM      2  C   UNL A   1      30.870  28.668  24.338  1.00  0.00     0.021 C 
BRANCH   2   3
ATOM      3  C   UNL A   1      30.938  28.384  22.835  1.00  0.00     0.116 C 
BRANCH   3   4
ATOM      4  N   UNL A   1      32.289  28.565  22.347  1.00  0.00    -0.351 N 
ATOM      5  C   UNL A   1      33.366  27.736  22.288  1.00  0.00     0.261 C 
ATOM      6  O   UNL A   1      34.403  28.200  21.814  1.00  0.00    -0.268 OA
ATOM      7  H   UNL A   1      32.462  29.464  21.987  1.00  0.00     0.163 HD
BRANCH   5   8
ATOM      8  C   UNL A   1      33.320  26.314  22.724  1.00  0.00     0.117 C 
ATOM      9  C   UNL A   1      33.698  25.805  23.922  1.00  0.00     0.035 C 
BRANCH   8  10
ATOM     10  C   UNL A   1      33.094  25.278  21.635  1.00  0.00     0.105 C 
ATOM     11  N   UNL A   1      32.906  24.419  20.732  1.00  0.00    -0.192 NA
ENDBRANCH   8  10
BRANCH   9  12
ATOM     12  C   UNL A   1      33.593  24.367  24.278  1.00  0.00    -0.005 A 
ATOM     13  C   UNL A   1      34.760  23.595  24.183  1.00  0.00     0.013 A 
ATOM     14  C   UNL A   1      32.429  23.756  24.777  1.00  0.00     0.052 A 
ATOM     15  C   UNL A   1      34.768  22.259  24.601  1.00  0.00     0.048 A 
ATOM     16  C   UNL A   1      32.463  22.445  25.266  1.00  0.00     0.068 A 
ATOM     17  Cl  UNL A   1      30.902  24.574  24.790  1.00  0.00    -0.084 Cl
ATOM     18  C   UNL A   1      33.624  21.679  25.158  1.00  0.00     0.128 A 
BRANCH  18  19
ATOM     19  O   UNL A   1      33.778  20.370  25.568  1.00  0.00    -0.457 OA
BRANCH  19  20
ATOM     20  C   UNL A   1      33.643  19.351  24.657  1.00  0.00     0.127 A 
ATOM     21  C   UNL A   1      32.543  19.398  23.800  1.00  0.00     0.047 A 
ATOM     22  C   UNL A   1      34.515  18.261  24.618  1.00  0.00     0.047 A 
ATOM     23  C   UNL A   1      32.362  18.397  22.844  1.00  0.00     0.004 A 
ATOM     24  C   UNL A   1      34.350  17.276  23.643  1.00  0.00     0.004 A 
ATOM     25  C   UNL A   1      33.279  17.348  22.754  1.00  0.00     0.000 A 
ENDBRANCH  19  20
ENDBRANCH  18  19
ENDBRANCH   9  12
ENDBRANCH   5   8
ENDBRANCH   3   4
ENDBRANCH   2   3
ENDBRANCH   1   2
BRANCH   1  26
ATOM     26  C   UNL A   1      31.605  30.476  26.028  1.00  0.00     0.002 C 
BRANCH  26  27
ATOM     27  C   UNL A   1      31.423  31.919  26.509  1.00  0.00     0.021 C 
BRANCH  27  28
ATOM     28  C   UNL A   1      32.652  32.504  27.198  1.00  0.00     0.116 C 
BRANCH  28  29
ATOM     29  N   UNL A   1      32.467  33.914  27.504  1.00  0.00    -0.352 N 
ATOM     30  C   UNL A   1      33.049  34.674  28.487  1.00  0.00     0.251 C 
ATOM     31  H   UNL A   1      31.834  34.392  26.921  1.00  0.00     0.163 HD
ATOM     32  O   UNL A   1      32.594  35.778  28.763  1.00  0.00    -0.269 OA
BRANCH  30  33
ATOM     33  C   UNL A   1      34.222  34.155  29.217  1.00  0.00     0.039 A 
ATOM     34  C   UNL A   1      34.021  33.441  30.401  1.00  0.00     0.014 A 
ATOM     35  C   UNL A   1      35.518  34.395  28.749  1.00  0.00     0.014 A 
ATOM     36  C   UNL A   1      35.120  32.925  31.090  1.00  0.00     0.010 A 
ATOM     37  C   UNL A   1      36.607  33.823  29.399  1.00  0.00     0.010 A 
ATOM     38  C   UNL A   1      36.419  33.087  30.579  1.00  0.00    -0.014 A 
BRANCH  38  39
ATOM     39  C   UNL A   1      37.591  32.496  31.266  1.00  0.00     0.031 A 
ATOM     40  C   UNL A   1      38.296  31.308  30.675  1.00  0.00     0.074 A 
ATOM     41  C   UNL A   1      37.982  32.993  32.456  1.00  0.00     0.049 A 
ATOM     42  N   UNL A   1      39.297  30.616  31.158  1.00  0.00    -0.248 NA
ATOM     43  C   UNL A   1      37.793  30.813  29.384  1.00  0.00     0.031 C 
ATOM     44  C   UNL A   1      37.347  34.113  33.154  1.00  0.00     0.029 A 
ATOM     45  N   UNL A   1      39.000  32.614  33.293  1.00  0.00    -0.354 N 
ATOM     46  C   UNL A   1      39.535  29.602  30.238  1.00  0.00     0.074 A 
ATOM     47  C   UNL A   1      38.541  29.737  29.196  1.00  0.00     0.031 C 
ATOM     48  C   UNL A   1      38.004  34.343  34.302  1.00  0.00     0.029 A 
ATOM     49  C   UNL A   1      39.081  33.368  34.438  1.00  0.00     0.049 A 
ATOM     50  H   UNL A   1      39.615  31.871  33.092  1.00  0.00     0.167 HD
ATOM     51  C   UNL A   1      40.508  28.660  30.251  1.00  0.00     0.037 A 
ATOM     52  C   UNL A   1      39.925  33.279  35.482  1.00  0.00     0.037 A 
ATOM     53  C   UNL A   1      41.510  28.546  31.277  1.00  0.00     0.049 A 
ATOM     54  C   UNL A   1      40.996  32.224  35.472  1.00  0.00     0.074 A 
ATOM     55  C   UNL A   1      42.573  27.664  31.351  1.00  0.00     0.029 A 
ATOM     56  N   UNL A   1      41.571  29.341  32.413  1.00  0.00    -0.354 N 
ATOM     57  N   UNL A   1      41.251  31.314  34.562  1.00  0.00    -0.248 NA
ATOM     58  C   UNL A   1      41.900  32.188  36.629  1.00  0.00     0.031 C 
ATOM     59  C   UNL A   1      43.254  27.898  32.550  1.00  0.00     0.029 A 
ATOM     60  C   UNL A   1      42.642  28.956  33.202  1.00  0.00     0.049 A 
ATOM     61  H   UNL A   1      40.945  30.071  32.626  1.00  0.00     0.167 HD
ATOM     62  C   UNL A   1      42.359  30.616  35.024  1.00  0.00     0.074 A 
ATOM     63  C   UNL A   1      42.736  31.217  36.285  1.00  0.00     0.031 C 
ATOM     64  C   UNL A   1      43.006  29.570  34.453  1.00  0.00     0.037 A 
BRANCH  51  65
ATOM     65  C   UNL A   1      40.538  27.681  29.114  1.00  0.00     0.057 A 
ATOM     66  C   UNL A   1      41.408  27.839  28.027  1.00  0.00     0.134 A 
ATOM     67  C   UNL A   1      39.717  26.547  29.124  1.00  0.00     0.134 A 
ATOM     68  F   UNL A   1      42.213  28.910  27.950  1.00  0.00    -0.206 F 
ATOM     69  C   UNL A   1      41.442  26.918  26.978  1.00  0.00     0.040 A 
ATOM     70  C   UNL A   1      39.761  25.605  28.094  1.00  0.00     0.040 A 
ATOM     71  F   UNL A   1      38.865  26.331  30.136  1.00  0.00    -0.206 F 
ATOM     72  C   UNL A   1      40.623  25.793  27.015  1.00  0.00     0.006 A 
ENDBRANCH  51  65
BRANCH  52  73
ATOM     73  C   UNL A   1      39.810  34.232  36.615  1.00  0.00     0.057 A 
ATOM     74  C   UNL A   1      40.493  35.454  36.601  1.00  0.00     0.134 A 
ATOM     75  C   UNL A   1      39.027  33.942  37.737  1.00  0.00     0.134 A 
ATOM     76  F   UNL A   1      41.274  35.779  35.560  1.00  0.00    -0.206 F 
ATOM     77  C   UNL A   1      40.417  36.346  37.671  1.00  0.00     0.040 A 
ATOM     78  C   UNL A   1      38.922  34.836  38.804  1.00  0.00     0.040 A 
ATOM     79  F   UNL A   1      38.340  32.793  37.807  1.00  0.00    -0.206 F 
ATOM     80  C   UNL A   1      39.625  36.038  38.776  1.00  0.00     0.006 A 
ENDBRANCH  52  73
BRANCH  64  81
ATOM     81  C   UNL A   1      44.206  29.033  35.175  1.00  0.00     0.057 A 
ATOM     82  C   UNL A   1      45.494  29.529  34.940  1.00  0.00     0.134 A 
ATOM     83  C   UNL A   1      44.065  28.029  36.142  1.00  0.00     0.134 A 
ATOM     84  F   UNL A   1      45.697  30.482  34.017  1.00  0.00    -0.206 F 
ATOM     85  C   UNL A   1      46.603  29.031  35.625  1.00  0.00     0.040 A 
ATOM     86  C   UNL A   1      45.163  27.540  36.851  1.00  0.00     0.040 A 
ATOM     87  F   UNL A   1      42.858  27.515  36.419  1.00  0.00    -0.206 F 
ATOM     88  C   UNL A   1      46.437  28.038  36.588  1.00  0.00     0.006 A 
ENDBRANCH  64  81
ENDBRANCH  38  39
ENDBRANCH  30  33
ENDBRANCH  28  29
ENDBRANCH  27  28
ENDBRANCH  26  27
ENDBRANCH   1  26
TORSDOF 17
ENDMDL
MODEL 3
REMARK VINA RESULT:     -11.0      0.482      6.094
REMARK SMILES N#C/C(=C\c1ccc(Oc2ccccc2)cc1Cl)C(=O)NCCCCCCNC(=O)c1ccc(-c2c3nc(c(-c4c(F)cccc4F)c4ccc([nH]4)c(-c4c(F)cccc4F)c4nc(c(-c5c(F)cccc5F)c5ccc2[nH]5)C=C4)C=C3)cc1
REMARK SMILES IDX 24 1 23 2 22 3 21 4 19 5 20 6 3 8 4 9 2 10 1 11 5 12 6 13
REMARK SMILES IDX 17 14 7 15 16 16 18 17 8 18 9 19 10 20 11 21 15 22 12 23
REMARK SMILES IDX 14 24 13 25 25 26 26 27 27 28 28 29 29 30 30 32 31 33 32 34
REMARK SMILES IDX 84 35 33 36 83 37 34 38 35 39 36 40 77 41 37 42 82 43 76 44
REMARK SMILES IDX 78 45 38 46 81 47 75 48 74 49 39 51 65 52 48 53 64 54 49 55
REMARK SMILES IDX 52 56 63 57 79 58 50 59 51 60 62 62 80 63 53 64 40 65 41 66
REMARK SMILES IDX 46 67 42 68 43 69 45 70 47 71 44 72 66 73 67 74 72 75 68 76
REMARK SMILES IDX 69 77 71 78 73 79 70 80 54 81 55 82 60 83 56 84 57 85 59 86
REMARK SMILES IDX 61 87 58 88
REMARK H PARENT 21 7 28 31 78 50 52 61
REMARK Flexibility Score: inf
ROOT
ATOM      1  C   UNL A   1      31.504  29.329  24.489  1.00  0.00     0.002 C 
ENDROOT
BRANCH   1   2
ATOM      2  C   UNL A   1      30.558  28.153  24.211  1.00  0.00     0.021 C 
BRANCH   2   3
ATOM      3  C   UNL A   1      30.595  27.686  22.753  1.00  0.00     0.116 C 
BRANCH   3   4
ATOM      4  N   UNL A   1      31.923  27.851  22.203  1.00  0.00    -0.351 N 
ATOM      5  C   UNL A   1      33.020  27.046  22.187  1.00  0.00     0.261 C 
ATOM      6  O   UNL A   1      34.028  27.486  21.633  1.00  0.00    -0.268 OA
ATOM      7  H   UNL A   1      32.059  28.714  21.750  1.00  0.00     0.163 HD
BRANCH   5   8
ATOM      8  C   UNL A   1      33.028  25.674  22.762  1.00  0.00     0.117 C 
ATOM      9  C   UNL A   1      33.177  25.324  24.062  1.00  0.00     0.035 C 
BRANCH   8  10
ATOM     10  C   UNL A   1      33.165  24.527  21.774  1.00  0.00     0.105 C 
ATOM     11  N   UNL A   1      33.278  23.575  20.955  1.00  0.00    -0.192 NA
ENDBRANCH   8  10
BRANCH   9  12
ATOM     12  C   UNL A   1      33.148  23.922  24.549  1.00  0.00    -0.005 A 
ATOM     13  C   UNL A   1      31.894  23.303  24.652  1.00  0.00     0.013 A 
ATOM     14  C   UNL A   1      34.293  23.156  24.834  1.00  0.00     0.052 A 
ATOM     15  C   UNL A   1      31.791  21.951  25.000  1.00  0.00     0.048 A 
ATOM     16  C   UNL A   1      34.190  21.788  25.106  1.00  0.00     0.068 A 
ATOM     17  Cl  UNL A   1      35.874  23.863  24.888  1.00  0.00    -0.084 Cl
ATOM     18  C   UNL A   1      32.937  21.181  25.217  1.00  0.00     0.128 A 
BRANCH  18  19
ATOM     19  O   UNL A   1      32.699  19.854  25.513  1.00  0.00    -0.457 OA
BRANCH  19  20
ATOM     20  C   UNL A   1      33.162  18.875  24.669  1.00  0.00     0.127 A 
ATOM     21  C   UNL A   1      32.472  18.680  23.472  1.00  0.00     0.047 A 
ATOM     22  C   UNL A   1      34.235  18.044  25.002  1.00  0.00     0.047 A 
ATOM     23  C   UNL A   1      32.906  17.708  22.569  1.00  0.00     0.004 A 
ATOM     24  C   UNL A   1      34.686  17.093  24.086  1.00  0.00     0.004 A 
ATOM     25  C   UNL A   1      34.026  16.930  22.868  1.00  0.00     0.000 A 
ENDBRANCH  19  20
ENDBRANCH  18  19
ENDBRANCH   9  12
ENDBRANCH   5   8
ENDBRANCH   3   4
ENDBRANCH   2   3
ENDBRANCH   1   2
BRANCH   1  26
ATOM     26  C   UNL A   1      32.233  29.257  25.837  1.00  0.00     0.002 C 
BRANCH  26  27
ATOM     27  C   UNL A   1      33.582  28.534  25.800  1.00  0.00     0.021 C 
BRANCH  27  28
ATOM     28  C   UNL A   1      34.339  28.560  27.125  1.00  0.00     0.116 C 
BRANCH  28  29
ATOM     29  N   UNL A   1      34.215  29.852  27.781  1.00  0.00    -0.352 N 
ATOM     30  C   UNL A   1      35.110  30.507  28.588  1.00  0.00     0.251 C 
ATOM     31  H   UNL A   1      33.367  30.326  27.622  1.00  0.00     0.163 HD
ATOM     32  O   UNL A   1      34.749  31.467  29.259  1.00  0.00    -0.269 OA
BRANCH  30  33
ATOM     33  C   UNL A   1      36.512  30.047  28.652  1.00  0.00     0.039 A 
ATOM     34  C   UNL A   1      37.309  30.144  27.509  1.00  0.00     0.014 A 
ATOM     35  C   UNL A   1      37.030  29.498  29.829  1.00  0.00     0.014 A 
ATOM     36  C   UNL A   1      38.643  29.735  27.561  1.00  0.00     0.010 A 
ATOM     37  C   UNL A   1      38.376  29.153  29.899  1.00  0.00     0.010 A 
ATOM     38  C   UNL A   1      39.193  29.263  28.765  1.00  0.00    -0.014 A 
BRANCH  38  39
ATOM     39  C   UNL A   1      40.622  28.879  28.853  1.00  0.00     0.031 A 
ATOM     40  C   UNL A   1      41.066  27.508  28.426  1.00  0.00     0.074 A 
ATOM     41  C   UNL A   1      41.511  29.745  29.376  1.00  0.00     0.049 A 
ATOM     42  N   UNL A   1      42.257  26.968  28.486  1.00  0.00    -0.248 NA
ATOM     43  C   UNL A   1      40.029  26.615  27.885  1.00  0.00     0.031 C 
ATOM     44  C   UNL A   1      41.193  31.088  29.870  1.00  0.00     0.029 A 
ATOM     45  N   UNL A   1      42.860  29.624  29.590  1.00  0.00    -0.354 N 
ATOM     46  C   UNL A   1      42.111  25.674  28.003  1.00  0.00     0.074 A 
ATOM     47  C   UNL A   1      40.707  25.491  27.703  1.00  0.00     0.031 C 
ATOM     48  C   UNL A   1      42.319  31.672  30.309  1.00  0.00     0.029 A 
ATOM     49  C   UNL A   1      43.429  30.736  30.161  1.00  0.00     0.049 A 
ATOM     50  H   UNL A   1      43.372  28.816  29.357  1.00  0.00     0.167 HD
ATOM     51  C   UNL A   1      43.063  24.732  27.806  1.00  0.00     0.037 A 
ATOM     52  C   UNL A   1      44.702  30.973  30.527  1.00  0.00     0.037 A 
ATOM     53  C   UNL A   1      44.462  24.927  28.082  1.00  0.00     0.049 A 
ATOM     54  C   UNL A   1      45.741  29.910  30.298  1.00  0.00     0.074 A 
ATOM     55  C   UNL A   1      45.515  24.056  27.861  1.00  0.00     0.029 A 
ATOM     56  N   UNL A   1      45.004  26.075  28.642  1.00  0.00    -0.354 N 
ATOM     57  N   UNL A   1      45.599  28.715  29.778  1.00  0.00    -0.248 NA
ATOM     58  C   UNL A   1      47.117  30.232  30.700  1.00  0.00     0.031 C 
ATOM     59  C   UNL A   1      46.688  24.661  28.324  1.00  0.00     0.029 A 
ATOM     60  C   UNL A   1      46.372  25.927  28.791  1.00  0.00     0.049 A 
ATOM     61  H   UNL A   1      44.491  26.877  28.895  1.00  0.00     0.167 HD
ATOM     62  C   UNL A   1      46.869  28.153  29.766  1.00  0.00     0.074 A 
ATOM     63  C   UNL A   1      47.770  29.144  30.316  1.00  0.00     0.031 C 
ATOM     64  C   UNL A   1      47.255  26.926  29.337  1.00  0.00     0.037 A 
BRANCH  51  65
ATOM     65  C   UNL A   1      42.623  23.405  27.259  1.00  0.00     0.057 A 
ATOM     66  C   UNL A   1      42.650  23.128  25.885  1.00  0.00     0.134 A 
ATOM     67  C   UNL A   1      42.204  22.380  28.116  1.00  0.00     0.134 A 
ATOM     68  F   UNL A   1      43.029  24.071  25.009  1.00  0.00    -0.206 F 
ATOM     69  C   UNL A   1      42.252  21.889  25.382  1.00  0.00     0.040 A 
ATOM     70  C   UNL A   1      41.830  21.128  27.627  1.00  0.00     0.040 A 
ATOM     71  F   UNL A   1      42.161  22.576  29.441  1.00  0.00    -0.206 F 
ATOM     72  C   UNL A   1      41.849  20.881  26.255  1.00  0.00     0.006 A 
ENDBRANCH  51  65
BRANCH  52  73
ATOM     73  C   UNL A   1      45.073  32.279  31.127  1.00  0.00     0.057 A 
ATOM     74  C   UNL A   1      45.535  33.333  30.329  1.00  0.00     0.134 A 
ATOM     75  C   UNL A   1      44.985  32.503  32.505  1.00  0.00     0.134 A 
ATOM     76  F   UNL A   1      45.659  33.172  29.004  1.00  0.00    -0.206 F 
ATOM     77  C   UNL A   1      45.914  34.556  30.883  1.00  0.00     0.040 A 
ATOM     78  C   UNL A   1      45.338  33.730  33.070  1.00  0.00     0.040 A 
ATOM     79  F   UNL A   1      44.541  31.536  33.322  1.00  0.00    -0.206 F 
ATOM     80  C   UNL A   1      45.812  34.758  32.258  1.00  0.00     0.006 A 
ENDBRANCH  52  73
BRANCH  64  81
ATOM     81  C   UNL A   1      48.717  26.602  29.417  1.00  0.00     0.057 A 
ATOM     82  C   UNL A   1      49.265  25.926  30.515  1.00  0.00     0.134 A 
ATOM     83  C   UNL A   1      49.581  26.940  28.367  1.00  0.00     0.134 A 
ATOM     84  F   UNL A   1      48.493  25.587  31.559  1.00  0.00    -0.206 F 
ATOM     85  C   UNL A   1      50.625  25.619  30.576  1.00  0.00     0.040 A 
ATOM     86  C   UNL A   1      50.937  26.615  28.406  1.00  0.00     0.040 A 
ATOM     87  F   UNL A   1      49.118  27.582  27.285  1.00  0.00    -0.206 F 
ATOM     88  C   UNL A   1      51.463  25.958  29.516  1.00  0.00     0.006 A 
ENDBRANCH  64  81
ENDBRANCH  38  39
ENDBRANCH  30  33
ENDBRANCH  28  29
ENDBRANCH  27  28
ENDBRANCH  26  27
ENDBRANCH   1  26
TORSDOF 17
ENDMDL
