MODEL 1
REMARK VINA RESULT:      -9.2      0.000      0.000
REMARK SMILES Cn1nc(C(=O)NCCCCCCNC(=O)c2ccc(-c3c4nc(c(-c5c(F)cccc5F)c5ccc([nH]5)c(-c5c(F)cccc5F)c5nc(c(-c6c(F)cccc6F)c6ccc3[nH]6)C=C5)C=C4)cc2)cc1C1CC1
REMARK SMILES IDX 11 1 10 2 9 3 8 4 7 5 5 6 6 7 4 9 1 10 2 11 3 12 72 13 71 14
REMARK SMILES IDX 73 15 74 16 75 17 12 18 13 19 14 20 15 21 16 23 17 24 18 25
REMARK SMILES IDX 70 26 19 27 69 28 20 29 21 30 22 31 63 32 23 33 68 34 62 35
REMARK SMILES IDX 64 36 24 37 67 38 61 39 60 40 25 42 51 43 34 44 50 45 35 46
REMARK SMILES IDX 38 47 49 48 65 49 36 50 37 51 48 53 66 54 39 55 26 56 27 57
REMARK SMILES IDX 32 58 28 59 29 60 31 61 33 62 30 63 52 64 53 65 58 66 54 67
REMARK SMILES IDX 55 68 57 69 59 70 56 71 40 72 41 73 46 74 42 75 43 76 45 77
REMARK SMILES IDX 47 78 44 79
REMARK H PARENT 7 8 14 22 64 41 38 52
REMARK Flexibility Score: inf
ROOT
ATOM      1  C   UNL A   1      35.005  35.525  32.822  1.00  0.00     0.002 C 
ENDROOT
BRANCH   1   2
ATOM      2  C   UNL A   1      35.040  34.928  34.236  1.00  0.00     0.002 C 
BRANCH   2   3
ATOM      3  C   UNL A   1      35.892  33.659  34.375  1.00  0.00     0.021 C 
BRANCH   3   4
ATOM      4  C   UNL A   1      37.267  33.936  34.987  1.00  0.00     0.116 C 
BRANCH   4   5
ATOM      5  N   UNL A   1      37.369  33.338  36.298  1.00  0.00    -0.351 N 
ATOM      6  C   UNL A   1      37.927  32.164  36.750  1.00  0.00     0.271 C 
ATOM      7  O   UNL A   1      37.822  31.970  37.966  1.00  0.00    -0.267 OA
ATOM      8  H   UNL A   1      36.957  33.878  37.011  1.00  0.00     0.163 HD
BRANCH   6   9
ATOM      9  C   UNL A   1      38.634  31.221  35.853  1.00  0.00     0.150 A 
ATOM     10  C   UNL A   1      41.652  29.595  35.150  1.00  0.00     0.174 C 
ATOM     11  N   UNL A   1      40.310  30.113  35.084  1.00  0.00    -0.272 N 
ATOM     12  N   UNL A   1      39.932  30.933  36.084  1.00  0.00    -0.168 NA
ATOM     13  C   UNL A   1      39.325  29.923  34.159  1.00  0.00     0.042 A 
ATOM     14  C   UNL A   1      38.204  30.506  34.708  1.00  0.00     0.059 A 
BRANCH  13  15
ATOM     15  C   UNL A   1      39.287  29.281  32.783  1.00  0.00     0.038 C 
ATOM     16  C   UNL A   1      39.619  27.815  32.634  1.00  0.00     0.010 C 
ATOM     17  C   UNL A   1      38.226  28.291  32.390  1.00  0.00     0.010 C 
ENDBRANCH  13  15
ENDBRANCH   6   9
ENDBRANCH   4   5
ENDBRANCH   3   4
ENDBRANCH   2   3
ENDBRANCH   1   2
BRANCH   1  18
ATOM     18  C   UNL A   1      33.603  35.683  32.228  1.00  0.00     0.021 C 
BRANCH  18  19
ATOM     19  C   UNL A   1      33.579  36.401  30.884  1.00  0.00     0.116 C 
BRANCH  19  20
ATOM     20  N   UNL A   1      32.780  35.680  29.906  1.00  0.00    -0.352 N 
ATOM     21  C   UNL A   1      33.139  34.643  29.082  1.00  0.00     0.251 C 
ATOM     22  H   UNL A   1      31.846  35.980  29.822  1.00  0.00     0.163 HD
ATOM     23  O   UNL A   1      32.419  34.312  28.148  1.00  0.00    -0.269 OA
BRANCH  21  24
ATOM     24  C   UNL A   1      34.411  33.934  29.321  1.00  0.00     0.039 A 
ATOM     25  C   UNL A   1      35.537  34.283  28.571  1.00  0.00     0.014 A 
ATOM     26  C   UNL A   1      34.490  32.925  30.286  1.00  0.00     0.014 A 
ATOM     27  C   UNL A   1      36.759  33.662  28.834  1.00  0.00     0.010 A 
ATOM     28  C   UNL A   1      35.724  32.365  30.601  1.00  0.00     0.010 A 
ATOM     29  C   UNL A   1      36.870  32.725  29.875  1.00  0.00    -0.014 A 
BRANCH  29  30
ATOM     30  C   UNL A   1      38.177  32.113  30.220  1.00  0.00     0.031 A 
ATOM     31  C   UNL A   1      39.132  32.831  31.132  1.00  0.00     0.074 A 
ATOM     32  C   UNL A   1      38.526  30.936  29.664  1.00  0.00     0.049 A 
ATOM     33  N   UNL A   1      40.337  32.483  31.504  1.00  0.00    -0.248 NA
ATOM     34  C   UNL A   1      38.685  34.122  31.678  1.00  0.00     0.031 C 
ATOM     35  C   UNL A   1      37.707  30.165  28.726  1.00  0.00     0.029 A 
ATOM     36  N   UNL A   1      39.668  30.186  29.799  1.00  0.00    -0.354 N 
ATOM     37  C   UNL A   1      40.794  33.514  32.316  1.00  0.00     0.074 A 
ATOM     38  C   UNL A   1      39.762  34.527  32.335  1.00  0.00     0.031 C 
ATOM     39  C   UNL A   1      38.359  29.041  28.394  1.00  0.00     0.029 A 
ATOM     40  C   UNL A   1      39.658  29.030  29.058  1.00  0.00     0.049 A 
ATOM     41  H   UNL A   1      40.422  30.451  30.373  1.00  0.00     0.167 HD
ATOM     42  C   UNL A   1      41.956  33.596  33.006  1.00  0.00     0.037 A 
ATOM     43  C   UNL A   1      40.596  28.072  28.922  1.00  0.00     0.037 A 
ATOM     44  C   UNL A   1      42.973  32.577  32.999  1.00  0.00     0.049 A 
ATOM     45  C   UNL A   1      41.888  28.198  29.682  1.00  0.00     0.074 A 
ATOM     46  C   UNL A   1      44.162  32.542  33.706  1.00  0.00     0.029 A 
ATOM     47  N   UNL A   1      42.923  31.415  32.243  1.00  0.00    -0.354 N 
ATOM     48  N   UNL A   1      42.275  29.144  30.504  1.00  0.00    -0.248 NA
ATOM     49  C   UNL A   1      42.871  27.122  29.501  1.00  0.00     0.031 C 
ATOM     50  C   UNL A   1      44.856  31.386  33.337  1.00  0.00     0.029 A 
ATOM     51  C   UNL A   1      44.072  30.671  32.447  1.00  0.00     0.049 A 
ATOM     52  H   UNL A   1      42.180  31.159  31.649  1.00  0.00     0.167 HD
ATOM     53  C   UNL A   1      43.528  28.760  30.963  1.00  0.00     0.074 A 
ATOM     54  C   UNL A   1      43.831  27.489  30.337  1.00  0.00     0.031 C 
ATOM     55  C   UNL A   1      44.354  29.401  31.826  1.00  0.00     0.037 A 
BRANCH  42  56
ATOM     56  C   UNL A   1      42.190  34.830  33.829  1.00  0.00     0.057 A 
ATOM     57  C   UNL A   1      42.801  35.972  33.292  1.00  0.00     0.134 A 
ATOM     58  C   UNL A   1      41.762  34.894  35.161  1.00  0.00     0.134 A 
ATOM     59  F   UNL A   1      43.244  35.975  32.026  1.00  0.00    -0.206 F 
ATOM     60  C   UNL A   1      43.002  37.122  34.058  1.00  0.00     0.040 A 
ATOM     61  C   UNL A   1      41.931  36.049  35.928  1.00  0.00     0.040 A 
ATOM     62  F   UNL A   1      41.164  33.840  35.736  1.00  0.00    -0.206 F 
ATOM     63  C   UNL A   1      42.559  37.165  35.379  1.00  0.00     0.006 A 
ENDBRANCH  42  56
BRANCH  43  64
ATOM     64  C   UNL A   1      40.345  26.899  28.044  1.00  0.00     0.057 A 
ATOM     65  C   UNL A   1      40.883  26.835  26.753  1.00  0.00     0.134 A 
ATOM     66  C   UNL A   1      39.550  25.826  28.466  1.00  0.00     0.134 A 
ATOM     67  F   UNL A   1      41.639  27.839  26.286  1.00  0.00    -0.206 F 
ATOM     68  C   UNL A   1      40.618  25.759  25.904  1.00  0.00     0.040 A 
ATOM     69  C   UNL A   1      39.300  24.731  27.637  1.00  0.00     0.040 A 
ATOM     70  F   UNL A   1      39.014  25.822  29.694  1.00  0.00    -0.206 F 
ATOM     71  C   UNL A   1      39.827  24.701  26.348  1.00  0.00     0.006 A 
ENDBRANCH  43  64
BRANCH  55  72
ATOM     72  C   UNL A   1      45.644  28.721  32.181  1.00  0.00     0.057 A 
ATOM     73  C   UNL A   1      46.827  28.951  31.467  1.00  0.00     0.134 A 
ATOM     74  C   UNL A   1      45.713  27.862  33.286  1.00  0.00     0.134 A 
ATOM     75  F   UNL A   1      46.827  29.754  30.392  1.00  0.00    -0.206 F 
ATOM     76  C   UNL A   1      48.027  28.335  31.826  1.00  0.00     0.040 A 
ATOM     77  C   UNL A   1      46.913  27.263  33.672  1.00  0.00     0.040 A 
ATOM     78  F   UNL A   1      44.620  27.605  34.019  1.00  0.00    -0.206 F 
ATOM     79  C   UNL A   1      48.074  27.495  32.937  1.00  0.00     0.006 A 
ENDBRANCH  55  72
ENDBRANCH  29  30
ENDBRANCH  21  24
ENDBRANCH  19  20
ENDBRANCH  18  19
ENDBRANCH   1  18
TORSDOF 14
ENDMDL
MODEL 2
REMARK VINA RESULT:      -9.0      4.832     10.936
REMARK SMILES Cn1nc(C(=O)NCCCCCCNC(=O)c2ccc(-c3c4nc(c(-c5c(F)cccc5F)c5ccc([nH]5)c(-c5c(F)cccc5F)c5nc(c(-c6c(F)cccc6F)c6ccc3[nH]6)C=C5)C=C4)cc2)cc1C1CC1
REMARK SMILES IDX 11 1 10 2 9 3 8 4 7 5 5 6 6 7 4 9 1 10 2 11 3 12 72 13 71 14
REMARK SMILES IDX 73 15 74 16 75 17 12 18 13 19 14 20 15 21 16 23 17 24 18 25
REMARK SMILES IDX 70 26 19 27 69 28 20 29 21 30 22 31 63 32 23 33 68 34 62 35
REMARK SMILES IDX 64 36 24 37 67 38 61 39 60 40 25 42 51 43 34 44 50 45 35 46
REMARK SMILES IDX 38 47 49 48 65 49 36 50 37 51 48 53 66 54 39 55 26 56 27 57
REMARK SMILES IDX 32 58 28 59 29 60 31 61 33 62 30 63 52 64 53 65 58 66 54 67
REMARK SMILES IDX 55 68 57 69 59 70 56 71 40 72 41 73 46 74 42 75 43 76 45 77
REMARK SMILES IDX 47 78 44 79
REMARK H PARENT 7 8 14 22 64 41 38 52
REMARK Flexibility Score: inf
ROOT
ATOM      1  C   UNL A   1      44.898  20.235  24.324  1.00  0.00     0.002 C 
ENDROOT
BRANCH   1   2
ATOM      2  C   UNL A   1      45.684  21.194  25.230  1.00  0.00     0.002 C 
BRANCH   2   3
ATOM      3  C   UNL A   1      46.300  22.399  24.507  1.00  0.00     0.021 C 
BRANCH   3   4
ATOM      4  C   UNL A   1      46.122  23.706  25.282  1.00  0.00     0.116 C 
BRANCH   4   5
ATOM      5  N   UNL A   1      47.065  24.700  24.825  1.00  0.00    -0.351 N 
ATOM      6  C   UNL A   1      47.063  26.076  24.853  1.00  0.00     0.271 C 
ATOM      7  O   UNL A   1      48.059  26.610  24.355  1.00  0.00    -0.267 OA
ATOM      8  H   UNL A   1      47.872  24.316  24.410  1.00  0.00     0.163 HD
BRANCH   6   9
ATOM      9  C   UNL A   1      45.966  26.857  25.469  1.00  0.00     0.150 A 
ATOM     10  C   UNL A   1      42.552  27.623  25.393  1.00  0.00     0.174 C 
ATOM     11  N   UNL A   1      43.962  27.610  25.685  1.00  0.00    -0.272 N 
ATOM     12  N   UNL A   1      44.716  26.749  24.974  1.00  0.00    -0.168 NA
ATOM     13  C   UNL A   1      44.696  28.342  26.572  1.00  0.00     0.042 A 
ATOM     14  C   UNL A   1      45.952  27.774  26.549  1.00  0.00     0.059 A 
BRANCH  13  15
ATOM     15  C   UNL A   1      44.393  29.549  27.442  1.00  0.00     0.038 C 
ATOM     16  C   UNL A   1      45.214  30.808  27.286  1.00  0.00     0.010 C 
ATOM     17  C   UNL A   1      43.775  30.802  26.886  1.00  0.00     0.010 C 
ENDBRANCH  13  15
ENDBRANCH   6   9
ENDBRANCH   4   5
ENDBRANCH   3   4
ENDBRANCH   2   3
ENDBRANCH   1   2
BRANCH   1  18
ATOM     18  C   UNL A   1      44.764  18.809  24.864  1.00  0.00     0.021 C 
BRANCH  18  19
ATOM     19  C   UNL A   1      43.844  18.690  26.073  1.00  0.00     0.116 C 
BRANCH  19  20
ATOM     20  N   UNL A   1      42.442  18.722  25.685  1.00  0.00    -0.352 N 
ATOM     21  C   UNL A   1      41.477  19.649  25.988  1.00  0.00     0.251 C 
ATOM     22  H   UNL A   1      42.143  17.970  25.126  1.00  0.00     0.163 HD
ATOM     23  O   UNL A   1      40.293  19.403  25.787  1.00  0.00    -0.269 OA
BRANCH  21  24
ATOM     24  C   UNL A   1      41.873  20.946  26.571  1.00  0.00     0.039 A 
ATOM     25  C   UNL A   1      42.211  22.000  25.719  1.00  0.00     0.014 A 
ATOM     26  C   UNL A   1      41.907  21.119  27.958  1.00  0.00     0.014 A 
ATOM     27  C   UNL A   1      42.526  23.248  26.260  1.00  0.00     0.010 A 
ATOM     28  C   UNL A   1      42.142  22.382  28.491  1.00  0.00     0.010 A 
ATOM     29  C   UNL A   1      42.457  23.458  27.647  1.00  0.00    -0.014 A 
BRANCH  29  30
ATOM     30  C   UNL A   1      42.711  24.798  28.234  1.00  0.00     0.031 A 
ATOM     31  C   UNL A   1      44.079  25.153  28.745  1.00  0.00     0.074 A 
ATOM     32  C   UNL A   1      41.693  25.672  28.359  1.00  0.00     0.049 A 
ATOM     33  N   UNL A   1      44.480  26.249  29.337  1.00  0.00    -0.248 NA
ATOM     34  C   UNL A   1      45.130  24.134  28.593  1.00  0.00     0.031 C 
ATOM     35  C   UNL A   1      40.309  25.426  27.946  1.00  0.00     0.029 A 
ATOM     36  N   UNL A   1      41.662  26.941  28.879  1.00  0.00    -0.354 N 
ATOM     37  C   UNL A   1      45.822  26.047  29.636  1.00  0.00     0.074 A 
ATOM     38  C   UNL A   1      46.152  24.704  29.215  1.00  0.00     0.031 C 
ATOM     39  C   UNL A   1      39.574  26.518  28.203  1.00  0.00     0.029 A 
ATOM     40  C   UNL A   1      40.419  27.524  28.837  1.00  0.00     0.049 A 
ATOM     41  H   UNL A   1      42.456  27.392  29.248  1.00  0.00     0.167 HD
ATOM     42  C   UNL A   1      46.705  26.912  30.187  1.00  0.00     0.037 A 
ATOM     43  C   UNL A   1      40.006  28.731  29.268  1.00  0.00     0.037 A 
ATOM     44  C   UNL A   1      46.377  28.255  30.588  1.00  0.00     0.049 A 
ATOM     45  C   UNL A   1      41.003  29.666  29.897  1.00  0.00     0.074 A 
ATOM     46  C   UNL A   1      47.214  29.228  31.107  1.00  0.00     0.029 A 
ATOM     47  N   UNL A   1      45.109  28.813  30.521  1.00  0.00    -0.354 N 
ATOM     48  N   UNL A   1      42.285  29.488  30.107  1.00  0.00    -0.248 NA
ATOM     49  C   UNL A   1      40.497  30.972  30.344  1.00  0.00     0.031 C 
ATOM     50  C   UNL A   1      46.442  30.356  31.402  1.00  0.00     0.029 A 
ATOM     51  C   UNL A   1      45.137  30.107  31.012  1.00  0.00     0.049 A 
ATOM     52  H   UNL A   1      44.309  28.357  30.174  1.00  0.00     0.167 HD
ATOM     53  C   UNL A   1      42.745  30.669  30.676  1.00  0.00     0.074 A 
ATOM     54  C   UNL A   1      41.607  31.560  30.767  1.00  0.00     0.031 C 
ATOM     55  C   UNL A   1      43.997  30.987  31.085  1.00  0.00     0.037 A 
BRANCH  42  56
ATOM     56  C   UNL A   1      48.115  26.434  30.386  1.00  0.00     0.057 A 
ATOM     57  C   UNL A   1      48.517  25.788  31.563  1.00  0.00     0.134 A 
ATOM     58  C   UNL A   1      49.071  26.582  29.374  1.00  0.00     0.134 A 
ATOM     59  F   UNL A   1      47.654  25.623  32.578  1.00  0.00    -0.206 F 
ATOM     60  C   UNL A   1      49.825  25.332  31.737  1.00  0.00     0.040 A 
ATOM     61  C   UNL A   1      50.375  26.103  29.524  1.00  0.00     0.040 A 
ATOM     62  F   UNL A   1      48.753  27.184  28.218  1.00  0.00    -0.206 F 
ATOM     63  C   UNL A   1      50.756  25.482  30.711  1.00  0.00     0.006 A 
ENDBRANCH  42  56
BRANCH  43  64
ATOM     64  C   UNL A   1      38.585  29.137  29.108  1.00  0.00     0.057 A 
ATOM     65  C   UNL A   1      38.101  29.606  27.880  1.00  0.00     0.134 A 
ATOM     66  C   UNL A   1      37.683  29.083  30.177  1.00  0.00     0.134 A 
ATOM     67  F   UNL A   1      38.921  29.696  26.823  1.00  0.00    -0.206 F 
ATOM     68  C   UNL A   1      36.781  30.031  27.730  1.00  0.00     0.040 A 
ATOM     69  C   UNL A   1      36.352  29.479  30.033  1.00  0.00     0.040 A 
ATOM     70  F   UNL A   1      38.080  28.634  31.377  1.00  0.00    -0.206 F 
ATOM     71  C   UNL A   1      35.901  29.965  28.808  1.00  0.00     0.006 A 
ENDBRANCH  43  64
BRANCH  55  72
ATOM     72  C   UNL A   1      44.217  32.369  31.628  1.00  0.00     0.057 A 
ATOM     73  C   UNL A   1      44.151  32.648  33.000  1.00  0.00     0.134 A 
ATOM     74  C   UNL A   1      44.547  33.425  30.769  1.00  0.00     0.134 A 
ATOM     75  F   UNL A   1      43.828  31.684  33.875  1.00  0.00    -0.206 F 
ATOM     76  C   UNL A   1      44.386  33.932  33.494  1.00  0.00     0.040 A 
ATOM     77  C   UNL A   1      44.812  34.706  31.255  1.00  0.00     0.040 A 
ATOM     78  F   UNL A   1      44.635  33.225  29.446  1.00  0.00    -0.206 F 
ATOM     79  C   UNL A   1      44.726  34.964  32.621  1.00  0.00     0.006 A 
ENDBRANCH  55  72
ENDBRANCH  29  30
ENDBRANCH  21  24
ENDBRANCH  19  20
ENDBRANCH  18  19
ENDBRANCH   1  18
TORSDOF 14
ENDMDL
MODEL 3
REMARK VINA RESULT:      -8.7      2.822      4.822
REMARK SMILES Cn1nc(C(=O)NCCCCCCNC(=O)c2ccc(-c3c4nc(c(-c5c(F)cccc5F)c5ccc([nH]5)c(-c5c(F)cccc5F)c5nc(c(-c6c(F)cccc6F)c6ccc3[nH]6)C=C5)C=C4)cc2)cc1C1CC1
REMARK SMILES IDX 11 1 10 2 9 3 8 4 7 5 5 6 6 7 4 9 1 10 2 11 3 12 72 13 71 14
REMARK SMILES IDX 73 15 74 16 75 17 12 18 13 19 14 20 15 21 16 23 17 24 18 25
REMARK SMILES IDX 70 26 19 27 69 28 20 29 21 30 22 31 63 32 23 33 68 34 62 35
REMARK SMILES IDX 64 36 24 37 67 38 61 39 60 40 25 42 51 43 34 44 50 45 35 46
REMARK SMILES IDX 38 47 49 48 65 49 36 50 37 51 48 53 66 54 39 55 26 56 27 57
REMARK SMILES IDX 32 58 28 59 29 60 31 61 33 62 30 63 52 64 53 65 58 66 54 67
REMARK SMILES IDX 55 68 57 69 59 70 56 71 40 72 41 73 46 74 42 75 43 76 45 77
REMARK SMILES IDX 47 78 44 79
REMARK H PARENT 7 8 14 22 64 41 38 52
REMARK Flexibility Score: inf
ROOT
ATOM      1  C   UNL A   1      34.777  34.803  28.385  1.00  0.00     0.002 C 
ENDROOT
BRANCH   1   2
ATOM      2  C   UNL A   1      33.287  34.931  28.732  1.00  0.00     0.002 C 
BRANCH   2   3
ATOM      3  C   UNL A   1      32.932  36.143  29.604  1.00  0.00     0.021 C 
BRANCH   3   4
ATOM      4  C   UNL A   1      32.515  35.748  31.021  1.00  0.00     0.116 C 
BRANCH   4   5
ATOM      5  N   UNL A   1      32.911  36.764  31.969  1.00  0.00    -0.351 N 
ATOM      6  C   UNL A   1      33.927  36.836  32.894  1.00  0.00     0.271 C 
ATOM      7  O   UNL A   1      33.962  37.881  33.552  1.00  0.00    -0.267 OA
ATOM      8  H   UNL A   1      32.341  37.566  31.948  1.00  0.00     0.163 HD
BRANCH   6   9
ATOM      9  C   UNL A   1      34.926  35.756  33.065  1.00  0.00     0.150 A 
ATOM     10  C   UNL A   1      36.509  33.596  35.318  1.00  0.00     0.174 C 
ATOM     11  N   UNL A   1      36.138  34.344  34.144  1.00  0.00    -0.272 N 
ATOM     12  N   UNL A   1      35.149  35.247  34.293  1.00  0.00    -0.168 NA
ATOM     13  C   UNL A   1      36.627  34.306  32.871  1.00  0.00     0.042 A 
ATOM     14  C   UNL A   1      35.770  35.097  32.137  1.00  0.00     0.059 A 
BRANCH  13  15
ATOM     15  C   UNL A   1      37.833  33.642  32.229  1.00  0.00     0.038 C 
ATOM     16  C   UNL A   1      37.688  32.274  31.605  1.00  0.00     0.010 C 
ATOM     17  C   UNL A   1      37.950  33.463  30.741  1.00  0.00     0.010 C 
ENDBRANCH  13  15
ENDBRANCH   6   9
ENDBRANCH   4   5
ENDBRANCH   3   4
ENDBRANCH   2   3
ENDBRANCH   1   2
BRANCH   1  18
ATOM     18  C   UNL A   1      35.266  33.369  28.176  1.00  0.00     0.021 C 
BRANCH  18  19
ATOM     19  C   UNL A   1      34.797  32.393  29.248  1.00  0.00     0.116 C 
BRANCH  19  20
ATOM     20  N   UNL A   1      34.172  31.216  28.666  1.00  0.00    -0.352 N 
ATOM     21  C   UNL A   1      34.755  30.085  28.152  1.00  0.00     0.251 C 
ATOM     22  H   UNL A   1      33.188  31.233  28.635  1.00  0.00     0.163 HD
ATOM     23  O   UNL A   1      34.099  29.297  27.481  1.00  0.00    -0.269 OA
BRANCH  21  24
ATOM     24  C   UNL A   1      36.187  29.829  28.403  1.00  0.00     0.039 A 
ATOM     25  C   UNL A   1      36.581  29.328  29.645  1.00  0.00     0.014 A 
ATOM     26  C   UNL A   1      37.137  30.083  27.409  1.00  0.00     0.014 A 
ATOM     27  C   UNL A   1      37.924  29.023  29.870  1.00  0.00     0.010 A 
ATOM     28  C   UNL A   1      38.461  29.704  27.606  1.00  0.00     0.010 A 
ATOM     29  C   UNL A   1      38.868  29.174  28.840  1.00  0.00    -0.014 A 
BRANCH  29  30
ATOM     30  C   UNL A   1      40.286  28.781  29.035  1.00  0.00     0.031 A 
ATOM     31  C   UNL A   1      41.265  29.752  29.633  1.00  0.00     0.074 A 
ATOM     32  C   UNL A   1      40.703  27.569  28.618  1.00  0.00     0.049 A 
ATOM     33  N   UNL A   1      42.551  29.611  29.832  1.00  0.00    -0.248 NA
ATOM     34  C   UNL A   1      40.736  31.063  30.039  1.00  0.00     0.031 C 
ATOM     35  C   UNL A   1      39.859  26.556  27.978  1.00  0.00     0.029 A 
ATOM     36  N   UNL A   1      41.944  26.986  28.661  1.00  0.00    -0.354 N 
ATOM     37  C   UNL A   1      42.983  30.815  30.374  1.00  0.00     0.074 A 
ATOM     38  C   UNL A   1      41.837  31.695  30.419  1.00  0.00     0.031 C 
ATOM     39  C   UNL A   1      40.601  25.469  27.715  1.00  0.00     0.029 A 
ATOM     40  C   UNL A   1      41.978  25.721  28.126  1.00  0.00     0.049 A 
ATOM     41  H   UNL A   1      42.736  27.431  29.040  1.00  0.00     0.167 HD
ATOM     42  C   UNL A   1      44.218  31.147  30.819  1.00  0.00     0.037 A 
ATOM     43  C   UNL A   1      43.005  24.863  27.976  1.00  0.00     0.037 A 
ATOM     44  C   UNL A   1      45.352  30.262  30.790  1.00  0.00     0.049 A 
ATOM     45  C   UNL A   1      44.372  25.265  28.460  1.00  0.00     0.074 A 
ATOM     46  C   UNL A   1      46.632  30.486  31.266  1.00  0.00     0.029 A 
ATOM     47  N   UNL A   1      45.345  28.985  30.249  1.00  0.00    -0.354 N 
ATOM     48  N   UNL A   1      44.750  26.380  29.038  1.00  0.00    -0.248 NA
ATOM     49  C   UNL A   1      45.454  24.288  28.276  1.00  0.00     0.031 C 
ATOM     50  C   UNL A   1      47.413  29.365  30.966  1.00  0.00     0.029 A 
ATOM     51  C   UNL A   1      46.604  28.419  30.357  1.00  0.00     0.049 A 
ATOM     52  H   UNL A   1      44.560  28.545  29.848  1.00  0.00     0.167 HD
ATOM     53  C   UNL A   1      46.102  26.225  29.317  1.00  0.00     0.074 A 
ATOM     54  C   UNL A   1      46.474  24.903  28.857  1.00  0.00     0.031 C 
ATOM     55  C   UNL A   1      46.957  27.098  29.904  1.00  0.00     0.037 A 
BRANCH  42  56
ATOM     56  C   UNL A   1      44.406  32.528  31.381  1.00  0.00     0.057 A 
ATOM     57  C   UNL A   1      44.824  33.600  30.581  1.00  0.00     0.134 A 
ATOM     58  C   UNL A   1      44.125  32.798  32.726  1.00  0.00     0.134 A 
ATOM     59  F   UNL A   1      45.120  33.409  29.287  1.00  0.00    -0.206 F 
ATOM     60  C   UNL A   1      44.983  34.884  31.105  1.00  0.00     0.040 A 
ATOM     61  C   UNL A   1      44.251  34.084  33.254  1.00  0.00     0.040 A 
ATOM     62  F   UNL A   1      43.713  31.819  33.547  1.00  0.00    -0.206 F 
ATOM     63  C   UNL A   1      44.688  35.131  32.445  1.00  0.00     0.006 A 
ENDBRANCH  42  56
BRANCH  43  64
ATOM     64  C   UNL A   1      42.784  23.531  27.356  1.00  0.00     0.057 A 
ATOM     65  C   UNL A   1      42.939  23.342  25.977  1.00  0.00     0.134 A 
ATOM     66  C   UNL A   1      42.396  22.423  28.119  1.00  0.00     0.134 A 
ATOM     67  F   UNL A   1      43.292  24.368  25.190  1.00  0.00    -0.206 F 
ATOM     68  C   UNL A   1      42.690  22.106  25.377  1.00  0.00     0.040 A 
ATOM     69  C   UNL A   1      42.172  21.175  27.535  1.00  0.00     0.040 A 
ATOM     70  F   UNL A   1      42.240  22.535  29.446  1.00  0.00    -0.206 F 
ATOM     71  C   UNL A   1      42.309  21.017  26.158  1.00  0.00     0.006 A 
ENDBRANCH  43  64
BRANCH  55  72
ATOM     72  C   UNL A   1      48.369  26.639  30.123  1.00  0.00     0.057 A 
ATOM     73  C   UNL A   1      48.748  25.918  31.263  1.00  0.00     0.134 A 
ATOM     74  C   UNL A   1      49.353  26.881  29.155  1.00  0.00     0.134 A 
ATOM     75  F   UNL A   1      47.858  25.663  32.234  1.00  0.00    -0.206 F 
ATOM     76  C   UNL A   1      50.059  25.472  31.441  1.00  0.00     0.040 A 
ATOM     77  C   UNL A   1      50.659  26.415  29.308  1.00  0.00     0.040 A 
ATOM     78  F   UNL A   1      49.055  27.558  28.036  1.00  0.00    -0.206 F 
ATOM     79  C   UNL A   1      51.017  25.714  30.457  1.00  0.00     0.006 A 
ENDBRANCH  55  72
ENDBRANCH  29  30
ENDBRANCH  21  24
ENDBRANCH  19  20
ENDBRANCH  18  19
ENDBRANCH   1  18
TORSDOF 14
ENDMDL
