MODEL 1
REMARK VINA RESULT:     -11.0      0.000      0.000
REMARK SMILES O=C(NCCCCCCNC(=O)c1cc(-c2ccoc2)n[nH]1)c1ccc(-c2c3nc(c(-c4c(F)cccc4F)c4ccc([nH]4)c(-c4c(F)cccc4F)c4nc(c(-c5c(F)cccc5F)c5ccc2[nH]5)C=C4)C=C3)cc1
REMARK SMILES IDX 6 1 5 2 4 3 3 4 1 5 2 6 23 8 24 9 76 10 25 11 75 12 26 13
REMARK SMILES IDX 27 14 28 15 69 16 29 17 74 18 68 19 70 20 30 21 73 22 67 23
REMARK SMILES IDX 66 24 31 26 57 27 40 28 56 29 41 30 44 31 55 32 71 33 42 34
REMARK SMILES IDX 43 35 54 37 72 38 45 39 32 40 33 41 38 42 34 43 35 44 37 45
REMARK SMILES IDX 39 46 36 47 58 48 59 49 64 50 60 51 61 52 63 53 65 54 62 55
REMARK SMILES IDX 46 56 47 57 52 58 48 59 49 60 51 61 53 62 50 63 7 64 8 65
REMARK SMILES IDX 9 66 10 67 11 68 12 70 13 71 14 72 22 73 15 74 21 75 16 77
REMARK SMILES IDX 17 78 20 79 18 80 19 81
REMARK H PARENT 3 7 70 25 44 36 10 69 22 76
REMARK Flexibility Score: inf
ROOT
ATOM      1  C   UNL A   1      37.194  21.090  24.681  1.00  0.00     0.002 C 
ENDROOT
BRANCH   1   2
ATOM      2  C   UNL A   1      38.145  19.897  24.824  1.00  0.00     0.021 C 
BRANCH   2   3
ATOM      3  C   UNL A   1      39.001  19.888  26.088  1.00  0.00     0.116 C 
BRANCH   3   4
ATOM      4  N   UNL A   1      40.131  18.982  25.985  1.00  0.00    -0.352 N 
ATOM      5  O   UNL A   1      42.281  18.360  25.757  1.00  0.00    -0.269 OA
ATOM      6  C   UNL A   1      41.476  19.248  26.022  1.00  0.00     0.251 C 
ATOM      7  H   UNL A   1      39.895  18.033  25.873  1.00  0.00     0.163 HD
BRANCH   6   8
ATOM      8  C   UNL A   1      41.968  20.602  26.357  1.00  0.00     0.039 A 
ATOM      9  C   UNL A   1      42.173  21.571  25.371  1.00  0.00     0.014 A 
ATOM     10  C   UNL A   1      42.167  20.921  27.705  1.00  0.00     0.014 A 
ATOM     11  C   UNL A   1      42.662  22.830  25.722  1.00  0.00     0.010 A 
ATOM     12  C   UNL A   1      42.616  22.195  28.059  1.00  0.00     0.010 A 
ATOM     13  C   UNL A   1      42.884  23.152  27.069  1.00  0.00    -0.014 A 
BRANCH  13  14
ATOM     14  C   UNL A   1      43.358  24.504  27.452  1.00  0.00     0.031 A 
ATOM     15  C   UNL A   1      42.386  25.556  27.900  1.00  0.00     0.074 A 
ATOM     16  C   UNL A   1      44.668  24.794  27.360  1.00  0.00     0.049 A 
ATOM     17  N   UNL A   1      42.608  26.811  28.198  1.00  0.00    -0.248 NA
ATOM     18  C   UNL A   1      40.978  25.148  28.020  1.00  0.00     0.031 C 
ATOM     19  C   UNL A   1      45.708  23.862  26.925  1.00  0.00     0.029 A 
ATOM     20  N   UNL A   1      45.345  25.959  27.612  1.00  0.00    -0.354 N 
ATOM     21  C   UNL A   1      41.369  27.349  28.518  1.00  0.00     0.074 A 
ATOM     22  C   UNL A   1      40.396  26.287  28.370  1.00  0.00     0.031 C 
ATOM     23  C   UNL A   1      46.894  24.490  26.943  1.00  0.00     0.029 A 
ATOM     24  C   UNL A   1      46.690  25.877  27.354  1.00  0.00     0.049 A 
ATOM     25  H   UNL A   1      44.909  26.776  27.946  1.00  0.00     0.167 HD
ATOM     26  C   UNL A   1      41.072  28.613  28.904  1.00  0.00     0.037 A 
ATOM     27  C   UNL A   1      47.650  26.817  27.416  1.00  0.00     0.037 A 
ATOM     28  C   UNL A   1      42.039  29.665  29.072  1.00  0.00     0.049 A 
ATOM     29  C   UNL A   1      47.296  28.212  27.839  1.00  0.00     0.074 A 
ATOM     30  C   UNL A   1      41.836  30.963  29.508  1.00  0.00     0.029 A 
ATOM     31  N   UNL A   1      43.394  29.539  28.806  1.00  0.00    -0.354 N 
ATOM     32  N   UNL A   1      46.125  28.698  28.170  1.00  0.00    -0.248 NA
ATOM     33  C   UNL A   1      48.393  29.188  27.892  1.00  0.00     0.031 C 
ATOM     34  C   UNL A   1      43.066  31.631  29.482  1.00  0.00     0.029 A 
ATOM     35  C   UNL A   1      44.037  30.741  29.054  1.00  0.00     0.049 A 
ATOM     36  H   UNL A   1      43.834  28.717  28.489  1.00  0.00     0.167 HD
ATOM     37  C   UNL A   1      46.343  30.033  28.480  1.00  0.00     0.074 A 
ATOM     38  C   UNL A   1      47.760  30.279  28.307  1.00  0.00     0.031 C 
ATOM     39  C   UNL A   1      45.447  30.969  28.875  1.00  0.00     0.037 A 
BRANCH  26  40
ATOM     40  C   UNL A   1      39.630  28.931  29.158  1.00  0.00     0.057 A 
ATOM     41  C   UNL A   1      39.070  28.839  30.438  1.00  0.00     0.134 A 
ATOM     42  C   UNL A   1      38.802  29.361  28.115  1.00  0.00     0.134 A 
ATOM     43  F   UNL A   1      39.810  28.418  31.474  1.00  0.00    -0.206 F 
ATOM     44  C   UNL A   1      37.729  29.149  30.668  1.00  0.00     0.040 A 
ATOM     45  C   UNL A   1      37.464  29.689  28.336  1.00  0.00     0.040 A 
ATOM     46  F   UNL A   1      39.280  29.472  26.866  1.00  0.00    -0.206 F 
ATOM     47  C   UNL A   1      36.923  29.580  29.617  1.00  0.00     0.006 A 
ENDBRANCH  26  40
BRANCH  27  48
ATOM     48  C   UNL A   1      49.041  26.457  27.059  1.00  0.00     0.057 A 
ATOM     49  C   UNL A   1      49.928  25.966  28.022  1.00  0.00     0.134 A 
ATOM     50  C   UNL A   1      49.497  26.550  25.739  1.00  0.00     0.134 A 
ATOM     51  F   UNL A   1      49.548  25.870  29.304  1.00  0.00    -0.206 F 
ATOM     52  C   UNL A   1      51.225  25.579  27.684  1.00  0.00     0.040 A 
ATOM     53  C   UNL A   1      50.786  26.151  25.385  1.00  0.00     0.040 A 
ATOM     54  F   UNL A   1      48.686  27.008  24.774  1.00  0.00    -0.206 F 
ATOM     55  C   UNL A   1      51.654  25.664  26.361  1.00  0.00     0.006 A 
ENDBRANCH  27  48
BRANCH  39  56
ATOM     56  C   UNL A   1      45.975  32.339  29.160  1.00  0.00     0.057 A 
ATOM     57  C   UNL A   1      46.469  32.684  30.423  1.00  0.00     0.134 A 
ATOM     58  C   UNL A   1      46.031  33.308  28.151  1.00  0.00     0.134 A 
ATOM     59  F   UNL A   1      46.431  31.801  31.432  1.00  0.00    -0.206 F 
ATOM     60  C   UNL A   1      46.994  33.952  30.677  1.00  0.00     0.040 A 
ATOM     61  C   UNL A   1      46.565  34.574  28.389  1.00  0.00     0.040 A 
ATOM     62  F   UNL A   1      45.575  33.035  26.919  1.00  0.00    -0.206 F 
ATOM     63  C   UNL A   1      47.048  34.900  29.656  1.00  0.00     0.006 A 
ENDBRANCH  39  56
ENDBRANCH  13  14
ENDBRANCH   6   8
ENDBRANCH   3   4
ENDBRANCH   2   3
ENDBRANCH   1   2
BRANCH   1  64
ATOM     64  C   UNL A   1      37.340  22.190  25.738  1.00  0.00     0.002 C 
BRANCH  64  65
ATOM     65  C   UNL A   1      36.698  23.536  25.386  1.00  0.00     0.021 C 
BRANCH  65  66
ATOM     66  C   UNL A   1      35.170  23.561  25.447  1.00  0.00     0.116 C 
BRANCH  66  67
ATOM     67  N   UNL A   1      34.683  23.320  26.796  1.00  0.00    -0.351 N 
ATOM     68  C   UNL A   1      33.707  22.454  27.214  1.00  0.00     0.269 C 
ATOM     69  H   UNL A   1      35.113  23.852  27.504  1.00  0.00     0.163 HD
ATOM     70  O   UNL A   1      33.209  22.618  28.326  1.00  0.00    -0.268 OA
BRANCH  68  71
ATOM     71  C   UNL A   1      33.274  21.414  26.329  1.00  0.00     0.123 A 
ATOM     72  C   UNL A   1      33.916  20.305  25.811  1.00  0.00     0.064 A 
ATOM     73  N   UNL A   1      31.991  21.331  25.860  1.00  0.00    -0.272 N 
ATOM     74  C   UNL A   1      32.978  19.711  24.942  1.00  0.00     0.096 A 
ATOM     75  N   UNL A   1      31.812  20.364  24.941  1.00  0.00    -0.175 NA
ATOM     76  H   UNL A   1      31.267  21.922  26.167  1.00  0.00     0.190 HD
BRANCH  74  77
ATOM     77  C   UNL A   1      33.252  18.560  24.098  1.00  0.00     0.040 A 
ATOM     78  C   UNL A   1      34.334  17.656  24.237  1.00  0.00     0.052 A 
ATOM     79  C   UNL A   1      32.528  18.136  23.008  1.00  0.00     0.205 A 
ATOM     80  C   UNL A   1      34.196  16.743  23.214  1.00  0.00     0.195 A 
ATOM     81  O   UNL A   1      33.107  17.035  22.456  1.00  0.00    -0.472 OA
ENDBRANCH  74  77
ENDBRANCH  68  71
ENDBRANCH  66  67
ENDBRANCH  65  66
ENDBRANCH  64  65
ENDBRANCH   1  64
TORSDOF 14
ENDMDL
MODEL 2
REMARK VINA RESULT:     -10.9      6.478     11.075
REMARK SMILES O=C(NCCCCCCNC(=O)c1cc(-c2ccoc2)n[nH]1)c1ccc(-c2c3nc(c(-c4c(F)cccc4F)c4ccc([nH]4)c(-c4c(F)cccc4F)c4nc(c(-c5c(F)cccc5F)c5ccc2[nH]5)C=C4)C=C3)cc1
REMARK SMILES IDX 6 1 5 2 4 3 3 4 1 5 2 6 23 8 24 9 76 10 25 11 75 12 26 13
REMARK SMILES IDX 27 14 28 15 69 16 29 17 74 18 68 19 70 20 30 21 73 22 67 23
REMARK SMILES IDX 66 24 31 26 57 27 40 28 56 29 41 30 44 31 55 32 71 33 42 34
REMARK SMILES IDX 43 35 54 37 72 38 45 39 32 40 33 41 38 42 34 43 35 44 37 45
REMARK SMILES IDX 39 46 36 47 58 48 59 49 64 50 60 51 61 52 63 53 65 54 62 55
REMARK SMILES IDX 46 56 47 57 52 58 48 59 49 60 51 61 53 62 50 63 7 64 8 65
REMARK SMILES IDX 9 66 10 67 11 68 12 70 13 71 14 72 22 73 15 74 21 75 16 77
REMARK SMILES IDX 17 78 20 79 18 80 19 81
REMARK H PARENT 3 7 70 25 44 36 10 69 22 76
REMARK Flexibility Score: inf
ROOT
ATOM      1  C   UNL A   1      31.286  30.640  25.482  1.00  0.00     0.002 C 
ENDROOT
BRANCH   1   2
ATOM      2  C   UNL A   1      31.141  31.924  26.304  1.00  0.00     0.021 C 
BRANCH   2   3
ATOM      3  C   UNL A   1      32.423  32.434  26.959  1.00  0.00     0.116 C 
BRANCH   3   4
ATOM      4  N   UNL A   1      32.298  33.801  27.431  1.00  0.00    -0.352 N 
ATOM      5  O   UNL A   1      32.668  35.585  28.751  1.00  0.00    -0.269 OA
ATOM      6  C   UNL A   1      33.032  34.475  28.373  1.00  0.00     0.251 C 
ATOM      7  H   UNL A   1      31.577  34.323  27.011  1.00  0.00     0.163 HD
BRANCH   6   8
ATOM      8  C   UNL A   1      34.248  33.870  28.957  1.00  0.00     0.039 A 
ATOM      9  C   UNL A   1      35.526  34.332  28.628  1.00  0.00     0.014 A 
ATOM     10  C   UNL A   1      34.094  32.854  29.907  1.00  0.00     0.014 A 
ATOM     11  C   UNL A   1      36.652  33.720  29.180  1.00  0.00     0.010 A 
ATOM     12  C   UNL A   1      35.220  32.270  30.491  1.00  0.00     0.010 A 
ATOM     13  C   UNL A   1      36.507  32.686  30.118  1.00  0.00    -0.014 A 
BRANCH  13  14
ATOM     14  C   UNL A   1      37.699  32.064  30.744  1.00  0.00     0.031 A 
ATOM     15  C   UNL A   1      38.455  30.978  30.035  1.00  0.00     0.074 A 
ATOM     16  C   UNL A   1      38.078  32.455  31.973  1.00  0.00     0.049 A 
ATOM     17  N   UNL A   1      39.468  30.267  30.459  1.00  0.00    -0.248 NA
ATOM     18  C   UNL A   1      38.007  30.639  28.676  1.00  0.00     0.031 C 
ATOM     19  C   UNL A   1      37.417  33.490  32.769  1.00  0.00     0.029 A 
ATOM     20  N   UNL A   1      39.101  32.017  32.774  1.00  0.00    -0.354 N 
ATOM     21  C   UNL A   1      39.766  29.382  29.432  1.00  0.00     0.074 A 
ATOM     22  C   UNL A   1      38.821  29.639  28.365  1.00  0.00     0.031 C 
ATOM     23  C   UNL A   1      38.053  33.610  33.945  1.00  0.00     0.029 A 
ATOM     24  C   UNL A   1      39.141  32.637  33.998  1.00  0.00     0.049 A 
ATOM     25  H   UNL A   1      39.746  31.327  32.498  1.00  0.00     0.167 HD
ATOM     26  C   UNL A   1      40.742  28.445  29.382  1.00  0.00     0.037 A 
ATOM     27  C   UNL A   1      39.946  32.429  35.056  1.00  0.00     0.037 A 
ATOM     28  C   UNL A   1      41.696  28.201  30.430  1.00  0.00     0.049 A 
ATOM     29  C   UNL A   1      41.015  31.380  34.979  1.00  0.00     0.074 A 
ATOM     30  C   UNL A   1      42.752  27.306  30.447  1.00  0.00     0.029 A 
ATOM     31  N   UNL A   1      41.707  28.855  31.653  1.00  0.00    -0.354 N 
ATOM     32  N   UNL A   1      41.306  30.573  33.989  1.00  0.00    -0.248 NA
ATOM     33  C   UNL A   1      41.863  31.209  36.168  1.00  0.00     0.031 C 
ATOM     34  C   UNL A   1      43.386  27.400  31.691  1.00  0.00     0.029 A 
ATOM     35  C   UNL A   1      42.741  28.371  32.438  1.00  0.00     0.049 A 
ATOM     36  H   UNL A   1      41.073  29.559  31.923  1.00  0.00     0.167 HD
ATOM     37  C   UNL A   1      42.375  29.805  34.427  1.00  0.00     0.074 A 
ATOM     38  C   UNL A   1      42.688  30.248  35.771  1.00  0.00     0.031 C 
ATOM     39  C   UNL A   1      43.038  28.822  33.773  1.00  0.00     0.037 A 
BRANCH  26  40
ATOM     40  C   UNL A   1      40.816  27.597  28.148  1.00  0.00     0.057 A 
ATOM     41  C   UNL A   1      41.576  27.981  27.036  1.00  0.00     0.134 A 
ATOM     42  C   UNL A   1      40.143  26.372  28.084  1.00  0.00     0.134 A 
ATOM     43  F   UNL A   1      42.231  29.151  27.032  1.00  0.00    -0.206 F 
ATOM     44  C   UNL A   1      41.650  27.180  25.895  1.00  0.00     0.040 A 
ATOM     45  C   UNL A   1      40.222  25.556  26.955  1.00  0.00     0.040 A 
ATOM     46  F   UNL A   1      39.400  25.949  29.118  1.00  0.00    -0.206 F 
ATOM     47  C   UNL A   1      40.975  25.961  25.854  1.00  0.00     0.006 A 
ENDBRANCH  26  40
BRANCH  27  48
ATOM     48  C   UNL A   1      39.755  33.239  36.280  1.00  0.00     0.057 A 
ATOM     49  C   UNL A   1      38.951  32.782  37.328  1.00  0.00     0.134 A 
ATOM     50  C   UNL A   1      40.410  34.465  36.447  1.00  0.00     0.134 A 
ATOM     51  F   UNL A   1      38.289  31.621  37.215  1.00  0.00    -0.206 F 
ATOM     52  C   UNL A   1      38.803  33.517  38.505  1.00  0.00     0.040 A 
ATOM     53  C   UNL A   1      40.284  35.201  37.625  1.00  0.00     0.040 A 
ATOM     54  F   UNL A   1      41.199  34.948  35.477  1.00  0.00    -0.206 F 
ATOM     55  C   UNL A   1      39.478  34.726  38.658  1.00  0.00     0.006 A 
ENDBRANCH  27  48
BRANCH  39  56
ATOM     56  C   UNL A   1      44.175  28.170  34.494  1.00  0.00     0.057 A 
ATOM     57  C   UNL A   1      43.991  27.004  35.245  1.00  0.00     0.134 A 
ATOM     58  C   UNL A   1      45.472  28.688  34.399  1.00  0.00     0.134 A 
ATOM     59  F   UNL A   1      42.769  26.468  35.381  1.00  0.00    -0.206 F 
ATOM     60  C   UNL A   1      45.061  26.378  35.887  1.00  0.00     0.040 A 
ATOM     61  C   UNL A   1      46.551  28.065  35.025  1.00  0.00     0.040 A 
ATOM     62  F   UNL A   1      45.710  29.803  33.691  1.00  0.00    -0.206 F 
ATOM     63  C   UNL A   1      46.346  26.906  35.773  1.00  0.00     0.006 A 
ENDBRANCH  39  56
ENDBRANCH  13  14
ENDBRANCH   6   8
ENDBRANCH   3   4
ENDBRANCH   2   3
ENDBRANCH   1   2
BRANCH   1  64
ATOM     64  C   UNL A   1      31.797  29.413  26.245  1.00  0.00     0.002 C 
BRANCH  64  65
ATOM     65  C   UNL A   1      32.956  28.658  25.587  1.00  0.00     0.021 C 
BRANCH  65  66
ATOM     66  C   UNL A   1      33.150  28.942  24.096  1.00  0.00     0.116 C 
BRANCH  66  67
ATOM     67  N   UNL A   1      32.907  27.757  23.289  1.00  0.00    -0.351 N 
ATOM     68  C   UNL A   1      31.735  27.330  22.723  1.00  0.00     0.269 C 
ATOM     69  H   UNL A   1      33.692  27.184  23.129  1.00  0.00     0.163 HD
ATOM     70  O   UNL A   1      31.647  26.158  22.358  1.00  0.00    -0.268 OA
BRANCH  68  71
ATOM     71  C   UNL A   1      30.642  28.248  22.610  1.00  0.00     0.123 A 
ATOM     72  C   UNL A   1      30.502  29.453  21.947  1.00  0.00     0.064 A 
ATOM     73  N   UNL A   1      29.413  28.005  23.162  1.00  0.00    -0.272 N 
ATOM     74  C   UNL A   1      29.211  29.909  22.282  1.00  0.00     0.096 A 
ATOM     75  N   UNL A   1      28.560  29.040  23.061  1.00  0.00    -0.175 NA
ATOM     76  H   UNL A   1      29.177  27.152  23.592  1.00  0.00     0.190 HD
BRANCH  74  77
ATOM     77  C   UNL A   1      28.663  31.195  21.884  1.00  0.00     0.040 A 
ATOM     78  C   UNL A   1      28.100  31.512  20.623  1.00  0.00     0.052 A 
ATOM     79  C   UNL A   1      28.593  32.341  22.640  1.00  0.00     0.205 A 
ATOM     80  C   UNL A   1      27.730  32.837  20.698  1.00  0.00     0.195 A 
ATOM     81  O   UNL A   1      28.037  33.351  21.918  1.00  0.00    -0.472 OA
ENDBRANCH  74  77
ENDBRANCH  68  71
ENDBRANCH  66  67
ENDBRANCH  65  66
ENDBRANCH  64  65
ENDBRANCH   1  64
TORSDOF 14
ENDMDL
MODEL 3
REMARK VINA RESULT:     -10.7      5.866     11.533
REMARK SMILES O=C(NCCCCCCNC(=O)c1cc(-c2ccoc2)n[nH]1)c1ccc(-c2c3nc(c(-c4c(F)cccc4F)c4ccc([nH]4)c(-c4c(F)cccc4F)c4nc(c(-c5c(F)cccc5F)c5ccc2[nH]5)C=C4)C=C3)cc1
REMARK SMILES IDX 6 1 5 2 4 3 3 4 1 5 2 6 23 8 24 9 76 10 25 11 75 12 26 13
REMARK SMILES IDX 27 14 28 15 69 16 29 17 74 18 68 19 70 20 30 21 73 22 67 23
REMARK SMILES IDX 66 24 31 26 57 27 40 28 56 29 41 30 44 31 55 32 71 33 42 34
REMARK SMILES IDX 43 35 54 37 72 38 45 39 32 40 33 41 38 42 34 43 35 44 37 45
REMARK SMILES IDX 39 46 36 47 58 48 59 49 64 50 60 51 61 52 63 53 65 54 62 55
REMARK SMILES IDX 46 56 47 57 52 58 48 59 49 60 51 61 53 62 50 63 7 64 8 65
REMARK SMILES IDX 9 66 10 67 11 68 12 70 13 71 14 72 22 73 15 74 21 75 16 77
REMARK SMILES IDX 17 78 20 79 18 80 19 81
REMARK H PARENT 3 7 70 25 44 36 10 69 22 76
REMARK Flexibility Score: inf
ROOT
ATOM      1  C   UNL A   1      34.495  35.955  32.861  1.00  0.00     0.002 C 
ENDROOT
BRANCH   1   2
ATOM      2  C   UNL A   1      33.504  35.377  31.847  1.00  0.00     0.021 C 
BRANCH   2   3
ATOM      3  C   UNL A   1      33.194  36.272  30.649  1.00  0.00     0.116 C 
BRANCH   3   4
ATOM      4  N   UNL A   1      32.608  35.535  29.544  1.00  0.00    -0.352 N 
ATOM      5  O   UNL A   1      32.537  34.121  27.795  1.00  0.00    -0.269 OA
ATOM      6  C   UNL A   1      33.130  34.509  28.797  1.00  0.00     0.251 C 
ATOM      7  H   UNL A   1      31.698  35.813  29.293  1.00  0.00     0.163 HD
BRANCH   6   8
ATOM      8  C   UNL A   1      34.414  33.879  29.174  1.00  0.00     0.039 A 
ATOM      9  C   UNL A   1      34.459  32.640  29.820  1.00  0.00     0.014 A 
ATOM     10  C   UNL A   1      35.602  34.524  28.811  1.00  0.00     0.014 A 
ATOM     11  C   UNL A   1      35.688  32.087  30.182  1.00  0.00     0.010 A 
ATOM     12  C   UNL A   1      36.832  33.950  29.136  1.00  0.00     0.010 A 
ATOM     13  C   UNL A   1      36.884  32.737  29.840  1.00  0.00    -0.014 A 
BRANCH  13  14
ATOM     14  C   UNL A   1      38.194  32.132  30.181  1.00  0.00     0.031 A 
ATOM     15  C   UNL A   1      39.168  32.862  31.059  1.00  0.00     0.074 A 
ATOM     16  C   UNL A   1      38.522  30.934  29.664  1.00  0.00     0.049 A 
ATOM     17  N   UNL A   1      40.386  32.525  31.398  1.00  0.00    -0.248 NA
ATOM     18  C   UNL A   1      38.718  34.144  31.623  1.00  0.00     0.031 C 
ATOM     19  C   UNL A   1      37.667  30.134  28.787  1.00  0.00     0.029 A 
ATOM     20  N   UNL A   1      39.666  30.190  29.790  1.00  0.00    -0.354 N 
ATOM     21  C   UNL A   1      40.858  33.559  32.195  1.00  0.00     0.074 A 
ATOM     22  C   UNL A   1      39.798  34.542  32.282  1.00  0.00     0.031 C 
ATOM     23  C   UNL A   1      38.316  29.006  28.454  1.00  0.00     0.029 A 
ATOM     24  C   UNL A   1      39.643  29.025  29.065  1.00  0.00     0.049 A 
ATOM     25  H   UNL A   1      40.430  30.463  30.347  1.00  0.00     0.167 HD
ATOM     26  C   UNL A   1      42.064  33.676  32.800  1.00  0.00     0.037 A 
ATOM     27  C   UNL A   1      40.591  28.087  28.889  1.00  0.00     0.037 A 
ATOM     28  C   UNL A   1      43.111  32.693  32.732  1.00  0.00     0.049 A 
ATOM     29  C   UNL A   1      41.921  28.242  29.564  1.00  0.00     0.074 A 
ATOM     30  C   UNL A   1      44.347  32.703  33.355  1.00  0.00     0.029 A 
ATOM     31  N   UNL A   1      43.046  31.522  31.992  1.00  0.00    -0.354 N 
ATOM     32  N   UNL A   1      42.342  29.210  30.340  1.00  0.00    -0.248 NA
ATOM     33  C   UNL A   1      42.910  27.178  29.334  1.00  0.00     0.031 C 
ATOM     34  C   UNL A   1      45.041  31.549  32.971  1.00  0.00     0.029 A 
ATOM     35  C   UNL A   1      44.226  30.810  32.129  1.00  0.00     0.049 A 
ATOM     36  H   UNL A   1      42.274  31.239  31.450  1.00  0.00     0.167 HD
ATOM     37  C   UNL A   1      43.638  28.871  30.701  1.00  0.00     0.074 A 
ATOM     38  C   UNL A   1      43.933  27.602  30.066  1.00  0.00     0.031 C 
ATOM     39  C   UNL A   1      44.504  29.550  31.490  1.00  0.00     0.037 A 
BRANCH  26  40
ATOM     40  C   UNL A   1      42.319  34.929  33.582  1.00  0.00     0.057 A 
ATOM     41  C   UNL A   1      41.845  35.090  34.889  1.00  0.00     0.134 A 
ATOM     42  C   UNL A   1      43.072  35.971  33.031  1.00  0.00     0.134 A 
ATOM     43  F   UNL A   1      41.104  34.132  35.466  1.00  0.00    -0.206 F 
ATOM     44  C   UNL A   1      42.098  36.255  35.616  1.00  0.00     0.040 A 
ATOM     45  C   UNL A   1      43.345  37.133  33.752  1.00  0.00     0.040 A 
ATOM     46  F   UNL A   1      43.556  35.876  31.782  1.00  0.00    -0.206 F 
ATOM     47  C   UNL A   1      42.854  37.279  35.049  1.00  0.00     0.006 A 
ENDBRANCH  26  40
BRANCH  27  48
ATOM     48  C   UNL A   1      40.304  26.920  28.024  1.00  0.00     0.057 A 
ATOM     49  C   UNL A   1      40.831  26.833  26.733  1.00  0.00     0.134 A 
ATOM     50  C   UNL A   1      39.534  25.847  28.488  1.00  0.00     0.134 A 
ATOM     51  F   UNL A   1      41.563  27.839  26.233  1.00  0.00    -0.206 F 
ATOM     52  C   UNL A   1      40.604  25.715  25.929  1.00  0.00     0.040 A 
ATOM     53  C   UNL A   1      39.313  24.717  27.701  1.00  0.00     0.040 A 
ATOM     54  F   UNL A   1      39.009  25.875  29.722  1.00  0.00    -0.206 F 
ATOM     55  C   UNL A   1      39.849  24.650  26.416  1.00  0.00     0.006 A 
ENDBRANCH  27  48
BRANCH  39  56
ATOM     56  C   UNL A   1      45.845  28.929  31.723  1.00  0.00     0.057 A 
ATOM     57  C   UNL A   1      46.939  29.225  30.902  1.00  0.00     0.134 A 
ATOM     58  C   UNL A   1      46.054  28.064  32.802  1.00  0.00     0.134 A 
ATOM     59  F   UNL A   1      46.796  30.039  29.846  1.00  0.00    -0.206 F 
ATOM     60  C   UNL A   1      48.198  28.672  31.143  1.00  0.00     0.040 A 
ATOM     61  C   UNL A   1      47.310  27.515  33.061  1.00  0.00     0.040 A 
ATOM     62  F   UNL A   1      45.043  27.745  33.625  1.00  0.00    -0.206 F 
ATOM     63  C   UNL A   1      48.387  27.818  32.229  1.00  0.00     0.006 A 
ENDBRANCH  39  56
ENDBRANCH  13  14
ENDBRANCH   6   8
ENDBRANCH   3   4
ENDBRANCH   2   3
ENDBRANCH   1   2
BRANCH   1  64
ATOM     64  C   UNL A   1      35.148  34.943  33.808  1.00  0.00     0.002 C 
BRANCH  64  65
ATOM     65  C   UNL A   1      35.083  33.479  33.360  1.00  0.00     0.021 C 
BRANCH  65  66
ATOM     66  C   UNL A   1      36.318  32.642  33.699  1.00  0.00     0.116 C 
BRANCH  66  67
ATOM     67  N   UNL A   1      36.238  31.310  33.121  1.00  0.00    -0.351 N 
ATOM     68  C   UNL A   1      37.163  30.301  33.161  1.00  0.00     0.269 C 
ATOM     69  H   UNL A   1      35.406  31.107  32.635  1.00  0.00     0.163 HD
ATOM     70  O   UNL A   1      37.065  29.378  32.354  1.00  0.00    -0.268 OA
BRANCH  68  71
ATOM     71  C   UNL A   1      38.232  30.373  34.111  1.00  0.00     0.123 A 
ATOM     72  C   UNL A   1      39.600  30.503  33.966  1.00  0.00     0.064 A 
ATOM     73  N   UNL A   1      38.019  30.383  35.463  1.00  0.00    -0.272 N 
ATOM     74  C   UNL A   1      40.117  30.439  35.275  1.00  0.00     0.096 A 
ATOM     75  N   UNL A   1      39.149  30.323  36.190  1.00  0.00    -0.175 NA
ATOM     76  H   UNL A   1      37.122  30.430  35.865  1.00  0.00     0.190 HD
BRANCH  74  77
ATOM     77  C   UNL A   1      41.533  30.438  35.603  1.00  0.00     0.040 A 
ATOM     78  C   UNL A   1      42.484  29.463  35.212  1.00  0.00     0.052 A 
ATOM     79  C   UNL A   1      42.214  31.366  36.356  1.00  0.00     0.205 A 
ATOM     80  C   UNL A   1      43.682  29.864  35.761  1.00  0.00     0.195 A 
ATOM     81  O   UNL A   1      43.524  31.015  36.466  1.00  0.00    -0.472 OA
ENDBRANCH  74  77
ENDBRANCH  68  71
ENDBRANCH  66  67
ENDBRANCH  65  66
ENDBRANCH  64  65
ENDBRANCH   1  64
TORSDOF 14
ENDMDL
