MODEL 1
REMARK VINA RESULT:     -12.1      0.000      0.000
REMARK SMILES Cc1c(C(=O)Nc2ccc(C(=O)Nc3ccccc3C(=O)NCCCCCCNC(=O)c3ccc(-c4c5nc(c(-c6c(F)cccc6F)c6ccc([nH]6)c(-c6c(F)cccc6F)c6nc(c(-c7c(F)cccc7F)c7ccc4[nH]7)C=C6)C=C5)cc3)cc2)cccc1[N+](=O)[O-]
REMARK SMILES IDX 24 1 23 2 22 3 20 4 21 5 19 7 14 8 15 9 16 10 18 11 17 12
REMARK SMILES IDX 13 13 11 14 12 15 10 17 7 18 8 19 87 20 9 21 86 22 6 23 4 24
REMARK SMILES IDX 5 25 3 27 1 28 2 29 91 30 88 31 90 32 89 33 92 34 93 35
REMARK SMILES IDX 94 36 25 37 26 38 27 39 28 40 29 41 30 42 31 44 32 45 33 46
REMARK SMILES IDX 85 47 34 48 84 49 35 50 36 51 37 52 78 53 38 54 83 55 77 56
REMARK SMILES IDX 79 57 39 58 82 59 76 60 75 61 40 63 66 64 49 65 65 66 50 67
REMARK SMILES IDX 53 68 64 69 80 70 51 71 52 72 63 74 81 75 54 76 41 77 42 78
REMARK SMILES IDX 47 79 43 80 44 81 46 82 48 83 45 84 67 85 68 86 73 87 69 88
REMARK SMILES IDX 70 89 72 90 74 91 71 92 55 93 56 94 61 95 57 96 58 97 60 98
REMARK SMILES IDX 62 99 59 100
REMARK H PARENT 22 6 13 16 6 26 29 43 79 62 53 73
REMARK Flexibility Score: inf
ROOT
ATOM      1  C   UNL A   1      31.441  27.007  25.128  1.00  0.00     0.021 C 
ENDROOT
BRANCH   1   2
ATOM      2  C   UNL A   1      32.714  26.254  24.729  1.00  0.00     0.116 C 
BRANCH   2   3
ATOM      3  N   UNL A   1      32.552  25.244  23.703  1.00  0.00    -0.352 N 
ATOM      4  C   UNL A   1      32.660  23.871  23.759  1.00  0.00     0.253 C 
ATOM      5  O   UNL A   1      32.333  23.220  22.770  1.00  0.00    -0.269 OA
ATOM      6  H   UNL A   1      32.327  25.600  22.812  1.00  0.00     0.163 HD
BRANCH   4   7
ATOM      7  C   UNL A   1      33.187  23.168  24.962  1.00  0.00     0.063 A 
ATOM      8  C   UNL A   1      34.421  22.479  24.935  1.00  0.00     0.054 A 
ATOM      9  C   UNL A   1      34.837  21.767  26.074  1.00  0.00     0.027 A 
ATOM     10  C   UNL A   1      34.091  21.803  27.251  1.00  0.00     0.002 A 
ATOM     11  C   UNL A   1      32.406  23.118  26.129  1.00  0.00     0.016 A 
ATOM     12  C   UNL A   1      32.874  22.477  27.279  1.00  0.00     0.001 A 
BRANCH   8  13
ATOM     13  N   UNL A   1      35.357  22.486  23.880  1.00  0.00    -0.321 N 
ATOM     14  C   UNL A   1      36.703  22.790  23.848  1.00  0.00     0.255 C 
ATOM     15  O   UNL A   1      37.254  22.918  22.753  1.00  0.00    -0.269 OA
ATOM     16  H   UNL A   1      34.982  22.228  23.007  1.00  0.00     0.170 HD
BRANCH  14  17
ATOM     17  C   UNL A   1      37.557  22.762  25.073  1.00  0.00     0.040 A 
ATOM     18  C   UNL A   1      39.446  22.915  27.158  1.00  0.00     0.041 A 
ATOM     19  C   UNL A   1      39.239  21.726  26.476  1.00  0.00     0.027 A 
ATOM     20  C   UNL A   1      38.585  23.988  26.913  1.00  0.00     0.027 A 
ATOM     21  C   UNL A   1      38.388  21.688  25.382  1.00  0.00     0.016 A 
ATOM     22  C   UNL A   1      37.640  23.909  25.876  1.00  0.00     0.016 A 
BRANCH  18  23
ATOM     23  N   UNL A   1      40.555  23.111  27.998  1.00  0.00    -0.322 N 
ATOM     24  C   UNL A   1      41.879  22.723  27.860  1.00  0.00     0.256 C 
ATOM     25  O   UNL A   1      42.657  22.895  28.798  1.00  0.00    -0.269 OA
ATOM     26  H   UNL A   1      40.359  23.606  28.826  1.00  0.00     0.170 HD
BRANCH  24  27
ATOM     27  C   UNL A   1      42.414  22.088  26.616  1.00  0.00     0.049 A 
ATOM     28  C   UNL A   1      42.045  19.690  27.397  1.00  0.00     0.053 C 
ATOM     29  C   UNL A   1      42.643  20.701  26.454  1.00  0.00     0.039 A 
ATOM     30  C   UNL A   1      43.455  20.309  25.363  1.00  0.00     0.273 A 
ATOM     31  C   UNL A   1      42.742  22.983  25.580  1.00  0.00     0.014 A 
ATOM     32  C   UNL A   1      43.808  21.215  24.347  1.00  0.00     0.086 A 
ATOM     33  C   UNL A   1      43.400  22.541  24.433  1.00  0.00     0.008 A 
BRANCH  30  34
ATOM     34  N   UNL A   1      44.078  18.980  25.307  1.00  0.00     0.063 N 
ATOM     35  O   UNL A   1      43.463  18.084  24.712  1.00  0.00    -0.258 OA
ATOM     36  O   UNL A   1      45.214  18.855  25.784  1.00  0.00    -0.258 OA
ENDBRANCH  30  34
ENDBRANCH  24  27
ENDBRANCH  18  23
ENDBRANCH  14  17
ENDBRANCH   8  13
ENDBRANCH   4   7
ENDBRANCH   2   3
ENDBRANCH   1   2
BRANCH   1  37
ATOM     37  C   UNL A   1      31.577  28.404  25.738  1.00  0.00     0.002 C 
BRANCH  37  38
ATOM     38  C   UNL A   1      32.002  28.503  27.207  1.00  0.00     0.002 C 
BRANCH  38  39
ATOM     39  C   UNL A   1      33.494  28.668  27.483  1.00  0.00     0.021 C 
BRANCH  39  40
ATOM     40  C   UNL A   1      34.213  29.655  26.577  1.00  0.00     0.116 C 
BRANCH  40  41
ATOM     41  N   UNL A   1      34.702  30.844  27.251  1.00  0.00    -0.352 N 
ATOM     42  C   UNL A   1      35.835  31.036  28.029  1.00  0.00     0.251 C 
ATOM     43  H   UNL A   1      34.138  31.643  27.138  1.00  0.00     0.163 HD
ATOM     44  O   UNL A   1      35.987  32.093  28.599  1.00  0.00    -0.269 OA
BRANCH  42  45
ATOM     45  C   UNL A   1      36.934  30.022  28.036  1.00  0.00     0.039 A 
ATOM     46  C   UNL A   1      37.014  29.184  29.159  1.00  0.00     0.014 A 
ATOM     47  C   UNL A   1      37.970  30.019  27.109  1.00  0.00     0.014 A 
ATOM     48  C   UNL A   1      38.225  28.577  29.484  1.00  0.00     0.010 A 
ATOM     49  C   UNL A   1      39.196  29.504  27.470  1.00  0.00     0.010 A 
ATOM     50  C   UNL A   1      39.336  28.850  28.694  1.00  0.00    -0.014 A 
BRANCH  50  51
ATOM     51  C   UNL A   1      40.702  28.583  29.106  1.00  0.00     0.031 A 
ATOM     52  C   UNL A   1      41.472  27.506  28.467  1.00  0.00     0.074 A 
ATOM     53  C   UNL A   1      41.285  29.407  30.004  1.00  0.00     0.049 A 
ATOM     54  N   UNL A   1      42.471  26.912  29.021  1.00  0.00    -0.248 NA
ATOM     55  C   UNL A   1      41.148  26.983  27.146  1.00  0.00     0.031 C 
ATOM     56  C   UNL A   1      42.700  29.490  30.349  1.00  0.00     0.029 A 
ATOM     57  N   UNL A   1      40.645  30.213  30.955  1.00  0.00    -0.354 N 
ATOM     58  C   UNL A   1      43.089  26.148  28.058  1.00  0.00     0.074 A 
ATOM     59  C   UNL A   1      42.188  26.171  26.929  1.00  0.00     0.031 C 
ATOM     60  C   UNL A   1      42.813  30.034  31.570  1.00  0.00     0.029 A 
ATOM     61  C   UNL A   1      41.469  30.182  32.099  1.00  0.00     0.049 A 
ATOM     62  H   UNL A   1      39.797  30.701  30.846  1.00  0.00     0.167 HD
ATOM     63  C   UNL A   1      44.357  25.700  28.284  1.00  0.00     0.037 A 
ATOM     64  C   UNL A   1      41.027  29.643  33.272  1.00  0.00     0.037 A 
ATOM     65  C   UNL A   1      44.831  26.109  29.604  1.00  0.00     0.049 A 
ATOM     66  C   UNL A   1      41.862  28.485  33.766  1.00  0.00     0.074 A 
ATOM     67  C   UNL A   1      45.619  27.167  30.029  1.00  0.00     0.029 A 
ATOM     68  N   UNL A   1      44.228  25.588  30.742  1.00  0.00    -0.354 N 
ATOM     69  N   UNL A   1      42.661  27.786  33.008  1.00  0.00    -0.248 NA
ATOM     70  C   UNL A   1      41.861  28.021  35.148  1.00  0.00     0.031 C 
ATOM     71  C   UNL A   1      45.471  27.294  31.431  1.00  0.00     0.029 A 
ATOM     72  C   UNL A   1      44.606  26.303  31.861  1.00  0.00     0.049 A 
ATOM     73  H   UNL A   1      43.618  24.815  30.749  1.00  0.00     0.167 HD
ATOM     74  C   UNL A   1      43.269  26.803  33.754  1.00  0.00     0.074 A 
ATOM     75  C   UNL A   1      42.748  27.011  35.092  1.00  0.00     0.031 C 
ATOM     76  C   UNL A   1      44.140  25.914  33.186  1.00  0.00     0.037 A 
BRANCH  63  77
ATOM     77  C   UNL A   1      45.263  25.161  27.201  1.00  0.00     0.057 A 
ATOM     78  C   UNL A   1      45.657  25.967  26.114  1.00  0.00     0.134 A 
ATOM     79  C   UNL A   1      45.746  23.843  27.145  1.00  0.00     0.134 A 
ATOM     80  F   UNL A   1      45.381  27.277  26.068  1.00  0.00    -0.206 F 
ATOM     81  C   UNL A   1      46.360  25.471  25.008  1.00  0.00     0.040 A 
ATOM     82  C   UNL A   1      46.405  23.317  26.023  1.00  0.00     0.040 A 
ATOM     83  F   UNL A   1      45.652  23.018  28.196  1.00  0.00    -0.206 F 
ATOM     84  C   UNL A   1      46.700  24.130  24.939  1.00  0.00     0.006 A 
ENDBRANCH  63  77
BRANCH  64  85
ATOM     85  C   UNL A   1      39.562  29.805  33.471  1.00  0.00     0.057 A 
ATOM     86  C   UNL A   1      39.077  31.075  33.834  1.00  0.00     0.134 A 
ATOM     87  C   UNL A   1      38.643  28.905  32.928  1.00  0.00     0.134 A 
ATOM     88  F   UNL A   1      39.908  31.988  34.361  1.00  0.00    -0.206 F 
ATOM     89  C   UNL A   1      37.768  31.474  33.555  1.00  0.00     0.040 A 
ATOM     90  C   UNL A   1      37.324  29.290  32.656  1.00  0.00     0.040 A 
ATOM     91  F   UNL A   1      39.032  27.683  32.537  1.00  0.00    -0.206 F 
ATOM     92  C   UNL A   1      36.896  30.589  32.928  1.00  0.00     0.006 A 
ENDBRANCH  64  85
BRANCH  76  93
ATOM     93  C   UNL A   1      44.715  24.644  33.793  1.00  0.00     0.057 A 
ATOM     94  C   UNL A   1      43.974  23.516  34.168  1.00  0.00     0.134 A 
ATOM     95  C   UNL A   1      46.122  24.473  33.890  1.00  0.00     0.134 A 
ATOM     96  F   UNL A   1      42.643  23.469  34.043  1.00  0.00    -0.206 F 
ATOM     97  C   UNL A   1      44.572  22.334  34.636  1.00  0.00     0.040 A 
ATOM     98  C   UNL A   1      46.730  23.281  34.297  1.00  0.00     0.040 A 
ATOM     99  F   UNL A   1      46.984  25.448  33.567  1.00  0.00    -0.206 F 
ATOM    100  C   UNL A   1      45.954  22.207  34.686  1.00  0.00     0.006 A 
ENDBRANCH  76  93
ENDBRANCH  50  51
ENDBRANCH  42  45
ENDBRANCH  40  41
ENDBRANCH  39  40
ENDBRANCH  38  39
ENDBRANCH  37  38
ENDBRANCH   1  37
TORSDOF 18
ENDMDL
MODEL 2
REMARK VINA RESULT:     -12.0      3.420      9.936
REMARK SMILES Cc1c(C(=O)Nc2ccc(C(=O)Nc3ccccc3C(=O)NCCCCCCNC(=O)c3ccc(-c4c5nc(c(-c6c(F)cccc6F)c6ccc([nH]6)c(-c6c(F)cccc6F)c6nc(c(-c7c(F)cccc7F)c7ccc4[nH]7)C=C6)C=C5)cc3)cc2)cccc1[N+](=O)[O-]
REMARK SMILES IDX 24 1 23 2 22 3 20 4 21 5 19 7 14 8 15 9 16 10 18 11 17 12
REMARK SMILES IDX 13 13 11 14 12 15 10 17 7 18 8 19 87 20 9 21 86 22 6 23 4 24
REMARK SMILES IDX 5 25 3 27 1 28 2 29 91 30 88 31 90 32 89 33 92 34 93 35
REMARK SMILES IDX 94 36 25 37 26 38 27 39 28 40 29 41 30 42 31 44 32 45 33 46
REMARK SMILES IDX 85 47 34 48 84 49 35 50 36 51 37 52 78 53 38 54 83 55 77 56
REMARK SMILES IDX 79 57 39 58 82 59 76 60 75 61 40 63 66 64 49 65 65 66 50 67
REMARK SMILES IDX 53 68 64 69 80 70 51 71 52 72 63 74 81 75 54 76 41 77 42 78
REMARK SMILES IDX 47 79 43 80 44 81 46 82 48 83 45 84 67 85 68 86 73 87 69 88
REMARK SMILES IDX 70 89 72 90 74 91 71 92 55 93 56 94 61 95 57 96 58 97 60 98
REMARK SMILES IDX 62 99 59 100
REMARK H PARENT 22 6 13 16 6 26 29 43 79 62 53 73
REMARK Flexibility Score: inf
ROOT
ATOM      1  C   UNL A   1      37.785  21.230  25.212  1.00  0.00     0.021 C 
ENDROOT
BRANCH   1   2
ATOM      2  C   UNL A   1      36.939  20.182  24.484  1.00  0.00     0.116 C 
BRANCH   2   3
ATOM      3  N   UNL A   1      36.875  18.878  25.113  1.00  0.00    -0.352 N 
ATOM      4  C   UNL A   1      35.932  17.876  25.026  1.00  0.00     0.253 C 
ATOM      5  O   UNL A   1      36.181  16.794  25.552  1.00  0.00    -0.269 OA
ATOM      6  H   UNL A   1      37.635  18.672  25.704  1.00  0.00     0.163 HD
BRANCH   4   7
ATOM      7  C   UNL A   1      34.622  18.080  24.346  1.00  0.00     0.063 A 
ATOM      8  C   UNL A   1      33.678  19.018  24.825  1.00  0.00     0.054 A 
ATOM      9  C   UNL A   1      32.426  19.118  24.194  1.00  0.00     0.027 A 
ATOM     10  C   UNL A   1      32.139  18.367  23.055  1.00  0.00     0.002 A 
ATOM     11  C   UNL A   1      34.279  17.269  23.252  1.00  0.00     0.016 A 
ATOM     12  C   UNL A   1      33.064  17.441  22.584  1.00  0.00     0.001 A 
BRANCH   8  13
ATOM     13  N   UNL A   1      33.885  19.955  25.858  1.00  0.00    -0.321 N 
ATOM     14  C   UNL A   1      33.836  21.335  25.871  1.00  0.00     0.255 C 
ATOM     15  O   UNL A   1      34.260  21.932  26.862  1.00  0.00    -0.269 OA
ATOM     16  H   UNL A   1      34.104  19.553  26.730  1.00  0.00     0.170 HD
BRANCH  14  17
ATOM     17  C   UNL A   1      33.105  22.117  24.829  1.00  0.00     0.040 A 
ATOM     18  C   UNL A   1      31.889  23.926  23.043  1.00  0.00     0.041 A 
ATOM     19  C   UNL A   1      31.151  23.317  24.045  1.00  0.00     0.027 A 
ATOM     20  C   UNL A   1      33.202  23.499  22.823  1.00  0.00     0.027 A 
ATOM     21  C   UNL A   1      31.779  22.513  24.986  1.00  0.00     0.016 A 
ATOM     22  C   UNL A   1      33.805  22.594  23.712  1.00  0.00     0.016 A 
BRANCH  18  23
ATOM     23  N   UNL A   1      31.402  25.028  22.320  1.00  0.00    -0.322 N 
ATOM     24  C   UNL A   1      31.440  26.385  22.599  1.00  0.00     0.256 C 
ATOM     25  O   UNL A   1      30.826  27.165  21.872  1.00  0.00    -0.269 OA
ATOM     26  H   UNL A   1      30.957  24.797  21.473  1.00  0.00     0.170 HD
BRANCH  24  27
ATOM     27  C   UNL A   1      32.192  26.956  23.759  1.00  0.00     0.049 A 
ATOM     28  C   UNL A   1      30.366  26.493  25.476  1.00  0.00     0.053 C 
ATOM     29  C   UNL A   1      31.650  27.156  25.051  1.00  0.00     0.039 A 
ATOM     30  C   UNL A   1      32.373  28.003  25.924  1.00  0.00     0.273 A 
ATOM     31  C   UNL A   1      33.514  27.350  23.480  1.00  0.00     0.014 A 
ATOM     32  C   UNL A   1      33.681  28.421  25.627  1.00  0.00     0.086 A 
ATOM     33  C   UNL A   1      34.270  28.045  24.424  1.00  0.00     0.008 A 
BRANCH  30  34
ATOM     34  N   UNL A   1      31.747  28.593  27.115  1.00  0.00     0.063 N 
ATOM     35  O   UNL A   1      31.482  29.803  27.083  1.00  0.00    -0.258 OA
ATOM     36  O   UNL A   1      31.446  27.833  28.045  1.00  0.00    -0.258 OA
ENDBRANCH  30  34
ENDBRANCH  24  27
ENDBRANCH  18  23
ENDBRANCH  14  17
ENDBRANCH   8  13
ENDBRANCH   4   7
ENDBRANCH   2   3
ENDBRANCH   1   2
BRANCH   1  37
ATOM     37  C   UNL A   1      39.136  20.805  25.795  1.00  0.00     0.002 C 
BRANCH  37  38
ATOM     38  C   UNL A   1      39.965  21.868  26.524  1.00  0.00     0.002 C 
BRANCH  38  39
ATOM     39  C   UNL A   1      41.428  22.006  26.109  1.00  0.00     0.021 C 
BRANCH  39  40
ATOM     40  C   UNL A   1      42.308  20.812  26.444  1.00  0.00     0.116 C 
BRANCH  40  41
ATOM     41  N   UNL A   1      43.182  20.388  25.367  1.00  0.00    -0.352 N 
ATOM     42  C   UNL A   1      44.170  21.082  24.682  1.00  0.00     0.251 C 
ATOM     43  H   UNL A   1      43.053  19.456  25.074  1.00  0.00     0.163 HD
ATOM     44  O   UNL A   1      44.700  20.563  23.725  1.00  0.00    -0.269 OA
BRANCH  42  45
ATOM     45  C   UNL A   1      44.691  22.380  25.208  1.00  0.00     0.039 A 
ATOM     46  C   UNL A   1      45.267  22.358  26.488  1.00  0.00     0.014 A 
ATOM     47  C   UNL A   1      44.445  23.603  24.594  1.00  0.00     0.014 A 
ATOM     48  C   UNL A   1      45.328  23.530  27.239  1.00  0.00     0.010 A 
ATOM     49  C   UNL A   1      44.410  24.748  25.360  1.00  0.00     0.010 A 
ATOM     50  C   UNL A   1      44.780  24.690  26.703  1.00  0.00    -0.014 A 
BRANCH  50  51
ATOM     51  C   UNL A   1      44.459  25.867  27.490  1.00  0.00     0.031 A 
ATOM     52  C   UNL A   1      43.090  26.404  27.494  1.00  0.00     0.074 A 
ATOM     53  C   UNL A   1      45.407  26.391  28.296  1.00  0.00     0.049 A 
ATOM     54  N   UNL A   1      42.801  27.628  27.772  1.00  0.00    -0.248 NA
ATOM     55  C   UNL A   1      41.926  25.599  27.147  1.00  0.00     0.031 C 
ATOM     56  C   UNL A   1      45.229  27.381  29.354  1.00  0.00     0.029 A 
ATOM     57  N   UNL A   1      46.797  26.266  28.163  1.00  0.00    -0.354 N 
ATOM     58  C   UNL A   1      41.436  27.711  27.918  1.00  0.00     0.074 A 
ATOM     59  C   UNL A   1      40.932  26.440  27.450  1.00  0.00     0.031 C 
ATOM     60  C   UNL A   1      46.405  27.990  29.573  1.00  0.00     0.029 A 
ATOM     61  C   UNL A   1      47.332  27.508  28.564  1.00  0.00     0.049 A 
ATOM     62  H   UNL A   1      47.295  25.476  27.855  1.00  0.00     0.167 HD
ATOM     63  C   UNL A   1      40.904  28.798  28.548  1.00  0.00     0.037 A 
ATOM     64  C   UNL A   1      48.012  28.300  27.686  1.00  0.00     0.037 A 
ATOM     65  C   UNL A   1      41.948  29.743  28.935  1.00  0.00     0.049 A 
ATOM     66  C   UNL A   1      47.398  29.666  27.491  1.00  0.00     0.074 A 
ATOM     67  C   UNL A   1      42.624  29.955  30.126  1.00  0.00     0.029 A 
ATOM     68  N   UNL A   1      42.668  30.412  27.952  1.00  0.00    -0.354 N 
ATOM     69  N   UNL A   1      46.159  29.957  27.779  1.00  0.00    -0.248 NA
ATOM     70  C   UNL A   1      48.126  30.810  26.956  1.00  0.00     0.031 C 
ATOM     71  C   UNL A   1      43.770  30.741  29.853  1.00  0.00     0.029 A 
ATOM     72  C   UNL A   1      43.782  31.020  28.498  1.00  0.00     0.049 A 
ATOM     73  H   UNL A   1      42.418  30.449  27.001  1.00  0.00     0.167 HD
ATOM     74  C   UNL A   1      45.909  31.276  27.482  1.00  0.00     0.074 A 
ATOM     75  C   UNL A   1      47.182  31.768  26.991  1.00  0.00     0.031 C 
ATOM     76  C   UNL A   1      44.670  31.826  27.670  1.00  0.00     0.037 A 
BRANCH  63  77
ATOM     77  C   UNL A   1      39.488  28.855  29.073  1.00  0.00     0.057 A 
ATOM     78  C   UNL A   1      38.436  29.347  28.275  1.00  0.00     0.134 A 
ATOM     79  C   UNL A   1      39.100  28.482  30.370  1.00  0.00     0.134 A 
ATOM     80  F   UNL A   1      38.608  29.640  26.979  1.00  0.00    -0.206 F 
ATOM     81  C   UNL A   1      37.143  29.570  28.765  1.00  0.00     0.040 A 
ATOM     82  C   UNL A   1      37.825  28.746  30.893  1.00  0.00     0.040 A 
ATOM     83  F   UNL A   1      39.921  27.794  31.175  1.00  0.00    -0.206 F 
ATOM     84  C   UNL A   1      36.843  29.309  30.092  1.00  0.00     0.006 A 
ENDBRANCH  63  77
BRANCH  64  85
ATOM     85  C   UNL A   1      48.748  27.523  26.653  1.00  0.00     0.057 A 
ATOM     86  C   UNL A   1      48.145  27.354  25.393  1.00  0.00     0.134 A 
ATOM     87  C   UNL A   1      50.128  27.323  26.729  1.00  0.00     0.134 A 
ATOM     88  F   UNL A   1      46.822  27.532  25.251  1.00  0.00    -0.206 F 
ATOM     89  C   UNL A   1      48.896  27.119  24.239  1.00  0.00     0.040 A 
ATOM     90  C   UNL A   1      50.890  27.074  25.580  1.00  0.00     0.040 A 
ATOM     91  F   UNL A   1      50.780  27.487  27.889  1.00  0.00    -0.206 F 
ATOM     92  C   UNL A   1      50.281  27.015  24.327  1.00  0.00     0.006 A 
ENDBRANCH  64  85
BRANCH  76  93
ATOM     93  C   UNL A   1      44.159  33.175  27.190  1.00  0.00     0.057 A 
ATOM     94  C   UNL A   1      43.904  33.518  25.856  1.00  0.00     0.134 A 
ATOM     95  C   UNL A   1      43.763  34.164  28.129  1.00  0.00     0.134 A 
ATOM     96  F   UNL A   1      44.122  32.664  24.850  1.00  0.00    -0.206 F 
ATOM     97  C   UNL A   1      43.342  34.750  25.482  1.00  0.00     0.040 A 
ATOM     98  C   UNL A   1      43.147  35.368  27.773  1.00  0.00     0.040 A 
ATOM     99  F   UNL A   1      43.928  34.001  29.451  1.00  0.00    -0.206 F 
ATOM    100  C   UNL A   1      42.945  35.672  26.440  1.00  0.00     0.006 A 
ENDBRANCH  76  93
ENDBRANCH  50  51
ENDBRANCH  42  45
ENDBRANCH  40  41
ENDBRANCH  39  40
ENDBRANCH  38  39
ENDBRANCH  37  38
ENDBRANCH   1  37
TORSDOF 18
ENDMDL
MODEL 3
REMARK VINA RESULT:     -11.4      3.396      9.990
REMARK SMILES Cc1c(C(=O)Nc2ccc(C(=O)Nc3ccccc3C(=O)NCCCCCCNC(=O)c3ccc(-c4c5nc(c(-c6c(F)cccc6F)c6ccc([nH]6)c(-c6c(F)cccc6F)c6nc(c(-c7c(F)cccc7F)c7ccc4[nH]7)C=C6)C=C5)cc3)cc2)cccc1[N+](=O)[O-]
REMARK SMILES IDX 24 1 23 2 22 3 20 4 21 5 19 7 14 8 15 9 16 10 18 11 17 12
REMARK SMILES IDX 13 13 11 14 12 15 10 17 7 18 8 19 87 20 9 21 86 22 6 23 4 24
REMARK SMILES IDX 5 25 3 27 1 28 2 29 91 30 88 31 90 32 89 33 92 34 93 35
REMARK SMILES IDX 94 36 25 37 26 38 27 39 28 40 29 41 30 42 31 44 32 45 33 46
REMARK SMILES IDX 85 47 34 48 84 49 35 50 36 51 37 52 78 53 38 54 83 55 77 56
REMARK SMILES IDX 79 57 39 58 82 59 76 60 75 61 40 63 66 64 49 65 65 66 50 67
REMARK SMILES IDX 53 68 64 69 80 70 51 71 52 72 63 74 81 75 54 76 41 77 42 78
REMARK SMILES IDX 47 79 43 80 44 81 46 82 48 83 45 84 67 85 68 86 73 87 69 88
REMARK SMILES IDX 70 89 72 90 74 91 71 92 55 93 56 94 61 95 57 96 58 97 60 98
REMARK SMILES IDX 62 99 59 100
REMARK H PARENT 22 6 13 16 6 26 29 43 79 62 53 73
REMARK Flexibility Score: inf
ROOT
ATOM      1  C   UNL A   1      40.700  19.806  26.461  1.00  0.00     0.021 C 
ENDROOT
BRANCH   1   2
ATOM      2  C   UNL A   1      39.707  20.431  25.476  1.00  0.00     0.116 C 
BRANCH   2   3
ATOM      3  N   UNL A   1      38.572  19.605  25.119  1.00  0.00    -0.352 N 
ATOM      4  C   UNL A   1      37.229  19.903  25.027  1.00  0.00     0.253 C 
ATOM      5  O   UNL A   1      36.474  19.054  24.560  1.00  0.00    -0.269 OA
ATOM      6  H   UNL A   1      38.797  18.671  24.904  1.00  0.00     0.163 HD
BRANCH   4   7
ATOM      7  C   UNL A   1      36.673  21.201  25.504  1.00  0.00     0.063 A 
ATOM      8  C   UNL A   1      35.303  21.346  25.824  1.00  0.00     0.054 A 
ATOM      9  C   UNL A   1      34.814  22.611  26.195  1.00  0.00     0.027 A 
ATOM     10  C   UNL A   1      35.675  23.698  26.332  1.00  0.00     0.002 A 
ATOM     11  C   UNL A   1      37.507  22.330  25.560  1.00  0.00     0.016 A 
ATOM     12  C   UNL A   1      37.022  23.559  26.013  1.00  0.00     0.001 A 
BRANCH   8  13
ATOM     13  N   UNL A   1      34.349  20.310  25.891  1.00  0.00    -0.321 N 
ATOM     14  C   UNL A   1      33.002  20.281  25.588  1.00  0.00     0.255 C 
ATOM     15  O   UNL A   1      32.341  19.298  25.929  1.00  0.00    -0.269 OA
ATOM     16  H   UNL A   1      34.708  19.451  26.211  1.00  0.00     0.170 HD
BRANCH  14  17
ATOM     17  C   UNL A   1      32.364  21.288  24.688  1.00  0.00     0.040 A 
ATOM     18  C   UNL A   1      31.500  23.414  23.054  1.00  0.00     0.041 A 
ATOM     19  C   UNL A   1      30.961  23.229  24.317  1.00  0.00     0.027 A 
ATOM     20  C   UNL A   1      32.350  22.433  22.536  1.00  0.00     0.027 A 
ATOM     21  C   UNL A   1      31.469  22.247  25.155  1.00  0.00     0.016 A 
ATOM     22  C   UNL A   1      32.776  21.371  23.350  1.00  0.00     0.016 A 
BRANCH  18  23
ATOM     23  N   UNL A   1      31.310  24.602  22.327  1.00  0.00    -0.322 N 
ATOM     24  C   UNL A   1      31.532  25.925  22.676  1.00  0.00     0.256 C 
ATOM     25  O   UNL A   1      31.165  26.818  21.913  1.00  0.00    -0.269 OA
ATOM     26  H   UNL A   1      30.958  24.474  21.417  1.00  0.00     0.170 HD
BRANCH  24  27
ATOM     27  C   UNL A   1      32.195  26.328  23.955  1.00  0.00     0.049 A 
ATOM     28  C   UNL A   1      30.027  26.648  25.256  1.00  0.00     0.053 C 
ATOM     29  C   UNL A   1      31.516  26.815  25.097  1.00  0.00     0.039 A 
ATOM     30  C   UNL A   1      32.300  27.460  26.082  1.00  0.00     0.273 A 
ATOM     31  C   UNL A   1      33.600  26.243  23.953  1.00  0.00     0.014 A 
ATOM     32  C   UNL A   1      33.704  27.401  26.059  1.00  0.00     0.086 A 
ATOM     33  C   UNL A   1      34.350  26.741  25.019  1.00  0.00     0.008 A 
BRANCH  30  34
ATOM     34  N   UNL A   1      31.694  28.332  27.098  1.00  0.00     0.063 N 
ATOM     35  O   UNL A   1      31.598  29.538  26.834  1.00  0.00    -0.258 OA
ATOM     36  O   UNL A   1      31.241  27.797  28.119  1.00  0.00    -0.258 OA
ENDBRANCH  30  34
ENDBRANCH  24  27
ENDBRANCH  18  23
ENDBRANCH  14  17
ENDBRANCH   8  13
ENDBRANCH   4   7
ENDBRANCH   2   3
ENDBRANCH   1   2
BRANCH   1  37
ATOM     37  C   UNL A   1      42.199  20.002  26.214  1.00  0.00     0.002 C 
BRANCH  37  38
ATOM     38  C   UNL A   1      42.834  21.315  26.684  1.00  0.00     0.002 C 
BRANCH  38  39
ATOM     39  C   UNL A   1      42.499  22.568  25.880  1.00  0.00     0.021 C 
BRANCH  39  40
ATOM     40  C   UNL A   1      43.264  22.720  24.574  1.00  0.00     0.116 C 
BRANCH  40  41
ATOM     41  N   UNL A   1      44.433  21.869  24.459  1.00  0.00    -0.352 N 
ATOM     42  C   UNL A   1      45.750  22.093  24.836  1.00  0.00     0.251 C 
ATOM     43  H   UNL A   1      44.265  20.991  24.047  1.00  0.00     0.163 HD
ATOM     44  O   UNL A   1      46.596  21.282  24.533  1.00  0.00    -0.269 OA
BRANCH  42  45
ATOM     45  C   UNL A   1      46.099  23.229  25.742  1.00  0.00     0.039 A 
ATOM     46  C   UNL A   1      45.937  23.013  27.119  1.00  0.00     0.014 A 
ATOM     47  C   UNL A   1      46.364  24.514  25.282  1.00  0.00     0.014 A 
ATOM     48  C   UNL A   1      45.763  24.098  27.975  1.00  0.00     0.010 A 
ATOM     49  C   UNL A   1      46.097  25.591  26.100  1.00  0.00     0.010 A 
ATOM     50  C   UNL A   1      45.723  25.375  27.426  1.00  0.00    -0.014 A 
BRANCH  50  51
ATOM     51  C   UNL A   1      45.207  26.537  28.125  1.00  0.00     0.031 A 
ATOM     52  C   UNL A   1      43.791  26.912  27.995  1.00  0.00     0.074 A 
ATOM     53  C   UNL A   1      46.019  27.199  28.977  1.00  0.00     0.049 A 
ATOM     54  N   UNL A   1      43.343  28.104  28.190  1.00  0.00    -0.248 NA
ATOM     55  C   UNL A   1      42.758  25.964  27.599  1.00  0.00     0.031 C 
ATOM     56  C   UNL A   1      45.644  28.203  29.967  1.00  0.00     0.029 A 
ATOM     57  N   UNL A   1      47.421  27.231  28.959  1.00  0.00    -0.354 N 
ATOM     58  C   UNL A   1      41.970  28.034  28.223  1.00  0.00     0.074 A 
ATOM     59  C   UNL A   1      41.654  26.695  27.781  1.00  0.00     0.031 C 
ATOM     60  C   UNL A   1      46.721  28.953  30.248  1.00  0.00     0.029 A 
ATOM     61  C   UNL A   1      47.777  28.543  29.340  1.00  0.00     0.049 A 
ATOM     62  H   UNL A   1      48.029  26.493  28.730  1.00  0.00     0.167 HD
ATOM     63  C   UNL A   1      41.269  29.076  28.755  1.00  0.00     0.037 A 
ATOM     64  C   UNL A   1      48.435  29.372  28.480  1.00  0.00     0.037 A 
ATOM     65  C   UNL A   1      42.164  30.150  29.176  1.00  0.00     0.049 A 
ATOM     66  C   UNL A   1      47.689  30.648  28.170  1.00  0.00     0.074 A 
ATOM     67  C   UNL A   1      42.710  30.486  30.405  1.00  0.00     0.029 A 
ATOM     68  N   UNL A   1      42.884  30.859  28.221  1.00  0.00    -0.354 N 
ATOM     69  N   UNL A   1      46.406  30.805  28.345  1.00  0.00    -0.248 NA
ATOM     70  C   UNL A   1      48.327  31.847  27.638  1.00  0.00     0.031 C 
ATOM     71  C   UNL A   1      43.779  31.388  30.184  1.00  0.00     0.029 A 
ATOM     72  C   UNL A   1      43.873  31.613  28.822  1.00  0.00     0.049 A 
ATOM     73  H   UNL A   1      42.712  30.828  27.253  1.00  0.00     0.167 HD
ATOM     74  C   UNL A   1      46.035  32.073  27.965  1.00  0.00     0.074 A 
ATOM     75  C   UNL A   1      47.281  32.690  27.552  1.00  0.00     0.031 C 
ATOM     76  C   UNL A   1      44.731  32.483  28.027  1.00  0.00     0.037 A 
BRANCH  63  77
ATOM     77  C   UNL A   1      39.817  28.989  29.164  1.00  0.00     0.057 A 
ATOM     78  C   UNL A   1      38.787  29.326  28.263  1.00  0.00     0.134 A 
ATOM     79  C   UNL A   1      39.366  28.623  30.443  1.00  0.00     0.134 A 
ATOM     80  F   UNL A   1      39.032  29.586  26.973  1.00  0.00    -0.206 F 
ATOM     81  C   UNL A   1      37.440  29.416  28.640  1.00  0.00     0.040 A 
ATOM     82  C   UNL A   1      38.030  28.758  30.851  1.00  0.00     0.040 A 
ATOM     83  F   UNL A   1      40.189  28.066  31.342  1.00  0.00    -0.206 F 
ATOM     84  C   UNL A   1      37.061  29.173  29.949  1.00  0.00     0.006 A 
ENDBRANCH  63  77
BRANCH  64  85
ATOM     85  C   UNL A   1      49.338  28.645  27.547  1.00  0.00     0.057 A 
ATOM     86  C   UNL A   1      50.552  28.144  28.053  1.00  0.00     0.134 A 
ATOM     87  C   UNL A   1      48.870  28.094  26.353  1.00  0.00     0.134 A 
ATOM     88  F   UNL A   1      51.057  28.630  29.197  1.00  0.00    -0.206 F 
ATOM     89  C   UNL A   1      51.206  27.059  27.464  1.00  0.00     0.040 A 
ATOM     90  C   UNL A   1      49.526  27.014  25.747  1.00  0.00     0.040 A 
ATOM     91  F   UNL A   1      47.711  28.503  25.818  1.00  0.00    -0.206 F 
ATOM     92  C   UNL A   1      50.670  26.465  26.325  1.00  0.00     0.006 A 
ENDBRANCH  64  85
BRANCH  76  93
ATOM     93  C   UNL A   1      44.113  33.743  27.443  1.00  0.00     0.057 A 
ATOM     94  C   UNL A   1      43.759  33.925  26.100  1.00  0.00     0.134 A 
ATOM     95  C   UNL A   1      43.717  34.806  28.297  1.00  0.00     0.134 A 
ATOM     96  F   UNL A   1      43.967  32.980  25.178  1.00  0.00    -0.206 F 
ATOM     97  C   UNL A   1      43.104  35.078  25.636  1.00  0.00     0.040 A 
ATOM     98  C   UNL A   1      43.010  35.930  27.857  1.00  0.00     0.040 A 
ATOM     99  F   UNL A   1      43.969  34.797  29.614  1.00  0.00    -0.206 F 
ATOM    100  C   UNL A   1      42.711  36.077  26.516  1.00  0.00     0.006 A 
ENDBRANCH  76  93
ENDBRANCH  50  51
ENDBRANCH  42  45
ENDBRANCH  40  41
ENDBRANCH  39  40
ENDBRANCH  38  39
ENDBRANCH  37  38
ENDBRANCH   1  37
TORSDOF 18
ENDMDL
