MODEL 1
REMARK VINA RESULT:     -11.8      0.000      0.000
REMARK SMILES CCc1cc(OC(F)(F)F)cc2c1O[C@@H](C(F)(F)F)C(C(=O)NCCCCCCNC(=O)c1ccc(-c3c4nc(c(-c5c(F)cccc5F)c5ccc([nH]5)c(-c5c(F)cccc5F)c5nc(c(-c6c(F)cccc6F)c6ccc3[nH]6)C=C5)C=C4)cc1)=C2
REMARK SMILES IDX 26 1 25 2 24 3 23 4 21 5 22 6 20 8 3 9 4 10 13 11 5 12 12 13
REMARK SMILES IDX 14 14 11 15 87 16 15 17 2 18 1 19 6 20 7 21 8 22 9 23 10 24
REMARK SMILES IDX 16 25 17 26 18 27 19 28 27 29 28 30 29 31 30 32 31 33 32 35
REMARK SMILES IDX 33 36 34 37 86 38 35 39 85 40 36 41 37 42 38 43 79 44 39 45
REMARK SMILES IDX 84 46 78 47 80 48 40 49 83 50 77 51 76 52 41 54 67 55 50 56
REMARK SMILES IDX 66 57 51 58 54 59 65 60 81 61 52 62 53 63 64 65 82 66 55 67
REMARK SMILES IDX 42 68 43 69 48 70 44 71 45 72 47 73 49 74 46 75 68 76 69 77
REMARK SMILES IDX 74 78 70 79 71 80 73 81 75 82 72 83 56 84 57 85 62 86 58 87
REMARK SMILES IDX 59 88 61 89 63 90 60 91
REMARK H PARENT 23 7 30 34 80 53 54 64
REMARK Flexibility Score: inf
ROOT
ATOM      1  C   UNL A   1      30.360  27.004  23.386  1.00  0.00     0.002 C 
ENDROOT
BRANCH   1   2
ATOM      2  C   UNL A   1      31.009  25.745  22.795  1.00  0.00     0.021 C 
BRANCH   2   3
ATOM      3  C   UNL A   1      30.547  24.453  23.478  1.00  0.00     0.116 C 
BRANCH   3   4
ATOM      4  N   UNL A   1      30.537  24.650  24.916  1.00  0.00    -0.352 N 
ATOM      5  C   UNL A   1      31.047  23.924  25.942  1.00  0.00     0.251 C 
ATOM      6  O   UNL A   1      30.674  24.189  27.082  1.00  0.00    -0.270 OA
ATOM      7  H   UNL A   1      30.068  25.468  25.202  1.00  0.00     0.163 HD
BRANCH   5   8
ATOM      8  C   UNL A   1      32.100  22.895  25.747  1.00  0.00     0.067 C 
ATOM      9  C   UNL A   1      35.324  20.300  25.004  1.00  0.00    -0.002 A 
ATOM     10  C   UNL A   1      35.053  18.958  24.675  1.00  0.00     0.054 A 
ATOM     11  C   UNL A   1      34.245  21.166  25.240  1.00  0.00     0.131 A 
ATOM     12  C   UNL A   1      33.740  18.485  24.607  1.00  0.00     0.130 A 
ATOM     13  C   UNL A   1      32.933  20.691  25.230  1.00  0.00     0.021 A 
ATOM     14  O   UNL A   1      34.520  22.496  25.377  1.00  0.00    -0.475 OA
ATOM     15  C   UNL A   1      32.687  19.353  24.910  1.00  0.00     0.058 A 
ATOM     16  C   UNL A   1      31.828  21.612  25.461  1.00  0.00     0.025 C 
ATOM     17  C   UNL A   1      33.530  23.329  26.040  1.00  0.00     0.314 C 
BRANCH   9  18
ATOM     18  C   UNL A   1      36.763  20.772  25.049  1.00  0.00     0.036 C 
ATOM     19  C   UNL A   1      37.790  19.692  24.728  1.00  0.00     0.009 C 
ENDBRANCH   9  18
BRANCH  12  20
ATOM     20  O   UNL A   1      33.345  17.226  24.256  1.00  0.00    -0.406 OA
BRANCH  20  21
ATOM     21  C   UNL A   1      33.345  16.224  25.260  1.00  0.00     0.573 C 
ATOM     22  F   UNL A   1      34.575  16.056  25.786  1.00  0.00    -0.132 F 
ATOM     23  F   UNL A   1      32.469  16.527  26.241  1.00  0.00    -0.132 F 
ATOM     24  F   UNL A   1      32.964  15.054  24.702  1.00  0.00    -0.132 F 
ENDBRANCH  20  21
ENDBRANCH  12  20
BRANCH  17  25
ATOM     25  C   UNL A   1      33.901  24.797  25.720  1.00  0.00     0.429 C 
ATOM     26  F   UNL A   1      33.303  25.682  26.547  1.00  0.00    -0.167 F 
ATOM     27  F   UNL A   1      35.237  25.002  25.880  1.00  0.00    -0.167 F 
ATOM     28  F   UNL A   1      33.606  25.138  24.444  1.00  0.00    -0.167 F 
ENDBRANCH  17  25
ENDBRANCH   5   8
ENDBRANCH   3   4
ENDBRANCH   2   3
ENDBRANCH   1   2
BRANCH   1  29
ATOM     29  C   UNL A   1      31.340  28.143  23.693  1.00  0.00     0.002 C 
BRANCH  29  30
ATOM     30  C   UNL A   1      31.849  28.183  25.137  1.00  0.00     0.021 C 
BRANCH  30  31
ATOM     31  C   UNL A   1      32.971  29.187  25.382  1.00  0.00     0.116 C 
BRANCH  31  32
ATOM     32  N   UNL A   1      32.453  30.489  25.762  1.00  0.00    -0.352 N 
ATOM     33  C   UNL A   1      32.843  31.318  26.784  1.00  0.00     0.251 C 
ATOM     34  H   UNL A   1      31.714  30.827  25.206  1.00  0.00     0.163 HD
ATOM     35  O   UNL A   1      32.147  32.280  27.092  1.00  0.00    -0.269 OA
BRANCH  33  36
ATOM     36  C   UNL A   1      34.095  31.048  27.522  1.00  0.00     0.039 A 
ATOM     37  C   UNL A   1      34.333  29.751  27.984  1.00  0.00     0.014 A 
ATOM     38  C   UNL A   1      35.011  32.070  27.793  1.00  0.00     0.014 A 
ATOM     39  C   UNL A   1      35.508  29.471  28.683  1.00  0.00     0.010 A 
ATOM     40  C   UNL A   1      36.213  31.775  28.432  1.00  0.00     0.010 A 
ATOM     41  C   UNL A   1      36.467  30.477  28.894  1.00  0.00    -0.014 A 
BRANCH  41  42
ATOM     42  C   UNL A   1      37.737  30.168  29.597  1.00  0.00     0.031 A 
ATOM     43  C   UNL A   1      37.989  30.690  30.984  1.00  0.00     0.074 A 
ATOM     44  C   UNL A   1      38.678  29.439  28.968  1.00  0.00     0.049 A 
ATOM     45  N   UNL A   1      39.028  30.504  31.760  1.00  0.00    -0.248 NA
ATOM     46  C   UNL A   1      36.952  31.554  31.568  1.00  0.00     0.031 C 
ATOM     47  C   UNL A   1      38.579  28.928  27.600  1.00  0.00     0.029 A 
ATOM     48  N   UNL A   1      39.903  28.997  29.399  1.00  0.00    -0.354 N 
ATOM     49  C   UNL A   1      38.772  31.231  32.916  1.00  0.00     0.074 A 
ATOM     50  C   UNL A   1      37.507  31.906  32.719  1.00  0.00     0.031 C 
ATOM     51  C   UNL A   1      39.679  28.214  27.316  1.00  0.00     0.029 A 
ATOM     52  C   UNL A   1      40.570  28.234  28.471  1.00  0.00     0.049 A 
ATOM     53  H   UNL A   1      40.270  29.205  30.289  1.00  0.00     0.167 HD
ATOM     54  C   UNL A   1      39.511  31.309  34.049  1.00  0.00     0.037 A 
ATOM     55  C   UNL A   1      41.760  27.610  28.549  1.00  0.00     0.037 A 
ATOM     56  C   UNL A   1      40.758  30.618  34.251  1.00  0.00     0.049 A 
ATOM     57  C   UNL A   1      42.545  27.685  29.828  1.00  0.00     0.074 A 
ATOM     58  C   UNL A   1      41.557  30.590  35.381  1.00  0.00     0.029 A 
ATOM     59  N   UNL A   1      41.386  29.831  33.298  1.00  0.00    -0.354 N 
ATOM     60  N   UNL A   1      42.254  28.316  30.940  1.00  0.00    -0.248 NA
ATOM     61  C   UNL A   1      43.814  26.946  29.868  1.00  0.00     0.031 C 
ATOM     62  C   UNL A   1      42.686  29.813  35.100  1.00  0.00     0.029 A 
ATOM     63  C   UNL A   1      42.568  29.320  33.810  1.00  0.00     0.049 A 
ATOM     64  H   UNL A   1      41.043  29.659  32.391  1.00  0.00     0.167 HD
ATOM     65  C   UNL A   1      43.289  28.025  31.821  1.00  0.00     0.074 A 
ATOM     66  C   UNL A   1      44.204  27.150  31.118  1.00  0.00     0.031 C 
ATOM     67  C   UNL A   1      43.464  28.445  33.098  1.00  0.00     0.037 A 
BRANCH  54  68
ATOM     68  C   UNL A   1      38.982  32.167  35.161  1.00  0.00     0.057 A 
ATOM     69  C   UNL A   1      38.249  31.625  36.226  1.00  0.00     0.134 A 
ATOM     70  C   UNL A   1      39.232  33.545  35.186  1.00  0.00     0.134 A 
ATOM     71  F   UNL A   1      37.963  30.314  36.256  1.00  0.00    -0.206 F 
ATOM     72  C   UNL A   1      37.762  32.425  37.260  1.00  0.00     0.040 A 
ATOM     73  C   UNL A   1      38.772  34.352  36.230  1.00  0.00     0.040 A 
ATOM     74  F   UNL A   1      39.931  34.130  34.202  1.00  0.00    -0.206 F 
ATOM     75  C   UNL A   1      38.030  33.793  37.268  1.00  0.00     0.006 A 
ENDBRANCH  54  68
BRANCH  55  76
ATOM     76  C   UNL A   1      42.256  26.817  27.397  1.00  0.00     0.057 A 
ATOM     77  C   UNL A   1      42.997  27.420  26.374  1.00  0.00     0.134 A 
ATOM     78  C   UNL A   1      42.006  25.445  27.292  1.00  0.00     0.134 A 
ATOM     79  F   UNL A   1      43.255  28.736  26.413  1.00  0.00    -0.206 F 
ATOM     80  C   UNL A   1      43.453  26.691  25.275  1.00  0.00     0.040 A 
ATOM     81  C   UNL A   1      42.477  24.699  26.210  1.00  0.00     0.040 A 
ATOM     82  F   UNL A   1      41.312  24.807  28.246  1.00  0.00    -0.206 F 
ATOM     83  C   UNL A   1      43.196  25.325  25.194  1.00  0.00     0.006 A 
ENDBRANCH  55  76
BRANCH  67  84
ATOM     84  C   UNL A   1      44.672  27.931  33.824  1.00  0.00     0.057 A 
ATOM     85  C   UNL A   1      45.886  28.629  33.828  1.00  0.00     0.134 A 
ATOM     86  C   UNL A   1      44.613  26.727  34.538  1.00  0.00     0.134 A 
ATOM     87  F   UNL A   1      46.011  29.780  33.153  1.00  0.00    -0.206 F 
ATOM     88  C   UNL A   1      47.009  28.132  34.493  1.00  0.00     0.040 A 
ATOM     89  C   UNL A   1      45.721  26.235  35.228  1.00  0.00     0.040 A 
ATOM     90  F   UNL A   1      43.477  26.015  34.581  1.00  0.00    -0.206 F 
ATOM     91  C   UNL A   1      46.926  26.933  35.199  1.00  0.00     0.006 A 
ENDBRANCH  67  84
ENDBRANCH  41  42
ENDBRANCH  33  36
ENDBRANCH  31  32
ENDBRANCH  30  31
ENDBRANCH  29  30
ENDBRANCH   1  29
TORSDOF 17
ENDMDL
MODEL 2
REMARK VINA RESULT:     -11.7      3.825      9.061
REMARK SMILES CCc1cc(OC(F)(F)F)cc2c1O[C@@H](C(F)(F)F)C(C(=O)NCCCCCCNC(=O)c1ccc(-c3c4nc(c(-c5c(F)cccc5F)c5ccc([nH]5)c(-c5c(F)cccc5F)c5nc(c(-c6c(F)cccc6F)c6ccc3[nH]6)C=C5)C=C4)cc1)=C2
REMARK SMILES IDX 26 1 25 2 24 3 23 4 21 5 22 6 20 8 3 9 4 10 13 11 5 12 12 13
REMARK SMILES IDX 14 14 11 15 87 16 15 17 2 18 1 19 6 20 7 21 8 22 9 23 10 24
REMARK SMILES IDX 16 25 17 26 18 27 19 28 27 29 28 30 29 31 30 32 31 33 32 35
REMARK SMILES IDX 33 36 34 37 86 38 35 39 85 40 36 41 37 42 38 43 79 44 39 45
REMARK SMILES IDX 84 46 78 47 80 48 40 49 83 50 77 51 76 52 41 54 67 55 50 56
REMARK SMILES IDX 66 57 51 58 54 59 65 60 81 61 52 62 53 63 64 65 82 66 55 67
REMARK SMILES IDX 42 68 43 69 48 70 44 71 45 72 47 73 49 74 46 75 68 76 69 77
REMARK SMILES IDX 74 78 70 79 71 80 73 81 75 82 72 83 56 84 57 85 62 86 58 87
REMARK SMILES IDX 59 88 61 89 63 90 60 91
REMARK H PARENT 23 7 30 34 80 53 54 64
REMARK Flexibility Score: inf
ROOT
ATOM      1  C   UNL A   1      35.342  21.042  24.706  1.00  0.00     0.002 C 
ENDROOT
BRANCH   1   2
ATOM      2  C   UNL A   1      36.152  22.208  24.123  1.00  0.00     0.021 C 
BRANCH   2   3
ATOM      3  C   UNL A   1      35.291  23.205  23.338  1.00  0.00     0.116 C 
BRANCH   3   4
ATOM      4  N   UNL A   1      33.997  22.608  23.065  1.00  0.00    -0.352 N 
ATOM      5  C   UNL A   1      32.729  23.020  23.314  1.00  0.00     0.251 C 
ATOM      6  O   UNL A   1      31.821  22.201  23.204  1.00  0.00    -0.270 OA
ATOM      7  H   UNL A   1      34.049  21.735  22.612  1.00  0.00     0.163 HD
BRANCH   5   8
ATOM      8  C   UNL A   1      32.394  24.434  23.621  1.00  0.00     0.067 C 
ATOM      9  C   UNL A   1      31.361  28.302  24.904  1.00  0.00    -0.002 A 
ATOM     10  C   UNL A   1      30.701  29.162  24.005  1.00  0.00     0.054 A 
ATOM     11  C   UNL A   1      31.695  27.008  24.477  1.00  0.00     0.131 A 
ATOM     12  C   UNL A   1      30.402  28.750  22.704  1.00  0.00     0.130 A 
ATOM     13  C   UNL A   1      31.451  26.606  23.163  1.00  0.00     0.021 A 
ATOM     14  O   UNL A   1      32.167  26.134  25.413  1.00  0.00    -0.475 OA
ATOM     15  C   UNL A   1      30.802  27.478  22.284  1.00  0.00     0.058 A 
ATOM     16  C   UNL A   1      31.790  25.252  22.745  1.00  0.00     0.025 C 
ATOM     17  C   UNL A   1      32.913  24.977  24.946  1.00  0.00     0.314 C 
BRANCH   9  18
ATOM     18  C   UNL A   1      31.650  28.787  26.311  1.00  0.00     0.036 C 
ATOM     19  C   UNL A   1      32.453  30.082  26.378  1.00  0.00     0.009 C 
ENDBRANCH   9  18
BRANCH  12  20
ATOM     20  O   UNL A   1      29.728  29.467  21.758  1.00  0.00    -0.406 OA
BRANCH  20  21
ATOM     21  C   UNL A   1      28.379  29.816  22.023  1.00  0.00     0.573 C 
ATOM     22  F   UNL A   1      27.651  28.735  22.370  1.00  0.00    -0.132 F 
ATOM     23  F   UNL A   1      28.307  30.745  23.000  1.00  0.00    -0.132 F 
ATOM     24  F   UNL A   1      27.841  30.342  20.901  1.00  0.00    -0.132 F 
ENDBRANCH  20  21
ENDBRANCH  12  20
BRANCH  17  25
ATOM     25  C   UNL A   1      32.985  23.988  26.134  1.00  0.00     0.429 C 
ATOM     26  F   UNL A   1      32.309  24.423  27.221  1.00  0.00    -0.167 F 
ATOM     27  F   UNL A   1      32.409  22.799  25.806  1.00  0.00    -0.167 F 
ATOM     28  F   UNL A   1      34.257  23.715  26.503  1.00  0.00    -0.167 F 
ENDBRANCH  17  25
ENDBRANCH   5   8
ENDBRANCH   3   4
ENDBRANCH   2   3
ENDBRANCH   1   2
BRANCH   1  29
ATOM     29  C   UNL A   1      36.162  19.780  24.999  1.00  0.00     0.002 C 
BRANCH  29  30
ATOM     30  C   UNL A   1      37.637  19.862  24.594  1.00  0.00     0.021 C 
BRANCH  30  31
ATOM     31  C   UNL A   1      38.590  20.179  25.742  1.00  0.00     0.116 C 
BRANCH  31  32
ATOM     32  N   UNL A   1      39.751  19.307  25.733  1.00  0.00    -0.352 N 
ATOM     33  C   UNL A   1      41.065  19.604  25.991  1.00  0.00     0.251 C 
ATOM     34  H   UNL A   1      39.570  18.366  25.508  1.00  0.00     0.163 HD
ATOM     35  O   UNL A   1      41.943  18.790  25.722  1.00  0.00    -0.269 OA
BRANCH  33  36
ATOM     36  C   UNL A   1      41.429  20.908  26.586  1.00  0.00     0.039 A 
ATOM     37  C   UNL A   1      41.915  21.913  25.747  1.00  0.00     0.014 A 
ATOM     38  C   UNL A   1      41.332  21.128  27.964  1.00  0.00     0.014 A 
ATOM     39  C   UNL A   1      42.265  23.153  26.284  1.00  0.00     0.010 A 
ATOM     40  C   UNL A   1      41.618  22.386  28.488  1.00  0.00     0.010 A 
ATOM     41  C   UNL A   1      42.098  23.406  27.656  1.00  0.00    -0.014 A 
BRANCH  41  42
ATOM     42  C   UNL A   1      42.427  24.739  28.219  1.00  0.00     0.031 A 
ATOM     43  C   UNL A   1      43.836  25.071  28.625  1.00  0.00     0.074 A 
ATOM     44  C   UNL A   1      41.443  25.642  28.393  1.00  0.00     0.049 A 
ATOM     45  N   UNL A   1      44.312  26.189  29.113  1.00  0.00    -0.248 NA
ATOM     46  C   UNL A   1      44.837  24.002  28.489  1.00  0.00     0.031 C 
ATOM     47  C   UNL A   1      40.027  25.418  28.097  1.00  0.00     0.029 A 
ATOM     48  N   UNL A   1      41.486  26.932  28.857  1.00  0.00    -0.354 N 
ATOM     49  C   UNL A   1      45.662  25.955  29.348  1.00  0.00     0.074 A 
ATOM     50  C   UNL A   1      45.917  24.573  29.002  1.00  0.00     0.031 C 
ATOM     51  C   UNL A   1      39.341  26.542  28.353  1.00  0.00     0.029 A 
ATOM     52  C   UNL A   1      40.262  27.558  28.851  1.00  0.00     0.049 A 
ATOM     53  H   UNL A   1      42.313  27.369  29.164  1.00  0.00     0.167 HD
ATOM     54  C   UNL A   1      46.608  26.819  29.788  1.00  0.00     0.037 A 
ATOM     55  C   UNL A   1      39.925  28.815  29.196  1.00  0.00     0.037 A 
ATOM     56  C   UNL A   1      46.356  28.200  30.110  1.00  0.00     0.049 A 
ATOM     57  C   UNL A   1      40.999  29.764  29.649  1.00  0.00     0.074 A 
ATOM     58  C   UNL A   1      47.256  29.171  30.513  1.00  0.00     0.029 A 
ATOM     59  N   UNL A   1      45.109  28.805  30.062  1.00  0.00    -0.354 N 
ATOM     60  N   UNL A   1      42.284  29.549  29.795  1.00  0.00    -0.248 NA
ATOM     61  C   UNL A   1      40.577  31.134  29.968  1.00  0.00     0.031 C 
ATOM     62  C   UNL A   1      46.548  30.356  30.742  1.00  0.00     0.029 A 
ATOM     63  C   UNL A   1      45.214  30.134  30.439  1.00  0.00     0.049 A 
ATOM     64  H   UNL A   1      44.273  28.358  29.799  1.00  0.00     0.167 HD
ATOM     65  C   UNL A   1      42.828  30.764  30.194  1.00  0.00     0.074 A 
ATOM     66  C   UNL A   1      41.734  31.713  30.251  1.00  0.00     0.031 C 
ATOM     67  C   UNL A   1      44.116  31.066  30.484  1.00  0.00     0.037 A 
BRANCH  54  68
ATOM     68  C   UNL A   1      48.007  26.295  29.937  1.00  0.00     0.057 A 
ATOM     69  C   UNL A   1      48.471  25.765  31.148  1.00  0.00     0.134 A 
ATOM     70  C   UNL A   1      48.891  26.292  28.851  1.00  0.00     0.134 A 
ATOM     71  F   UNL A   1      47.679  25.750  32.231  1.00  0.00    -0.206 F 
ATOM     72  C   UNL A   1      49.771  25.275  31.281  1.00  0.00     0.040 A 
ATOM     73  C   UNL A   1      50.186  25.780  28.965  1.00  0.00     0.040 A 
ATOM     74  F   UNL A   1      48.512  26.780  27.660  1.00  0.00    -0.206 F 
ATOM     75  C   UNL A   1      50.630  25.275  30.184  1.00  0.00     0.006 A 
ENDBRANCH  54  68
BRANCH  55  76
ATOM     76  C   UNL A   1      38.516  29.262  29.076  1.00  0.00     0.057 A 
ATOM     77  C   UNL A   1      37.666  29.269  30.188  1.00  0.00     0.134 A 
ATOM     78  C   UNL A   1      37.986  29.693  27.855  1.00  0.00     0.134 A 
ATOM     79  F   UNL A   1      38.113  28.852  31.382  1.00  0.00    -0.206 F 
ATOM     80  C   UNL A   1      36.332  29.668  30.086  1.00  0.00     0.040 A 
ATOM     81  C   UNL A   1      36.661  30.118  27.744  1.00  0.00     0.040 A 
ATOM     82  F   UNL A   1      38.754  29.721  26.756  1.00  0.00    -0.206 F 
ATOM     83  C   UNL A   1      35.828  30.098  28.861  1.00  0.00     0.006 A 
ENDBRANCH  55  76
BRANCH  67  84
ATOM     84  C   UNL A   1      44.415  32.489  30.854  1.00  0.00     0.057 A 
ATOM     85  C   UNL A   1      44.719  33.457  29.890  1.00  0.00     0.134 A 
ATOM     86  C   UNL A   1      44.383  32.897  32.195  1.00  0.00     0.134 A 
ATOM     87  F   UNL A   1      44.779  33.128  28.591  1.00  0.00    -0.206 F 
ATOM     88  C   UNL A   1      45.012  34.775  30.247  1.00  0.00     0.040 A 
ATOM     89  C   UNL A   1      44.647  34.217  32.561  1.00  0.00     0.040 A 
ATOM     90  F   UNL A   1      44.089  32.021  33.167  1.00  0.00    -0.206 F 
ATOM     91  C   UNL A   1      44.972  35.158  31.587  1.00  0.00     0.006 A 
ENDBRANCH  67  84
ENDBRANCH  41  42
ENDBRANCH  33  36
ENDBRANCH  31  32
ENDBRANCH  30  31
ENDBRANCH  29  30
ENDBRANCH   1  29
TORSDOF 17
ENDMDL
MODEL 3
REMARK VINA RESULT:     -11.4      0.777      6.147
REMARK SMILES CCc1cc(OC(F)(F)F)cc2c1O[C@@H](C(F)(F)F)C(C(=O)NCCCCCCNC(=O)c1ccc(-c3c4nc(c(-c5c(F)cccc5F)c5ccc([nH]5)c(-c5c(F)cccc5F)c5nc(c(-c6c(F)cccc6F)c6ccc3[nH]6)C=C5)C=C4)cc1)=C2
REMARK SMILES IDX 26 1 25 2 24 3 23 4 21 5 22 6 20 8 3 9 4 10 13 11 5 12 12 13
REMARK SMILES IDX 14 14 11 15 87 16 15 17 2 18 1 19 6 20 7 21 8 22 9 23 10 24
REMARK SMILES IDX 16 25 17 26 18 27 19 28 27 29 28 30 29 31 30 32 31 33 32 35
REMARK SMILES IDX 33 36 34 37 86 38 35 39 85 40 36 41 37 42 38 43 79 44 39 45
REMARK SMILES IDX 84 46 78 47 80 48 40 49 83 50 77 51 76 52 41 54 67 55 50 56
REMARK SMILES IDX 66 57 51 58 54 59 65 60 81 61 52 62 53 63 64 65 82 66 55 67
REMARK SMILES IDX 42 68 43 69 48 70 44 71 45 72 47 73 49 74 46 75 68 76 69 77
REMARK SMILES IDX 74 78 70 79 71 80 73 81 75 82 72 83 56 84 57 85 62 86 58 87
REMARK SMILES IDX 59 88 61 89 63 90 60 91
REMARK H PARENT 23 7 30 34 80 53 54 64
REMARK Flexibility Score: inf
ROOT
ATOM      1  C   UNL A   1      31.550  26.555  22.492  1.00  0.00     0.002 C 
ENDROOT
BRANCH   1   2
ATOM      2  C   UNL A   1      31.838  25.066  22.733  1.00  0.00     0.021 C 
BRANCH   2   3
ATOM      3  C   UNL A   1      30.730  24.361  23.524  1.00  0.00     0.116 C 
BRANCH   3   4
ATOM      4  N   UNL A   1      30.889  24.656  24.936  1.00  0.00    -0.352 N 
ATOM      5  C   UNL A   1      31.476  23.975  25.952  1.00  0.00     0.251 C 
ATOM      6  O   UNL A   1      31.244  24.337  27.103  1.00  0.00    -0.270 OA
ATOM      7  H   UNL A   1      30.493  25.515  25.210  1.00  0.00     0.163 HD
BRANCH   5   8
ATOM      8  C   UNL A   1      32.451  22.880  25.722  1.00  0.00     0.067 C 
ATOM      9  C   UNL A   1      35.472  20.082  24.871  1.00  0.00    -0.002 A 
ATOM     10  C   UNL A   1      35.103  18.760  24.552  1.00  0.00     0.054 A 
ATOM     11  C   UNL A   1      34.461  21.016  25.144  1.00  0.00     0.131 A 
ATOM     12  C   UNL A   1      33.761  18.374  24.527  1.00  0.00     0.130 A 
ATOM     13  C   UNL A   1      33.121  20.628  25.177  1.00  0.00     0.021 A 
ATOM     14  O   UNL A   1      34.827  22.325  25.271  1.00  0.00    -0.475 OA
ATOM     15  C   UNL A   1      32.777  19.309  24.865  1.00  0.00     0.058 A 
ATOM     16  C   UNL A   1      32.087  21.618  25.445  1.00  0.00     0.025 C 
ATOM     17  C   UNL A   1      33.916  23.219  25.967  1.00  0.00     0.314 C 
BRANCH   9  18
ATOM     18  C   UNL A   1      36.940  20.458  24.868  1.00  0.00     0.036 C 
ATOM     19  C   UNL A   1      37.894  19.275  24.997  1.00  0.00     0.009 C 
ENDBRANCH   9  18
BRANCH  12  20
ATOM     20  O   UNL A   1      33.272  17.145  24.189  1.00  0.00    -0.406 OA
BRANCH  20  21
ATOM     21  C   UNL A   1      33.408  16.093  25.131  1.00  0.00     0.573 C 
ATOM     22  F   UNL A   1      34.654  15.575  25.113  1.00  0.00    -0.132 F 
ATOM     23  F   UNL A   1      33.112  16.521  26.376  1.00  0.00    -0.132 F 
ATOM     24  F   UNL A   1      32.540  15.110  24.807  1.00  0.00    -0.132 F 
ENDBRANCH  20  21
ENDBRANCH  12  20
BRANCH  17  25
ATOM     25  C   UNL A   1      34.371  24.660  25.635  1.00  0.00     0.429 C 
ATOM     26  F   UNL A   1      34.144  24.999  24.347  1.00  0.00    -0.167 F 
ATOM     27  F   UNL A   1      33.675  25.567  26.373  1.00  0.00    -0.167 F 
ATOM     28  F   UNL A   1      35.681  24.864  25.906  1.00  0.00    -0.167 F 
ENDBRANCH  17  25
ENDBRANCH   5   8
ENDBRANCH   3   4
ENDBRANCH   2   3
ENDBRANCH   1   2
BRANCH   1  29
ATOM     29  C   UNL A   1      32.631  27.507  23.017  1.00  0.00     0.002 C 
BRANCH  29  30
ATOM     30  C   UNL A   1      32.497  27.881  24.496  1.00  0.00     0.021 C 
BRANCH  30  31
ATOM     31  C   UNL A   1      33.404  29.024  24.942  1.00  0.00     0.116 C 
BRANCH  31  32
ATOM     32  N   UNL A   1      32.639  30.154  25.441  1.00  0.00    -0.352 N 
ATOM     33  C   UNL A   1      32.818  30.890  26.584  1.00  0.00     0.251 C 
ATOM     34  H   UNL A   1      31.882  30.432  24.876  1.00  0.00     0.163 HD
ATOM     35  O   UNL A   1      31.945  31.667  26.956  1.00  0.00    -0.269 OA
BRANCH  33  36
ATOM     36  C   UNL A   1      34.057  30.742  27.377  1.00  0.00     0.039 A 
ATOM     37  C   UNL A   1      34.369  29.486  27.903  1.00  0.00     0.014 A 
ATOM     38  C   UNL A   1      34.888  31.838  27.635  1.00  0.00     0.014 A 
ATOM     39  C   UNL A   1      35.533  29.321  28.655  1.00  0.00     0.010 A 
ATOM     40  C   UNL A   1      36.082  31.657  28.327  1.00  0.00     0.010 A 
ATOM     41  C   UNL A   1      36.410  30.400  28.854  1.00  0.00    -0.014 A 
BRANCH  41  42
ATOM     42  C   UNL A   1      37.671  30.213  29.614  1.00  0.00     0.031 A 
ATOM     43  C   UNL A   1      38.832  29.480  29.002  1.00  0.00     0.074 A 
ATOM     44  C   UNL A   1      37.757  30.681  30.874  1.00  0.00     0.049 A 
ATOM     45  N   UNL A   1      40.016  29.241  29.506  1.00  0.00    -0.248 NA
ATOM     46  C   UNL A   1      38.629  28.921  27.657  1.00  0.00     0.031 C 
ATOM     47  C   UNL A   1      36.679  31.354  31.602  1.00  0.00     0.029 A 
ATOM     48  N   UNL A   1      38.800  30.666  31.765  1.00  0.00    -0.354 N 
ATOM     49  C   UNL A   1      40.694  28.500  28.547  1.00  0.00     0.074 A 
ATOM     50  C   UNL A   1      39.771  28.281  27.453  1.00  0.00     0.031 C 
ATOM     51  C   UNL A   1      37.126  31.718  32.813  1.00  0.00     0.029 A 
ATOM     52  C   UNL A   1      38.513  31.286  32.957  1.00  0.00     0.049 A 
ATOM     53  H   UNL A   1      39.671  30.251  31.569  1.00  0.00     0.167 HD
ATOM     54  C   UNL A   1      41.976  28.063  28.564  1.00  0.00     0.037 A 
ATOM     55  C   UNL A   1      39.286  31.495  34.038  1.00  0.00     0.037 A 
ATOM     56  C   UNL A   1      42.899  28.303  29.642  1.00  0.00     0.049 A 
ATOM     57  C   UNL A   1      40.716  31.030  34.019  1.00  0.00     0.074 A 
ATOM     58  C   UNL A   1      44.234  27.949  29.733  1.00  0.00     0.029 A 
ATOM     59  N   UNL A   1      42.580  28.961  30.820  1.00  0.00    -0.354 N 
ATOM     60  N   UNL A   1      41.365  30.396  33.073  1.00  0.00    -0.248 NA
ATOM     61  C   UNL A   1      41.523  31.327  35.210  1.00  0.00     0.031 C 
ATOM     62  C   UNL A   1      44.714  28.363  30.980  1.00  0.00     0.029 A 
ATOM     63  C   UNL A   1      43.690  29.014  31.648  1.00  0.00     0.049 A 
ATOM     64  H   UNL A   1      41.696  29.337  31.037  1.00  0.00     0.167 HD
ATOM     65  C   UNL A   1      42.664  30.244  33.542  1.00  0.00     0.074 A 
ATOM     66  C   UNL A   1      42.712  30.866  34.849  1.00  0.00     0.031 C 
ATOM     67  C   UNL A   1      43.722  29.644  32.943  1.00  0.00     0.037 A 
BRANCH  54  68
ATOM     68  C   UNL A   1      42.458  27.289  27.371  1.00  0.00     0.057 A 
ATOM     69  C   UNL A   1      43.076  27.920  26.282  1.00  0.00     0.134 A 
ATOM     70  C   UNL A   1      42.331  25.896  27.321  1.00  0.00     0.134 A 
ATOM     71  F   UNL A   1      43.217  29.254  26.261  1.00  0.00    -0.206 F 
ATOM     72  C   UNL A   1      43.526  27.196  25.177  1.00  0.00     0.040 A 
ATOM     73  C   UNL A   1      42.802  25.158  26.232  1.00  0.00     0.040 A 
ATOM     74  F   UNL A   1      41.754  25.226  28.330  1.00  0.00    -0.206 F 
ATOM     75  C   UNL A   1      43.396  25.809  25.153  1.00  0.00     0.006 A 
ENDBRANCH  54  68
BRANCH  55  76
ATOM     76  C   UNL A   1      38.740  32.223  35.210  1.00  0.00     0.057 A 
ATOM     77  C   UNL A   1      38.200  31.530  36.300  1.00  0.00     0.134 A 
ATOM     78  C   UNL A   1      38.744  33.621  35.270  1.00  0.00     0.134 A 
ATOM     79  F   UNL A   1      38.154  30.189  36.292  1.00  0.00    -0.206 F 
ATOM     80  C   UNL A   1      37.664  32.201  37.400  1.00  0.00     0.040 A 
ATOM     81  C   UNL A   1      38.233  34.304  36.375  1.00  0.00     0.040 A 
ATOM     82  F   UNL A   1      39.258  34.340  34.263  1.00  0.00    -0.206 F 
ATOM     83  C   UNL A   1      37.684  33.593  37.440  1.00  0.00     0.006 A 
ENDBRANCH  55  76
BRANCH  67  84
ATOM     84  C   UNL A   1      45.026  29.667  33.684  1.00  0.00     0.057 A 
ATOM     85  C   UNL A   1      45.394  28.646  34.569  1.00  0.00     0.134 A 
ATOM     86  C   UNL A   1      45.930  30.721  33.498  1.00  0.00     0.134 A 
ATOM     87  F   UNL A   1      44.567  27.617  34.802  1.00  0.00    -0.206 F 
ATOM     88  C   UNL A   1      46.603  28.687  35.266  1.00  0.00     0.040 A 
ATOM     89  C   UNL A   1      47.153  30.759  34.168  1.00  0.00     0.040 A 
ATOM     90  F   UNL A   1      45.643  31.726  32.657  1.00  0.00    -0.206 F 
ATOM     91  C   UNL A   1      47.488  29.745  35.063  1.00  0.00     0.006 A 
ENDBRANCH  67  84
ENDBRANCH  41  42
ENDBRANCH  33  36
ENDBRANCH  31  32
ENDBRANCH  30  31
ENDBRANCH  29  30
ENDBRANCH   1  29
TORSDOF 17
ENDMDL
