MODEL 1
REMARK VINA RESULT:     -11.9      0.000      0.000
REMARK SMILES O=C(NCCCCCCNC(=O)[C@@H]1[C@H](C(=O)NCc2ccncc2)[C@H]2C=C[C@@H]1O2)c1ccc(-c2c3nc(c(-c4c(F)cccc4F)c4ccc([nH]4)c(-c4c(F)cccc4F)c4nc(c(-c5c(F)cccc5F)c5ccc2[nH]5)C=C4)C=C3)cc1
REMARK SMILES IDX 7 1 6 2 5 3 4 4 3 5 1 6 2 7 30 9 31 10 83 11 32 12 82 13
REMARK SMILES IDX 33 14 34 15 35 16 76 17 36 18 81 19 75 20 77 21 37 22 80 23
REMARK SMILES IDX 74 24 73 25 38 27 64 28 47 29 63 30 48 31 51 32 62 33 78 34
REMARK SMILES IDX 49 35 50 36 61 38 79 39 52 40 39 41 40 42 45 43 41 44 42 45
REMARK SMILES IDX 44 46 46 47 43 48 65 49 66 50 71 51 67 52 68 53 70 54 72 55
REMARK SMILES IDX 69 56 53 57 54 58 59 59 55 60 56 61 58 62 60 63 57 64 8 65
REMARK SMILES IDX 9 66 10 67 11 68 12 70 13 71 14 72 28 73 25 74 27 75 29 76
REMARK SMILES IDX 26 77 15 78 16 79 17 80 18 82 19 83 20 84 24 85 21 86 23 87
REMARK SMILES IDX 22 88
REMARK H PARENT 3 8 77 26 51 37 10 69 17 81
REMARK Flexibility Score: inf
ROOT
ATOM      1  C   UNL A   1      32.445  29.841  26.951  1.00  0.00     0.002 C 
ENDROOT
BRANCH   1   2
ATOM      2  C   UNL A   1      31.617  30.805  26.116  1.00  0.00     0.002 C 
BRANCH   2   3
ATOM      3  C   UNL A   1      31.381  32.160  26.775  1.00  0.00     0.021 C 
BRANCH   3   4
ATOM      4  C   UNL A   1      32.639  32.804  27.342  1.00  0.00     0.116 C 
BRANCH   4   5
ATOM      5  N   UNL A   1      32.444  34.225  27.603  1.00  0.00    -0.352 N 
ATOM      6  O   UNL A   1      32.638  36.083  28.902  1.00  0.00    -0.269 OA
ATOM      7  C   UNL A   1      33.036  34.978  28.595  1.00  0.00     0.251 C 
ATOM      8  H   UNL A   1      31.820  34.699  27.007  1.00  0.00     0.163 HD
BRANCH   7   9
ATOM      9  C   UNL A   1      34.203  34.370  29.259  1.00  0.00     0.039 A 
ATOM     10  C   UNL A   1      35.462  34.630  28.715  1.00  0.00     0.014 A 
ATOM     11  C   UNL A   1      34.030  33.462  30.304  1.00  0.00     0.014 A 
ATOM     12  C   UNL A   1      36.540  33.871  29.127  1.00  0.00     0.010 A 
ATOM     13  C   UNL A   1      35.146  32.790  30.804  1.00  0.00     0.010 A 
ATOM     14  C   UNL A   1      36.405  32.987  30.213  1.00  0.00    -0.014 A 
BRANCH  14  15
ATOM     15  C   UNL A   1      37.643  32.417  30.790  1.00  0.00     0.031 A 
ATOM     16  C   UNL A   1      38.247  32.941  32.056  1.00  0.00     0.074 A 
ATOM     17  C   UNL A   1      38.177  31.359  30.148  1.00  0.00     0.049 A 
ATOM     18  N   UNL A   1      39.318  32.524  32.681  1.00  0.00    -0.248 NA
ATOM     19  C   UNL A   1      37.579  34.080  32.703  1.00  0.00     0.031 C 
ATOM     20  C   UNL A   1      37.663  30.793  28.894  1.00  0.00     0.029 A 
ATOM     21  N   UNL A   1      39.232  30.548  30.464  1.00  0.00    -0.354 N 
ATOM     22  C   UNL A   1      39.466  33.356  33.782  1.00  0.00     0.074 A 
ATOM     23  C   UNL A   1      38.385  34.318  33.731  1.00  0.00     0.031 C 
ATOM     24  C   UNL A   1      38.350  29.686  28.593  1.00  0.00     0.029 A 
ATOM     25  C   UNL A   1      39.416  29.524  29.568  1.00  0.00     0.049 A 
ATOM     26  H   UNL A   1      39.801  30.686  31.255  1.00  0.00     0.167 HD
ATOM     27  C   UNL A   1      40.419  33.307  34.745  1.00  0.00     0.037 A 
ATOM     28  C   UNL A   1      40.364  28.574  29.515  1.00  0.00     0.037 A 
ATOM     29  C   UNL A   1      41.484  32.334  34.772  1.00  0.00     0.049 A 
ATOM     30  C   UNL A   1      41.412  28.566  30.582  1.00  0.00     0.074 A 
ATOM     31  C   UNL A   1      42.503  32.194  35.698  1.00  0.00     0.029 A 
ATOM     32  N   UNL A   1      41.664  31.330  33.829  1.00  0.00    -0.354 N 
ATOM     33  N   UNL A   1      41.539  29.358  31.619  1.00  0.00    -0.248 NA
ATOM     34  C   UNL A   1      42.454  27.541  30.470  1.00  0.00     0.031 C 
ATOM     35  C   UNL A   1      43.322  31.134  35.293  1.00  0.00     0.029 A 
ATOM     36  C   UNL A   1      42.785  30.578  34.143  1.00  0.00     0.049 A 
ATOM     37  H   UNL A   1      41.081  31.176  33.051  1.00  0.00     0.167 HD
ATOM     38  C   UNL A   1      42.673  28.928  32.287  1.00  0.00     0.074 A 
ATOM     39  C   UNL A   1      43.170  27.776  31.559  1.00  0.00     0.031 C 
ATOM     40  C   UNL A   1      43.261  29.443  33.394  1.00  0.00     0.037 A 
BRANCH  27  41
ATOM     41  C   UNL A   1      40.371  34.338  35.836  1.00  0.00     0.057 A 
ATOM     42  C   UNL A   1      41.016  35.575  35.715  1.00  0.00     0.134 A 
ATOM     43  C   UNL A   1      39.614  34.118  36.996  1.00  0.00     0.134 A 
ATOM     44  F   UNL A   1      41.767  35.848  34.637  1.00  0.00    -0.206 F 
ATOM     45  C   UNL A   1      40.920  36.552  36.710  1.00  0.00     0.040 A 
ATOM     46  C   UNL A   1      39.490  35.095  37.986  1.00  0.00     0.040 A 
ATOM     47  F   UNL A   1      38.965  32.958  37.176  1.00  0.00    -0.206 F 
ATOM     48  C   UNL A   1      40.146  36.316  37.846  1.00  0.00     0.006 A 
ENDBRANCH  27  41
BRANCH  28  49
ATOM     49  C   UNL A   1      40.381  27.602  28.394  1.00  0.00     0.057 A 
ATOM     50  C   UNL A   1      39.689  26.390  28.469  1.00  0.00     0.134 A 
ATOM     51  C   UNL A   1      41.087  27.869  27.213  1.00  0.00     0.134 A 
ATOM     52  F   UNL A   1      39.002  26.070  29.574  1.00  0.00    -0.206 F 
ATOM     53  C   UNL A   1      39.719  25.466  27.421  1.00  0.00     0.040 A 
ATOM     54  C   UNL A   1      41.095  26.974  26.145  1.00  0.00     0.040 A 
ATOM     55  F   UNL A   1      41.759  29.022  27.069  1.00  0.00    -0.206 F 
ATOM     56  C   UNL A   1      40.419  25.762  26.253  1.00  0.00     0.006 A 
ENDBRANCH  28  49
BRANCH  40  57
ATOM     57  C   UNL A   1      44.494  28.738  33.877  1.00  0.00     0.057 A 
ATOM     58  C   UNL A   1      45.774  29.122  33.458  1.00  0.00     0.134 A 
ATOM     59  C   UNL A   1      44.396  27.654  34.757  1.00  0.00     0.134 A 
ATOM     60  F   UNL A   1      45.933  30.141  32.600  1.00  0.00    -0.206 F 
ATOM     61  C   UNL A   1      46.912  28.424  33.864  1.00  0.00     0.040 A 
ATOM     62  C   UNL A   1      45.529  26.968  35.195  1.00  0.00     0.040 A 
ATOM     63  F   UNL A   1      43.198  27.241  35.200  1.00  0.00    -0.206 F 
ATOM     64  C   UNL A   1      46.791  27.346  34.739  1.00  0.00     0.006 A 
ENDBRANCH  40  57
ENDBRANCH  14  15
ENDBRANCH   7   9
ENDBRANCH   4   5
ENDBRANCH   3   4
ENDBRANCH   2   3
ENDBRANCH   1   2
BRANCH   1  65
ATOM     65  C   UNL A   1      32.684  28.449  26.330  1.00  0.00     0.021 C 
BRANCH  65  66
ATOM     66  C   UNL A   1      34.055  28.090  25.630  1.00  0.00     0.116 C 
BRANCH  66  67
ATOM     67  N   UNL A   1      34.136  28.006  24.118  1.00  0.00    -0.356 N 
ATOM     68  C   UNL A   1      33.536  27.451  23.003  1.00  0.00     0.227 C 
ATOM     69  H   UNL A   1      34.901  28.549  23.818  1.00  0.00     0.163 HD
ATOM     70  O   UNL A   1      33.984  27.895  21.935  1.00  0.00    -0.275 OA
BRANCH  68  71
ATOM     71  C   UNL A   1      32.413  26.384  22.902  1.00  0.00     0.127 C 
ATOM     72  C   UNL A   1      30.948  26.697  22.578  1.00  0.00     0.127 C 
ATOM     73  C   UNL A   1      32.205  25.528  24.221  1.00  0.00     0.155 C 
ATOM     74  C   UNL A   1      30.174  25.678  23.433  1.00  0.00     0.155 C 
ATOM     75  C   UNL A   1      31.789  24.131  23.860  1.00  0.00     0.004 C 
ATOM     76  O   UNL A   1      30.872  25.921  24.682  1.00  0.00    -0.365 OA
ATOM     77  C   UNL A   1      30.573  24.235  23.299  1.00  0.00     0.004 C 
BRANCH  72  78
ATOM     78  C   UNL A   1      30.471  28.049  23.083  1.00  0.00     0.227 C 
ATOM     79  O   UNL A   1      31.261  28.972  23.258  1.00  0.00    -0.275 OA
ATOM     80  N   UNL A   1      29.170  28.091  23.503  1.00  0.00    -0.352 N 
ATOM     81  H   UNL A   1      29.058  27.747  24.419  1.00  0.00     0.163 HD
BRANCH  80  82
ATOM     82  C   UNL A   1      27.917  28.524  22.914  1.00  0.00     0.151 C 
BRANCH  82  83
ATOM     83  C   UNL A   1      27.925  30.016  22.556  1.00  0.00    -0.026 A 
ATOM     84  C   UNL A   1      28.011  30.405  21.223  1.00  0.00     0.025 A 
ATOM     85  C   UNL A   1      27.919  31.067  23.486  1.00  0.00     0.025 A 
ATOM     86  C   UNL A   1      28.119  31.759  20.908  1.00  0.00     0.111 A 
ATOM     87  C   UNL A   1      28.019  32.393  23.092  1.00  0.00     0.111 A 
ATOM     88  N   UNL A   1      28.135  32.762  21.812  1.00  0.00    -0.265 NA
ENDBRANCH  82  83
ENDBRANCH  80  82
ENDBRANCH  72  78
ENDBRANCH  68  71
ENDBRANCH  66  67
ENDBRANCH  65  66
ENDBRANCH   1  65
TORSDOF 16
ENDMDL
MODEL 2
REMARK VINA RESULT:     -11.6      0.423      6.217
REMARK SMILES O=C(NCCCCCCNC(=O)[C@@H]1[C@H](C(=O)NCc2ccncc2)[C@H]2C=C[C@@H]1O2)c1ccc(-c2c3nc(c(-c4c(F)cccc4F)c4ccc([nH]4)c(-c4c(F)cccc4F)c4nc(c(-c5c(F)cccc5F)c5ccc2[nH]5)C=C4)C=C3)cc1
REMARK SMILES IDX 7 1 6 2 5 3 4 4 3 5 1 6 2 7 30 9 31 10 83 11 32 12 82 13
REMARK SMILES IDX 33 14 34 15 35 16 76 17 36 18 81 19 75 20 77 21 37 22 80 23
REMARK SMILES IDX 74 24 73 25 38 27 64 28 47 29 63 30 48 31 51 32 62 33 78 34
REMARK SMILES IDX 49 35 50 36 61 38 79 39 52 40 39 41 40 42 45 43 41 44 42 45
REMARK SMILES IDX 44 46 46 47 43 48 65 49 66 50 71 51 67 52 68 53 70 54 72 55
REMARK SMILES IDX 69 56 53 57 54 58 59 59 55 60 56 61 58 62 60 63 57 64 8 65
REMARK SMILES IDX 9 66 10 67 11 68 12 70 13 71 14 72 28 73 25 74 27 75 29 76
REMARK SMILES IDX 26 77 15 78 16 79 17 80 18 82 19 83 20 84 24 85 21 86 23 87
REMARK SMILES IDX 22 88
REMARK H PARENT 3 8 77 26 51 37 10 69 17 81
REMARK Flexibility Score: inf
ROOT
ATOM      1  C   UNL A   1      31.926  29.744  27.240  1.00  0.00     0.002 C 
ENDROOT
BRANCH   1   2
ATOM      2  C   UNL A   1      31.674  30.795  26.170  1.00  0.00     0.002 C 
BRANCH   2   3
ATOM      3  C   UNL A   1      31.478  32.207  26.714  1.00  0.00     0.021 C 
BRANCH   3   4
ATOM      4  C   UNL A   1      32.746  32.842  27.268  1.00  0.00     0.116 C 
BRANCH   4   5
ATOM      5  N   UNL A   1      32.535  34.239  27.626  1.00  0.00    -0.352 N 
ATOM      6  O   UNL A   1      32.655  35.993  29.071  1.00  0.00    -0.269 OA
ATOM      7  C   UNL A   1      33.071  34.914  28.702  1.00  0.00     0.251 C 
ATOM      8  H   UNL A   1      31.943  34.759  27.035  1.00  0.00     0.163 HD
BRANCH   7   9
ATOM      9  C   UNL A   1      34.201  34.254  29.381  1.00  0.00     0.039 A 
ATOM     10  C   UNL A   1      35.466  34.390  28.806  1.00  0.00     0.014 A 
ATOM     11  C   UNL A   1      33.980  33.416  30.474  1.00  0.00     0.014 A 
ATOM     12  C   UNL A   1      36.491  33.573  29.241  1.00  0.00     0.010 A 
ATOM     13  C   UNL A   1      35.052  32.688  30.992  1.00  0.00     0.010 A 
ATOM     14  C   UNL A   1      36.312  32.759  30.373  1.00  0.00    -0.014 A 
BRANCH  14  15
ATOM     15  C   UNL A   1      37.514  32.127  30.961  1.00  0.00     0.031 A 
ATOM     16  C   UNL A   1      38.203  30.967  30.313  1.00  0.00     0.074 A 
ATOM     17  C   UNL A   1      37.998  32.684  32.090  1.00  0.00     0.049 A 
ATOM     18  N   UNL A   1      39.273  30.329  30.711  1.00  0.00    -0.248 NA
ATOM     19  C   UNL A   1      37.620  30.444  29.068  1.00  0.00     0.031 C 
ATOM     20  C   UNL A   1      37.377  33.809  32.802  1.00  0.00     0.029 A 
ATOM     21  N   UNL A   1      39.125  32.420  32.816  1.00  0.00    -0.354 N 
ATOM     22  C   UNL A   1      39.484  29.320  29.781  1.00  0.00     0.074 A 
ATOM     23  C   UNL A   1      38.418  29.416  28.807  1.00  0.00     0.031 C 
ATOM     24  C   UNL A   1      38.171  34.187  33.810  1.00  0.00     0.029 A 
ATOM     25  C   UNL A   1      39.296  33.269  33.881  1.00  0.00     0.049 A 
ATOM     26  H   UNL A   1      39.752  31.693  32.596  1.00  0.00     0.167 HD
ATOM     27  C   UNL A   1      40.485  28.406  29.752  1.00  0.00     0.037 A 
ATOM     28  C   UNL A   1      40.239  33.288  34.838  1.00  0.00     0.037 A 
ATOM     29  C   UNL A   1      41.538  28.336  30.736  1.00  0.00     0.049 A 
ATOM     30  C   UNL A   1      41.315  32.250  34.785  1.00  0.00     0.074 A 
ATOM     31  C   UNL A   1      42.600  27.451  30.804  1.00  0.00     0.029 A 
ATOM     32  N   UNL A   1      41.663  29.190  31.825  1.00  0.00    -0.354 N 
ATOM     33  N   UNL A   1      41.503  31.302  33.899  1.00  0.00    -0.248 NA
ATOM     34  C   UNL A   1      42.304  32.275  35.867  1.00  0.00     0.031 C 
ATOM     35  C   UNL A   1      43.341  27.743  31.955  1.00  0.00     0.029 A 
ATOM     36  C   UNL A   1      42.774  28.843  32.577  1.00  0.00     0.049 A 
ATOM     37  H   UNL A   1      41.051  29.933  32.032  1.00  0.00     0.167 HD
ATOM     38  C   UNL A   1      42.634  30.617  34.312  1.00  0.00     0.074 A 
ATOM     39  C   UNL A   1      43.111  31.289  35.506  1.00  0.00     0.031 C 
ATOM     40  C   UNL A   1      43.219  29.524  33.766  1.00  0.00     0.037 A 
BRANCH  27  41
ATOM     41  C   UNL A   1      40.486  27.399  28.638  1.00  0.00     0.057 A 
ATOM     42  C   UNL A   1      39.666  26.264  28.665  1.00  0.00     0.134 A 
ATOM     43  C   UNL A   1      41.268  27.599  27.492  1.00  0.00     0.134 A 
ATOM     44  F   UNL A   1      38.900  26.004  29.736  1.00  0.00    -0.206 F 
ATOM     45  C   UNL A   1      39.629  25.361  27.599  1.00  0.00     0.040 A 
ATOM     46  C   UNL A   1      41.224  26.717  26.411  1.00  0.00     0.040 A 
ATOM     47  F   UNL A   1      42.074  28.668  27.395  1.00  0.00    -0.206 F 
ATOM     48  C   UNL A   1      40.404  25.592  26.463  1.00  0.00     0.006 A 
ENDBRANCH  27  41
BRANCH  28  49
ATOM     49  C   UNL A   1      40.167  34.286  35.933  1.00  0.00     0.057 A 
ATOM     50  C   UNL A   1      40.838  35.511  35.849  1.00  0.00     0.134 A 
ATOM     51  C   UNL A   1      39.418  34.040  37.092  1.00  0.00     0.134 A 
ATOM     52  F   UNL A   1      41.580  35.803  34.772  1.00  0.00    -0.206 F 
ATOM     53  C   UNL A   1      40.786  36.443  36.887  1.00  0.00     0.040 A 
ATOM     54  C   UNL A   1      39.326  34.978  38.119  1.00  0.00     0.040 A 
ATOM     55  F   UNL A   1      38.737  32.892  37.229  1.00  0.00    -0.206 F 
ATOM     56  C   UNL A   1      40.023  36.179  38.023  1.00  0.00     0.006 A 
ENDBRANCH  28  49
BRANCH  40  57
ATOM     57  C   UNL A   1      44.448  29.016  34.459  1.00  0.00     0.057 A 
ATOM     58  C   UNL A   1      45.727  29.484  34.130  1.00  0.00     0.134 A 
ATOM     59  C   UNL A   1      44.350  28.035  35.453  1.00  0.00     0.134 A 
ATOM     60  F   UNL A   1      45.888  30.409  33.172  1.00  0.00    -0.206 F 
ATOM     61  C   UNL A   1      46.870  28.963  34.737  1.00  0.00     0.040 A 
ATOM     62  C   UNL A   1      45.484  27.530  36.090  1.00  0.00     0.040 A 
ATOM     63  F   UNL A   1      43.153  27.550  35.818  1.00  0.00    -0.206 F 
ATOM     64  C   UNL A   1      46.749  27.985  35.723  1.00  0.00     0.006 A 
ENDBRANCH  40  57
ENDBRANCH  14  15
ENDBRANCH   7   9
ENDBRANCH   4   5
ENDBRANCH   3   4
ENDBRANCH   2   3
ENDBRANCH   1   2
BRANCH   1  65
ATOM     65  C   UNL A   1      32.490  28.398  26.740  1.00  0.00     0.021 C 
BRANCH  65  66
ATOM     66  C   UNL A   1      33.913  28.313  26.056  1.00  0.00     0.116 C 
BRANCH  66  67
ATOM     67  N   UNL A   1      34.040  28.433  24.549  1.00  0.00    -0.356 N 
ATOM     68  C   UNL A   1      33.518  27.981  23.352  1.00  0.00     0.227 C 
ATOM     69  H   UNL A   1      34.765  29.069  24.349  1.00  0.00     0.163 HD
ATOM     70  O   UNL A   1      33.955  28.595  22.366  1.00  0.00    -0.275 OA
BRANCH  68  71
ATOM     71  C   UNL A   1      32.490  26.851  23.075  1.00  0.00     0.127 C 
ATOM     72  C   UNL A   1      31.029  27.088  22.679  1.00  0.00     0.127 C 
ATOM     73  C   UNL A   1      32.268  25.858  24.291  1.00  0.00     0.155 C 
ATOM     74  C   UNL A   1      30.284  25.937  23.380  1.00  0.00     0.155 C 
ATOM     75  C   UNL A   1      31.987  24.476  23.774  1.00  0.00     0.004 C 
ATOM     76  O   UNL A   1      30.882  26.107  24.693  1.00  0.00    -0.365 OA
ATOM     77  C   UNL A   1      30.803  24.547  23.142  1.00  0.00     0.004 C 
BRANCH  72  78
ATOM     78  C   UNL A   1      30.416  28.346  23.273  1.00  0.00     0.227 C 
ATOM     79  O   UNL A   1      31.125  29.255  23.694  1.00  0.00    -0.275 OA
ATOM     80  N   UNL A   1      29.064  28.298  23.479  1.00  0.00    -0.352 N 
ATOM     81  H   UNL A   1      28.826  27.830  24.311  1.00  0.00     0.163 HD
BRANCH  80  82
ATOM     82  C   UNL A   1      27.901  28.778  22.756  1.00  0.00     0.151 C 
BRANCH  82  83
ATOM     83  C   UNL A   1      28.015  30.263  22.386  1.00  0.00    -0.026 A 
ATOM     84  C   UNL A   1      28.025  31.224  23.391  1.00  0.00     0.025 A 
ATOM     85  C   UNL A   1      28.045  30.765  21.077  1.00  0.00     0.025 A 
ATOM     86  C   UNL A   1      28.027  32.576  23.048  1.00  0.00     0.111 A 
ATOM     87  C   UNL A   1      28.058  32.128  20.817  1.00  0.00     0.111 A 
ATOM     88  N   UNL A   1      28.034  33.051  21.784  1.00  0.00    -0.265 NA
ENDBRANCH  82  83
ENDBRANCH  80  82
ENDBRANCH  72  78
ENDBRANCH  68  71
ENDBRANCH  66  67
ENDBRANCH  65  66
ENDBRANCH   1  65
TORSDOF 16
ENDMDL
MODEL 3
REMARK VINA RESULT:     -11.6      5.393      9.896
REMARK SMILES O=C(NCCCCCCNC(=O)[C@@H]1[C@H](C(=O)NCc2ccncc2)[C@H]2C=C[C@@H]1O2)c1ccc(-c2c3nc(c(-c4c(F)cccc4F)c4ccc([nH]4)c(-c4c(F)cccc4F)c4nc(c(-c5c(F)cccc5F)c5ccc2[nH]5)C=C4)C=C3)cc1
REMARK SMILES IDX 7 1 6 2 5 3 4 4 3 5 1 6 2 7 30 9 31 10 83 11 32 12 82 13
REMARK SMILES IDX 33 14 34 15 35 16 76 17 36 18 81 19 75 20 77 21 37 22 80 23
REMARK SMILES IDX 74 24 73 25 38 27 64 28 47 29 63 30 48 31 51 32 62 33 78 34
REMARK SMILES IDX 49 35 50 36 61 38 79 39 52 40 39 41 40 42 45 43 41 44 42 45
REMARK SMILES IDX 44 46 46 47 43 48 65 49 66 50 71 51 67 52 68 53 70 54 72 55
REMARK SMILES IDX 69 56 53 57 54 58 59 59 55 60 56 61 58 62 60 63 57 64 8 65
REMARK SMILES IDX 9 66 10 67 11 68 12 70 13 71 14 72 28 73 25 74 27 75 29 76
REMARK SMILES IDX 26 77 15 78 16 79 17 80 18 82 19 83 20 84 24 85 21 86 23 87
REMARK SMILES IDX 22 88
REMARK H PARENT 3 8 77 26 51 37 10 69 17 81
REMARK Flexibility Score: inf
ROOT
ATOM      1  C   UNL A   1      36.815  21.898  24.520  1.00  0.00     0.002 C 
ENDROOT
BRANCH   1   2
ATOM      2  C   UNL A   1      36.613  20.469  25.000  1.00  0.00     0.002 C 
BRANCH   2   3
ATOM      3  C   UNL A   1      37.863  19.599  24.920  1.00  0.00     0.021 C 
BRANCH   3   4
ATOM      4  C   UNL A   1      39.032  20.112  25.749  1.00  0.00     0.116 C 
BRANCH   4   5
ATOM      5  N   UNL A   1      40.079  19.106  25.882  1.00  0.00    -0.352 N 
ATOM      6  O   UNL A   1      42.259  18.454  25.913  1.00  0.00    -0.269 OA
ATOM      7  C   UNL A   1      41.428  19.327  26.061  1.00  0.00     0.251 C 
ATOM      8  H   UNL A   1      39.791  18.166  25.838  1.00  0.00     0.163 HD
BRANCH   7   9
ATOM      9  C   UNL A   1      41.813  20.692  26.461  1.00  0.00     0.039 A 
ATOM     10  C   UNL A   1      42.051  21.619  25.444  1.00  0.00     0.014 A 
ATOM     11  C   UNL A   1      42.060  20.995  27.800  1.00  0.00     0.014 A 
ATOM     12  C   UNL A   1      42.674  22.811  25.757  1.00  0.00     0.010 A 
ATOM     13  C   UNL A   1      42.572  22.253  28.123  1.00  0.00     0.010 A 
ATOM     14  C   UNL A   1      42.887  23.164  27.101  1.00  0.00    -0.014 A 
BRANCH  14  15
ATOM     15  C   UNL A   1      43.292  24.558  27.388  1.00  0.00     0.031 A 
ATOM     16  C   UNL A   1      42.319  25.589  27.870  1.00  0.00     0.074 A 
ATOM     17  C   UNL A   1      44.601  24.848  27.247  1.00  0.00     0.049 A 
ATOM     18  N   UNL A   1      42.542  26.841  28.175  1.00  0.00    -0.248 NA
ATOM     19  C   UNL A   1      40.915  25.174  28.022  1.00  0.00     0.031 C 
ATOM     20  C   UNL A   1      45.620  23.907  26.763  1.00  0.00     0.029 A 
ATOM     21  N   UNL A   1      45.311  25.983  27.525  1.00  0.00    -0.354 N 
ATOM     22  C   UNL A   1      41.312  27.371  28.538  1.00  0.00     0.074 A 
ATOM     23  C   UNL A   1      40.337  26.309  28.395  1.00  0.00     0.031 C 
ATOM     24  C   UNL A   1      46.827  24.475  26.854  1.00  0.00     0.029 A 
ATOM     25  C   UNL A   1      46.659  25.849  27.299  1.00  0.00     0.049 A 
ATOM     26  H   UNL A   1      44.896  26.813  27.854  1.00  0.00     0.167 HD
ATOM     27  C   UNL A   1      41.034  28.630  28.955  1.00  0.00     0.037 A 
ATOM     28  C   UNL A   1      47.652  26.747  27.403  1.00  0.00     0.037 A 
ATOM     29  C   UNL A   1      42.027  29.669  29.092  1.00  0.00     0.049 A 
ATOM     30  C   UNL A   1      47.305  28.132  27.846  1.00  0.00     0.074 A 
ATOM     31  C   UNL A   1      41.857  30.979  29.504  1.00  0.00     0.029 A 
ATOM     32  N   UNL A   1      43.380  29.511  28.820  1.00  0.00    -0.354 N 
ATOM     33  N   UNL A   1      46.136  28.620  28.187  1.00  0.00    -0.248 NA
ATOM     34  C   UNL A   1      48.407  29.097  27.910  1.00  0.00     0.031 C 
ATOM     35  C   UNL A   1      43.097  31.624  29.442  1.00  0.00     0.029 A 
ATOM     36  C   UNL A   1      44.052  30.703  29.041  1.00  0.00     0.049 A 
ATOM     37  H   UNL A   1      43.800  28.675  28.514  1.00  0.00     0.167 HD
ATOM     38  C   UNL A   1      46.360  29.948  28.510  1.00  0.00     0.074 A 
ATOM     39  C   UNL A   1      47.786  30.174  28.364  1.00  0.00     0.031 C 
ATOM     40  C   UNL A   1      45.470  30.901  28.879  1.00  0.00     0.037 A 
BRANCH  27  41
ATOM     41  C   UNL A   1      39.606  28.966  29.279  1.00  0.00     0.057 A 
ATOM     42  C   UNL A   1      38.718  29.439  28.304  1.00  0.00     0.134 A 
ATOM     43  C   UNL A   1      39.094  28.752  30.566  1.00  0.00     0.134 A 
ATOM     44  F   UNL A   1      39.144  29.678  27.054  1.00  0.00    -0.206 F 
ATOM     45  C   UNL A   1      37.376  29.695  28.599  1.00  0.00     0.040 A 
ATOM     46  C   UNL A   1      37.750  28.982  30.867  1.00  0.00     0.040 A 
ATOM     47  F   UNL A   1      39.887  28.295  31.547  1.00  0.00    -0.206 F 
ATOM     48  C   UNL A   1      36.887  29.457  29.882  1.00  0.00     0.006 A 
ENDBRANCH  27  41
BRANCH  28  49
ATOM     49  C   UNL A   1      49.039  26.367  27.038  1.00  0.00     0.057 A 
ATOM     50  C   UNL A   1      49.493  26.442  25.718  1.00  0.00     0.134 A 
ATOM     51  C   UNL A   1      49.949  25.923  28.008  1.00  0.00     0.134 A 
ATOM     52  F   UNL A   1      48.670  26.849  24.742  1.00  0.00    -0.206 F 
ATOM     53  C   UNL A   1      50.793  26.067  25.371  1.00  0.00     0.040 A 
ATOM     54  C   UNL A   1      51.260  25.582  27.682  1.00  0.00     0.040 A 
ATOM     55  F   UNL A   1      49.582  25.842  29.296  1.00  0.00    -0.206 F 
ATOM     56  C   UNL A   1      51.682  25.642  26.356  1.00  0.00     0.006 A 
ENDBRANCH  28  49
BRANCH  40  57
ATOM     57  C   UNL A   1      46.036  32.260  29.165  1.00  0.00     0.057 A 
ATOM     58  C   UNL A   1      46.479  32.620  30.444  1.00  0.00     0.134 A 
ATOM     59  C   UNL A   1      46.121  33.223  28.152  1.00  0.00     0.134 A 
ATOM     60  F   UNL A   1      46.405  31.748  31.461  1.00  0.00    -0.206 F 
ATOM     61  C   UNL A   1      46.948  33.905  30.716  1.00  0.00     0.040 A 
ATOM     62  C   UNL A   1      46.618  34.501  28.405  1.00  0.00     0.040 A 
ATOM     63  F   UNL A   1      45.719  32.938  26.904  1.00  0.00    -0.206 F 
ATOM     64  C   UNL A   1      47.022  34.849  29.693  1.00  0.00     0.006 A 
ENDBRANCH  40  57
ENDBRANCH  14  15
ENDBRANCH   7   9
ENDBRANCH   4   5
ENDBRANCH   3   4
ENDBRANCH   2   3
ENDBRANCH   1   2
BRANCH   1  65
ATOM     65  C   UNL A   1      36.673  22.994  25.596  1.00  0.00     0.021 C 
BRANCH  65  66
ATOM     66  C   UNL A   1      35.310  23.770  25.797  1.00  0.00     0.116 C 
BRANCH  66  67
ATOM     67  N   UNL A   1      34.322  23.310  26.852  1.00  0.00    -0.356 N 
ATOM     68  C   UNL A   1      32.980  23.285  27.180  1.00  0.00     0.227 C 
ATOM     69  H   UNL A   1      34.824  22.863  27.572  1.00  0.00     0.163 HD
ATOM     70  O   UNL A   1      32.733  22.582  28.172  1.00  0.00    -0.275 OA
BRANCH  68  71
ATOM     71  C   UNL A   1      31.774  23.988  26.502  1.00  0.00     0.127 C 
ATOM     72  C   UNL A   1      31.030  23.443  25.278  1.00  0.00     0.127 C 
ATOM     73  C   UNL A   1      32.081  25.455  25.981  1.00  0.00     0.155 C 
ATOM     74  C   UNL A   1      30.662  24.716  24.495  1.00  0.00     0.155 C 
ATOM     75  C   UNL A   1      30.853  26.309  26.112  1.00  0.00     0.004 C 
ATOM     76  O   UNL A   1      31.975  25.335  24.526  1.00  0.00    -0.365 OA
ATOM     77  C   UNL A   1      29.951  25.801  25.255  1.00  0.00     0.004 C 
BRANCH  72  78
ATOM     78  C   UNL A   1      31.902  22.652  24.317  1.00  0.00     0.227 C 
ATOM     79  O   UNL A   1      32.392  23.185  23.325  1.00  0.00    -0.275 OA
ATOM     80  N   UNL A   1      31.931  21.301  24.530  1.00  0.00    -0.352 N 
ATOM     81  H   UNL A   1      31.150  20.842  24.145  1.00  0.00     0.163 HD
BRANCH  80  82
ATOM     82  C   UNL A   1      32.846  20.388  25.189  1.00  0.00     0.151 C 
BRANCH  82  83
ATOM     83  C   UNL A   1      33.179  19.166  24.322  1.00  0.00    -0.026 A 
ATOM     84  C   UNL A   1      32.437  18.915  23.172  1.00  0.00     0.025 A 
ATOM     85  C   UNL A   1      34.156  18.207  24.624  1.00  0.00     0.025 A 
ATOM     86  C   UNL A   1      32.676  17.751  22.441  1.00  0.00     0.111 A 
ATOM     87  C   UNL A   1      34.341  17.078  23.839  1.00  0.00     0.111 A 
ATOM     88  N   UNL A   1      33.604  16.822  22.753  1.00  0.00    -0.265 NA
ENDBRANCH  82  83
ENDBRANCH  80  82
ENDBRANCH  72  78
ENDBRANCH  68  71
ENDBRANCH  66  67
ENDBRANCH  65  66
ENDBRANCH   1  65
TORSDOF 16
ENDMDL
