MODEL 1
REMARK VINA RESULT:     -11.6      0.000      0.000
REMARK SMILES O=C(C[NH+]1CCN(c2ncc(C(F)(F)F)cc2Cl)CC1)NCCCCCCNC(=O)c1ccc(-c2c3nc(c(-c4c(F)cccc4F)c4ccc([nH]4)c(-c4c(F)cccc4F)c4nc(c(-c5c(F)cccc5F)c5ccc2[nH]5)C=C4)C=C3)cc1
REMARK SMILES IDX 24 1 23 2 22 3 21 4 1 5 2 6 3 8 4 9 5 10 20 11 6 13 19 14
REMARK SMILES IDX 7 15 8 16 9 17 17 18 10 19 16 20 18 21 11 22 12 23 13 24
REMARK SMILES IDX 14 25 15 26 25 27 26 28 27 29 28 30 29 31 30 33 31 34 32 35
REMARK SMILES IDX 84 36 33 37 83 38 34 39 35 40 36 41 77 42 37 43 82 44 76 45
REMARK SMILES IDX 78 46 38 47 81 48 75 49 74 50 39 52 65 53 48 54 64 55 49 56
REMARK SMILES IDX 52 57 63 58 79 59 50 60 51 61 62 63 80 64 53 65 40 66 41 67
REMARK SMILES IDX 46 68 42 69 43 70 45 71 47 72 44 73 66 74 67 75 72 76 68 77
REMARK SMILES IDX 69 78 71 79 73 80 70 81 54 82 55 83 60 84 56 85 57 86 59 87
REMARK SMILES IDX 61 88 58 89
REMARK H PARENT 21 7 4 12 28 32 78 51 52 62
REMARK Flexibility Score: inf
ROOT
ATOM      1  C   UNL A   1      32.079  29.870  25.542  1.00  0.00     0.002 C 
ENDROOT
BRANCH   1   2
ATOM      2  C   UNL A   1      30.889  29.644  24.601  1.00  0.00     0.021 C 
BRANCH   2   3
ATOM      3  C   UNL A   1      30.897  28.291  23.899  1.00  0.00     0.116 C 
BRANCH   3   4
ATOM      4  N   UNL A   1      31.061  27.206  24.838  1.00  0.00    -0.351 N 
ATOM      5  O   UNL A   1      33.068  26.460  24.009  1.00  0.00    -0.269 OA
ATOM      6  C   UNL A   1      32.163  26.383  24.835  1.00  0.00     0.275 C 
ATOM      7  H   UNL A   1      30.355  27.049  25.506  1.00  0.00     0.163 HD
BRANCH   6   8
ATOM      8  C   UNL A   1      32.168  25.325  25.939  1.00  0.00     0.363 C 
BRANCH   8   9
ATOM      9  N   UNL A   1      31.161  24.251  25.737  1.00  0.00    -0.324 N 
ATOM     10  C   UNL A   1      31.329  23.687  24.360  1.00  0.00     0.284 C 
ATOM     11  C   UNL A   1      31.290  23.130  26.711  1.00  0.00     0.284 C 
ATOM     12  H   UNL A   1      30.244  24.678  25.875  1.00  0.00     0.348 HD
ATOM     13  C   UNL A   1      32.573  22.771  24.141  1.00  0.00     0.179 C 
ATOM     14  C   UNL A   1      32.558  22.267  26.558  1.00  0.00     0.179 C 
ATOM     15  N   UNL A   1      32.596  21.761  25.191  1.00  0.00    -0.344 N 
BRANCH  15  16
ATOM     16  C   UNL A   1      33.013  20.481  24.919  1.00  0.00     0.147 A 
ATOM     17  N   UNL A   1      32.055  19.530  24.783  1.00  0.00    -0.237 NA
ATOM     18  C   UNL A   1      34.375  20.137  24.844  1.00  0.00     0.084 A 
ATOM     19  C   UNL A   1      32.438  18.252  24.547  1.00  0.00     0.126 A 
ATOM     20  C   UNL A   1      34.742  18.810  24.618  1.00  0.00     0.039 A 
ATOM     21  Cl  UNL A   1      35.657  21.263  25.140  1.00  0.00    -0.080 Cl
ATOM     22  C   UNL A   1      33.757  17.837  24.467  1.00  0.00     0.075 A 
BRANCH  22  23
ATOM     23  C   UNL A   1      34.085  16.396  24.243  1.00  0.00     0.417 C 
ATOM     24  F   UNL A   1      35.165  15.987  24.962  1.00  0.00    -0.166 F 
ATOM     25  F   UNL A   1      33.063  15.568  24.593  1.00  0.00    -0.166 F 
ATOM     26  F   UNL A   1      34.372  16.104  22.944  1.00  0.00    -0.166 F 
ENDBRANCH  22  23
ENDBRANCH  15  16
ENDBRANCH   8   9
ENDBRANCH   6   8
ENDBRANCH   3   4
ENDBRANCH   2   3
ENDBRANCH   1   2
BRANCH   1  27
ATOM     27  C   UNL A   1      31.727  30.471  26.906  1.00  0.00     0.002 C 
BRANCH  27  28
ATOM     28  C   UNL A   1      31.453  31.977  26.904  1.00  0.00     0.021 C 
BRANCH  28  29
ATOM     29  C   UNL A   1      32.697  32.855  26.978  1.00  0.00     0.116 C 
BRANCH  29  30
ATOM     30  N   UNL A   1      32.450  34.111  27.668  1.00  0.00    -0.352 N 
ATOM     31  C   UNL A   1      33.122  34.663  28.729  1.00  0.00     0.251 C 
ATOM     32  H   UNL A   1      31.694  34.640  27.326  1.00  0.00     0.163 HD
ATOM     33  O   UNL A   1      32.671  35.660  29.294  1.00  0.00    -0.269 OA
BRANCH  31  34
ATOM     34  C   UNL A   1      34.378  34.052  29.211  1.00  0.00     0.039 A 
ATOM     35  C   UNL A   1      34.324  33.145  30.274  1.00  0.00     0.014 A 
ATOM     36  C   UNL A   1      35.606  34.376  28.630  1.00  0.00     0.014 A 
ATOM     37  C   UNL A   1      35.495  32.526  30.718  1.00  0.00     0.010 A 
ATOM     38  C   UNL A   1      36.760  33.702  29.023  1.00  0.00     0.010 A 
ATOM     39  C   UNL A   1      36.719  32.777  30.077  1.00  0.00    -0.014 A 
BRANCH  39  40
ATOM     40  C   UNL A   1      37.970  32.103  30.512  1.00  0.00     0.031 A 
ATOM     41  C   UNL A   1      38.819  32.721  31.590  1.00  0.00     0.074 A 
ATOM     42  C   UNL A   1      38.369  30.968  29.905  1.00  0.00     0.049 A 
ATOM     43  N   UNL A   1      39.983  32.337  32.049  1.00  0.00    -0.248 NA
ATOM     44  C   UNL A   1      38.302  33.947  32.221  1.00  0.00     0.031 C 
ATOM     45  C   UNL A   1      37.657  30.290  28.821  1.00  0.00     0.029 A 
ATOM     46  N   UNL A   1      39.483  30.191  30.107  1.00  0.00    -0.354 N 
ATOM     47  C   UNL A   1      40.338  33.273  33.013  1.00  0.00     0.074 A 
ATOM     48  C   UNL A   1      39.298  34.276  33.032  1.00  0.00     0.031 C 
ATOM     49  C   UNL A   1      38.343  29.192  28.464  1.00  0.00     0.029 A 
ATOM     50  C   UNL A   1      39.560  29.108  29.264  1.00  0.00     0.049 A 
ATOM     51  H   UNL A   1      40.162  30.390  30.791  1.00  0.00     0.167 HD
ATOM     52  C   UNL A   1      41.418  33.280  33.830  1.00  0.00     0.037 A 
ATOM     53  C   UNL A   1      40.512  28.163  29.141  1.00  0.00     0.037 A 
ATOM     54  C   UNL A   1      42.444  32.271  33.826  1.00  0.00     0.049 A 
ATOM     55  C   UNL A   1      41.712  28.208  30.051  1.00  0.00     0.074 A 
ATOM     56  C   UNL A   1      43.566  32.179  34.632  1.00  0.00     0.029 A 
ATOM     57  N   UNL A   1      42.470  31.176  32.977  1.00  0.00    -0.354 N 
ATOM     58  N   UNL A   1      42.009  29.073  30.990  1.00  0.00    -0.248 NA
ATOM     59  C   UNL A   1      42.706  27.136  29.889  1.00  0.00     0.031 C 
ATOM     60  C   UNL A   1      44.289  31.046  34.247  1.00  0.00     0.029 A 
ATOM     61  C   UNL A   1      43.592  30.406  33.236  1.00  0.00     0.049 A 
ATOM     62  H   UNL A   1      41.792  30.975  32.291  1.00  0.00     0.167 HD
ATOM     63  C   UNL A   1      43.197  28.629  31.555  1.00  0.00     0.074 A 
ATOM     64  C   UNL A   1      43.561  27.411  30.863  1.00  0.00     0.031 C 
ATOM     65  C   UNL A   1      43.924  29.181  32.557  1.00  0.00     0.037 A 
BRANCH  52  66
ATOM     66  C   UNL A   1      41.535  34.405  34.816  1.00  0.00     0.057 A 
ATOM     67  C   UNL A   1      42.137  35.623  34.471  1.00  0.00     0.134 A 
ATOM     68  C   UNL A   1      40.993  34.295  36.102  1.00  0.00     0.134 A 
ATOM     69  F   UNL A   1      42.687  35.789  33.259  1.00  0.00    -0.206 F 
ATOM     70  C   UNL A   1      42.211  36.683  35.376  1.00  0.00     0.040 A 
ATOM     71  C   UNL A   1      41.037  35.358  37.007  1.00  0.00     0.040 A 
ATOM     72  F   UNL A   1      40.396  33.160  36.496  1.00  0.00    -0.206 F 
ATOM     73  C   UNL A   1      41.651  36.555  36.645  1.00  0.00     0.006 A 
ENDBRANCH  52  66
BRANCH  53  74
ATOM     74  C   UNL A   1      40.380  27.086  28.127  1.00  0.00     0.057 A 
ATOM     75  C   UNL A   1      39.691  25.900  28.412  1.00  0.00     0.134 A 
ATOM     76  C   UNL A   1      40.979  27.193  26.866  1.00  0.00     0.134 A 
ATOM     77  F   UNL A   1      39.112  25.728  29.609  1.00  0.00    -0.206 F 
ATOM     78  C   UNL A   1      39.635  24.848  27.496  1.00  0.00     0.040 A 
ATOM     79  C   UNL A   1      40.904  26.162  25.928  1.00  0.00     0.040 A 
ATOM     80  F   UNL A   1      41.646  28.307  26.525  1.00  0.00    -0.206 F 
ATOM     81  C   UNL A   1      40.241  24.978  26.249  1.00  0.00     0.006 A 
ENDBRANCH  53  74
BRANCH  65  82
ATOM     82  C   UNL A   1      45.149  28.441  33.008  1.00  0.00     0.057 A 
ATOM     83  C   UNL A   1      45.093  27.417  33.963  1.00  0.00     0.134 A 
ATOM     84  C   UNL A   1      46.400  28.735  32.448  1.00  0.00     0.134 A 
ATOM     85  F   UNL A   1      43.928  27.094  34.546  1.00  0.00    -0.206 F 
ATOM     86  C   UNL A   1      46.240  26.730  34.363  1.00  0.00     0.040 A 
ATOM     87  C   UNL A   1      47.549  28.035  32.819  1.00  0.00     0.040 A 
ATOM     88  F   UNL A   1      46.522  29.696  31.521  1.00  0.00    -0.206 F 
ATOM     89  C   UNL A   1      47.472  27.034  33.785  1.00  0.00     0.006 A 
ENDBRANCH  65  82
ENDBRANCH  39  40
ENDBRANCH  31  34
ENDBRANCH  29  30
ENDBRANCH  28  29
ENDBRANCH  27  28
ENDBRANCH   1  27
TORSDOF 16
ENDMDL
MODEL 2
REMARK VINA RESULT:     -11.6      1.307      6.185
REMARK SMILES O=C(C[NH+]1CCN(c2ncc(C(F)(F)F)cc2Cl)CC1)NCCCCCCNC(=O)c1ccc(-c2c3nc(c(-c4c(F)cccc4F)c4ccc([nH]4)c(-c4c(F)cccc4F)c4nc(c(-c5c(F)cccc5F)c5ccc2[nH]5)C=C4)C=C3)cc1
REMARK SMILES IDX 24 1 23 2 22 3 21 4 1 5 2 6 3 8 4 9 5 10 20 11 6 13 19 14
REMARK SMILES IDX 7 15 8 16 9 17 17 18 10 19 16 20 18 21 11 22 12 23 13 24
REMARK SMILES IDX 14 25 15 26 25 27 26 28 27 29 28 30 29 31 30 33 31 34 32 35
REMARK SMILES IDX 84 36 33 37 83 38 34 39 35 40 36 41 77 42 37 43 82 44 76 45
REMARK SMILES IDX 78 46 38 47 81 48 75 49 74 50 39 52 65 53 48 54 64 55 49 56
REMARK SMILES IDX 52 57 63 58 79 59 50 60 51 61 62 63 80 64 53 65 40 66 41 67
REMARK SMILES IDX 46 68 42 69 43 70 45 71 47 72 44 73 66 74 67 75 72 76 68 77
REMARK SMILES IDX 69 78 71 79 73 80 70 81 54 82 55 83 60 84 56 85 57 86 59 87
REMARK SMILES IDX 61 88 58 89
REMARK H PARENT 21 7 4 12 28 32 78 51 52 62
REMARK Flexibility Score: inf
ROOT
ATOM      1  C   UNL A   1      31.917  30.011  25.251  1.00  0.00     0.002 C 
ENDROOT
BRANCH   1   2
ATOM      2  C   UNL A   1      30.817  29.479  24.325  1.00  0.00     0.021 C 
BRANCH   2   3
ATOM      3  C   UNL A   1      31.141  28.137  23.678  1.00  0.00     0.116 C 
BRANCH   3   4
ATOM      4  N   UNL A   1      31.353  27.107  24.669  1.00  0.00    -0.351 N 
ATOM      5  O   UNL A   1      33.484  26.562  24.009  1.00  0.00    -0.269 OA
ATOM      6  C   UNL A   1      32.535  26.411  24.773  1.00  0.00     0.275 C 
ATOM      7  H   UNL A   1      30.622  26.895  25.293  1.00  0.00     0.163 HD
BRANCH   6   8
ATOM      8  C   UNL A   1      32.576  25.396  25.916  1.00  0.00     0.363 C 
BRANCH   8   9
ATOM      9  N   UNL A   1      31.514  24.360  25.828  1.00  0.00    -0.324 N 
ATOM     10  C   UNL A   1      31.557  23.743  24.463  1.00  0.00     0.284 C 
ATOM     11  C   UNL A   1      31.670  23.267  26.829  1.00  0.00     0.284 C 
ATOM     12  H   UNL A   1      30.628  24.829  26.016  1.00  0.00     0.348 HD
ATOM     13  C   UNL A   1      32.745  22.769  24.187  1.00  0.00     0.179 C 
ATOM     14  C   UNL A   1      32.888  22.347  26.617  1.00  0.00     0.179 C 
ATOM     15  N   UNL A   1      32.805  21.795  25.270  1.00  0.00    -0.344 N 
BRANCH  15  16
ATOM     16  C   UNL A   1      33.150  20.489  25.015  1.00  0.00     0.147 A 
ATOM     17  N   UNL A   1      32.150  19.572  25.012  1.00  0.00    -0.237 NA
ATOM     18  C   UNL A   1      34.486  20.091  24.826  1.00  0.00     0.084 A 
ATOM     19  C   UNL A   1      32.465  18.271  24.796  1.00  0.00     0.126 A 
ATOM     20  C   UNL A   1      34.783  18.743  24.623  1.00  0.00     0.039 A 
ATOM     21  Cl  UNL A   1      35.827  21.178  24.949  1.00  0.00    -0.080 Cl
ATOM     22  C   UNL A   1      33.755  17.803  24.609  1.00  0.00     0.075 A 
BRANCH  22  23
ATOM     23  C   UNL A   1      34.010  16.343  24.418  1.00  0.00     0.417 C 
ATOM     24  F   UNL A   1      32.910  15.583  24.669  1.00  0.00    -0.166 F 
ATOM     25  F   UNL A   1      34.394  16.042  23.148  1.00  0.00    -0.166 F 
ATOM     26  F   UNL A   1      34.991  15.856  25.228  1.00  0.00    -0.166 F 
ENDBRANCH  22  23
ENDBRANCH  15  16
ENDBRANCH   8   9
ENDBRANCH   6   8
ENDBRANCH   3   4
ENDBRANCH   2   3
ENDBRANCH   1   2
BRANCH   1  27
ATOM     27  C   UNL A   1      31.423  30.642  26.557  1.00  0.00     0.002 C 
BRANCH  27  28
ATOM     28  C   UNL A   1      31.416  32.172  26.580  1.00  0.00     0.021 C 
BRANCH  28  29
ATOM     29  C   UNL A   1      32.679  32.810  27.148  1.00  0.00     0.116 C 
BRANCH  29  30
ATOM     30  N   UNL A   1      32.449  34.163  27.629  1.00  0.00    -0.352 N 
ATOM     31  C   UNL A   1      33.062  34.833  28.658  1.00  0.00     0.251 C 
ATOM     32  H   UNL A   1      31.757  34.671  27.148  1.00  0.00     0.163 HD
ATOM     33  O   UNL A   1      32.624  35.920  29.033  1.00  0.00    -0.269 OA
BRANCH  31  34
ATOM     34  C   UNL A   1      34.234  34.241  29.334  1.00  0.00     0.039 A 
ATOM     35  C   UNL A   1      34.030  33.422  30.449  1.00  0.00     0.014 A 
ATOM     36  C   UNL A   1      35.531  34.498  28.883  1.00  0.00     0.014 A 
ATOM     37  C   UNL A   1      35.123  32.821  31.077  1.00  0.00     0.010 A 
ATOM     38  C   UNL A   1      36.612  33.838  29.463  1.00  0.00     0.010 A 
ATOM     39  C   UNL A   1      36.421  33.000  30.572  1.00  0.00    -0.014 A 
BRANCH  39  40
ATOM     40  C   UNL A   1      37.593  32.342  31.206  1.00  0.00     0.031 A 
ATOM     41  C   UNL A   1      38.298  31.218  30.496  1.00  0.00     0.074 A 
ATOM     42  C   UNL A   1      37.991  32.718  32.437  1.00  0.00     0.049 A 
ATOM     43  N   UNL A   1      39.281  30.462  30.916  1.00  0.00    -0.248 NA
ATOM     44  C   UNL A   1      37.820  30.882  29.145  1.00  0.00     0.031 C 
ATOM     45  C   UNL A   1      37.369  33.767  33.246  1.00  0.00     0.029 A 
ATOM     46  N   UNL A   1      39.010  32.249  33.229  1.00  0.00    -0.354 N 
ATOM     47  C   UNL A   1      39.533  29.563  29.886  1.00  0.00     0.074 A 
ATOM     48  C   UNL A   1      38.562  29.825  28.848  1.00  0.00     0.031 C 
ATOM     49  C   UNL A   1      38.027  33.871  34.413  1.00  0.00     0.029 A 
ATOM     50  C   UNL A   1      39.091  32.874  34.451  1.00  0.00     0.049 A 
ATOM     51  H   UNL A   1      39.625  31.533  32.949  1.00  0.00     0.167 HD
ATOM     52  C   UNL A   1      40.504  28.623  29.800  1.00  0.00     0.037 A 
ATOM     53  C   UNL A   1      39.920  32.656  35.490  1.00  0.00     0.037 A 
ATOM     54  C   UNL A   1      41.484  28.374  30.825  1.00  0.00     0.049 A 
ATOM     55  C   UNL A   1      40.978  31.591  35.373  1.00  0.00     0.074 A 
ATOM     56  C   UNL A   1      42.522  27.459  30.820  1.00  0.00     0.029 A 
ATOM     57  N   UNL A   1      41.549  29.048  32.034  1.00  0.00    -0.354 N 
ATOM     58  N   UNL A   1      41.234  30.781  34.374  1.00  0.00    -0.248 NA
ATOM     59  C   UNL A   1      41.872  31.416  36.529  1.00  0.00     0.031 C 
ATOM     60  C   UNL A   1      43.195  27.554  32.042  1.00  0.00     0.029 A 
ATOM     61  C   UNL A   1      42.607  28.564  32.786  1.00  0.00     0.049 A 
ATOM     62  H   UNL A   1      40.935  29.764  32.317  1.00  0.00     0.167 HD
ATOM     63  C   UNL A   1      42.337  30.033  34.763  1.00  0.00     0.074 A 
ATOM     64  C   UNL A   1      42.712  30.492  36.083  1.00  0.00     0.031 C 
ATOM     65  C   UNL A   1      42.983  29.051  34.087  1.00  0.00     0.037 A 
BRANCH  52  66
ATOM     66  C   UNL A   1      40.571  27.806  28.543  1.00  0.00     0.057 A 
ATOM     67  C   UNL A   1      41.352  28.204  27.450  1.00  0.00     0.134 A 
ATOM     68  C   UNL A   1      39.897  26.582  28.443  1.00  0.00     0.134 A 
ATOM     69  F   UNL A   1      42.012  29.372  27.477  1.00  0.00    -0.206 F 
ATOM     70  C   UNL A   1      41.445  27.425  26.296  1.00  0.00     0.040 A 
ATOM     71  C   UNL A   1      40.005  25.781  27.305  1.00  0.00     0.040 A 
ATOM     72  F   UNL A   1      39.137  26.137  29.455  1.00  0.00    -0.206 F 
ATOM     73  C   UNL A   1      40.777  26.204  26.225  1.00  0.00     0.006 A 
ENDBRANCH  52  66
BRANCH  53  74
ATOM     74  C   UNL A   1      39.799  33.460  36.734  1.00  0.00     0.057 A 
ATOM     75  C   UNL A   1      40.567  34.614  36.930  1.00  0.00     0.134 A 
ATOM     76  C   UNL A   1      38.950  33.069  37.776  1.00  0.00     0.134 A 
ATOM     77  F   UNL A   1      41.415  35.031  35.978  1.00  0.00    -0.206 F 
ATOM     78  C   UNL A   1      40.524  35.327  38.130  1.00  0.00     0.040 A 
ATOM     79  C   UNL A   1      38.873  33.790  38.969  1.00  0.00     0.040 A 
ATOM     80  F   UNL A   1      38.179  31.977  37.649  1.00  0.00    -0.206 F 
ATOM     81  C   UNL A   1      39.673  34.916  39.153  1.00  0.00     0.006 A 
ENDBRANCH  53  74
BRANCH  65  82
ATOM     82  C   UNL A   1      44.197  28.453  34.735  1.00  0.00     0.057 A 
ATOM     83  C   UNL A   1      45.471  29.019  34.600  1.00  0.00     0.134 A 
ATOM     84  C   UNL A   1      44.079  27.310  35.538  1.00  0.00     0.134 A 
ATOM     85  F   UNL A   1      45.654  30.107  33.835  1.00  0.00    -0.206 F 
ATOM     86  C   UNL A   1      46.588  28.457  35.219  1.00  0.00     0.040 A 
ATOM     87  C   UNL A   1      45.185  26.756  36.185  1.00  0.00     0.040 A 
ATOM     88  F   UNL A   1      42.887  26.724  35.718  1.00  0.00    -0.206 F 
ATOM     89  C   UNL A   1      46.444  27.325  36.020  1.00  0.00     0.006 A 
ENDBRANCH  65  82
ENDBRANCH  39  40
ENDBRANCH  31  34
ENDBRANCH  29  30
ENDBRANCH  28  29
ENDBRANCH  27  28
ENDBRANCH   1  27
TORSDOF 16
ENDMDL
MODEL 3
REMARK VINA RESULT:     -11.5      6.011     11.068
REMARK SMILES O=C(C[NH+]1CCN(c2ncc(C(F)(F)F)cc2Cl)CC1)NCCCCCCNC(=O)c1ccc(-c2c3nc(c(-c4c(F)cccc4F)c4ccc([nH]4)c(-c4c(F)cccc4F)c4nc(c(-c5c(F)cccc5F)c5ccc2[nH]5)C=C4)C=C3)cc1
REMARK SMILES IDX 24 1 23 2 22 3 21 4 1 5 2 6 3 8 4 9 5 10 20 11 6 13 19 14
REMARK SMILES IDX 7 15 8 16 9 17 17 18 10 19 16 20 18 21 11 22 12 23 13 24
REMARK SMILES IDX 14 25 15 26 25 27 26 28 27 29 28 30 29 31 30 33 31 34 32 35
REMARK SMILES IDX 84 36 33 37 83 38 34 39 35 40 36 41 77 42 37 43 82 44 76 45
REMARK SMILES IDX 78 46 38 47 81 48 75 49 74 50 39 52 65 53 48 54 64 55 49 56
REMARK SMILES IDX 52 57 63 58 79 59 50 60 51 61 62 63 80 64 53 65 40 66 41 67
REMARK SMILES IDX 46 68 42 69 43 70 45 71 47 72 44 73 66 74 67 75 72 76 68 77
REMARK SMILES IDX 69 78 71 79 73 80 70 81 54 82 55 83 60 84 56 85 57 86 59 87
REMARK SMILES IDX 61 88 58 89
REMARK H PARENT 21 7 4 12 28 32 78 51 52 62
REMARK Flexibility Score: inf
ROOT
ATOM      1  C   UNL A   1      41.287  22.019  26.158  1.00  0.00     0.002 C 
ENDROOT
BRANCH   1   2
ATOM      2  C   UNL A   1      39.882  22.461  26.584  1.00  0.00     0.021 C 
BRANCH   2   3
ATOM      3  C   UNL A   1      38.755  21.812  25.788  1.00  0.00     0.116 C 
BRANCH   3   4
ATOM      4  N   UNL A   1      37.792  22.790  25.337  1.00  0.00    -0.351 N 
ATOM      5  O   UNL A   1      36.145  21.283  24.796  1.00  0.00    -0.269 OA
ATOM      6  C   UNL A   1      36.536  22.443  24.897  1.00  0.00     0.275 C 
ATOM      7  H   UNL A   1      38.045  23.741  25.345  1.00  0.00     0.163 HD
BRANCH   6   8
ATOM      8  C   UNL A   1      35.651  23.628  24.507  1.00  0.00     0.363 C 
BRANCH   8   9
ATOM      9  N   UNL A   1      34.247  23.245  24.207  1.00  0.00    -0.324 N 
ATOM     10  C   UNL A   1      33.359  23.798  25.280  1.00  0.00     0.284 C 
ATOM     11  C   UNL A   1      33.760  23.764  22.898  1.00  0.00     0.284 C 
ATOM     12  H   UNL A   1      34.221  22.226  24.166  1.00  0.00     0.348 HD
ATOM     13  C   UNL A   1      33.110  25.338  25.239  1.00  0.00     0.179 C 
ATOM     14  C   UNL A   1      33.589  25.294  22.816  1.00  0.00     0.179 C 
ATOM     15  N   UNL A   1      32.693  25.704  23.890  1.00  0.00    -0.344 N 
BRANCH  15  16
ATOM     16  C   UNL A   1      31.749  26.683  23.694  1.00  0.00     0.147 A 
ATOM     17  N   UNL A   1      30.458  26.287  23.573  1.00  0.00    -0.237 NA
ATOM     18  C   UNL A   1      32.096  28.040  23.557  1.00  0.00     0.084 A 
ATOM     19  C   UNL A   1      29.510  27.228  23.345  1.00  0.00     0.126 A 
ATOM     20  C   UNL A   1      31.102  28.985  23.305  1.00  0.00     0.039 A 
ATOM     21  Cl  UNL A   1      33.732  28.608  23.564  1.00  0.00    -0.080 Cl
ATOM     22  C   UNL A   1      29.774  28.579  23.192  1.00  0.00     0.075 A 
BRANCH  22  23
ATOM     23  C   UNL A   1      28.666  29.539  22.902  1.00  0.00     0.417 C 
ATOM     24  F   UNL A   1      27.463  29.103  23.363  1.00  0.00    -0.166 F 
ATOM     25  F   UNL A   1      28.868  30.758  23.472  1.00  0.00    -0.166 F 
ATOM     26  F   UNL A   1      28.491  29.775  21.572  1.00  0.00    -0.166 F 
ENDBRANCH  22  23
ENDBRANCH  15  16
ENDBRANCH   8   9
ENDBRANCH   6   8
ENDBRANCH   3   4
ENDBRANCH   2   3
ENDBRANCH   1   2
BRANCH   1  27
ATOM     27  C   UNL A   1      41.801  20.740  26.826  1.00  0.00     0.002 C 
BRANCH  27  28
ATOM     28  C   UNL A   1      42.046  19.563  25.879  1.00  0.00     0.021 C 
BRANCH  28  29
ATOM     29  C   UNL A   1      43.344  18.802  26.126  1.00  0.00     0.116 C 
BRANCH  29  30
ATOM     30  N   UNL A   1      44.077  18.539  24.898  1.00  0.00    -0.352 N 
ATOM     31  C   UNL A   1      44.762  19.413  24.094  1.00  0.00     0.251 C 
ATOM     32  H   UNL A   1      44.083  17.600  24.602  1.00  0.00     0.163 HD
ATOM     33  O   UNL A   1      45.186  19.042  22.999  1.00  0.00    -0.269 OA
BRANCH  31  34
ATOM     34  C   UNL A   1      44.973  20.810  24.527  1.00  0.00     0.039 A 
ATOM     35  C   UNL A   1      44.536  21.849  23.700  1.00  0.00     0.014 A 
ATOM     36  C   UNL A   1      45.608  21.100  25.738  1.00  0.00     0.014 A 
ATOM     37  C   UNL A   1      44.691  23.175  24.111  1.00  0.00     0.010 A 
ATOM     38  C   UNL A   1      45.693  22.418  26.179  1.00  0.00     0.010 A 
ATOM     39  C   UNL A   1      45.243  23.470  25.367  1.00  0.00    -0.014 A 
BRANCH  39  40
ATOM     40  C   UNL A   1      45.386  24.873  25.837  1.00  0.00     0.031 A 
ATOM     41  C   UNL A   1      46.732  25.544  25.798  1.00  0.00     0.074 A 
ATOM     42  C   UNL A   1      44.321  25.524  26.345  1.00  0.00     0.049 A 
ATOM     43  N   UNL A   1      47.080  26.727  26.240  1.00  0.00    -0.248 NA
ATOM     44  C   UNL A   1      47.840  24.777  25.207  1.00  0.00     0.031 C 
ATOM     45  C   UNL A   1      42.971  24.972  26.472  1.00  0.00     0.029 A 
ATOM     46  N   UNL A   1      44.211  26.792  26.860  1.00  0.00    -0.354 N 
ATOM     47  C   UNL A   1      48.442  26.840  25.985  1.00  0.00     0.074 A 
ATOM     48  C   UNL A   1      48.871  25.586  25.408  1.00  0.00     0.031 C 
ATOM     49  C   UNL A   1      42.166  25.900  27.017  1.00  0.00     0.029 A 
ATOM     50  C   UNL A   1      42.949  27.096  27.311  1.00  0.00     0.049 A 
ATOM     51  H   UNL A   1      44.964  27.424  26.903  1.00  0.00     0.167 HD
ATOM     52  C   UNL A   1      49.256  27.903  26.186  1.00  0.00     0.037 A 
ATOM     53  C   UNL A   1      42.479  28.209  27.908  1.00  0.00     0.037 A 
ATOM     54  C   UNL A   1      48.827  29.159  26.743  1.00  0.00     0.049 A 
ATOM     55  C   UNL A   1      43.413  29.368  28.137  1.00  0.00     0.074 A 
ATOM     56  C   UNL A   1      49.572  30.304  26.964  1.00  0.00     0.029 A 
ATOM     57  N   UNL A   1      47.534  29.436  27.160  1.00  0.00    -0.354 N 
ATOM     58  N   UNL A   1      44.686  29.477  27.847  1.00  0.00    -0.248 NA
ATOM     59  C   UNL A   1      42.838  30.566  28.769  1.00  0.00     0.031 C 
ATOM     60  C   UNL A   1      48.739  31.262  27.548  1.00  0.00     0.029 A 
ATOM     61  C   UNL A   1      47.463  30.732  27.644  1.00  0.00     0.049 A 
ATOM     62  H   UNL A   1      46.779  28.805  27.119  1.00  0.00     0.167 HD
ATOM     63  C   UNL A   1      45.054  30.763  28.221  1.00  0.00     0.074 A 
ATOM     64  C   UNL A   1      43.867  31.402  28.748  1.00  0.00     0.031 C 
ATOM     65  C   UNL A   1      46.267  31.362  28.138  1.00  0.00     0.037 A 
BRANCH  52  66
ATOM     66  C   UNL A   1      50.694  27.763  25.781  1.00  0.00     0.057 A 
ATOM     67  C   UNL A   1      51.691  27.444  26.713  1.00  0.00     0.134 A 
ATOM     68  C   UNL A   1      51.081  27.891  24.441  1.00  0.00     0.134 A 
ATOM     69  F   UNL A   1      51.390  27.320  28.014  1.00  0.00    -0.206 F 
ATOM     70  C   UNL A   1      53.023  27.275  26.329  1.00  0.00     0.040 A 
ATOM     71  C   UNL A   1      52.404  27.698  24.041  1.00  0.00     0.040 A 
ATOM     72  F   UNL A   1      50.176  28.190  23.496  1.00  0.00    -0.206 F 
ATOM     73  C   UNL A   1      53.381  27.393  24.988  1.00  0.00     0.006 A 
ENDBRANCH  52  66
BRANCH  53  74
ATOM     74  C   UNL A   1      41.057  28.296  28.331  1.00  0.00     0.057 A 
ATOM     75  C   UNL A   1      40.070  28.778  27.463  1.00  0.00     0.134 A 
ATOM     76  C   UNL A   1      40.658  27.946  29.626  1.00  0.00     0.134 A 
ATOM     77  F   UNL A   1      40.391  29.149  26.214  1.00  0.00    -0.206 F 
ATOM     78  C   UNL A   1      38.748  28.945  27.878  1.00  0.00     0.040 A 
ATOM     79  C   UNL A   1      39.333  28.078  30.046  1.00  0.00     0.040 A 
ATOM     80  F   UNL A   1      41.553  27.468  30.505  1.00  0.00    -0.206 F 
ATOM     81  C   UNL A   1      38.376  28.592  29.173  1.00  0.00     0.006 A 
ENDBRANCH  53  74
BRANCH  65  82
ATOM     82  C   UNL A   1      46.358  32.797  28.567  1.00  0.00     0.057 A 
ATOM     83  C   UNL A   1      46.142  33.857  27.677  1.00  0.00     0.134 A 
ATOM     84  C   UNL A   1      46.629  33.120  29.904  1.00  0.00     0.134 A 
ATOM     85  F   UNL A   1      45.890  33.616  26.381  1.00  0.00    -0.206 F 
ATOM     86  C   UNL A   1      46.218  35.187  28.095  1.00  0.00     0.040 A 
ATOM     87  C   UNL A   1      46.679  34.445  30.339  1.00  0.00     0.040 A 
ATOM     88  F   UNL A   1      46.834  32.153  30.810  1.00  0.00    -0.206 F 
ATOM     89  C   UNL A   1      46.481  35.483  29.432  1.00  0.00     0.006 A 
ENDBRANCH  65  82
ENDBRANCH  39  40
ENDBRANCH  31  34
ENDBRANCH  29  30
ENDBRANCH  28  29
ENDBRANCH  27  28
ENDBRANCH   1  27
TORSDOF 16
ENDMDL
