MODEL 1
REMARK VINA RESULT:     -11.0      0.000      0.000
REMARK SMILES CN(C)S(=O)(=O)c1c[nH]c(C(=O)NCCCCCCNC(=O)c2ccc(-c3c4nc(c(-c5c(F)cccc5F)c5ccc([nH]5)c(-c5c(F)cccc5F)c5nc(c(-c6c(F)cccc6F)c6ccc3[nH]6)C=C5)C=C4)cc2)c1
REMARK SMILES IDX 16 1 15 2 14 3 13 4 11 5 12 6 10 8 7 9 8 10 77 11 9 12 4 14
REMARK SMILES IDX 5 15 6 16 2 17 1 18 3 19 17 20 18 21 19 22 20 23 21 24 22 26
REMARK SMILES IDX 23 27 24 28 76 29 25 30 75 31 26 32 27 33 28 34 69 35 29 36
REMARK SMILES IDX 74 37 68 38 70 39 30 40 73 41 67 42 66 43 31 45 57 46 40 47
REMARK SMILES IDX 56 48 41 49 44 50 55 51 71 52 42 53 43 54 54 56 72 57 45 58
REMARK SMILES IDX 32 59 33 60 38 61 34 62 35 63 37 64 39 65 36 66 58 67 59 68
REMARK SMILES IDX 64 69 60 70 61 71 63 72 65 73 62 74 46 75 47 76 52 77 48 78
REMARK SMILES IDX 49 79 51 80 53 81 50 82
REMARK H PARENT 13 7 9 13 20 25 70 44 44 55
REMARK Flexibility Score: inf
ROOT
ATOM      1  C   UNL A   1      34.687  23.010  23.498  1.00  0.00     0.002 C 
ENDROOT
BRANCH   1   2
ATOM      2  C   UNL A   1      33.249  22.486  23.428  1.00  0.00     0.021 C 
BRANCH   2   3
ATOM      3  C   UNL A   1      32.231  23.549  23.015  1.00  0.00     0.116 C 
BRANCH   3   4
ATOM      4  N   UNL A   1      32.567  24.138  21.739  1.00  0.00    -0.351 N 
ATOM      5  C   UNL A   1      32.818  25.421  21.340  1.00  0.00     0.267 C 
ATOM      6  O   UNL A   1      33.090  25.575  20.146  1.00  0.00    -0.268 OA
ATOM      7  H   UNL A   1      32.627  23.482  21.007  1.00  0.00     0.163 HD
BRANCH   5   8
ATOM      8  C   UNL A   1      32.782  26.560  22.236  1.00  0.00     0.105 A 
ATOM      9  C   UNL A   1      32.506  28.176  23.820  1.00  0.00     0.100 A 
ATOM     10  C   UNL A   1      33.414  28.643  22.902  1.00  0.00     0.104 A 
ATOM     11  C   UNL A   1      32.112  26.877  23.405  1.00  0.00     0.055 A 
ATOM     12  N   UNL A   1      33.573  27.666  21.956  1.00  0.00    -0.356 N 
ATOM     13  H   UNL A   1      34.171  27.738  21.178  1.00  0.00     0.166 HD
BRANCH   9  14
ATOM     14  S   UNL A   1      31.893  28.951  25.236  1.00  0.00     0.244 S 
ATOM     15  O   UNL A   1      31.410  27.871  26.080  1.00  0.00    -0.207 OA
ATOM     16  O   UNL A   1      31.026  29.979  24.724  1.00  0.00    -0.207 OA
BRANCH  14  17
ATOM     17  N   UNL A   1      33.220  29.697  26.024  1.00  0.00    -0.204 NA
ATOM     18  C   UNL A   1      32.808  30.707  27.022  1.00  0.00     0.124 C 
ATOM     19  C   UNL A   1      34.220  28.753  26.568  1.00  0.00     0.124 C 
ENDBRANCH  14  17
ENDBRANCH   9  14
ENDBRANCH   5   8
ENDBRANCH   3   4
ENDBRANCH   2   3
ENDBRANCH   1   2
BRANCH   1  20
ATOM     20  C   UNL A   1      35.449  22.643  24.780  1.00  0.00     0.002 C 
BRANCH  20  21
ATOM     21  C   UNL A   1      36.934  23.039  24.793  1.00  0.00     0.021 C 
BRANCH  21  22
ATOM     22  C   UNL A   1      37.333  23.829  26.040  1.00  0.00     0.116 C 
BRANCH  22  23
ATOM     23  N   UNL A   1      38.477  23.200  26.676  1.00  0.00    -0.352 N 
ATOM     24  C   UNL A   1      39.614  23.728  27.215  1.00  0.00     0.251 C 
ATOM     25  H   UNL A   1      38.422  22.218  26.730  1.00  0.00     0.163 HD
ATOM     26  O   UNL A   1      40.574  22.986  27.413  1.00  0.00    -0.269 OA
BRANCH  24  27
ATOM     27  C   UNL A   1      39.737  25.161  27.546  1.00  0.00     0.039 A 
ATOM     28  C   UNL A   1      39.286  25.566  28.810  1.00  0.00     0.014 A 
ATOM     29  C   UNL A   1      40.175  26.110  26.618  1.00  0.00     0.014 A 
ATOM     30  C   UNL A   1      39.329  26.906  29.171  1.00  0.00     0.010 A 
ATOM     31  C   UNL A   1      40.232  27.455  26.979  1.00  0.00     0.010 A 
ATOM     32  C   UNL A   1      39.833  27.847  28.265  1.00  0.00    -0.014 A 
BRANCH  32  33
ATOM     33  C   UNL A   1      40.117  29.218  28.748  1.00  0.00     0.031 A 
ATOM     34  C   UNL A   1      38.829  30.039  28.954  1.00  0.00     0.074 A 
ATOM     35  C   UNL A   1      41.430  29.539  28.946  1.00  0.00     0.049 A 
ATOM     36  N   UNL A   1      38.661  31.316  29.123  1.00  0.00    -0.248 NA
ATOM     37  C   UNL A   1      37.517  29.329  28.948  1.00  0.00     0.031 C 
ATOM     38  C   UNL A   1      42.554  28.611  28.713  1.00  0.00     0.029 A 
ATOM     39  N   UNL A   1      42.094  30.674  29.373  1.00  0.00    -0.354 N 
ATOM     40  C   UNL A   1      37.304  31.523  29.467  1.00  0.00     0.074 A 
ATOM     41  C   UNL A   1      36.632  30.283  29.237  1.00  0.00     0.031 C 
ATOM     42  C   UNL A   1      43.735  29.225  28.925  1.00  0.00     0.029 A 
ATOM     43  C   UNL A   1      43.513  30.597  29.338  1.00  0.00     0.049 A 
ATOM     44  H   UNL A   1      41.617  31.479  29.680  1.00  0.00     0.167 HD
ATOM     45  C   UNL A   1      36.844  32.666  30.054  1.00  0.00     0.037 A 
ATOM     46  C   UNL A   1      44.443  31.569  29.594  1.00  0.00     0.037 A 
ATOM     47  C   UNL A   1      37.873  33.645  30.101  1.00  0.00     0.049 A 
ATOM     48  C   UNL A   1      43.682  32.701  30.144  1.00  0.00     0.074 A 
ATOM     49  C   UNL A   1      38.459  34.423  29.140  1.00  0.00     0.029 A 
ATOM     50  N   UNL A   1      38.633  33.691  31.241  1.00  0.00    -0.354 N 
ATOM     51  N   UNL A   1      43.181  32.735  31.342  1.00  0.00    -0.248 NA
ATOM     52  C   UNL A   1      43.403  33.857  29.284  1.00  0.00     0.031 C 
ATOM     53  C   UNL A   1      39.786  34.575  29.590  1.00  0.00     0.029 A 
ATOM     54  C   UNL A   1      39.913  34.011  30.864  1.00  0.00     0.049 A 
ATOM     55  H   UNL A   1      38.319  33.526  32.159  1.00  0.00     0.167 HD
ATOM     56  C   UNL A   1      42.254  33.744  31.242  1.00  0.00     0.074 A 
ATOM     57  C   UNL A   1      42.656  34.567  30.124  1.00  0.00     0.031 C 
ATOM     58  C   UNL A   1      40.993  33.536  31.695  1.00  0.00     0.037 A 
BRANCH  45  59
ATOM     59  C   UNL A   1      35.584  32.954  30.829  1.00  0.00     0.057 A 
ATOM     60  C   UNL A   1      34.778  34.045  30.422  1.00  0.00     0.134 A 
ATOM     61  C   UNL A   1      35.331  32.464  32.114  1.00  0.00     0.134 A 
ATOM     62  F   UNL A   1      34.892  34.569  29.191  1.00  0.00    -0.206 F 
ATOM     63  C   UNL A   1      33.888  34.691  31.284  1.00  0.00     0.040 A 
ATOM     64  C   UNL A   1      34.403  33.077  32.971  1.00  0.00     0.040 A 
ATOM     65  F   UNL A   1      36.028  31.442  32.627  1.00  0.00    -0.206 F 
ATOM     66  C   UNL A   1      33.714  34.218  32.575  1.00  0.00     0.006 A 
ENDBRANCH  45  59
BRANCH  46  67
ATOM     67  C   UNL A   1      45.934  31.790  29.432  1.00  0.00     0.057 A 
ATOM     68  C   UNL A   1      46.891  31.765  30.450  1.00  0.00     0.134 A 
ATOM     69  C   UNL A   1      46.496  31.953  28.133  1.00  0.00     0.134 A 
ATOM     70  F   UNL A   1      46.546  31.735  31.739  1.00  0.00    -0.206 F 
ATOM     71  C   UNL A   1      48.279  31.784  30.191  1.00  0.00     0.040 A 
ATOM     72  C   UNL A   1      47.868  31.932  27.857  1.00  0.00     0.040 A 
ATOM     73  F   UNL A   1      45.734  32.136  27.045  1.00  0.00    -0.206 F 
ATOM     74  C   UNL A   1      48.771  31.826  28.893  1.00  0.00     0.006 A 
ENDBRANCH  46  67
BRANCH  58  75
ATOM     75  C   UNL A   1      40.892  32.471  32.769  1.00  0.00     0.057 A 
ATOM     76  C   UNL A   1      41.417  32.712  34.045  1.00  0.00     0.134 A 
ATOM     77  C   UNL A   1      40.408  31.173  32.549  1.00  0.00     0.134 A 
ATOM     78  F   UNL A   1      41.898  33.925  34.357  1.00  0.00    -0.206 F 
ATOM     79  C   UNL A   1      41.471  31.716  35.032  1.00  0.00     0.040 A 
ATOM     80  C   UNL A   1      40.443  30.169  33.524  1.00  0.00     0.040 A 
ATOM     81  F   UNL A   1      39.887  30.829  31.373  1.00  0.00    -0.206 F 
ATOM     82  C   UNL A   1      40.986  30.438  34.772  1.00  0.00     0.006 A 
ENDBRANCH  58  75
ENDBRANCH  32  33
ENDBRANCH  24  27
ENDBRANCH  22  23
ENDBRANCH  21  22
ENDBRANCH  20  21
ENDBRANCH   1  20
TORSDOF 15
ENDMDL
MODEL 2
REMARK VINA RESULT:     -10.8      3.842      8.493
REMARK SMILES CN(C)S(=O)(=O)c1c[nH]c(C(=O)NCCCCCCNC(=O)c2ccc(-c3c4nc(c(-c5c(F)cccc5F)c5ccc([nH]5)c(-c5c(F)cccc5F)c5nc(c(-c6c(F)cccc6F)c6ccc3[nH]6)C=C5)C=C4)cc2)c1
REMARK SMILES IDX 16 1 15 2 14 3 13 4 11 5 12 6 10 8 7 9 8 10 77 11 9 12 4 14
REMARK SMILES IDX 5 15 6 16 2 17 1 18 3 19 17 20 18 21 19 22 20 23 21 24 22 26
REMARK SMILES IDX 23 27 24 28 76 29 25 30 75 31 26 32 27 33 28 34 69 35 29 36
REMARK SMILES IDX 74 37 68 38 70 39 30 40 73 41 67 42 66 43 31 45 57 46 40 47
REMARK SMILES IDX 56 48 41 49 44 50 55 51 71 52 42 53 43 54 54 56 72 57 45 58
REMARK SMILES IDX 32 59 33 60 38 61 34 62 35 63 37 64 39 65 36 66 58 67 59 68
REMARK SMILES IDX 64 69 60 70 61 71 63 72 65 73 62 74 46 75 47 76 52 77 48 78
REMARK SMILES IDX 49 79 51 80 53 81 50 82
REMARK H PARENT 13 7 9 13 20 25 70 44 44 55
REMARK Flexibility Score: inf
ROOT
ATOM      1  C   UNL A   1      31.133  27.847  25.257  1.00  0.00     0.002 C 
ENDROOT
BRANCH   1   2
ATOM      2  C   UNL A   1      31.094  27.796  23.726  1.00  0.00     0.021 C 
BRANCH   2   3
ATOM      3  C   UNL A   1      32.460  28.008  23.073  1.00  0.00     0.116 C 
BRANCH   3   4
ATOM      4  N   UNL A   1      32.662  27.109  21.960  1.00  0.00    -0.351 N 
ATOM      5  C   UNL A   1      33.039  25.797  21.877  1.00  0.00     0.267 C 
ATOM      6  O   UNL A   1      33.106  25.324  20.739  1.00  0.00    -0.268 OA
ATOM      7  H   UNL A   1      32.494  27.525  21.083  1.00  0.00     0.163 HD
BRANCH   5   8
ATOM      8  C   UNL A   1      33.347  24.978  23.031  1.00  0.00     0.105 A 
ATOM      9  C   UNL A   1      34.140  23.798  24.814  1.00  0.00     0.100 A 
ATOM     10  C   UNL A   1      32.798  23.527  24.698  1.00  0.00     0.104 A 
ATOM     11  C   UNL A   1      34.481  24.702  23.774  1.00  0.00     0.055 A 
ATOM     12  N   UNL A   1      32.331  24.240  23.627  1.00  0.00    -0.356 N 
ATOM     13  H   UNL A   1      31.397  24.231  23.318  1.00  0.00     0.166 HD
BRANCH   9  14
ATOM     14  S   UNL A   1      35.277  23.195  25.965  1.00  0.00     0.244 S 
ATOM     15  O   UNL A   1      34.516  23.015  27.190  1.00  0.00    -0.207 OA
ATOM     16  O   UNL A   1      36.387  24.105  25.870  1.00  0.00    -0.207 OA
BRANCH  14  17
ATOM     17  N   UNL A   1      35.786  21.652  25.418  1.00  0.00    -0.204 NA
ATOM     18  C   UNL A   1      34.670  20.811  24.935  1.00  0.00     0.124 C 
ATOM     19  C   UNL A   1      36.915  21.680  24.464  1.00  0.00     0.124 C 
ENDBRANCH  14  17
ENDBRANCH   9  14
ENDBRANCH   5   8
ENDBRANCH   3   4
ENDBRANCH   2   3
ENDBRANCH   1   2
BRANCH   1  20
ATOM     20  C   UNL A   1      32.525  27.655  25.876  1.00  0.00     0.002 C 
BRANCH  20  21
ATOM     21  C   UNL A   1      33.044  28.846  26.698  1.00  0.00     0.021 C 
BRANCH  21  22
ATOM     22  C   UNL A   1      34.566  28.865  26.831  1.00  0.00     0.116 C 
BRANCH  22  23
ATOM     23  N   UNL A   1      35.023  30.225  27.062  1.00  0.00    -0.352 N 
ATOM     24  C   UNL A   1      36.086  30.713  27.766  1.00  0.00     0.251 C 
ATOM     25  H   UNL A   1      34.469  30.917  26.634  1.00  0.00     0.163 HD
ATOM     26  O   UNL A   1      36.091  31.903  28.078  1.00  0.00    -0.269 OA
BRANCH  24  27
ATOM     27  C   UNL A   1      37.214  29.859  28.182  1.00  0.00     0.039 A 
ATOM     28  C   UNL A   1      38.329  29.813  27.333  1.00  0.00     0.014 A 
ATOM     29  C   UNL A   1      37.155  29.034  29.310  1.00  0.00     0.014 A 
ATOM     30  C   UNL A   1      39.408  28.994  27.640  1.00  0.00     0.010 A 
ATOM     31  C   UNL A   1      38.239  28.220  29.629  1.00  0.00     0.010 A 
ATOM     32  C   UNL A   1      39.375  28.221  28.806  1.00  0.00    -0.014 A 
BRANCH  32  33
ATOM     33  C   UNL A   1      40.622  27.561  29.256  1.00  0.00     0.031 A 
ATOM     34  C   UNL A   1      40.930  26.287  28.445  1.00  0.00     0.074 A 
ATOM     35  C   UNL A   1      41.301  28.162  30.278  1.00  0.00     0.049 A 
ATOM     36  N   UNL A   1      41.764  25.319  28.678  1.00  0.00    -0.248 NA
ATOM     37  C   UNL A   1      40.172  26.039  27.184  1.00  0.00     0.031 C 
ATOM     38  C   UNL A   1      40.868  29.409  30.940  1.00  0.00     0.029 A 
ATOM     39  N   UNL A   1      42.464  27.874  30.967  1.00  0.00    -0.354 N 
ATOM     40  C   UNL A   1      41.800  24.502  27.524  1.00  0.00     0.074 A 
ATOM     41  C   UNL A   1      40.724  24.933  26.687  1.00  0.00     0.031 C 
ATOM     42  C   UNL A   1      41.695  29.725  31.957  1.00  0.00     0.029 A 
ATOM     43  C   UNL A   1      42.758  28.744  32.053  1.00  0.00     0.049 A 
ATOM     44  H   UNL A   1      43.048  27.121  30.723  1.00  0.00     0.167 HD
ATOM     45  C   UNL A   1      42.802  23.612  27.264  1.00  0.00     0.037 A 
ATOM     46  C   UNL A   1      43.764  28.668  32.980  1.00  0.00     0.037 A 
ATOM     47  C   UNL A   1      43.676  23.515  28.380  1.00  0.00     0.049 A 
ATOM     48  C   UNL A   1      44.653  27.598  32.504  1.00  0.00     0.074 A 
ATOM     49  C   UNL A   1      43.543  22.942  29.616  1.00  0.00     0.029 A 
ATOM     50  N   UNL A   1      44.775  24.334  28.380  1.00  0.00    -0.354 N 
ATOM     51  N   UNL A   1      45.464  27.713  31.497  1.00  0.00    -0.248 NA
ATOM     52  C   UNL A   1      44.596  26.283  33.153  1.00  0.00     0.031 C 
ATOM     53  C   UNL A   1      44.320  23.765  30.456  1.00  0.00     0.029 A 
ATOM     54  C   UNL A   1      45.002  24.709  29.681  1.00  0.00     0.049 A 
ATOM     55  H   UNL A   1      45.304  24.602  27.595  1.00  0.00     0.167 HD
ATOM     56  C   UNL A   1      45.739  26.402  31.192  1.00  0.00     0.074 A 
ATOM     57  C   UNL A   1      45.466  25.633  32.385  1.00  0.00     0.031 C 
ATOM     58  C   UNL A   1      45.642  25.983  29.906  1.00  0.00     0.037 A 
BRANCH  45  59
ATOM     59  C   UNL A   1      43.241  22.949  25.984  1.00  0.00     0.057 A 
ATOM     60  C   UNL A   1      43.389  21.540  25.973  1.00  0.00     0.134 A 
ATOM     61  C   UNL A   1      43.853  23.627  24.925  1.00  0.00     0.134 A 
ATOM     62  F   UNL A   1      42.804  20.775  26.909  1.00  0.00    -0.206 F 
ATOM     63  C   UNL A   1      44.205  20.872  25.056  1.00  0.00     0.040 A 
ATOM     64  C   UNL A   1      44.635  22.959  23.970  1.00  0.00     0.040 A 
ATOM     65  F   UNL A   1      43.799  24.961  24.820  1.00  0.00    -0.206 F 
ATOM     66  C   UNL A   1      44.850  21.587  24.060  1.00  0.00     0.006 A 
ENDBRANCH  45  59
BRANCH  46  67
ATOM     67  C   UNL A   1      44.152  29.316  34.294  1.00  0.00     0.057 A 
ATOM     68  C   UNL A   1      45.145  30.282  34.481  1.00  0.00     0.134 A 
ATOM     69  C   UNL A   1      43.415  29.029  35.479  1.00  0.00     0.134 A 
ATOM     70  F   UNL A   1      46.010  30.597  33.514  1.00  0.00    -0.206 F 
ATOM     71  C   UNL A   1      45.311  30.977  35.698  1.00  0.00     0.040 A 
ATOM     72  C   UNL A   1      43.541  29.737  36.679  1.00  0.00     0.040 A 
ATOM     73  F   UNL A   1      42.515  28.037  35.535  1.00  0.00    -0.206 F 
ATOM     74  C   UNL A   1      44.484  30.737  36.787  1.00  0.00     0.006 A 
ENDBRANCH  46  67
BRANCH  58  75
ATOM     75  C   UNL A   1      45.818  27.088  28.883  1.00  0.00     0.057 A 
ATOM     76  C   UNL A   1      47.078  27.670  28.691  1.00  0.00     0.134 A 
ATOM     77  C   UNL A   1      44.763  27.681  28.174  1.00  0.00     0.134 A 
ATOM     78  F   UNL A   1      48.152  27.170  29.320  1.00  0.00    -0.206 F 
ATOM     79  C   UNL A   1      47.268  28.782  27.859  1.00  0.00     0.040 A 
ATOM     80  C   UNL A   1      44.935  28.784  27.329  1.00  0.00     0.040 A 
ATOM     81  F   UNL A   1      43.521  27.213  28.279  1.00  0.00    -0.206 F 
ATOM     82  C   UNL A   1      46.194  29.346  27.176  1.00  0.00     0.006 A 
ENDBRANCH  58  75
ENDBRANCH  32  33
ENDBRANCH  24  27
ENDBRANCH  22  23
ENDBRANCH  21  22
ENDBRANCH  20  21
ENDBRANCH   1  20
TORSDOF 15
ENDMDL
MODEL 3
REMARK VINA RESULT:     -10.6      2.882      7.520
REMARK SMILES CN(C)S(=O)(=O)c1c[nH]c(C(=O)NCCCCCCNC(=O)c2ccc(-c3c4nc(c(-c5c(F)cccc5F)c5ccc([nH]5)c(-c5c(F)cccc5F)c5nc(c(-c6c(F)cccc6F)c6ccc3[nH]6)C=C5)C=C4)cc2)c1
REMARK SMILES IDX 16 1 15 2 14 3 13 4 11 5 12 6 10 8 7 9 8 10 77 11 9 12 4 14
REMARK SMILES IDX 5 15 6 16 2 17 1 18 3 19 17 20 18 21 19 22 20 23 21 24 22 26
REMARK SMILES IDX 23 27 24 28 76 29 25 30 75 31 26 32 27 33 28 34 69 35 29 36
REMARK SMILES IDX 74 37 68 38 70 39 30 40 73 41 67 42 66 43 31 45 57 46 40 47
REMARK SMILES IDX 56 48 41 49 44 50 55 51 71 52 42 53 43 54 54 56 72 57 45 58
REMARK SMILES IDX 32 59 33 60 38 61 34 62 35 63 37 64 39 65 36 66 58 67 59 68
REMARK SMILES IDX 64 69 60 70 61 71 63 72 65 73 62 74 46 75 47 76 52 77 48 78
REMARK SMILES IDX 49 79 51 80 53 81 50 82
REMARK H PARENT 13 7 9 13 20 25 70 44 44 55
REMARK Flexibility Score: inf
ROOT
ATOM      1  C   UNL A   1      31.344  28.474  24.524  1.00  0.00     0.002 C 
ENDROOT
BRANCH   1   2
ATOM      2  C   UNL A   1      32.069  28.622  23.182  1.00  0.00     0.021 C 
BRANCH   2   3
ATOM      3  C   UNL A   1      33.258  27.674  23.022  1.00  0.00     0.116 C 
BRANCH   3   4
ATOM      4  N   UNL A   1      33.241  27.014  21.737  1.00  0.00    -0.351 N 
ATOM      5  C   UNL A   1      32.902  25.750  21.340  1.00  0.00     0.267 C 
ATOM      6  O   UNL A   1      32.999  25.516  20.133  1.00  0.00    -0.268 OA
ATOM      7  H   UNL A   1      33.534  27.592  20.995  1.00  0.00     0.163 HD
BRANCH   5   8
ATOM      8  C   UNL A   1      32.450  24.720  22.253  1.00  0.00     0.105 A 
ATOM      9  C   UNL A   1      32.040  22.972  23.658  1.00  0.00     0.100 A 
ATOM     10  C   UNL A   1      30.892  23.722  23.581  1.00  0.00     0.104 A 
ATOM     11  C   UNL A   1      33.010  23.593  22.830  1.00  0.00     0.055 A 
ATOM     12  N   UNL A   1      31.148  24.769  22.736  1.00  0.00    -0.356 N 
ATOM     13  H   UNL A   1      30.495  25.466  22.502  1.00  0.00     0.166 HD
BRANCH   9  14
ATOM     14  S   UNL A   1      32.337  21.527  24.557  1.00  0.00     0.244 S 
ATOM     15  O   UNL A   1      32.568  20.499  23.555  1.00  0.00    -0.207 OA
ATOM     16  O   UNL A   1      31.245  21.466  25.491  1.00  0.00    -0.207 OA
BRANCH  14  17
ATOM     17  N   UNL A   1      33.793  21.761  25.431  1.00  0.00    -0.204 NA
ATOM     18  C   UNL A   1      33.672  21.409  26.861  1.00  0.00     0.124 C 
ATOM     19  C   UNL A   1      34.988  21.154  24.807  1.00  0.00     0.124 C 
ENDBRANCH  14  17
ENDBRANCH   9  14
ENDBRANCH   5   8
ENDBRANCH   3   4
ENDBRANCH   2   3
ENDBRANCH   1   2
BRANCH   1  20
ATOM     20  C   UNL A   1      32.112  29.013  25.738  1.00  0.00     0.002 C 
BRANCH  20  21
ATOM     21  C   UNL A   1      31.815  30.477  26.102  1.00  0.00     0.021 C 
BRANCH  21  22
ATOM     22  C   UNL A   1      32.851  31.082  27.050  1.00  0.00     0.116 C 
BRANCH  22  23
ATOM     23  N   UNL A   1      32.588  32.500  27.225  1.00  0.00    -0.352 N 
ATOM     24  C   UNL A   1      33.161  33.430  28.044  1.00  0.00     0.251 C 
ATOM     25  H   UNL A   1      31.871  32.853  26.651  1.00  0.00     0.163 HD
ATOM     26  O   UNL A   1      32.568  34.488  28.241  1.00  0.00    -0.269 OA
BRANCH  24  27
ATOM     27  C   UNL A   1      34.455  33.198  28.714  1.00  0.00     0.039 A 
ATOM     28  C   UNL A   1      34.427  32.529  29.946  1.00  0.00     0.014 A 
ATOM     29  C   UNL A   1      35.658  33.709  28.218  1.00  0.00     0.014 A 
ATOM     30  C   UNL A   1      35.603  32.318  30.654  1.00  0.00     0.010 A 
ATOM     31  C   UNL A   1      36.844  33.489  28.918  1.00  0.00     0.010 A 
ATOM     32  C   UNL A   1      36.816  32.771  30.122  1.00  0.00    -0.014 A 
BRANCH  32  33
ATOM     33  C   UNL A   1      38.080  32.315  30.747  1.00  0.00     0.031 A 
ATOM     34  C   UNL A   1      38.641  31.052  30.064  1.00  0.00     0.074 A 
ATOM     35  C   UNL A   1      38.554  33.062  31.788  1.00  0.00     0.049 A 
ATOM     36  N   UNL A   1      39.563  30.223  30.453  1.00  0.00    -0.248 NA
ATOM     37  C   UNL A   1      38.070  30.631  28.753  1.00  0.00     0.031 C 
ATOM     38  C   UNL A   1      37.890  34.273  32.309  1.00  0.00     0.029 A 
ATOM     39  N   UNL A   1      39.660  32.977  32.613  1.00  0.00    -0.354 N 
ATOM     40  C   UNL A   1      39.836  29.355  29.370  1.00  0.00     0.074 A 
ATOM     41  C   UNL A   1      38.815  29.585  28.397  1.00  0.00     0.031 C 
ATOM     42  C   UNL A   1      38.548  34.757  33.382  1.00  0.00     0.029 A 
ATOM     43  C   UNL A   1      39.713  33.939  33.658  1.00  0.00     0.049 A 
ATOM     44  H   UNL A   1      40.361  32.299  32.486  1.00  0.00     0.167 HD
ATOM     45  C   UNL A   1      40.969  28.599  29.280  1.00  0.00     0.037 A 
ATOM     46  C   UNL A   1      40.608  34.056  34.689  1.00  0.00     0.037 A 
ATOM     47  C   UNL A   1      41.716  28.686  30.485  1.00  0.00     0.049 A 
ATOM     48  C   UNL A   1      41.678  33.094  34.385  1.00  0.00     0.074 A 
ATOM     49  C   UNL A   1      41.521  28.172  31.739  1.00  0.00     0.029 A 
ATOM     50  N   UNL A   1      42.691  29.647  30.541  1.00  0.00    -0.354 N 
ATOM     51  N   UNL A   1      42.576  33.262  33.462  1.00  0.00    -0.248 NA
ATOM     52  C   UNL A   1      41.721  31.822  35.117  1.00  0.00     0.031 C 
ATOM     53  C   UNL A   1      42.084  29.141  32.594  1.00  0.00     0.029 A 
ATOM     54  C   UNL A   1      42.719  30.124  31.828  1.00  0.00     0.049 A 
ATOM     55  H   UNL A   1      43.266  29.941  29.798  1.00  0.00     0.167 HD
ATOM     56  C   UNL A   1      43.053  31.986  33.283  1.00  0.00     0.074 A 
ATOM     57  C   UNL A   1      42.750  31.256  34.492  1.00  0.00     0.031 C 
ATOM     58  C   UNL A   1      43.157  31.485  32.027  1.00  0.00     0.037 A 
BRANCH  45  59
ATOM     59  C   UNL A   1      41.633  27.930  28.104  1.00  0.00     0.057 A 
ATOM     60  C   UNL A   1      42.181  28.749  27.087  1.00  0.00     0.134 A 
ATOM     61  C   UNL A   1      41.441  26.588  27.760  1.00  0.00     0.134 A 
ATOM     62  F   UNL A   1      42.459  30.043  27.313  1.00  0.00    -0.206 F 
ATOM     63  C   UNL A   1      42.387  28.296  25.781  1.00  0.00     0.040 A 
ATOM     64  C   UNL A   1      41.691  26.112  26.463  1.00  0.00     0.040 A 
ATOM     65  F   UNL A   1      40.921  25.708  28.625  1.00  0.00    -0.206 F 
ATOM     66  C   UNL A   1      42.121  26.975  25.460  1.00  0.00     0.006 A 
ENDBRANCH  45  59
BRANCH  46  67
ATOM     67  C   UNL A   1      40.758  34.825  35.986  1.00  0.00     0.057 A 
ATOM     68  C   UNL A   1      41.835  35.639  36.348  1.00  0.00     0.134 A 
ATOM     69  C   UNL A   1      39.696  34.839  36.936  1.00  0.00     0.134 A 
ATOM     70  F   UNL A   1      42.966  35.664  35.640  1.00  0.00    -0.206 F 
ATOM     71  C   UNL A   1      41.809  36.475  37.485  1.00  0.00     0.040 A 
ATOM     72  C   UNL A   1      39.639  35.692  38.044  1.00  0.00     0.040 A 
ATOM     73  F   UNL A   1      38.638  34.022  36.833  1.00  0.00    -0.206 F 
ATOM     74  C   UNL A   1      40.695  36.535  38.313  1.00  0.00     0.006 A 
ENDBRANCH  46  67
BRANCH  58  75
ATOM     75  C   UNL A   1      43.301  32.544  30.952  1.00  0.00     0.057 A 
ATOM     76  C   UNL A   1      44.503  33.253  30.824  1.00  0.00     0.134 A 
ATOM     77  C   UNL A   1      42.254  32.973  30.122  1.00  0.00     0.134 A 
ATOM     78  F   UNL A   1      45.566  32.914  31.569  1.00  0.00    -0.206 F 
ATOM     79  C   UNL A   1      44.644  34.331  29.938  1.00  0.00     0.040 A 
ATOM     80  C   UNL A   1      42.379  34.039  29.224  1.00  0.00     0.040 A 
ATOM     81  F   UNL A   1      41.066  32.373  30.157  1.00  0.00    -0.206 F 
ATOM     82  C   UNL A   1      43.579  34.730  29.136  1.00  0.00     0.006 A 
ENDBRANCH  58  75
ENDBRANCH  32  33
ENDBRANCH  24  27
ENDBRANCH  22  23
ENDBRANCH  21  22
ENDBRANCH  20  21
ENDBRANCH   1  20
TORSDOF 15
ENDMDL
