MODEL 1
REMARK VINA RESULT:     -10.6      0.000      0.000
REMARK SMILES C[C@H](C[NH3+])S[C@H](C)c1ccc(C(=O)NCCCCCCNC(=O)c2ccc(-c3c4nc(c(-c5c(F)cccc5F)c5ccc([nH]5)c(-c5c(F)cccc5F)c5nc(c(-c6c(F)cccc6F)c6ccc3[nH]6)C=C5)C=C4)cc2)o1
REMARK SMILES IDX 16 1 15 2 14 3 12 4 13 5 11 7 8 8 9 9 78 10 10 11 6 12 7 13
REMARK SMILES IDX 5 14 2 15 1 16 3 17 4 18 17 22 18 23 19 24 20 25 21 26 22 27
REMARK SMILES IDX 23 29 24 30 25 31 77 32 26 33 76 34 27 35 28 36 29 37 70 38
REMARK SMILES IDX 30 39 75 40 69 41 71 42 31 43 74 44 68 45 67 46 32 48 58 49
REMARK SMILES IDX 41 50 57 51 42 52 45 53 56 54 72 55 43 56 44 57 55 59 73 60
REMARK SMILES IDX 46 61 33 62 34 63 39 64 35 65 36 66 38 67 40 68 37 69 59 70
REMARK SMILES IDX 60 71 65 72 61 73 62 74 64 75 66 76 63 77 47 78 48 79 53 80
REMARK SMILES IDX 49 81 50 82 52 83 54 84 51 85
REMARK H PARENT 14 6 4 19 4 20 4 21 21 28 71 47 45 58
REMARK Flexibility Score: inf
ROOT
ATOM      1  C   UNL A   1      34.788  21.548  26.578  1.00  0.00     0.021 C 
ENDROOT
BRANCH   1   2
ATOM      2  C   UNL A   1      33.520  21.626  25.727  1.00  0.00     0.116 C 
BRANCH   2   3
ATOM      3  N   UNL A   1      32.369  21.930  26.551  1.00  0.00    -0.349 N 
ATOM      4  C   UNL A   1      31.791  23.126  26.902  1.00  0.00     0.286 C 
ATOM      5  O   UNL A   1      30.786  23.044  27.614  1.00  0.00    -0.266 OA
ATOM      6  H   UNL A   1      31.922  21.138  26.928  1.00  0.00     0.163 HD
BRANCH   4   7
ATOM      7  C   UNL A   1      32.323  24.399  26.449  1.00  0.00     0.191 A 
ATOM      8  C   UNL A   1      32.136  26.594  26.133  1.00  0.00     0.117 A 
ATOM      9  C   UNL A   1      33.390  26.234  25.686  1.00  0.00     0.047 A 
ATOM     10  O   UNL A   1      31.499  25.485  26.601  1.00  0.00    -0.455 OA
ATOM     11  C   UNL A   1      33.519  24.839  25.911  1.00  0.00     0.056 A 
BRANCH   8  12
ATOM     12  C   UNL A   1      31.439  27.918  26.262  1.00  0.00     0.110 C 
ATOM     13  C   UNL A   1      31.843  28.631  27.556  1.00  0.00     0.028 C 
BRANCH  12  14
ATOM     14  S   UNL A   1      31.795  29.087  24.894  1.00  0.00    -0.142 SA
BRANCH  14  15
ATOM     15  C   UNL A   1      30.811  28.376  23.494  1.00  0.00     0.099 C 
ATOM     16  C   UNL A   1      31.668  27.518  22.564  1.00  0.00     0.025 C 
BRANCH  15  17
ATOM     17  C   UNL A   1      30.009  29.434  22.707  1.00  0.00     0.273 C 
BRANCH  17  18
ATOM     18  N   UNL A   1      30.775  29.983  21.589  1.00  0.00    -0.357 N 
ATOM     19  H   UNL A   1      30.487  29.526  20.723  1.00  0.00     0.344 HD
ATOM     20  H   UNL A   1      31.769  29.819  21.745  1.00  0.00     0.344 HD
ATOM     21  H   UNL A   1      30.602  30.985  21.518  1.00  0.00     0.344 HD
ENDBRANCH  17  18
ENDBRANCH  15  17
ENDBRANCH  14  15
ENDBRANCH  12  14
ENDBRANCH   8  12
ENDBRANCH   4   7
ENDBRANCH   2   3
ENDBRANCH   1   2
BRANCH   1  22
ATOM     22  C   UNL A   1      36.078  21.464  25.748  1.00  0.00     0.002 C 
BRANCH  22  23
ATOM     23  C   UNL A   1      36.237  20.184  24.915  1.00  0.00     0.002 C 
BRANCH  23  24
ATOM     24  C   UNL A   1      37.681  19.770  24.617  1.00  0.00     0.021 C 
BRANCH  24  25
ATOM     25  C   UNL A   1      38.697  20.212  25.665  1.00  0.00     0.116 C 
BRANCH  25  26
ATOM     26  N   UNL A   1      39.808  19.280  25.773  1.00  0.00    -0.352 N 
ATOM     27  C   UNL A   1      41.119  19.522  26.098  1.00  0.00     0.251 C 
ATOM     28  H   UNL A   1      39.588  18.339  25.585  1.00  0.00     0.163 HD
ATOM     29  O   UNL A   1      41.964  18.646  25.947  1.00  0.00    -0.269 OA
BRANCH  27  30
ATOM     30  C   UNL A   1      41.519  20.846  26.619  1.00  0.00     0.039 A 
ATOM     31  C   UNL A   1      42.104  21.768  25.745  1.00  0.00     0.014 A 
ATOM     32  C   UNL A   1      41.340  21.172  27.966  1.00  0.00     0.014 A 
ATOM     33  C   UNL A   1      42.459  23.035  26.210  1.00  0.00     0.010 A 
ATOM     34  C   UNL A   1      41.637  22.456  28.415  1.00  0.00     0.010 A 
ATOM     35  C   UNL A   1      42.202  23.399  27.541  1.00  0.00    -0.014 A 
BRANCH  35  36
ATOM     36  C   UNL A   1      42.516  24.761  28.042  1.00  0.00     0.031 A 
ATOM     37  C   UNL A   1      43.918  25.109  28.456  1.00  0.00     0.074 A 
ATOM     38  C   UNL A   1      41.525  25.660  28.190  1.00  0.00     0.049 A 
ATOM     39  N   UNL A   1      44.371  26.211  28.996  1.00  0.00    -0.248 NA
ATOM     40  C   UNL A   1      44.942  24.069  28.261  1.00  0.00     0.031 C 
ATOM     41  C   UNL A   1      40.117  25.429  27.863  1.00  0.00     0.029 A 
ATOM     42  N   UNL A   1      41.550  26.947  28.666  1.00  0.00    -0.354 N 
ATOM     43  C   UNL A   1      45.724  25.993  29.221  1.00  0.00     0.074 A 
ATOM     44  C   UNL A   1      46.010  24.638  28.800  1.00  0.00     0.031 C 
ATOM     45  C   UNL A   1      39.416  26.542  28.134  1.00  0.00     0.029 A 
ATOM     46  C   UNL A   1      40.316  27.550  28.684  1.00  0.00     0.049 A 
ATOM     47  H   UNL A   1      42.374  27.395  28.966  1.00  0.00     0.167 HD
ATOM     48  C   UNL A   1      46.650  26.851  29.715  1.00  0.00     0.037 A 
ATOM     49  C   UNL A   1      39.951  28.776  29.105  1.00  0.00     0.037 A 
ATOM     50  C   UNL A   1      46.369  28.207  30.107  1.00  0.00     0.049 A 
ATOM     51  C   UNL A   1      40.997  29.711  29.644  1.00  0.00     0.074 A 
ATOM     52  C   UNL A   1      47.249  29.173  30.563  1.00  0.00     0.029 A 
ATOM     53  N   UNL A   1      45.112  28.791  30.087  1.00  0.00    -0.354 N 
ATOM     54  N   UNL A   1      42.283  29.511  29.798  1.00  0.00    -0.248 NA
ATOM     55  C   UNL A   1      40.541  31.043  30.065  1.00  0.00     0.031 C 
ATOM     56  C   UNL A   1      46.518  30.330  30.852  1.00  0.00     0.029 A 
ATOM     57  C   UNL A   1      45.189  30.098  30.538  1.00  0.00     0.049 A 
ATOM     58  H   UNL A   1      44.285  28.341  29.794  1.00  0.00     0.167 HD
ATOM     59  C   UNL A   1      42.794  30.699  30.305  1.00  0.00     0.074 A 
ATOM     60  C   UNL A   1      41.680  31.617  30.425  1.00  0.00     0.031 C 
ATOM     61  C   UNL A   1      44.072  31.001  30.642  1.00  0.00     0.037 A 
BRANCH  48  62
ATOM     62  C   UNL A   1      48.055  26.345  29.857  1.00  0.00     0.057 A 
ATOM     63  C   UNL A   1      48.507  25.746  31.040  1.00  0.00     0.134 A 
ATOM     64  C   UNL A   1      48.957  26.427  28.788  1.00  0.00     0.134 A 
ATOM     65  F   UNL A   1      47.697  25.647  32.105  1.00  0.00    -0.206 F 
ATOM     66  C   UNL A   1      49.813  25.269  31.164  1.00  0.00     0.040 A 
ATOM     67  C   UNL A   1      50.257  25.931  28.892  1.00  0.00     0.040 A 
ATOM     68  F   UNL A   1      48.586  26.983  27.625  1.00  0.00    -0.206 F 
ATOM     69  C   UNL A   1      50.690  25.355  30.084  1.00  0.00     0.006 A 
ENDBRANCH  48  62
BRANCH  49  70
ATOM     70  C   UNL A   1      38.533  29.201  29.008  1.00  0.00     0.057 A 
ATOM     71  C   UNL A   1      37.694  29.167  30.127  1.00  0.00     0.134 A 
ATOM     72  C   UNL A   1      37.984  29.650  27.801  1.00  0.00     0.134 A 
ATOM     73  F   UNL A   1      38.159  28.729  31.306  1.00  0.00    -0.206 F 
ATOM     74  C   UNL A   1      36.352  29.547  30.047  1.00  0.00     0.040 A 
ATOM     75  C   UNL A   1      36.651  30.054  27.712  1.00  0.00     0.040 A 
ATOM     76  F   UNL A   1      38.740  29.712  26.695  1.00  0.00    -0.206 F 
ATOM     77  C   UNL A   1      35.830  29.997  28.836  1.00  0.00     0.006 A 
ENDBRANCH  49  70
BRANCH  61  78
ATOM     78  C   UNL A   1      44.338  32.391  31.138  1.00  0.00     0.057 A 
ATOM     79  C   UNL A   1      44.640  33.441  30.263  1.00  0.00     0.134 A 
ATOM     80  C   UNL A   1      44.253  32.687  32.504  1.00  0.00     0.134 A 
ATOM     81  F   UNL A   1      44.750  33.218  28.945  1.00  0.00    -0.206 F 
ATOM     82  C   UNL A   1      44.868  34.736  30.733  1.00  0.00     0.040 A 
ATOM     83  C   UNL A   1      44.455  33.982  32.983  1.00  0.00     0.040 A 
ATOM     84  F   UNL A   1      43.960  31.726  33.393  1.00  0.00    -0.206 F 
ATOM     85  C   UNL A   1      44.768  35.010  32.096  1.00  0.00     0.006 A 
ENDBRANCH  61  78
ENDBRANCH  35  36
ENDBRANCH  27  30
ENDBRANCH  25  26
ENDBRANCH  24  25
ENDBRANCH  23  24
ENDBRANCH  22  23
ENDBRANCH   1  22
TORSDOF 18
ENDMDL
MODEL 2
REMARK VINA RESULT:     -10.4      0.278      6.376
REMARK SMILES C[C@H](C[NH3+])S[C@H](C)c1ccc(C(=O)NCCCCCCNC(=O)c2ccc(-c3c4nc(c(-c5c(F)cccc5F)c5ccc([nH]5)c(-c5c(F)cccc5F)c5nc(c(-c6c(F)cccc6F)c6ccc3[nH]6)C=C5)C=C4)cc2)o1
REMARK SMILES IDX 16 1 15 2 14 3 12 4 13 5 11 7 8 8 9 9 78 10 10 11 6 12 7 13
REMARK SMILES IDX 5 14 2 15 1 16 3 17 4 18 17 22 18 23 19 24 20 25 21 26 22 27
REMARK SMILES IDX 23 29 24 30 25 31 77 32 26 33 76 34 27 35 28 36 29 37 70 38
REMARK SMILES IDX 30 39 75 40 69 41 71 42 31 43 74 44 68 45 67 46 32 48 58 49
REMARK SMILES IDX 41 50 57 51 42 52 45 53 56 54 72 55 43 56 44 57 55 59 73 60
REMARK SMILES IDX 46 61 33 62 34 63 39 64 35 65 36 66 38 67 40 68 37 69 59 70
REMARK SMILES IDX 60 71 65 72 61 73 62 74 64 75 66 76 63 77 47 78 48 79 53 80
REMARK SMILES IDX 49 81 50 82 52 83 54 84 51 85
REMARK H PARENT 14 6 4 19 4 20 4 21 21 28 71 47 45 58
REMARK Flexibility Score: inf
ROOT
ATOM      1  C   UNL A   1      34.775  21.518  26.567  1.00  0.00     0.021 C 
ENDROOT
BRANCH   1   2
ATOM      2  C   UNL A   1      33.529  21.710  25.703  1.00  0.00     0.116 C 
BRANCH   2   3
ATOM      3  N   UNL A   1      32.374  21.997  26.527  1.00  0.00    -0.349 N 
ATOM      4  C   UNL A   1      31.792  23.184  26.899  1.00  0.00     0.286 C 
ATOM      5  O   UNL A   1      30.784  23.087  27.604  1.00  0.00    -0.266 OA
ATOM      6  H   UNL A   1      31.926  21.197  26.886  1.00  0.00     0.163 HD
BRANCH   4   7
ATOM      7  C   UNL A   1      32.325  24.466  26.473  1.00  0.00     0.191 A 
ATOM      8  C   UNL A   1      32.127  26.663  26.177  1.00  0.00     0.117 A 
ATOM      9  C   UNL A   1      33.395  26.319  25.757  1.00  0.00     0.047 A 
ATOM     10  O   UNL A   1      31.488  25.544  26.616  1.00  0.00    -0.455 OA
ATOM     11  C   UNL A   1      33.530  24.923  25.970  1.00  0.00     0.056 A 
BRANCH   8  12
ATOM     12  C   UNL A   1      31.416  27.980  26.304  1.00  0.00     0.110 C 
ATOM     13  C   UNL A   1      31.799  28.693  27.604  1.00  0.00     0.028 C 
BRANCH  12  14
ATOM     14  S   UNL A   1      31.775  29.158  24.943  1.00  0.00    -0.142 SA
BRANCH  14  15
ATOM     15  C   UNL A   1      30.968  28.346  23.487  1.00  0.00     0.099 C 
ATOM     16  C   UNL A   1      31.979  27.624  22.596  1.00  0.00     0.025 C 
BRANCH  15  17
ATOM     17  C   UNL A   1      30.073  29.301  22.668  1.00  0.00     0.273 C 
BRANCH  17  18
ATOM     18  N   UNL A   1      30.818  29.973  21.604  1.00  0.00    -0.357 N 
ATOM     19  H   UNL A   1      31.655  29.433  21.382  1.00  0.00     0.344 HD
ATOM     20  H   UNL A   1      31.089  30.905  21.916  1.00  0.00     0.344 HD
ATOM     21  H   UNL A   1      30.232  30.048  20.774  1.00  0.00     0.344 HD
ENDBRANCH  17  18
ENDBRANCH  15  17
ENDBRANCH  14  15
ENDBRANCH  12  14
ENDBRANCH   8  12
ENDBRANCH   4   7
ENDBRANCH   2   3
ENDBRANCH   1   2
BRANCH   1  22
ATOM     22  C   UNL A   1      36.066  21.340  25.752  1.00  0.00     0.002 C 
BRANCH  22  23
ATOM     23  C   UNL A   1      36.160  20.030  24.956  1.00  0.00     0.002 C 
BRANCH  23  24
ATOM     24  C   UNL A   1      37.581  19.526  24.690  1.00  0.00     0.021 C 
BRANCH  24  25
ATOM     25  C   UNL A   1      38.646  20.113  25.610  1.00  0.00     0.116 C 
BRANCH  25  26
ATOM     26  N   UNL A   1      39.810  19.247  25.717  1.00  0.00    -0.352 N 
ATOM     27  C   UNL A   1      41.098  19.560  26.070  1.00  0.00     0.251 C 
ATOM     28  H   UNL A   1      39.650  18.299  25.506  1.00  0.00     0.163 HD
ATOM     29  O   UNL A   1      41.997  18.740  25.916  1.00  0.00    -0.269 OA
BRANCH  27  30
ATOM     30  C   UNL A   1      41.409  20.894  26.626  1.00  0.00     0.039 A 
ATOM     31  C   UNL A   1      41.426  21.062  28.014  1.00  0.00     0.014 A 
ATOM     32  C   UNL A   1      41.661  21.981  25.784  1.00  0.00     0.014 A 
ATOM     33  C   UNL A   1      41.750  22.306  28.558  1.00  0.00     0.010 A 
ATOM     34  C   UNL A   1      42.044  23.205  26.327  1.00  0.00     0.010 A 
ATOM     35  C   UNL A   1      42.090  23.380  27.719  1.00  0.00    -0.014 A 
BRANCH  35  36
ATOM     36  C   UNL A   1      42.495  24.694  28.277  1.00  0.00     0.031 A 
ATOM     37  C   UNL A   1      41.477  25.784  28.461  1.00  0.00     0.074 A 
ATOM     38  C   UNL A   1      43.793  24.929  28.550  1.00  0.00     0.049 A 
ATOM     39  N   UNL A   1      41.650  27.021  28.850  1.00  0.00    -0.248 NA
ATOM     40  C   UNL A   1      40.081  25.444  28.140  1.00  0.00     0.031 C 
ATOM     41  C   UNL A   1      44.882  23.968  28.374  1.00  0.00     0.029 A 
ATOM     42  N   UNL A   1      44.417  26.057  29.022  1.00  0.00    -0.354 N 
ATOM     43  C   UNL A   1      40.393  27.611  28.804  1.00  0.00     0.074 A 
ATOM     44  C   UNL A   1      39.474  26.609  28.307  1.00  0.00     0.031 C 
ATOM     45  C   UNL A   1      46.038  24.541  28.748  1.00  0.00     0.029 A 
ATOM     46  C   UNL A   1      45.776  25.918  29.156  1.00  0.00     0.049 A 
ATOM     47  H   UNL A   1      43.934  26.887  29.243  1.00  0.00     0.167 HD
ATOM     48  C   UNL A   1      40.035  28.867  29.162  1.00  0.00     0.037 A 
ATOM     49  C   UNL A   1      46.708  26.803  29.555  1.00  0.00     0.037 A 
ATOM     50  C   UNL A   1      40.946  29.853  29.683  1.00  0.00     0.049 A 
ATOM     51  C   UNL A   1      46.284  28.190  29.952  1.00  0.00     0.074 A 
ATOM     52  C   UNL A   1      40.669  31.132  30.130  1.00  0.00     0.029 A 
ATOM     53  N   UNL A   1      42.311  29.665  29.828  1.00  0.00    -0.354 N 
ATOM     54  N   UNL A   1      45.084  28.717  29.958  1.00  0.00    -0.248 NA
ATOM     55  C   UNL A   1      47.344  29.103  30.402  1.00  0.00     0.031 C 
ATOM     56  C   UNL A   1      41.873  31.733  30.512  1.00  0.00     0.029 A 
ATOM     57  C   UNL A   1      42.894  30.812  30.342  1.00  0.00     0.049 A 
ATOM     58  H   UNL A   1      42.796  28.839  29.599  1.00  0.00     0.167 HD
ATOM     59  C   UNL A   1      45.239  30.011  30.437  1.00  0.00     0.074 A 
ATOM     60  C   UNL A   1      46.648  30.186  30.720  1.00  0.00     0.031 C 
ATOM     61  C   UNL A   1      44.297  30.967  30.625  1.00  0.00     0.037 A 
BRANCH  48  62
ATOM     62  C   UNL A   1      38.591  29.245  29.005  1.00  0.00     0.057 A 
ATOM     63  C   UNL A   1      38.060  29.627  27.766  1.00  0.00     0.134 A 
ATOM     64  C   UNL A   1      37.714  29.194  30.096  1.00  0.00     0.134 A 
ATOM     65  F   UNL A   1      38.849  29.707  26.684  1.00  0.00    -0.206 F 
ATOM     66  C   UNL A   1      36.714  29.969  27.622  1.00  0.00     0.040 A 
ATOM     67  C   UNL A   1      36.361  29.510  29.959  1.00  0.00     0.040 A 
ATOM     68  F   UNL A   1      38.156  28.831  31.309  1.00  0.00    -0.206 F 
ATOM     69  C   UNL A   1      35.859  29.904  28.721  1.00  0.00     0.006 A 
ENDBRANCH  48  62
BRANCH  49  70
ATOM     70  C   UNL A   1      48.134  26.399  29.625  1.00  0.00     0.057 A 
ATOM     71  C   UNL A   1      48.986  26.573  28.530  1.00  0.00     0.134 A 
ATOM     72  C   UNL A   1      48.677  25.830  30.783  1.00  0.00     0.134 A 
ATOM     73  F   UNL A   1      48.517  27.097  27.387  1.00  0.00    -0.206 F 
ATOM     74  C   UNL A   1      50.325  26.181  28.575  1.00  0.00     0.040 A 
ATOM     75  C   UNL A   1      50.019  25.454  30.850  1.00  0.00     0.040 A 
ATOM     76  F   UNL A   1      47.912  25.644  31.869  1.00  0.00    -0.206 F 
ATOM     77  C   UNL A   1      50.846  25.623  29.741  1.00  0.00     0.006 A 
ENDBRANCH  49  70
BRANCH  61  78
ATOM     78  C   UNL A   1      44.757  32.276  31.195  1.00  0.00     0.057 A 
ATOM     79  C   UNL A   1      45.142  33.344  30.375  1.00  0.00     0.134 A 
ATOM     80  C   UNL A   1      44.776  32.481  32.580  1.00  0.00     0.134 A 
ATOM     81  F   UNL A   1      45.158  33.205  29.042  1.00  0.00    -0.206 F 
ATOM     82  C   UNL A   1      45.550  34.565  30.915  1.00  0.00     0.040 A 
ATOM     83  C   UNL A   1      45.159  33.705  33.131  1.00  0.00     0.040 A 
ATOM     84  F   UNL A   1      44.411  31.500  33.420  1.00  0.00    -0.206 F 
ATOM     85  C   UNL A   1      45.552  34.750  32.297  1.00  0.00     0.006 A 
ENDBRANCH  61  78
ENDBRANCH  35  36
ENDBRANCH  27  30
ENDBRANCH  25  26
ENDBRANCH  24  25
ENDBRANCH  23  24
ENDBRANCH  22  23
ENDBRANCH   1  22
TORSDOF 18
ENDMDL
MODEL 3
REMARK VINA RESULT:     -10.3      1.442      6.661
REMARK SMILES C[C@H](C[NH3+])S[C@H](C)c1ccc(C(=O)NCCCCCCNC(=O)c2ccc(-c3c4nc(c(-c5c(F)cccc5F)c5ccc([nH]5)c(-c5c(F)cccc5F)c5nc(c(-c6c(F)cccc6F)c6ccc3[nH]6)C=C5)C=C4)cc2)o1
REMARK SMILES IDX 16 1 15 2 14 3 12 4 13 5 11 7 8 8 9 9 78 10 10 11 6 12 7 13
REMARK SMILES IDX 5 14 2 15 1 16 3 17 4 18 17 22 18 23 19 24 20 25 21 26 22 27
REMARK SMILES IDX 23 29 24 30 25 31 77 32 26 33 76 34 27 35 28 36 29 37 70 38
REMARK SMILES IDX 30 39 75 40 69 41 71 42 31 43 74 44 68 45 67 46 32 48 58 49
REMARK SMILES IDX 41 50 57 51 42 52 45 53 56 54 72 55 43 56 44 57 55 59 73 60
REMARK SMILES IDX 46 61 33 62 34 63 39 64 35 65 36 66 38 67 40 68 37 69 59 70
REMARK SMILES IDX 60 71 65 72 61 73 62 74 64 75 66 76 63 77 47 78 48 79 53 80
REMARK SMILES IDX 49 81 50 82 52 83 54 84 51 85
REMARK H PARENT 14 6 4 19 4 20 4 21 21 28 71 47 45 58
REMARK Flexibility Score: inf
ROOT
ATOM      1  C   UNL A   1      37.457  22.788  25.683  1.00  0.00     0.021 C 
ENDROOT
BRANCH   1   2
ATOM      2  C   UNL A   1      36.240  23.630  26.067  1.00  0.00     0.116 C 
BRANCH   2   3
ATOM      3  N   UNL A   1      35.344  22.875  26.917  1.00  0.00    -0.349 N 
ATOM      4  C   UNL A   1      34.158  22.235  26.651  1.00  0.00     0.286 C 
ATOM      5  O   UNL A   1      33.639  21.652  27.607  1.00  0.00    -0.266 OA
ATOM      6  H   UNL A   1      35.637  22.810  27.855  1.00  0.00     0.163 HD
BRANCH   4   7
ATOM      7  C   UNL A   1      33.566  22.236  25.325  1.00  0.00     0.191 A 
ATOM      8  C   UNL A   1      32.453  23.247  23.684  1.00  0.00     0.117 A 
ATOM      9  C   UNL A   1      32.751  21.976  23.238  1.00  0.00     0.047 A 
ATOM     10  O   UNL A   1      32.955  23.403  24.939  1.00  0.00    -0.455 OA
ATOM     11  C   UNL A   1      33.482  21.341  24.274  1.00  0.00     0.056 A 
BRANCH   8  12
ATOM     12  C   UNL A   1      31.795  24.429  23.032  1.00  0.00     0.110 C 
ATOM     13  C   UNL A   1      30.327  24.548  23.452  1.00  0.00     0.028 C 
BRANCH  12  14
ATOM     14  S   UNL A   1      32.580  26.038  23.434  1.00  0.00    -0.142 SA
BRANCH  14  15
ATOM     15  C   UNL A   1      31.460  26.712  24.747  1.00  0.00     0.099 C 
ATOM     16  C   UNL A   1      31.096  28.176  24.498  1.00  0.00     0.025 C 
BRANCH  15  17
ATOM     17  C   UNL A   1      31.994  26.499  26.180  1.00  0.00     0.273 C 
BRANCH  17  18
ATOM     18  N   UNL A   1      31.445  25.291  26.794  1.00  0.00    -0.357 N 
ATOM     19  H   UNL A   1      30.451  25.426  26.982  1.00  0.00     0.344 HD
ATOM     20  H   UNL A   1      31.933  25.103  27.670  1.00  0.00     0.344 HD
ATOM     21  H   UNL A   1      31.568  24.501  26.161  1.00  0.00     0.344 HD
ENDBRANCH  17  18
ENDBRANCH  15  17
ENDBRANCH  14  15
ENDBRANCH  12  14
ENDBRANCH   8  12
ENDBRANCH   4   7
ENDBRANCH   2   3
ENDBRANCH   1   2
BRANCH   1  22
ATOM     22  C   UNL A   1      37.215  21.877  24.470  1.00  0.00     0.002 C 
BRANCH  22  23
ATOM     23  C   UNL A   1      36.971  20.398  24.801  1.00  0.00     0.002 C 
BRANCH  23  24
ATOM     24  C   UNL A   1      38.223  19.517  24.827  1.00  0.00     0.021 C 
BRANCH  24  25
ATOM     25  C   UNL A   1      39.181  19.808  25.978  1.00  0.00     0.116 C 
BRANCH  25  26
ATOM     26  N   UNL A   1      40.424  19.062  25.854  1.00  0.00    -0.352 N 
ATOM     27  C   UNL A   1      41.717  19.500  25.980  1.00  0.00     0.251 C 
ATOM     28  H   UNL A   1      40.321  18.105  25.650  1.00  0.00     0.163 HD
ATOM     29  O   UNL A   1      42.650  18.776  25.646  1.00  0.00    -0.269 OA
BRANCH  27  30
ATOM     30  C   UNL A   1      41.992  20.855  26.505  1.00  0.00     0.039 A 
ATOM     31  C   UNL A   1      41.967  21.062  27.887  1.00  0.00     0.014 A 
ATOM     32  C   UNL A   1      42.252  21.921  25.639  1.00  0.00     0.014 A 
ATOM     33  C   UNL A   1      42.256  22.326  28.404  1.00  0.00     0.010 A 
ATOM     34  C   UNL A   1      42.601  23.166  26.158  1.00  0.00     0.010 A 
ATOM     35  C   UNL A   1      42.603  23.381  27.545  1.00  0.00    -0.014 A 
BRANCH  35  36
ATOM     36  C   UNL A   1      42.973  24.717  28.075  1.00  0.00     0.031 A 
ATOM     37  C   UNL A   1      41.911  25.752  28.322  1.00  0.00     0.074 A 
ATOM     38  C   UNL A   1      44.270  25.021  28.267  1.00  0.00     0.049 A 
ATOM     39  N   UNL A   1      42.043  26.998  28.699  1.00  0.00    -0.248 NA
ATOM     40  C   UNL A   1      40.518  25.338  28.088  1.00  0.00     0.031 C 
ATOM     41  C   UNL A   1      45.396  24.118  28.024  1.00  0.00     0.029 A 
ATOM     42  N   UNL A   1      44.862  26.182  28.699  1.00  0.00    -0.354 N 
ATOM     43  C   UNL A   1      40.757  27.521  28.731  1.00  0.00     0.074 A 
ATOM     44  C   UNL A   1      39.863  26.470  28.293  1.00  0.00     0.031 C 
ATOM     45  C   UNL A   1      46.541  24.752  28.326  1.00  0.00     0.029 A 
ATOM     46  C   UNL A   1      46.232  26.115  28.748  1.00  0.00     0.049 A 
ATOM     47  H   UNL A   1      44.351  26.986  28.949  1.00  0.00     0.167 HD
ATOM     48  C   UNL A   1      40.355  28.758  29.110  1.00  0.00     0.037 A 
ATOM     49  C   UNL A   1      47.139  27.050  29.088  1.00  0.00     0.037 A 
ATOM     50  C   UNL A   1      41.243  29.792  29.572  1.00  0.00     0.049 A 
ATOM     51  C   UNL A   1      46.668  28.413  29.510  1.00  0.00     0.074 A 
ATOM     52  C   UNL A   1      40.927  31.057  30.035  1.00  0.00     0.029 A 
ATOM     53  N   UNL A   1      42.623  29.677  29.633  1.00  0.00    -0.354 N 
ATOM     54  N   UNL A   1      45.444  28.876  29.590  1.00  0.00    -0.248 NA
ATOM     55  C   UNL A   1      47.704  29.383  29.892  1.00  0.00     0.031 C 
ATOM     56  C   UNL A   1      42.120  31.721  30.342  1.00  0.00     0.029 A 
ATOM     57  C   UNL A   1      43.175  30.855  30.109  1.00  0.00     0.049 A 
ATOM     58  H   UNL A   1      43.136  28.877  29.375  1.00  0.00     0.167 HD
ATOM     59  C   UNL A   1      45.560  30.179  30.058  1.00  0.00     0.074 A 
ATOM     60  C   UNL A   1      46.974  30.430  30.252  1.00  0.00     0.031 C 
ATOM     61  C   UNL A   1      44.583  31.085  30.304  1.00  0.00     0.037 A 
BRANCH  48  62
ATOM     62  C   UNL A   1      38.886  29.058  29.043  1.00  0.00     0.057 A 
ATOM     63  C   UNL A   1      38.058  28.945  30.167  1.00  0.00     0.134 A 
ATOM     64  C   UNL A   1      38.299  29.497  27.849  1.00  0.00     0.134 A 
ATOM     65  F   UNL A   1      38.556  28.519  31.338  1.00  0.00    -0.206 F 
ATOM     66  C   UNL A   1      36.694  29.234  30.102  1.00  0.00     0.040 A 
ATOM     67  C   UNL A   1      36.941  29.813  27.778  1.00  0.00     0.040 A 
ATOM     68  F   UNL A   1      39.036  29.633  26.736  1.00  0.00    -0.206 F 
ATOM     69  C   UNL A   1      36.134  29.676  28.904  1.00  0.00     0.006 A 
ENDBRANCH  48  62
BRANCH  49  70
ATOM     70  C   UNL A   1      48.586  26.721  29.069  1.00  0.00     0.057 A 
ATOM     71  C   UNL A   1      49.371  26.993  27.944  1.00  0.00     0.134 A 
ATOM     72  C   UNL A   1      49.216  26.131  30.170  1.00  0.00     0.134 A 
ATOM     73  F   UNL A   1      48.818  27.542  26.852  1.00  0.00    -0.206 F 
ATOM     74  C   UNL A   1      50.730  26.673  27.905  1.00  0.00     0.040 A 
ATOM     75  C   UNL A   1      50.578  25.825  30.154  1.00  0.00     0.040 A 
ATOM     76  F   UNL A   1      48.519  25.852  31.282  1.00  0.00    -0.206 F 
ATOM     77  C   UNL A   1      51.337  26.091  29.016  1.00  0.00     0.006 A 
ENDBRANCH  49  70
BRANCH  61  78
ATOM     78  C   UNL A   1      45.007  32.419  30.844  1.00  0.00     0.057 A 
ATOM     79  C   UNL A   1      45.150  32.647  32.218  1.00  0.00     0.134 A 
ATOM     80  C   UNL A   1      45.313  33.473  29.974  1.00  0.00     0.134 A 
ATOM     81  F   UNL A   1      44.860  31.682  33.102  1.00  0.00    -0.206 F 
ATOM     82  C   UNL A   1      45.564  33.887  32.709  1.00  0.00     0.040 A 
ATOM     83  C   UNL A   1      45.751  34.709  30.453  1.00  0.00     0.040 A 
ATOM     84  F   UNL A   1      45.204  33.315  28.646  1.00  0.00    -0.206 F 
ATOM     85  C   UNL A   1      45.872  34.919  31.825  1.00  0.00     0.006 A 
ENDBRANCH  61  78
ENDBRANCH  35  36
ENDBRANCH  27  30
ENDBRANCH  25  26
ENDBRANCH  24  25
ENDBRANCH  23  24
ENDBRANCH  22  23
ENDBRANCH   1  22
TORSDOF 18
ENDMDL
