MODEL 1
REMARK VINA RESULT:     -12.1      0.000      0.000
REMARK SMILES COc1cccc([C@H](CC(=O)NCCCCCCNC(=O)c2ccc(-c3c4nc(c(-c5c(F)cccc5F)c5ccc([nH]5)c(-c5c(F)cccc5F)c5nc(c(-c6c(F)cccc6F)c6ccc3[nH]6)C=C5)C=C4)cc2)NS(=O)(=O)c2ccc3c(c2)C[C@@H](C)N3C(C)=O)c1
REMARK SMILES IDX 14 1 13 2 12 3 10 4 11 5 9 7 8 8 7 9 3 10 4 11 93 12 5 13
REMARK SMILES IDX 6 14 2 15 1 16 76 17 77 19 78 20 79 21 80 22 81 23 85 24
REMARK SMILES IDX 82 25 84 26 83 27 86 28 89 29 87 30 88 31 90 32 91 33 92 34
REMARK SMILES IDX 15 35 16 36 17 37 18 38 19 39 20 40 21 42 22 43 23 44 75 45
REMARK SMILES IDX 24 46 74 47 25 48 26 49 27 50 68 51 28 52 73 53 67 54 69 55
REMARK SMILES IDX 29 56 72 57 66 58 65 59 30 61 56 62 39 63 55 64 40 65 43 66
REMARK SMILES IDX 54 67 70 68 41 69 42 70 53 72 71 73 44 74 31 75 32 76 37 77
REMARK SMILES IDX 33 78 34 79 36 80 38 81 35 82 57 83 58 84 63 85 59 86 60 87
REMARK SMILES IDX 62 88 64 89 61 90 45 91 46 92 51 93 47 94 48 95 50 96 52 97
REMARK SMILES IDX 49 98
REMARK H PARENT 12 6 76 18 19 41 69 60 43 71
REMARK Flexibility Score: inf
ROOT
ATOM      1  C   UNL A   1      36.581  20.580  25.332  1.00  0.00     0.021 C 
ENDROOT
BRANCH   1   2
ATOM      2  C   UNL A   1      35.244  20.463  24.587  1.00  0.00     0.116 C 
BRANCH   2   3
ATOM      3  N   UNL A   1      34.355  19.544  25.278  1.00  0.00    -0.356 N 
ATOM      4  C   UNL A   1      32.999  19.515  25.387  1.00  0.00     0.221 C 
ATOM      5  O   UNL A   1      32.499  18.633  26.087  1.00  0.00    -0.275 OA
ATOM      6  H   UNL A   1      34.815  18.813  25.752  1.00  0.00     0.163 HD
BRANCH   4   7
ATOM      7  C   UNL A   1      32.118  20.528  24.678  1.00  0.00     0.124 C 
BRANCH   7   8
ATOM      8  C   UNL A   1      32.182  21.910  25.356  1.00  0.00     0.109 C 
BRANCH   8   9
ATOM      9  C   UNL A   1      33.021  22.874  24.541  1.00  0.00    -0.026 A 
ATOM     10  C   UNL A   1      33.512  24.025  22.489  1.00  0.00     0.119 A 
ATOM     11  C   UNL A   1      34.404  24.876  23.137  1.00  0.00     0.046 A 
ATOM     12  C   UNL A   1      32.913  22.956  23.147  1.00  0.00     0.051 A 
ATOM     13  C   UNL A   1      34.543  24.781  24.513  1.00  0.00     0.004 A 
ATOM     14  C   UNL A   1      33.792  23.835  25.209  1.00  0.00     0.005 A 
BRANCH  10  15
ATOM     15  O   UNL A   1      33.091  24.360  21.227  1.00  0.00    -0.497 OA
ATOM     16  C   UNL A   1      32.887  25.786  21.203  1.00  0.00     0.278 C 
ENDBRANCH  10  15
ENDBRANCH   8   9
BRANCH   8  17
ATOM     17  N   UNL A   1      30.823  22.439  25.608  1.00  0.00    -0.203 NA
ATOM     18  H   UNL A   1      30.265  21.644  25.922  1.00  0.00     0.142 HD
BRANCH  17  19
ATOM     19  S   UNL A   1      30.525  23.683  26.705  1.00  0.00     0.241 S 
ATOM     20  O   UNL A   1      29.224  23.617  27.302  1.00  0.00    -0.207 OA
ATOM     21  O   UNL A   1      31.728  23.699  27.526  1.00  0.00    -0.207 OA
BRANCH  19  22
ATOM     22  C   UNL A   1      30.544  25.155  25.734  1.00  0.00     0.082 A 
ATOM     23  C   UNL A   1      30.090  25.158  24.396  1.00  0.00     0.024 A 
ATOM     24  C   UNL A   1      31.042  26.304  26.344  1.00  0.00     0.027 A 
ATOM     25  C   UNL A   1      30.223  26.303  23.609  1.00  0.00     0.028 A 
ATOM     26  C   UNL A   1      31.210  27.404  25.546  1.00  0.00    -0.021 A 
ATOM     27  C   UNL A   1      30.843  27.386  24.193  1.00  0.00     0.047 A 
ATOM     28  C   UNL A   1      31.803  28.730  25.912  1.00  0.00     0.063 C 
ATOM     29  N   UNL A   1      31.258  28.596  23.606  1.00  0.00    -0.309 N 
ATOM     30  C   UNL A   1      32.311  29.127  24.518  1.00  0.00     0.092 C 
ATOM     31  C   UNL A   1      33.659  28.412  24.224  1.00  0.00     0.032 C 
BRANCH  29  32
ATOM     32  C   UNL A   1      30.354  29.317  22.851  1.00  0.00     0.224 C 
ATOM     33  C   UNL A   1      29.310  30.047  23.668  1.00  0.00     0.115 C 
ATOM     34  O   UNL A   1      30.260  29.236  21.627  1.00  0.00    -0.275 OA
ENDBRANCH  29  32
ENDBRANCH  19  22
ENDBRANCH  17  19
ENDBRANCH   8  17
ENDBRANCH   7   8
ENDBRANCH   4   7
ENDBRANCH   2   3
ENDBRANCH   1   2
BRANCH   1  35
ATOM     35  C   UNL A   1      36.991  21.993  25.736  1.00  0.00     0.002 C 
BRANCH  35  36
ATOM     36  C   UNL A   1      38.437  22.366  25.392  1.00  0.00     0.002 C 
BRANCH  36  37
ATOM     37  C   UNL A   1      39.510  21.936  26.400  1.00  0.00     0.021 C 
BRANCH  37  38
ATOM     38  C   UNL A   1      40.290  23.070  27.063  1.00  0.00     0.116 C 
BRANCH  38  39
ATOM     39  N   UNL A   1      41.167  23.749  26.127  1.00  0.00    -0.352 N 
ATOM     40  C   UNL A   1      41.486  25.077  26.008  1.00  0.00     0.251 C 
ATOM     41  H   UNL A   1      41.605  23.161  25.471  1.00  0.00     0.163 HD
ATOM     42  O   UNL A   1      42.060  25.469  24.994  1.00  0.00    -0.269 OA
BRANCH  40  43
ATOM     43  C   UNL A   1      41.159  26.046  27.079  1.00  0.00     0.039 A 
ATOM     44  C   UNL A   1      41.908  27.224  27.166  1.00  0.00     0.014 A 
ATOM     45  C   UNL A   1      40.195  25.764  28.051  1.00  0.00     0.014 A 
ATOM     46  C   UNL A   1      41.681  28.122  28.212  1.00  0.00     0.010 A 
ATOM     47  C   UNL A   1      39.915  26.697  29.049  1.00  0.00     0.010 A 
ATOM     48  C   UNL A   1      40.677  27.870  29.160  1.00  0.00    -0.014 A 
BRANCH  48  49
ATOM     49  C   UNL A   1      40.461  28.792  30.306  1.00  0.00     0.031 A 
ATOM     50  C   UNL A   1      41.317  28.680  31.539  1.00  0.00     0.074 A 
ATOM     51  C   UNL A   1      39.480  29.712  30.253  1.00  0.00     0.049 A 
ATOM     52  N   UNL A   1      41.282  29.385  32.643  1.00  0.00    -0.248 NA
ATOM     53  C   UNL A   1      42.333  27.615  31.542  1.00  0.00     0.031 C 
ATOM     54  C   UNL A   1      38.559  29.904  29.134  1.00  0.00     0.029 A 
ATOM     55  N   UNL A   1      39.098  30.663  31.167  1.00  0.00    -0.354 N 
ATOM     56  C   UNL A   1      42.254  28.837  33.473  1.00  0.00     0.074 A 
ATOM     57  C   UNL A   1      42.815  27.703  32.771  1.00  0.00     0.031 C 
ATOM     58  C   UNL A   1      37.745  30.935  29.409  1.00  0.00     0.029 A 
ATOM     59  C   UNL A   1      38.063  31.454  30.735  1.00  0.00     0.049 A 
ATOM     60  H   UNL A   1      39.526  30.767  32.047  1.00  0.00     0.167 HD
ATOM     61  C   UNL A   1      42.660  29.253  34.697  1.00  0.00     0.037 A 
ATOM     62  C   UNL A   1      37.447  32.489  31.338  1.00  0.00     0.037 A 
ATOM     63  C   UNL A   1      42.112  30.392  35.386  1.00  0.00     0.049 A 
ATOM     64  C   UNL A   1      37.904  32.927  32.701  1.00  0.00     0.074 A 
ATOM     65  C   UNL A   1      42.489  30.930  36.603  1.00  0.00     0.029 A 
ATOM     66  N   UNL A   1      41.061  31.166  34.916  1.00  0.00    -0.354 N 
ATOM     67  N   UNL A   1      38.868  32.444  33.448  1.00  0.00    -0.248 NA
ATOM     68  C   UNL A   1      37.194  34.066  33.299  1.00  0.00     0.031 C 
ATOM     69  C   UNL A   1      41.632  31.998  36.895  1.00  0.00     0.029 A 
ATOM     70  C   UNL A   1      40.761  32.164  35.830  1.00  0.00     0.049 A 
ATOM     71  H   UNL A   1      40.597  31.028  34.059  1.00  0.00     0.167 HD
ATOM     72  C   UNL A   1      38.908  33.244  34.583  1.00  0.00     0.074 A 
ATOM     73  C   UNL A   1      37.873  34.244  34.424  1.00  0.00     0.031 C 
ATOM     74  C   UNL A   1      39.733  33.162  35.656  1.00  0.00     0.037 A 
BRANCH  61  75
ATOM     75  C   UNL A   1      43.743  28.451  35.368  1.00  0.00     0.057 A 
ATOM     76  C   UNL A   1      43.459  27.313  36.135  1.00  0.00     0.134 A 
ATOM     77  C   UNL A   1      45.086  28.831  35.257  1.00  0.00     0.134 A 
ATOM     78  F   UNL A   1      42.194  26.896  36.292  1.00  0.00    -0.206 F 
ATOM     79  C   UNL A   1      44.464  26.613  36.807  1.00  0.00     0.040 A 
ATOM     80  C   UNL A   1      46.104  28.120  35.896  1.00  0.00     0.040 A 
ATOM     81  F   UNL A   1      45.434  29.904  34.530  1.00  0.00    -0.206 F 
ATOM     82  C   UNL A   1      45.792  27.016  36.686  1.00  0.00     0.006 A 
ENDBRANCH  61  75
BRANCH  62  83
ATOM     83  C   UNL A   1      36.369  33.221  30.626  1.00  0.00     0.057 A 
ATOM     84  C   UNL A   1      36.672  34.106  29.585  1.00  0.00     0.134 A 
ATOM     85  C   UNL A   1      35.020  33.049  30.955  1.00  0.00     0.134 A 
ATOM     86  F   UNL A   1      37.948  34.325  29.235  1.00  0.00    -0.206 F 
ATOM     87  C   UNL A   1      35.674  34.803  28.903  1.00  0.00     0.040 A 
ATOM     88  C   UNL A   1      34.009  33.722  30.266  1.00  0.00     0.040 A 
ATOM     89  F   UNL A   1      34.663  32.210  31.939  1.00  0.00    -0.206 F 
ATOM     90  C   UNL A   1      34.336  34.606  29.240  1.00  0.00     0.006 A 
ENDBRANCH  62  83
BRANCH  74  91
ATOM     91  C   UNL A   1      39.591  34.216  36.717  1.00  0.00     0.057 A 
ATOM     92  C   UNL A   1      40.177  35.483  36.595  1.00  0.00     0.134 A 
ATOM     93  C   UNL A   1      38.835  33.963  37.868  1.00  0.00     0.134 A 
ATOM     94  F   UNL A   1      40.925  35.788  35.524  1.00  0.00    -0.206 F 
ATOM     95  C   UNL A   1      40.040  36.449  37.596  1.00  0.00     0.040 A 
ATOM     96  C   UNL A   1      38.665  34.930  38.860  1.00  0.00     0.040 A 
ATOM     97  F   UNL A   1      38.238  32.775  38.045  1.00  0.00    -0.206 F 
ATOM     98  C   UNL A   1      39.277  36.175  38.730  1.00  0.00     0.006 A 
ENDBRANCH  74  91
ENDBRANCH  48  49
ENDBRANCH  40  43
ENDBRANCH  38  39
ENDBRANCH  37  38
ENDBRANCH  36  37
ENDBRANCH  35  36
ENDBRANCH   1  35
TORSDOF 20
ENDMDL
MODEL 2
REMARK VINA RESULT:     -12.0      0.500      5.711
REMARK SMILES COc1cccc([C@H](CC(=O)NCCCCCCNC(=O)c2ccc(-c3c4nc(c(-c5c(F)cccc5F)c5ccc([nH]5)c(-c5c(F)cccc5F)c5nc(c(-c6c(F)cccc6F)c6ccc3[nH]6)C=C5)C=C4)cc2)NS(=O)(=O)c2ccc3c(c2)C[C@@H](C)N3C(C)=O)c1
REMARK SMILES IDX 14 1 13 2 12 3 10 4 11 5 9 7 8 8 7 9 3 10 4 11 93 12 5 13
REMARK SMILES IDX 6 14 2 15 1 16 76 17 77 19 78 20 79 21 80 22 81 23 85 24
REMARK SMILES IDX 82 25 84 26 83 27 86 28 89 29 87 30 88 31 90 32 91 33 92 34
REMARK SMILES IDX 15 35 16 36 17 37 18 38 19 39 20 40 21 42 22 43 23 44 75 45
REMARK SMILES IDX 24 46 74 47 25 48 26 49 27 50 68 51 28 52 73 53 67 54 69 55
REMARK SMILES IDX 29 56 72 57 66 58 65 59 30 61 56 62 39 63 55 64 40 65 43 66
REMARK SMILES IDX 54 67 70 68 41 69 42 70 53 72 71 73 44 74 31 75 32 76 37 77
REMARK SMILES IDX 33 78 34 79 36 80 38 81 35 82 57 83 58 84 63 85 59 86 60 87
REMARK SMILES IDX 62 88 64 89 61 90 45 91 46 92 51 93 47 94 48 95 50 96 52 97
REMARK SMILES IDX 49 98
REMARK H PARENT 12 6 76 18 19 41 69 60 43 71
REMARK Flexibility Score: inf
ROOT
ATOM      1  C   UNL A   1      36.642  20.224  25.121  1.00  0.00     0.021 C 
ENDROOT
BRANCH   1   2
ATOM      2  C   UNL A   1      35.269  20.188  24.437  1.00  0.00     0.116 C 
BRANCH   2   3
ATOM      3  N   UNL A   1      34.379  19.271  25.129  1.00  0.00    -0.356 N 
ATOM      4  C   UNL A   1      33.028  19.279  25.291  1.00  0.00     0.221 C 
ATOM      5  O   UNL A   1      32.527  18.386  25.977  1.00  0.00    -0.275 OA
ATOM      6  H   UNL A   1      34.834  18.510  25.558  1.00  0.00     0.163 HD
BRANCH   4   7
ATOM      7  C   UNL A   1      32.152  20.343  24.654  1.00  0.00     0.124 C 
BRANCH   7   8
ATOM      8  C   UNL A   1      32.259  21.688  25.399  1.00  0.00     0.109 C 
BRANCH   8   9
ATOM      9  C   UNL A   1      33.128  22.663  24.631  1.00  0.00    -0.026 A 
ATOM     10  C   UNL A   1      33.674  23.874  22.626  1.00  0.00     0.119 A 
ATOM     11  C   UNL A   1      34.569  24.687  23.318  1.00  0.00     0.046 A 
ATOM     12  C   UNL A   1      33.045  22.794  23.239  1.00  0.00     0.051 A 
ATOM     13  C   UNL A   1      34.682  24.543  24.692  1.00  0.00     0.004 A 
ATOM     14  C   UNL A   1      33.904  23.588  25.343  1.00  0.00     0.005 A 
BRANCH  10  15
ATOM     15  O   UNL A   1      33.279  24.258  21.370  1.00  0.00    -0.497 OA
ATOM     16  C   UNL A   1      32.658  25.553  21.488  1.00  0.00     0.278 C 
ENDBRANCH  10  15
ENDBRANCH   8   9
BRANCH   8  17
ATOM     17  N   UNL A   1      30.917  22.245  25.678  1.00  0.00    -0.203 NA
ATOM     18  H   UNL A   1      30.324  21.449  25.914  1.00  0.00     0.142 HD
BRANCH  17  19
ATOM     19  S   UNL A   1      30.649  23.400  26.876  1.00  0.00     0.241 S 
ATOM     20  O   UNL A   1      29.353  23.305  27.479  1.00  0.00    -0.207 OA
ATOM     21  O   UNL A   1      31.859  23.329  27.684  1.00  0.00    -0.207 OA
BRANCH  19  22
ATOM     22  C   UNL A   1      30.683  24.947  26.029  1.00  0.00     0.082 A 
ATOM     23  C   UNL A   1      30.192  25.072  24.710  1.00  0.00     0.024 A 
ATOM     24  C   UNL A   1      31.232  26.027  26.716  1.00  0.00     0.027 A 
ATOM     25  C   UNL A   1      30.336  26.274  24.016  1.00  0.00     0.028 A 
ATOM     26  C   UNL A   1      31.409  27.185  26.006  1.00  0.00    -0.021 A 
ATOM     27  C   UNL A   1      31.005  27.288  24.668  1.00  0.00     0.047 A 
ATOM     28  C   UNL A   1      32.052  28.459  26.462  1.00  0.00     0.063 C 
ATOM     29  N   UNL A   1      31.437  28.531  24.170  1.00  0.00    -0.309 N 
ATOM     30  C   UNL A   1      32.531  28.956  25.090  1.00  0.00     0.092 C 
ATOM     31  C   UNL A   1      33.848  28.233  24.697  1.00  0.00     0.032 C 
BRANCH  29  32
ATOM     32  C   UNL A   1      30.534  29.337  23.504  1.00  0.00     0.224 C 
ATOM     33  C   UNL A   1      30.655  29.285  21.997  1.00  0.00     0.115 C 
ATOM     34  O   UNL A   1      29.823  30.175  24.055  1.00  0.00    -0.275 OA
ENDBRANCH  29  32
ENDBRANCH  19  22
ENDBRANCH  17  19
ENDBRANCH   8  17
ENDBRANCH   7   8
ENDBRANCH   4   7
ENDBRANCH   2   3
ENDBRANCH   1   2
BRANCH   1  35
ATOM     35  C   UNL A   1      37.035  21.561  25.742  1.00  0.00     0.002 C 
BRANCH  35  36
ATOM     36  C   UNL A   1      38.450  22.039  25.397  1.00  0.00     0.002 C 
BRANCH  36  37
ATOM     37  C   UNL A   1      39.514  21.867  26.489  1.00  0.00     0.021 C 
BRANCH  37  38
ATOM     38  C   UNL A   1      40.097  23.159  27.057  1.00  0.00     0.116 C 
BRANCH  38  39
ATOM     39  N   UNL A   1      40.995  23.811  26.121  1.00  0.00    -0.352 N 
ATOM     40  C   UNL A   1      41.375  25.123  26.017  1.00  0.00     0.251 C 
ATOM     41  H   UNL A   1      41.398  23.211  25.452  1.00  0.00     0.163 HD
ATOM     42  O   UNL A   1      41.955  25.503  25.003  1.00  0.00    -0.269 OA
BRANCH  40  43
ATOM     43  C   UNL A   1      41.105  26.091  27.105  1.00  0.00     0.039 A 
ATOM     44  C   UNL A   1      41.824  27.290  27.127  1.00  0.00     0.014 A 
ATOM     45  C   UNL A   1      40.227  25.790  28.150  1.00  0.00     0.014 A 
ATOM     46  C   UNL A   1      41.654  28.189  28.182  1.00  0.00     0.010 A 
ATOM     47  C   UNL A   1      39.999  26.722  29.162  1.00  0.00     0.010 A 
ATOM     48  C   UNL A   1      40.734  27.917  29.207  1.00  0.00    -0.014 A 
BRANCH  48  49
ATOM     49  C   UNL A   1      40.582  28.841  30.362  1.00  0.00     0.031 A 
ATOM     50  C   UNL A   1      39.506  29.893  30.351  1.00  0.00     0.074 A 
ATOM     51  C   UNL A   1      41.424  28.754  31.408  1.00  0.00     0.049 A 
ATOM     52  N   UNL A   1      39.216  30.795  31.257  1.00  0.00    -0.248 NA
ATOM     53  C   UNL A   1      38.660  29.960  29.149  1.00  0.00     0.031 C 
ATOM     54  C   UNL A   1      42.528  27.803  31.529  1.00  0.00     0.029 A 
ATOM     55  N   UNL A   1      41.478  29.479  32.573  1.00  0.00    -0.354 N 
ATOM     56  C   UNL A   1      38.171  31.542  30.726  1.00  0.00     0.074 A 
ATOM     57  C   UNL A   1      37.922  31.030  29.395  1.00  0.00     0.031 C 
ATOM     58  C   UNL A   1      43.126  27.975  32.719  1.00  0.00     0.029 A 
ATOM     59  C   UNL A   1      42.470  29.069  33.429  1.00  0.00     0.049 A 
ATOM     60  H   UNL A   1      40.864  30.221  32.775  1.00  0.00     0.167 HD
ATOM     61  C   UNL A   1      37.464  32.546  31.300  1.00  0.00     0.037 A 
ATOM     62  C   UNL A   1      42.805  29.518  34.653  1.00  0.00     0.037 A 
ATOM     63  C   UNL A   1      37.702  33.042  32.631  1.00  0.00     0.049 A 
ATOM     64  C   UNL A   1      42.017  30.641  35.268  1.00  0.00     0.074 A 
ATOM     65  C   UNL A   1      37.010  34.017  33.327  1.00  0.00     0.029 A 
ATOM     66  N   UNL A   1      38.720  32.602  33.466  1.00  0.00    -0.354 N 
ATOM     67  N   UNL A   1      40.989  31.295  34.784  1.00  0.00    -0.248 NA
ATOM     68  C   UNL A   1      42.432  31.079  36.608  1.00  0.00     0.031 C 
ATOM     69  C   UNL A   1      37.640  34.204  34.562  1.00  0.00     0.029 A 
ATOM     70  C   UNL A   1      38.688  33.302  34.661  1.00  0.00     0.049 A 
ATOM     71  H   UNL A   1      39.368  31.896  33.242  1.00  0.00     0.167 HD
ATOM     72  C   UNL A   1      40.607  32.191  35.775  1.00  0.00     0.074 A 
ATOM     73  C   UNL A   1      41.513  31.994  36.887  1.00  0.00     0.031 C 
ATOM     74  C   UNL A   1      39.591  33.090  35.767  1.00  0.00     0.037 A 
BRANCH  61  75
ATOM     75  C   UNL A   1      36.378  33.179  30.474  1.00  0.00     0.057 A 
ATOM     76  C   UNL A   1      35.023  32.870  30.663  1.00  0.00     0.134 A 
ATOM     77  C   UNL A   1      36.690  34.099  29.465  1.00  0.00     0.134 A 
ATOM     78  F   UNL A   1      34.651  31.990  31.604  1.00  0.00    -0.206 F 
ATOM     79  C   UNL A   1      34.027  33.413  29.848  1.00  0.00     0.040 A 
ATOM     80  C   UNL A   1      35.701  34.676  28.667  1.00  0.00     0.040 A 
ATOM     81  F   UNL A   1      37.965  34.451  29.235  1.00  0.00    -0.206 F 
ATOM     82  C   UNL A   1      34.366  34.321  28.848  1.00  0.00     0.006 A 
ENDBRANCH  61  75
BRANCH  62  83
ATOM     83  C   UNL A   1      43.905  28.861  35.404  1.00  0.00     0.057 A 
ATOM     84  C   UNL A   1      45.232  29.276  35.241  1.00  0.00     0.134 A 
ATOM     85  C   UNL A   1      43.660  27.818  36.305  1.00  0.00     0.134 A 
ATOM     86  F   UNL A   1      45.530  30.259  34.378  1.00  0.00    -0.206 F 
ATOM     87  C   UNL A   1      46.278  28.671  35.937  1.00  0.00     0.040 A 
ATOM     88  C   UNL A   1      44.696  27.220  37.027  1.00  0.00     0.040 A 
ATOM     89  F   UNL A   1      42.410  27.380  36.512  1.00  0.00    -0.206 F 
ATOM     90  C   UNL A   1      46.010  27.643  36.839  1.00  0.00     0.006 A 
ENDBRANCH  62  83
BRANCH  74  91
ATOM     91  C   UNL A   1      39.368  33.889  37.019  1.00  0.00     0.057 A 
ATOM     92  C   UNL A   1      39.867  35.188  37.177  1.00  0.00     0.134 A 
ATOM     93  C   UNL A   1      38.620  33.352  38.076  1.00  0.00     0.134 A 
ATOM     94  F   UNL A   1      40.602  35.757  36.209  1.00  0.00    -0.206 F 
ATOM     95  C   UNL A   1      39.656  35.913  38.352  1.00  0.00     0.040 A 
ATOM     96  C   UNL A   1      38.377  34.079  39.242  1.00  0.00     0.040 A 
ATOM     97  F   UNL A   1      38.104  32.117  37.988  1.00  0.00    -0.206 F 
ATOM     98  C   UNL A   1      38.903  35.360  39.387  1.00  0.00     0.006 A 
ENDBRANCH  74  91
ENDBRANCH  48  49
ENDBRANCH  40  43
ENDBRANCH  38  39
ENDBRANCH  37  38
ENDBRANCH  36  37
ENDBRANCH  35  36
ENDBRANCH   1  35
TORSDOF 20
ENDMDL
MODEL 3
REMARK VINA RESULT:     -11.8      5.193      7.764
REMARK SMILES COc1cccc([C@H](CC(=O)NCCCCCCNC(=O)c2ccc(-c3c4nc(c(-c5c(F)cccc5F)c5ccc([nH]5)c(-c5c(F)cccc5F)c5nc(c(-c6c(F)cccc6F)c6ccc3[nH]6)C=C5)C=C4)cc2)NS(=O)(=O)c2ccc3c(c2)C[C@@H](C)N3C(C)=O)c1
REMARK SMILES IDX 14 1 13 2 12 3 10 4 11 5 9 7 8 8 7 9 3 10 4 11 93 12 5 13
REMARK SMILES IDX 6 14 2 15 1 16 76 17 77 19 78 20 79 21 80 22 81 23 85 24
REMARK SMILES IDX 82 25 84 26 83 27 86 28 89 29 87 30 88 31 90 32 91 33 92 34
REMARK SMILES IDX 15 35 16 36 17 37 18 38 19 39 20 40 21 42 22 43 23 44 75 45
REMARK SMILES IDX 24 46 74 47 25 48 26 49 27 50 68 51 28 52 73 53 67 54 69 55
REMARK SMILES IDX 29 56 72 57 66 58 65 59 30 61 56 62 39 63 55 64 40 65 43 66
REMARK SMILES IDX 54 67 70 68 41 69 42 70 53 72 71 73 44 74 31 75 32 76 37 77
REMARK SMILES IDX 33 78 34 79 36 80 38 81 35 82 57 83 58 84 63 85 59 86 60 87
REMARK SMILES IDX 62 88 64 89 61 90 45 91 46 92 51 93 47 94 48 95 50 96 52 97
REMARK SMILES IDX 49 98
REMARK H PARENT 12 6 76 18 19 41 69 60 43 71
REMARK Flexibility Score: inf
ROOT
ATOM      1  C   UNL A   1      39.657  22.827  26.266  1.00  0.00     0.021 C 
ENDROOT
BRANCH   1   2
ATOM      2  C   UNL A   1      38.208  23.331  26.250  1.00  0.00     0.116 C 
BRANCH   2   3
ATOM      3  N   UNL A   1      37.696  23.367  24.890  1.00  0.00    -0.356 N 
ATOM      4  C   UNL A   1      37.058  22.424  24.144  1.00  0.00     0.221 C 
ATOM      5  O   UNL A   1      36.771  22.712  22.980  1.00  0.00    -0.275 OA
ATOM      6  H   UNL A   1      37.836  24.224  24.426  1.00  0.00     0.163 HD
BRANCH   4   7
ATOM      7  C   UNL A   1      36.705  21.060  24.709  1.00  0.00     0.124 C 
BRANCH   7   8
ATOM      8  C   UNL A   1      35.220  20.978  25.111  1.00  0.00     0.109 C 
BRANCH   8   9
ATOM      9  C   UNL A   1      34.645  19.616  24.781  1.00  0.00    -0.026 A 
ATOM     10  C   UNL A   1      32.943  18.227  23.803  1.00  0.00     0.119 A 
ATOM     11  C   UNL A   1      33.747  17.096  23.923  1.00  0.00     0.046 A 
ATOM     12  C   UNL A   1      33.328  19.456  24.332  1.00  0.00     0.051 A 
ATOM     13  C   UNL A   1      35.042  17.239  24.396  1.00  0.00     0.004 A 
ATOM     14  C   UNL A   1      35.502  18.507  24.745  1.00  0.00     0.005 A 
BRANCH  10  15
ATOM     15  O   UNL A   1      31.836  18.159  22.998  1.00  0.00    -0.497 OA
ATOM     16  C   UNL A   1      32.268  18.400  21.645  1.00  0.00     0.278 C 
ENDBRANCH  10  15
ENDBRANCH   8   9
BRANCH   8  17
ATOM     17  N   UNL A   1      35.039  21.323  26.539  1.00  0.00    -0.203 NA
ATOM     18  H   UNL A   1      35.891  21.809  26.822  1.00  0.00     0.142 HD
BRANCH  17  19
ATOM     19  S   UNL A   1      33.756  22.269  27.086  1.00  0.00     0.241 S 
ATOM     20  O   UNL A   1      32.509  21.566  27.132  1.00  0.00    -0.207 OA
ATOM     21  O   UNL A   1      34.300  22.912  28.275  1.00  0.00    -0.207 OA
BRANCH  19  22
ATOM     22  C   UNL A   1      33.566  23.524  25.862  1.00  0.00     0.082 A 
ATOM     23  C   UNL A   1      34.455  24.620  25.790  1.00  0.00     0.024 A 
ATOM     24  C   UNL A   1      32.491  23.391  24.986  1.00  0.00     0.027 A 
ATOM     25  C   UNL A   1      34.219  25.662  24.892  1.00  0.00     0.028 A 
ATOM     26  C   UNL A   1      32.245  24.442  24.145  1.00  0.00    -0.021 A 
ATOM     27  C   UNL A   1      33.073  25.574  24.131  1.00  0.00     0.047 A 
ATOM     28  C   UNL A   1      31.116  24.605  23.174  1.00  0.00     0.063 C 
ATOM     29  N   UNL A   1      32.498  26.532  23.276  1.00  0.00    -0.309 N 
ATOM     30  C   UNL A   1      31.063  26.140  23.166  1.00  0.00     0.092 C 
ATOM     31  C   UNL A   1      30.290  26.648  24.413  1.00  0.00     0.032 C 
BRANCH  29  32
ATOM     32  C   UNL A   1      33.286  27.128  22.311  1.00  0.00     0.224 C 
ATOM     33  C   UNL A   1      33.443  28.624  22.479  1.00  0.00     0.115 C 
ATOM     34  O   UNL A   1      33.674  26.560  21.291  1.00  0.00    -0.275 OA
ENDBRANCH  29  32
ENDBRANCH  19  22
ENDBRANCH  17  19
ENDBRANCH   8  17
ENDBRANCH   7   8
ENDBRANCH   4   7
ENDBRANCH   2   3
ENDBRANCH   1   2
BRANCH   1  35
ATOM     35  C   UNL A   1      39.830  21.321  26.436  1.00  0.00     0.002 C 
BRANCH  35  36
ATOM     36  C   UNL A   1      41.285  20.840  26.466  1.00  0.00     0.002 C 
BRANCH  36  37
ATOM     37  C   UNL A   1      41.560  19.459  25.858  1.00  0.00     0.021 C 
BRANCH  37  38
ATOM     38  C   UNL A   1      42.920  18.847  26.191  1.00  0.00     0.116 C 
BRANCH  38  39
ATOM     39  N   UNL A   1      43.789  18.785  25.030  1.00  0.00    -0.352 N 
ATOM     40  C   UNL A   1      44.421  19.784  24.336  1.00  0.00     0.251 C 
ATOM     41  H   UNL A   1      43.952  17.878  24.686  1.00  0.00     0.163 HD
ATOM     42  O   UNL A   1      44.915  19.535  23.238  1.00  0.00    -0.269 OA
BRANCH  40  43
ATOM     43  C   UNL A   1      44.526  21.155  24.886  1.00  0.00     0.039 A 
ATOM     44  C   UNL A   1      44.148  22.230  24.076  1.00  0.00     0.014 A 
ATOM     45  C   UNL A   1      45.080  21.397  26.146  1.00  0.00     0.014 A 
ATOM     46  C   UNL A   1      44.311  23.541  24.532  1.00  0.00     0.010 A 
ATOM     47  C   UNL A   1      45.169  22.702  26.632  1.00  0.00     0.010 A 
ATOM     48  C   UNL A   1      44.817  23.789  25.818  1.00  0.00    -0.014 A 
BRANCH  48  49
ATOM     49  C   UNL A   1      45.042  25.178  26.294  1.00  0.00     0.031 A 
ATOM     50  C   UNL A   1      46.412  25.795  26.209  1.00  0.00     0.074 A 
ATOM     51  C   UNL A   1      44.025  25.880  26.829  1.00  0.00     0.049 A 
ATOM     52  N   UNL A   1      46.812  26.987  26.575  1.00  0.00    -0.248 NA
ATOM     53  C   UNL A   1      47.484  24.947  25.662  1.00  0.00     0.031 C 
ATOM     54  C   UNL A   1      42.658  25.390  27.001  1.00  0.00     0.029 A 
ATOM     55  N   UNL A   1      43.986  27.160  27.323  1.00  0.00    -0.354 N 
ATOM     56  C   UNL A   1      48.179  27.023  26.321  1.00  0.00     0.074 A 
ATOM     57  C   UNL A   1      48.550  25.713  25.831  1.00  0.00     0.031 C 
ATOM     58  C   UNL A   1      41.904  26.369  27.524  1.00  0.00     0.029 A 
ATOM     59  C   UNL A   1      42.740  27.543  27.756  1.00  0.00     0.049 A 
ATOM     60  H   UNL A   1      44.775  27.746  27.364  1.00  0.00     0.167 HD
ATOM     61  C   UNL A   1      49.043  28.058  26.458  1.00  0.00     0.037 A 
ATOM     62  C   UNL A   1      42.319  28.714  28.271  1.00  0.00     0.037 A 
ATOM     63  C   UNL A   1      48.669  29.366  26.930  1.00  0.00     0.049 A 
ATOM     64  C   UNL A   1      43.296  29.845  28.427  1.00  0.00     0.074 A 
ATOM     65  C   UNL A   1      49.455  30.497  27.055  1.00  0.00     0.029 A 
ATOM     66  N   UNL A   1      47.397  29.713  27.362  1.00  0.00    -0.354 N 
ATOM     67  N   UNL A   1      44.570  29.889  28.121  1.00  0.00    -0.248 NA
ATOM     68  C   UNL A   1      42.770  31.096  28.990  1.00  0.00     0.031 C 
ATOM     69  C   UNL A   1      48.671  31.515  27.612  1.00  0.00     0.029 A 
ATOM     70  C   UNL A   1      47.381  31.036  27.776  1.00  0.00     0.049 A 
ATOM     71  H   UNL A   1      46.619  29.109  27.372  1.00  0.00     0.167 HD
ATOM     72  C   UNL A   1      44.988  31.181  28.414  1.00  0.00     0.074 A 
ATOM     73  C   UNL A   1      43.830  31.889  28.919  1.00  0.00     0.031 C 
ATOM     74  C   UNL A   1      46.218  31.733  28.269  1.00  0.00     0.037 A 
BRANCH  61  75
ATOM     75  C   UNL A   1      50.483  27.799  26.105  1.00  0.00     0.057 A 
ATOM     76  C   UNL A   1      51.458  27.558  27.083  1.00  0.00     0.134 A 
ATOM     77  C   UNL A   1      50.904  27.805  24.769  1.00  0.00     0.134 A 
ATOM     78  F   UNL A   1      51.129  27.547  28.383  1.00  0.00    -0.206 F 
ATOM     79  C   UNL A   1      52.803  27.383  26.750  1.00  0.00     0.040 A 
ATOM     80  C   UNL A   1      52.239  27.597  24.421  1.00  0.00     0.040 A 
ATOM     81  F   UNL A   1      50.024  28.018  23.778  1.00  0.00    -0.206 F 
ATOM     82  C   UNL A   1      53.196  27.400  25.414  1.00  0.00     0.006 A 
ENDBRANCH  61  75
BRANCH  62  83
ATOM     83  C   UNL A   1      40.887  28.892  28.620  1.00  0.00     0.057 A 
ATOM     84  C   UNL A   1      39.939  29.177  27.630  1.00  0.00     0.134 A 
ATOM     85  C   UNL A   1      40.429  28.772  29.937  1.00  0.00     0.134 A 
ATOM     86  F   UNL A   1      40.320  29.320  26.352  1.00  0.00    -0.206 F 
ATOM     87  C   UNL A   1      38.589  29.348  27.937  1.00  0.00     0.040 A 
ATOM     88  C   UNL A   1      39.077  28.918  30.256  1.00  0.00     0.040 A 
ATOM     89  F   UNL A   1      41.286  28.494  30.930  1.00  0.00    -0.206 F 
ATOM     90  C   UNL A   1      38.154  29.212  29.254  1.00  0.00     0.006 A 
ENDBRANCH  62  83
BRANCH  74  91
ATOM     91  C   UNL A   1      46.364  33.190  28.606  1.00  0.00     0.057 A 
ATOM     92  C   UNL A   1      46.154  34.202  27.660  1.00  0.00     0.134 A 
ATOM     93  C   UNL A   1      46.697  33.585  29.908  1.00  0.00     0.134 A 
ATOM     94  F   UNL A   1      45.845  33.894  26.391  1.00  0.00    -0.206 F 
ATOM     95  C   UNL A   1      46.301  35.551  27.990  1.00  0.00     0.040 A 
ATOM     96  C   UNL A   1      46.816  34.930  30.257  1.00  0.00     0.040 A 
ATOM     97  F   UNL A   1      46.902  32.669  30.867  1.00  0.00    -0.206 F 
ATOM     98  C   UNL A   1      46.627  35.919  29.294  1.00  0.00     0.006 A 
ENDBRANCH  74  91
ENDBRANCH  48  49
ENDBRANCH  40  43
ENDBRANCH  38  39
ENDBRANCH  37  38
ENDBRANCH  36  37
ENDBRANCH  35  36
ENDBRANCH   1  35
TORSDOF 20
ENDMDL
