MODEL 1
REMARK VINA RESULT:     -11.3      0.000      0.000
REMARK SMILES Cc1cc(C)n2ncc(C(=O)N(C)CCCC(=O)NCCCCCCNC(=O)c3ccc(-c4c5nc(c(-c6c(F)cccc6F)c6ccc([nH]6)c(-c6c(F)cccc6F)c6nc(c(-c7c(F)cccc7F)c7ccc4[nH]7)C=C6)C=C5)cc3)c2n1
REMARK SMILES IDX 21 1 20 2 19 3 17 4 18 5 16 7 15 8 14 9 12 10 13 11 10 12
REMARK SMILES IDX 11 13 9 14 1 15 2 16 3 17 84 18 4 19 83 20 5 21 6 22 7 23
REMARK SMILES IDX 8 24 22 25 23 26 24 27 25 28 26 29 27 30 28 32 29 33 30 34
REMARK SMILES IDX 82 35 31 36 81 37 32 38 33 39 34 40 75 41 35 42 80 43 74 44
REMARK SMILES IDX 76 45 36 46 79 47 73 48 72 49 37 51 63 52 46 53 62 54 47 55
REMARK SMILES IDX 50 56 61 57 77 58 48 59 49 60 60 62 78 63 51 64 38 65 39 66
REMARK SMILES IDX 44 67 40 68 41 69 43 70 45 71 42 72 64 73 65 74 70 75 66 76
REMARK SMILES IDX 67 77 69 78 71 79 68 80 52 81 53 82 58 83 54 84 55 85 57 86
REMARK SMILES IDX 59 87 56 88
REMARK H PARENT 19 6 26 31 76 50 50 61
REMARK Flexibility Score: inf
ROOT
ATOM      1  C   UNL A   1      38.352  22.085  26.255  1.00  0.00     0.021 C 
ENDROOT
BRANCH   1   2
ATOM      2  C   UNL A   1      37.522  23.255  25.717  1.00  0.00     0.116 C 
BRANCH   2   3
ATOM      3  N   UNL A   1      37.307  23.129  24.298  1.00  0.00    -0.356 N 
ATOM      4  C   UNL A   1      36.202  22.877  23.562  1.00  0.00     0.220 C 
ATOM      5  O   UNL A   1      36.361  22.930  22.334  1.00  0.00    -0.275 OA
ATOM      6  H   UNL A   1      38.123  23.249  23.761  1.00  0.00     0.163 HD
BRANCH   4   7
ATOM      7  C   UNL A   1      34.802  22.654  24.115  1.00  0.00     0.102 C 
BRANCH   7   8
ATOM      8  C   UNL A   1      34.316  21.362  24.788  1.00  0.00     0.031 C 
BRANCH   8   9
ATOM      9  C   UNL A   1      33.177  21.246  25.815  1.00  0.00     0.120 C 
BRANCH   9  10
ATOM     10  N   UNL A   1      32.794  22.277  26.819  1.00  0.00    -0.342 N 
ATOM     11  C   UNL A   1      33.868  22.539  27.766  1.00  0.00     0.147 C 
BRANCH  10  12
ATOM     12  C   UNL A   1      31.597  23.014  26.714  1.00  0.00     0.259 C 
ATOM     13  O   UNL A   1      30.793  22.954  27.634  1.00  0.00    -0.269 OA
BRANCH  12  14
ATOM     14  C   UNL A   1      31.224  23.848  25.563  1.00  0.00     0.104 A 
ATOM     15  C   UNL A   1      31.685  28.379  27.483  1.00  0.00     0.067 C 
ATOM     16  C   UNL A   1      31.408  27.398  26.369  1.00  0.00     0.042 A 
ATOM     17  C   UNL A   1      31.236  27.962  24.997  1.00  0.00     0.047 A 
ATOM     18  N   UNL A   1      31.351  26.130  26.660  1.00  0.00    -0.233 NA
ATOM     19  C   UNL A   1      30.992  27.074  24.016  1.00  0.00     0.043 A 
ATOM     20  C   UNL A   1      31.164  25.246  25.624  1.00  0.00     0.168 A 
ATOM     21  C   UNL A   1      30.813  27.485  22.587  1.00  0.00     0.067 C 
ATOM     22  N   UNL A   1      30.942  25.707  24.322  1.00  0.00    -0.219 N 
ATOM     23  N   UNL A   1      30.733  24.675  23.470  1.00  0.00    -0.174 NA
ATOM     24  C   UNL A   1      30.969  23.587  24.203  1.00  0.00     0.151 A 
ENDBRANCH  12  14
ENDBRANCH  10  12
ENDBRANCH   9  10
ENDBRANCH   8   9
ENDBRANCH   7   8
ENDBRANCH   4   7
ENDBRANCH   2   3
ENDBRANCH   1   2
BRANCH   1  25
ATOM     25  C   UNL A   1      39.846  22.402  26.372  1.00  0.00     0.002 C 
BRANCH  25  26
ATOM     26  C   UNL A   1      40.679  21.349  27.122  1.00  0.00     0.002 C 
BRANCH  26  27
ATOM     27  C   UNL A   1      41.335  20.258  26.262  1.00  0.00     0.021 C 
BRANCH  27  28
ATOM     28  C   UNL A   1      42.691  19.827  26.787  1.00  0.00     0.116 C 
BRANCH  28  29
ATOM     29  N   UNL A   1      43.712  19.767  25.733  1.00  0.00    -0.352 N 
ATOM     30  C   UNL A   1      44.225  20.803  24.968  1.00  0.00     0.251 C 
ATOM     31  H   UNL A   1      44.079  18.873  25.545  1.00  0.00     0.163 HD
ATOM     32  O   UNL A   1      44.843  20.604  23.941  1.00  0.00    -0.269 OA
BRANCH  30  33
ATOM     33  C   UNL A   1      44.022  22.170  25.470  1.00  0.00     0.039 A 
ATOM     34  C   UNL A   1      43.137  23.076  24.880  1.00  0.00     0.014 A 
ATOM     35  C   UNL A   1      44.724  22.495  26.620  1.00  0.00     0.014 A 
ATOM     36  C   UNL A   1      42.941  24.306  25.505  1.00  0.00     0.010 A 
ATOM     37  C   UNL A   1      44.316  23.555  27.364  1.00  0.00     0.010 A 
ATOM     38  C   UNL A   1      43.547  24.530  26.748  1.00  0.00    -0.014 A 
BRANCH  38  39
ATOM     39  C   UNL A   1      43.404  25.768  27.493  1.00  0.00     0.031 A 
ATOM     40  C   UNL A   1      44.391  26.823  27.146  1.00  0.00     0.074 A 
ATOM     41  C   UNL A   1      42.278  25.996  28.211  1.00  0.00     0.049 A 
ATOM     42  N   UNL A   1      45.261  27.379  27.921  1.00  0.00    -0.248 NA
ATOM     43  C   UNL A   1      44.520  27.217  25.731  1.00  0.00     0.031 C 
ATOM     44  C   UNL A   1      41.084  25.143  28.356  1.00  0.00     0.029 A 
ATOM     45  N   UNL A   1      41.901  27.125  28.862  1.00  0.00    -0.354 N 
ATOM     46  C   UNL A   1      45.908  28.338  27.146  1.00  0.00     0.074 A 
ATOM     47  C   UNL A   1      45.540  28.075  25.780  1.00  0.00     0.031 C 
ATOM     48  C   UNL A   1      40.046  25.877  28.813  1.00  0.00     0.029 A 
ATOM     49  C   UNL A   1      40.544  27.184  29.179  1.00  0.00     0.049 A 
ATOM     50  H   UNL A   1      42.534  27.843  29.093  1.00  0.00     0.167 HD
ATOM     51  C   UNL A   1      46.514  29.417  27.714  1.00  0.00     0.037 A 
ATOM     52  C   UNL A   1      39.896  28.274  29.661  1.00  0.00     0.037 A 
ATOM     53  C   UNL A   1      46.695  29.233  29.130  1.00  0.00     0.049 A 
ATOM     54  C   UNL A   1      40.941  29.180  30.211  1.00  0.00     0.074 A 
ATOM     55  C   UNL A   1      47.400  28.328  29.900  1.00  0.00     0.029 A 
ATOM     56  N   UNL A   1      45.765  29.794  29.970  1.00  0.00    -0.354 N 
ATOM     57  N   UNL A   1      41.679  28.880  31.246  1.00  0.00    -0.248 NA
ATOM     58  C   UNL A   1      41.506  30.165  29.302  1.00  0.00     0.031 C 
ATOM     59  C   UNL A   1      46.533  28.026  30.992  1.00  0.00     0.029 A 
ATOM     60  C   UNL A   1      45.395  28.825  30.871  1.00  0.00     0.049 A 
ATOM     61  H   UNL A   1      45.428  30.718  29.935  1.00  0.00     0.167 HD
ATOM     62  C   UNL A   1      42.955  29.310  30.910  1.00  0.00     0.074 A 
ATOM     63  C   UNL A   1      42.776  30.137  29.716  1.00  0.00     0.031 C 
ATOM     64  C   UNL A   1      44.069  28.719  31.436  1.00  0.00     0.037 A 
BRANCH  51  65
ATOM     65  C   UNL A   1      46.621  30.766  27.060  1.00  0.00     0.057 A 
ATOM     66  C   UNL A   1      47.867  31.412  26.999  1.00  0.00     0.134 A 
ATOM     67  C   UNL A   1      45.509  31.569  26.739  1.00  0.00     0.134 A 
ATOM     68  F   UNL A   1      48.996  30.757  27.310  1.00  0.00    -0.206 F 
ATOM     69  C   UNL A   1      47.990  32.772  26.690  1.00  0.00     0.040 A 
ATOM     70  C   UNL A   1      45.624  32.913  26.378  1.00  0.00     0.040 A 
ATOM     71  F   UNL A   1      44.251  31.125  26.855  1.00  0.00    -0.206 F 
ATOM     72  C   UNL A   1      46.866  33.528  26.380  1.00  0.00     0.006 A 
ENDBRANCH  51  65
BRANCH  52  73
ATOM     73  C   UNL A   1      38.536  28.749  29.318  1.00  0.00     0.057 A 
ATOM     74  C   UNL A   1      37.553  28.899  30.305  1.00  0.00     0.134 A 
ATOM     75  C   UNL A   1      38.260  29.350  28.074  1.00  0.00     0.134 A 
ATOM     76  F   UNL A   1      37.743  28.395  31.533  1.00  0.00    -0.206 F 
ATOM     77  C   UNL A   1      36.377  29.630  30.081  1.00  0.00     0.040 A 
ATOM     78  C   UNL A   1      37.090  30.078  27.838  1.00  0.00     0.040 A 
ATOM     79  F   UNL A   1      39.160  29.328  27.080  1.00  0.00    -0.206 F 
ATOM     80  C   UNL A   1      36.150  30.235  28.848  1.00  0.00     0.006 A 
ENDBRANCH  52  73
BRANCH  64  81
ATOM     81  C   UNL A   1      43.885  27.704  32.536  1.00  0.00     0.057 A 
ATOM     82  C   UNL A   1      43.874  26.313  32.336  1.00  0.00     0.134 A 
ATOM     83  C   UNL A   1      43.899  28.143  33.862  1.00  0.00     0.134 A 
ATOM     84  F   UNL A   1      43.957  25.789  31.109  1.00  0.00    -0.206 F 
ATOM     85  C   UNL A   1      43.847  25.408  33.403  1.00  0.00     0.040 A 
ATOM     86  C   UNL A   1      43.904  27.251  34.938  1.00  0.00     0.040 A 
ATOM     87  F   UNL A   1      43.967  29.455  34.136  1.00  0.00    -0.206 F 
ATOM     88  C   UNL A   1      43.870  25.878  34.711  1.00  0.00     0.006 A 
ENDBRANCH  64  81
ENDBRANCH  38  39
ENDBRANCH  30  33
ENDBRANCH  28  29
ENDBRANCH  27  28
ENDBRANCH  26  27
ENDBRANCH  25  26
ENDBRANCH   1  25
TORSDOF 18
ENDMDL
MODEL 2
REMARK VINA RESULT:     -10.8      2.700      8.106
REMARK SMILES Cc1cc(C)n2ncc(C(=O)N(C)CCCC(=O)NCCCCCCNC(=O)c3ccc(-c4c5nc(c(-c6c(F)cccc6F)c6ccc([nH]6)c(-c6c(F)cccc6F)c6nc(c(-c7c(F)cccc7F)c7ccc4[nH]7)C=C6)C=C5)cc3)c2n1
REMARK SMILES IDX 21 1 20 2 19 3 17 4 18 5 16 7 15 8 14 9 12 10 13 11 10 12
REMARK SMILES IDX 11 13 9 14 1 15 2 16 3 17 84 18 4 19 83 20 5 21 6 22 7 23
REMARK SMILES IDX 8 24 22 25 23 26 24 27 25 28 26 29 27 30 28 32 29 33 30 34
REMARK SMILES IDX 82 35 31 36 81 37 32 38 33 39 34 40 75 41 35 42 80 43 74 44
REMARK SMILES IDX 76 45 36 46 79 47 73 48 72 49 37 51 63 52 46 53 62 54 47 55
REMARK SMILES IDX 50 56 61 57 77 58 48 59 49 60 60 62 78 63 51 64 38 65 39 66
REMARK SMILES IDX 44 67 40 68 41 69 43 70 45 71 42 72 64 73 65 74 70 75 66 76
REMARK SMILES IDX 67 77 69 78 71 79 68 80 52 81 53 82 58 83 54 84 55 85 57 86
REMARK SMILES IDX 59 87 56 88
REMARK H PARENT 19 6 26 31 76 50 50 61
REMARK Flexibility Score: inf
ROOT
ATOM      1  C   UNL A   1      33.301  29.156  24.064  1.00  0.00     0.021 C 
ENDROOT
BRANCH   1   2
ATOM      2  C   UNL A   1      33.047  28.677  22.631  1.00  0.00     0.116 C 
BRANCH   2   3
ATOM      3  N   UNL A   1      31.850  29.269  22.091  1.00  0.00    -0.356 N 
ATOM      4  C   UNL A   1      30.541  29.112  22.389  1.00  0.00     0.220 C 
ATOM      5  O   UNL A   1      29.766  29.860  21.777  1.00  0.00    -0.275 OA
ATOM      6  H   UNL A   1      32.018  29.911  21.365  1.00  0.00     0.163 HD
BRANCH   4   7
ATOM      7  C   UNL A   1      29.983  28.193  23.465  1.00  0.00     0.102 C 
BRANCH   7   8
ATOM      8  C   UNL A   1      30.186  26.672  23.519  1.00  0.00     0.031 C 
BRANCH   8   9
ATOM      9  C   UNL A   1      30.239  25.806  24.789  1.00  0.00     0.120 C 
BRANCH   9  10
ATOM     10  N   UNL A   1      30.927  24.492  24.926  1.00  0.00    -0.342 N 
ATOM     11  C   UNL A   1      30.746  23.659  23.746  1.00  0.00     0.147 C 
BRANCH  10  12
ATOM     12  C   UNL A   1      31.790  24.210  26.004  1.00  0.00     0.259 C 
ATOM     13  O   UNL A   1      31.345  24.284  27.142  1.00  0.00    -0.269 OA
BRANCH  12  14
ATOM     14  C   UNL A   1      33.207  23.845  25.871  1.00  0.00     0.104 A 
ATOM     15  C   UNL A   1      32.870  18.958  25.210  1.00  0.00     0.067 C 
ATOM     16  C   UNL A   1      33.618  20.266  25.315  1.00  0.00     0.042 A 
ATOM     17  C   UNL A   1      35.072  20.245  24.975  1.00  0.00     0.047 A 
ATOM     18  N   UNL A   1      32.958  21.329  25.675  1.00  0.00    -0.233 NA
ATOM     19  C   UNL A   1      35.722  21.417  25.071  1.00  0.00     0.043 A 
ATOM     20  C   UNL A   1      33.639  22.523  25.701  1.00  0.00     0.168 A 
ATOM     21  C   UNL A   1      37.177  21.558  24.749  1.00  0.00     0.067 C 
ATOM     22  N   UNL A   1      35.014  22.568  25.447  1.00  0.00    -0.219 N 
ATOM     23  N   UNL A   1      35.491  23.829  25.574  1.00  0.00    -0.174 NA
ATOM     24  C   UNL A   1      34.404  24.578  25.757  1.00  0.00     0.151 A 
ENDBRANCH  12  14
ENDBRANCH  10  12
ENDBRANCH   9  10
ENDBRANCH   8   9
ENDBRANCH   7   8
ENDBRANCH   4   7
ENDBRANCH   2   3
ENDBRANCH   1   2
BRANCH   1  25
ATOM     25  C   UNL A   1      33.370  28.015  25.083  1.00  0.00     0.002 C 
BRANCH  25  26
ATOM     26  C   UNL A   1      32.981  28.400  26.521  1.00  0.00     0.002 C 
BRANCH  26  27
ATOM     27  C   UNL A   1      32.888  29.903  26.824  1.00  0.00     0.021 C 
BRANCH  27  28
ATOM     28  C   UNL A   1      34.202  30.492  27.301  1.00  0.00     0.116 C 
BRANCH  28  29
ATOM     29  N   UNL A   1      34.021  31.483  28.369  1.00  0.00    -0.352 N 
ATOM     30  C   UNL A   1      34.840  31.737  29.460  1.00  0.00     0.251 C 
ATOM     31  H   UNL A   1      33.213  32.040  28.304  1.00  0.00     0.163 HD
ATOM     32  O   UNL A   1      34.455  32.367  30.424  1.00  0.00    -0.269 OA
BRANCH  30  33
ATOM     33  C   UNL A   1      36.221  31.236  29.391  1.00  0.00     0.039 A 
ATOM     34  C   UNL A   1      37.329  32.072  29.238  1.00  0.00     0.014 A 
ATOM     35  C   UNL A   1      36.368  29.867  29.553  1.00  0.00     0.014 A 
ATOM     36  C   UNL A   1      38.598  31.500  29.296  1.00  0.00     0.010 A 
ATOM     37  C   UNL A   1      37.586  29.372  29.894  1.00  0.00     0.010 A 
ATOM     38  C   UNL A   1      38.706  30.141  29.621  1.00  0.00    -0.014 A 
BRANCH  38  39
ATOM     39  C   UNL A   1      39.976  29.443  29.720  1.00  0.00     0.031 A 
ATOM     40  C   UNL A   1      40.456  29.214  31.106  1.00  0.00     0.074 A 
ATOM     41  C   UNL A   1      40.486  28.817  28.632  1.00  0.00     0.049 A 
ATOM     42  N   UNL A   1      41.548  29.640  31.647  1.00  0.00    -0.248 NA
ATOM     43  C   UNL A   1      39.550  28.539  32.054  1.00  0.00     0.031 C 
ATOM     44  C   UNL A   1      39.917  28.706  27.276  1.00  0.00     0.029 A 
ATOM     45  N   UNL A   1      41.576  28.014  28.549  1.00  0.00    -0.354 N 
ATOM     46  C   UNL A   1      41.567  29.118  32.937  1.00  0.00     0.074 A 
ATOM     47  C   UNL A   1      40.247  28.603  33.190  1.00  0.00     0.031 C 
ATOM     48  C   UNL A   1      40.513  27.694  26.608  1.00  0.00     0.029 A 
ATOM     49  C   UNL A   1      41.626  27.223  27.402  1.00  0.00     0.049 A 
ATOM     50  H   UNL A   1      42.276  27.992  29.242  1.00  0.00     0.167 HD
ATOM     51  C   UNL A   1      42.736  28.942  33.613  1.00  0.00     0.037 A 
ATOM     52  C   UNL A   1      42.510  26.219  27.177  1.00  0.00     0.037 A 
ATOM     53  C   UNL A   1      43.815  29.667  32.994  1.00  0.00     0.049 A 
ATOM     54  C   UNL A   1      43.645  26.436  28.114  1.00  0.00     0.074 A 
ATOM     55  C   UNL A   1      44.061  31.004  32.750  1.00  0.00     0.029 A 
ATOM     56  N   UNL A   1      44.645  28.974  32.147  1.00  0.00    -0.354 N 
ATOM     57  N   UNL A   1      44.449  27.463  28.043  1.00  0.00    -0.248 NA
ATOM     58  C   UNL A   1      43.557  25.797  29.418  1.00  0.00     0.031 C 
ATOM     59  C   UNL A   1      44.625  31.038  31.441  1.00  0.00     0.029 A 
ATOM     60  C   UNL A   1      44.771  29.721  31.001  1.00  0.00     0.049 A 
ATOM     61  H   UNL A   1      45.072  28.106  32.327  1.00  0.00     0.167 HD
ATOM     62  C   UNL A   1      44.641  27.856  29.360  1.00  0.00     0.074 A 
ATOM     63  C   UNL A   1      44.102  26.760  30.167  1.00  0.00     0.031 C 
ATOM     64  C   UNL A   1      44.936  29.150  29.684  1.00  0.00     0.037 A 
BRANCH  51  65
ATOM     65  C   UNL A   1      42.976  27.848  34.616  1.00  0.00     0.057 A 
ATOM     66  C   UNL A   1      43.186  26.532  34.171  1.00  0.00     0.134 A 
ATOM     67  C   UNL A   1      42.735  27.988  35.997  1.00  0.00     0.134 A 
ATOM     68  F   UNL A   1      43.399  26.271  32.873  1.00  0.00    -0.206 F 
ATOM     69  C   UNL A   1      43.111  25.431  35.033  1.00  0.00     0.040 A 
ATOM     70  C   UNL A   1      42.710  26.902  36.875  1.00  0.00     0.040 A 
ATOM     71  F   UNL A   1      42.412  29.164  36.549  1.00  0.00    -0.206 F 
ATOM     72  C   UNL A   1      42.870  25.614  36.390  1.00  0.00     0.006 A 
ENDBRANCH  51  65
BRANCH  52  73
ATOM     73  C   UNL A   1      42.256  24.912  26.529  1.00  0.00     0.057 A 
ATOM     74  C   UNL A   1      43.045  24.471  25.458  1.00  0.00     0.134 A 
ATOM     75  C   UNL A   1      41.435  23.940  27.132  1.00  0.00     0.134 A 
ATOM     76  F   UNL A   1      43.887  25.315  24.845  1.00  0.00    -0.206 F 
ATOM     77  C   UNL A   1      43.044  23.135  25.031  1.00  0.00     0.040 A 
ATOM     78  C   UNL A   1      41.422  22.605  26.714  1.00  0.00     0.040 A 
ATOM     79  F   UNL A   1      40.690  24.234  28.208  1.00  0.00    -0.206 F 
ATOM     80  C   UNL A   1      42.241  22.194  25.670  1.00  0.00     0.006 A 
ENDBRANCH  52  73
BRANCH  64  81
ATOM     81  C   UNL A   1      45.230  30.115  28.563  1.00  0.00     0.057 A 
ATOM     82  C   UNL A   1      44.259  30.898  27.917  1.00  0.00     0.134 A 
ATOM     83  C   UNL A   1      46.563  30.392  28.251  1.00  0.00     0.134 A 
ATOM     84  F   UNL A   1      42.962  30.779  28.216  1.00  0.00    -0.206 F 
ATOM     85  C   UNL A   1      44.599  31.885  26.984  1.00  0.00     0.040 A 
ATOM     86  C   UNL A   1      46.919  31.395  27.345  1.00  0.00     0.040 A 
ATOM     87  F   UNL A   1      47.552  29.726  28.868  1.00  0.00    -0.206 F 
ATOM     88  C   UNL A   1      45.936  32.141  26.702  1.00  0.00     0.006 A 
ENDBRANCH  64  81
ENDBRANCH  38  39
ENDBRANCH  30  33
ENDBRANCH  28  29
ENDBRANCH  27  28
ENDBRANCH  26  27
ENDBRANCH  25  26
ENDBRANCH   1  25
TORSDOF 18
ENDMDL
MODEL 3
REMARK VINA RESULT:     -10.7      1.256      2.561
REMARK SMILES Cc1cc(C)n2ncc(C(=O)N(C)CCCC(=O)NCCCCCCNC(=O)c3ccc(-c4c5nc(c(-c6c(F)cccc6F)c6ccc([nH]6)c(-c6c(F)cccc6F)c6nc(c(-c7c(F)cccc7F)c7ccc4[nH]7)C=C6)C=C5)cc3)c2n1
REMARK SMILES IDX 21 1 20 2 19 3 17 4 18 5 16 7 15 8 14 9 12 10 13 11 10 12
REMARK SMILES IDX 11 13 9 14 1 15 2 16 3 17 84 18 4 19 83 20 5 21 6 22 7 23
REMARK SMILES IDX 8 24 22 25 23 26 24 27 25 28 26 29 27 30 28 32 29 33 30 34
REMARK SMILES IDX 82 35 31 36 81 37 32 38 33 39 34 40 75 41 35 42 80 43 74 44
REMARK SMILES IDX 76 45 36 46 79 47 73 48 72 49 37 51 63 52 46 53 62 54 47 55
REMARK SMILES IDX 50 56 61 57 77 58 48 59 49 60 60 62 78 63 51 64 38 65 39 66
REMARK SMILES IDX 44 67 40 68 41 69 43 70 45 71 42 72 64 73 65 74 70 75 66 76
REMARK SMILES IDX 67 77 69 78 71 79 68 80 52 81 53 82 58 83 54 84 55 85 57 86
REMARK SMILES IDX 59 87 56 88
REMARK H PARENT 19 6 26 31 76 50 50 61
REMARK Flexibility Score: inf
ROOT
ATOM      1  C   UNL A   1      39.026  21.913  26.491  1.00  0.00     0.021 C 
ENDROOT
BRANCH   1   2
ATOM      2  C   UNL A   1      38.169  23.079  25.989  1.00  0.00     0.116 C 
BRANCH   2   3
ATOM      3  N   UNL A   1      37.778  22.883  24.617  1.00  0.00    -0.356 N 
ATOM      4  C   UNL A   1      36.645  23.176  23.941  1.00  0.00     0.220 C 
ATOM      5  O   UNL A   1      36.681  22.949  22.723  1.00  0.00    -0.275 OA
ATOM      6  H   UNL A   1      38.470  22.453  24.065  1.00  0.00     0.163 HD
BRANCH   4   7
ATOM      7  C   UNL A   1      35.412  23.846  24.529  1.00  0.00     0.102 C 
BRANCH   7   8
ATOM      8  C   UNL A   1      34.659  25.023  23.892  1.00  0.00     0.031 C 
BRANCH   8   9
ATOM      9  C   UNL A   1      33.626  24.933  22.757  1.00  0.00     0.120 C 
BRANCH   9  10
ATOM     10  N   UNL A   1      32.149  25.059  22.903  1.00  0.00    -0.342 N 
ATOM     11  C   UNL A   1      31.687  26.407  22.606  1.00  0.00     0.147 C 
BRANCH  10  12
ATOM     12  C   UNL A   1      31.322  23.939  23.121  1.00  0.00     0.259 C 
ATOM     13  O   UNL A   1      30.132  24.126  23.337  1.00  0.00    -0.269 OA
BRANCH  12  14
ATOM     14  C   UNL A   1      31.783  22.544  23.128  1.00  0.00     0.104 A 
ATOM     15  C   UNL A   1      33.361  22.088  27.790  1.00  0.00     0.067 C 
ATOM     16  C   UNL A   1      33.067  21.577  26.399  1.00  0.00     0.042 A 
ATOM     17  C   UNL A   1      33.207  20.107  26.174  1.00  0.00     0.047 A 
ATOM     18  N   UNL A   1      32.695  22.432  25.491  1.00  0.00    -0.233 NA
ATOM     19  C   UNL A   1      32.939  19.669  24.931  1.00  0.00     0.043 A 
ATOM     20  C   UNL A   1      32.368  21.941  24.249  1.00  0.00     0.168 A 
ATOM     21  C   UNL A   1      33.021  18.221  24.555  1.00  0.00     0.067 C 
ATOM     22  N   UNL A   1      32.527  20.584  23.952  1.00  0.00    -0.219 N 
ATOM     23  N   UNL A   1      32.195  20.325  22.665  1.00  0.00    -0.174 NA
ATOM     24  C   UNL A   1      31.696  21.476  22.214  1.00  0.00     0.151 A 
ENDBRANCH  12  14
ENDBRANCH  10  12
ENDBRANCH   9  10
ENDBRANCH   8   9
ENDBRANCH   7   8
ENDBRANCH   4   7
ENDBRANCH   2   3
ENDBRANCH   1   2
BRANCH   1  25
ATOM     25  C   UNL A   1      40.511  22.263  26.626  1.00  0.00     0.002 C 
BRANCH  25  26
ATOM     26  C   UNL A   1      41.265  21.496  27.726  1.00  0.00     0.002 C 
BRANCH  26  27
ATOM     27  C   UNL A   1      42.087  20.282  27.270  1.00  0.00     0.021 C 
BRANCH  27  28
ATOM     28  C   UNL A   1      42.164  20.152  25.761  1.00  0.00     0.116 C 
BRANCH  28  29
ATOM     29  N   UNL A   1      43.536  19.943  25.281  1.00  0.00    -0.352 N 
ATOM     30  C   UNL A   1      44.487  20.895  24.943  1.00  0.00     0.251 C 
ATOM     31  H   UNL A   1      43.818  19.005  25.186  1.00  0.00     0.163 HD
ATOM     32  O   UNL A   1      45.474  20.619  24.291  1.00  0.00    -0.269 OA
BRANCH  30  33
ATOM     33  C   UNL A   1      44.272  22.262  25.439  1.00  0.00     0.039 A 
ATOM     34  C   UNL A   1      43.448  23.188  24.794  1.00  0.00     0.014 A 
ATOM     35  C   UNL A   1      44.894  22.567  26.641  1.00  0.00     0.014 A 
ATOM     36  C   UNL A   1      43.230  24.417  25.412  1.00  0.00     0.010 A 
ATOM     37  C   UNL A   1      44.451  23.630  27.361  1.00  0.00     0.010 A 
ATOM     38  C   UNL A   1      43.747  24.623  26.698  1.00  0.00    -0.014 A 
BRANCH  38  39
ATOM     39  C   UNL A   1      43.572  25.858  27.440  1.00  0.00     0.031 A 
ATOM     40  C   UNL A   1      44.537  26.934  27.097  1.00  0.00     0.074 A 
ATOM     41  C   UNL A   1      42.437  26.061  28.152  1.00  0.00     0.049 A 
ATOM     42  N   UNL A   1      45.390  27.511  27.875  1.00  0.00    -0.248 NA
ATOM     43  C   UNL A   1      44.664  27.329  25.682  1.00  0.00     0.031 C 
ATOM     44  C   UNL A   1      41.262  25.182  28.291  1.00  0.00     0.029 A 
ATOM     45  N   UNL A   1      42.031  27.183  28.798  1.00  0.00    -0.354 N 
ATOM     46  C   UNL A   1      46.019  28.483  27.102  1.00  0.00     0.074 A 
ATOM     47  C   UNL A   1      45.665  28.210  25.734  1.00  0.00     0.031 C 
ATOM     48  C   UNL A   1      40.205  25.893  28.741  1.00  0.00     0.029 A 
ATOM     49  C   UNL A   1      40.671  27.212  29.107  1.00  0.00     0.049 A 
ATOM     50  H   UNL A   1      42.647  27.915  29.031  1.00  0.00     0.167 HD
ATOM     51  C   UNL A   1      46.597  29.577  27.671  1.00  0.00     0.037 A 
ATOM     52  C   UNL A   1      39.997  28.287  29.584  1.00  0.00     0.037 A 
ATOM     53  C   UNL A   1      46.775  29.398  29.088  1.00  0.00     0.049 A 
ATOM     54  C   UNL A   1      41.017  29.217  30.138  1.00  0.00     0.074 A 
ATOM     55  C   UNL A   1      47.495  28.511  29.864  1.00  0.00     0.029 A 
ATOM     56  N   UNL A   1      45.828  29.940  29.923  1.00  0.00    -0.354 N 
ATOM     57  N   UNL A   1      41.756  28.936  31.178  1.00  0.00    -0.248 NA
ATOM     58  C   UNL A   1      41.565  30.214  29.231  1.00  0.00     0.031 C 
ATOM     59  C   UNL A   1      46.630  28.192  30.951  1.00  0.00     0.029 A 
ATOM     60  C   UNL A   1      45.474  28.964  30.823  1.00  0.00     0.049 A 
ATOM     61  H   UNL A   1      45.470  30.856  29.885  1.00  0.00     0.167 HD
ATOM     62  C   UNL A   1      43.024  29.394  30.848  1.00  0.00     0.074 A 
ATOM     63  C   UNL A   1      42.833  30.215  29.652  1.00  0.00     0.031 C 
ATOM     64  C   UNL A   1      44.148  28.829  31.381  1.00  0.00     0.037 A 
BRANCH  51  65
ATOM     65  C   UNL A   1      46.678  30.927  27.015  1.00  0.00     0.057 A 
ATOM     66  C   UNL A   1      47.910  31.597  26.955  1.00  0.00     0.134 A 
ATOM     67  C   UNL A   1      45.549  31.706  26.692  1.00  0.00     0.134 A 
ATOM     68  F   UNL A   1      49.052  30.967  27.268  1.00  0.00    -0.206 F 
ATOM     69  C   UNL A   1      48.006  32.959  26.644  1.00  0.00     0.040 A 
ATOM     70  C   UNL A   1      45.638  33.052  26.330  1.00  0.00     0.040 A 
ATOM     71  F   UNL A   1      44.301  31.237  26.808  1.00  0.00    -0.206 F 
ATOM     72  C   UNL A   1      46.866  33.692  26.332  1.00  0.00     0.006 A 
ENDBRANCH  51  65
BRANCH  52  73
ATOM     73  C   UNL A   1      38.628  28.731  29.233  1.00  0.00     0.057 A 
ATOM     74  C   UNL A   1      37.643  28.882  30.218  1.00  0.00     0.134 A 
ATOM     75  C   UNL A   1      38.341  29.303  27.978  1.00  0.00     0.134 A 
ATOM     76  F   UNL A   1      37.842  28.405  31.455  1.00  0.00    -0.206 F 
ATOM     77  C   UNL A   1      36.453  29.587  29.981  1.00  0.00     0.040 A 
ATOM     78  C   UNL A   1      37.157  30.005  27.729  1.00  0.00     0.040 A 
ATOM     79  F   UNL A   1      39.240  29.278  26.984  1.00  0.00    -0.206 F 
ATOM     80  C   UNL A   1      36.215  30.165  28.737  1.00  0.00     0.006 A 
ENDBRANCH  52  73
BRANCH  64  81
ATOM     81  C   UNL A   1      43.982  27.812  32.482  1.00  0.00     0.057 A 
ATOM     82  C   UNL A   1      43.969  26.421  32.280  1.00  0.00     0.134 A 
ATOM     83  C   UNL A   1      44.014  28.248  33.808  1.00  0.00     0.134 A 
ATOM     84  F   UNL A   1      44.035  25.899  31.051  1.00  0.00    -0.206 F 
ATOM     85  C   UNL A   1      43.959  25.514  33.345  1.00  0.00     0.040 A 
ATOM     86  C   UNL A   1      44.035  27.355  34.882  1.00  0.00     0.040 A 
ATOM     87  F   UNL A   1      44.085  29.560  34.083  1.00  0.00    -0.206 F 
ATOM     88  C   UNL A   1      44.000  25.982  34.654  1.00  0.00     0.006 A 
ENDBRANCH  64  81
ENDBRANCH  38  39
ENDBRANCH  30  33
ENDBRANCH  28  29
ENDBRANCH  27  28
ENDBRANCH  26  27
ENDBRANCH  25  26
ENDBRANCH   1  25
TORSDOF 18
ENDMDL
