MODEL 1
REMARK VINA RESULT:     -12.4      0.000      0.000
REMARK SMILES CN(C)c1ccc(CCC(=O)N2C[C@@H](C(=O)NCCCCCCNC(=O)c3ccc(-c4c5nc(c(-c6c(F)cccc6F)c6ccc([nH]6)c(-c6c(F)cccc6F)c6nc(c(-c7c(F)cccc7F)c7ccc4[nH]7)C=C6)C=C5)cc3)[C@H](c3cccnc3)C2)cc1
REMARK SMILES IDX 19 1 18 2 17 3 15 4 16 5 14 7 12 8 13 9 88 10 81 11 10 12
REMARK SMILES IDX 11 13 9 14 8 15 7 16 4 17 5 18 90 19 6 20 89 21 2 22 1 23
REMARK SMILES IDX 3 24 82 25 83 26 87 27 84 28 86 29 85 30 20 31 21 32 22 33
REMARK SMILES IDX 23 34 24 35 25 36 26 38 27 39 28 40 80 41 29 42 79 43 30 44
REMARK SMILES IDX 31 45 32 46 73 47 33 48 78 49 72 50 74 51 34 52 77 53 71 54
REMARK SMILES IDX 70 55 35 57 61 58 44 59 60 60 45 61 48 62 59 63 75 64 46 65
REMARK SMILES IDX 47 66 58 68 76 69 49 70 36 71 37 72 42 73 38 74 39 75 41 76
REMARK SMILES IDX 43 77 40 78 62 79 63 80 68 81 64 82 65 83 67 84 69 85 66 86
REMARK SMILES IDX 50 87 51 88 56 89 52 90 53 91 55 92 57 93 54 94
REMARK H PARENT 17 6 24 37 74 56 48 67
REMARK Flexibility Score: inf
ROOT
ATOM      1  C   UNL A   1      31.674  28.868  27.072  1.00  0.00     0.021 C 
ENDROOT
BRANCH   1   2
ATOM      2  C   UNL A   1      32.551  27.618  26.983  1.00  0.00     0.116 C 
BRANCH   2   3
ATOM      3  N   UNL A   1      31.706  26.447  27.009  1.00  0.00    -0.356 N 
ATOM      4  C   UNL A   1      30.852  25.995  26.052  1.00  0.00     0.225 C 
ATOM      5  O   UNL A   1      29.734  25.590  26.377  1.00  0.00    -0.275 OA
ATOM      6  H   UNL A   1      31.754  25.903  27.829  1.00  0.00     0.163 HD
BRANCH   4   7
ATOM      7  C   UNL A   1      31.265  25.853  24.615  1.00  0.00     0.107 C 
ATOM      8  N   UNL A   1      32.928  24.869  23.340  1.00  0.00    -0.341 N 
ATOM      9  C   UNL A   1      32.318  24.807  24.613  1.00  0.00     0.133 C 
ATOM     10  C   UNL A   1      32.760  26.216  22.768  1.00  0.00     0.128 C 
ATOM     11  C   UNL A   1      31.805  26.992  23.755  1.00  0.00     0.054 C 
BRANCH   8  12
ATOM     12  C   UNL A   1      33.668  23.809  22.862  1.00  0.00     0.222 C 
ATOM     13  O   UNL A   1      34.898  23.843  22.834  1.00  0.00    -0.275 OA
BRANCH  12  14
ATOM     14  C   UNL A   1      32.882  22.636  22.195  1.00  0.00     0.105 C 
BRANCH  14  15
ATOM     15  C   UNL A   1      31.924  21.707  22.993  1.00  0.00     0.045 C 
BRANCH  15  16
ATOM     16  C   UNL A   1      32.441  20.383  23.557  1.00  0.00    -0.047 A 
ATOM     17  C   UNL A   1      33.082  17.870  24.807  1.00  0.00     0.036 A 
ATOM     18  C   UNL A   1      33.298  19.093  25.457  1.00  0.00     0.026 A 
ATOM     19  C   UNL A   1      32.615  17.934  23.487  1.00  0.00     0.026 A 
ATOM     20  C   UNL A   1      32.988  20.327  24.847  1.00  0.00     0.006 A 
ATOM     21  C   UNL A   1      32.321  19.168  22.860  1.00  0.00     0.006 A 
BRANCH  17  22
ATOM     22  N   UNL A   1      33.389  16.668  25.461  1.00  0.00    -0.378 N 
ATOM     23  C   UNL A   1      34.731  16.174  25.174  1.00  0.00     0.143 C 
ATOM     24  C   UNL A   1      32.379  15.607  25.532  1.00  0.00     0.143 C 
ENDBRANCH  17  22
ENDBRANCH  15  16
ENDBRANCH  14  15
ENDBRANCH  12  14
ENDBRANCH   8  12
BRANCH  11  25
ATOM     25  C   UNL A   1      30.609  27.796  23.260  1.00  0.00    -0.024 A 
ATOM     26  C   UNL A   1      30.814  29.030  22.606  1.00  0.00     0.007 A 
ATOM     27  C   UNL A   1      29.287  27.417  23.413  1.00  0.00     0.115 A 
ATOM     28  C   UNL A   1      29.759  29.842  22.221  1.00  0.00     0.020 A 
ATOM     29  N   UNL A   1      28.230  28.176  23.024  1.00  0.00    -0.264 NA
ATOM     30  C   UNL A   1      28.490  29.375  22.454  1.00  0.00     0.111 A 
ENDBRANCH  11  25
ENDBRANCH   4   7
ENDBRANCH   2   3
ENDBRANCH   1   2
BRANCH   1  31
ATOM     31  C   UNL A   1      32.220  30.048  26.254  1.00  0.00     0.002 C 
BRANCH  31  32
ATOM     32  C   UNL A   1      31.149  31.015  25.740  1.00  0.00     0.002 C 
BRANCH  32  33
ATOM     33  C   UNL A   1      31.162  32.390  26.408  1.00  0.00     0.021 C 
BRANCH  33  34
ATOM     34  C   UNL A   1      32.429  32.686  27.202  1.00  0.00     0.116 C 
BRANCH  34  35
ATOM     35  N   UNL A   1      32.480  34.070  27.639  1.00  0.00    -0.352 N 
ATOM     36  C   UNL A   1      33.291  34.645  28.586  1.00  0.00     0.251 C 
ATOM     37  H   UNL A   1      31.846  34.679  27.196  1.00  0.00     0.163 HD
ATOM     38  O   UNL A   1      33.059  35.772  28.999  1.00  0.00    -0.269 OA
BRANCH  36  39
ATOM     39  C   UNL A   1      34.444  33.882  29.116  1.00  0.00     0.039 A 
ATOM     40  C   UNL A   1      35.734  34.244  28.721  1.00  0.00     0.014 A 
ATOM     41  C   UNL A   1      34.251  32.804  29.984  1.00  0.00     0.014 A 
ATOM     42  C   UNL A   1      36.833  33.548  29.228  1.00  0.00     0.010 A 
ATOM     43  C   UNL A   1      35.349  32.166  30.553  1.00  0.00     0.010 A 
ATOM     44  C   UNL A   1      36.651  32.517  30.165  1.00  0.00    -0.014 A 
BRANCH  44  45
ATOM     45  C   UNL A   1      37.806  31.762  30.714  1.00  0.00     0.031 A 
ATOM     46  C   UNL A   1      38.298  32.053  32.108  1.00  0.00     0.074 A 
ATOM     47  C   UNL A   1      38.436  30.844  29.954  1.00  0.00     0.049 A 
ATOM     48  N   UNL A   1      39.323  31.549  32.747  1.00  0.00    -0.248 NA
ATOM     49  C   UNL A   1      37.552  33.065  32.875  1.00  0.00     0.031 C 
ATOM     50  C   UNL A   1      38.078  30.491  28.580  1.00  0.00     0.029 A 
ATOM     51  N   UNL A   1      39.516  30.045  30.232  1.00  0.00    -0.354 N 
ATOM     52  C   UNL A   1      39.346  32.186  33.983  1.00  0.00     0.074 A 
ATOM     53  C   UNL A   1      38.278  33.160  33.977  1.00  0.00     0.031 C 
ATOM     54  C   UNL A   1      38.904  29.525  28.145  1.00  0.00     0.029 A 
ATOM     55  C   UNL A   1      39.873  29.220  29.192  1.00  0.00     0.049 A 
ATOM     56  H   UNL A   1      39.990  30.059  31.095  1.00  0.00     0.167 HD
ATOM     57  C   UNL A   1      40.161  31.958  35.041  1.00  0.00     0.037 A 
ATOM     58  C   UNL A   1      40.874  28.324  29.095  1.00  0.00     0.037 A 
ATOM     59  C   UNL A   1      41.214  30.977  35.052  1.00  0.00     0.049 A 
ATOM     60  C   UNL A   1      41.789  28.116  30.273  1.00  0.00     0.074 A 
ATOM     61  C   UNL A   1      42.082  30.654  36.079  1.00  0.00     0.029 A 
ATOM     62  N   UNL A   1      41.538  30.159  33.980  1.00  0.00    -0.354 N 
ATOM     63  N   UNL A   1      41.768  28.691  31.451  1.00  0.00    -0.248 NA
ATOM     64  C   UNL A   1      42.861  27.124  30.109  1.00  0.00     0.031 C 
ATOM     65  C   UNL A   1      42.961  29.670  35.616  1.00  0.00     0.029 A 
ATOM     66  C   UNL A   1      42.601  29.337  34.320  1.00  0.00     0.049 A 
ATOM     67  H   UNL A   1      41.082  30.161  33.108  1.00  0.00     0.167 HD
ATOM     68  C   UNL A   1      42.790  28.097  32.182  1.00  0.00     0.074 A 
ATOM     69  C   UNL A   1      43.404  27.112  31.317  1.00  0.00     0.031 C 
ATOM     70  C   UNL A   1      43.183  28.341  33.457  1.00  0.00     0.037 A 
BRANCH  57  71
ATOM     71  C   UNL A   1      39.933  32.778  36.278  1.00  0.00     0.057 A 
ATOM     72  C   UNL A   1      38.972  32.420  37.234  1.00  0.00     0.134 A 
ATOM     73  C   UNL A   1      40.704  33.919  36.538  1.00  0.00     0.134 A 
ATOM     74  F   UNL A   1      38.190  31.346  37.042  1.00  0.00    -0.206 F 
ATOM     75  C   UNL A   1      38.765  33.180  38.385  1.00  0.00     0.040 A 
ATOM     76  C   UNL A   1      40.528  34.671  37.701  1.00  0.00     0.040 A 
ATOM     77  F   UNL A   1      41.647  34.317  35.671  1.00  0.00    -0.206 F 
ATOM     78  C   UNL A   1      39.550  34.306  38.625  1.00  0.00     0.006 A 
ENDBRANCH  57  71
BRANCH  58  79
ATOM     79  C   UNL A   1      41.058  27.529  27.852  1.00  0.00     0.057 A 
ATOM     80  C   UNL A   1      40.444  26.279  27.697  1.00  0.00     0.134 A 
ATOM     81  C   UNL A   1      41.883  27.973  26.813  1.00  0.00     0.134 A 
ATOM     82  F   UNL A   1      39.656  25.791  28.666  1.00  0.00    -0.206 F 
ATOM     83  C   UNL A   1      40.672  25.485  26.573  1.00  0.00     0.040 A 
ATOM     84  C   UNL A   1      42.096  27.202  25.668  1.00  0.00     0.040 A 
ATOM     85  F   UNL A   1      42.494  29.164  26.893  1.00  0.00    -0.206 F 
ATOM     86  C   UNL A   1      41.499  25.948  25.552  1.00  0.00     0.006 A 
ENDBRANCH  58  79
BRANCH  70  87
ATOM     87  C   UNL A   1      44.276  27.478  34.019  1.00  0.00     0.057 A 
ATOM     88  C   UNL A   1      44.018  26.244  34.628  1.00  0.00     0.134 A 
ATOM     89  C   UNL A   1      45.614  27.881  33.919  1.00  0.00     0.134 A 
ATOM     90  F   UNL A   1      42.758  25.803  34.766  1.00  0.00    -0.206 F 
ATOM     91  C   UNL A   1      45.048  25.459  35.149  1.00  0.00     0.040 A 
ATOM     92  C   UNL A   1      46.656  27.090  34.405  1.00  0.00     0.040 A 
ATOM     93  F   UNL A   1      45.934  29.047  33.335  1.00  0.00    -0.206 F 
ATOM     94  C   UNL A   1      46.373  25.879  35.031  1.00  0.00     0.006 A 
ENDBRANCH  70  87
ENDBRANCH  44  45
ENDBRANCH  36  39
ENDBRANCH  34  35
ENDBRANCH  33  34
ENDBRANCH  32  33
ENDBRANCH  31  32
ENDBRANCH   1  31
TORSDOF 19
ENDMDL
MODEL 2
REMARK VINA RESULT:     -12.0      3.377      6.760
REMARK SMILES CN(C)c1ccc(CCC(=O)N2C[C@@H](C(=O)NCCCCCCNC(=O)c3ccc(-c4c5nc(c(-c6c(F)cccc6F)c6ccc([nH]6)c(-c6c(F)cccc6F)c6nc(c(-c7c(F)cccc7F)c7ccc4[nH]7)C=C6)C=C5)cc3)[C@H](c3cccnc3)C2)cc1
REMARK SMILES IDX 19 1 18 2 17 3 15 4 16 5 14 7 12 8 13 9 88 10 81 11 10 12
REMARK SMILES IDX 11 13 9 14 8 15 7 16 4 17 5 18 90 19 6 20 89 21 2 22 1 23
REMARK SMILES IDX 3 24 82 25 83 26 87 27 84 28 86 29 85 30 20 31 21 32 22 33
REMARK SMILES IDX 23 34 24 35 25 36 26 38 27 39 28 40 80 41 29 42 79 43 30 44
REMARK SMILES IDX 31 45 32 46 73 47 33 48 78 49 72 50 74 51 34 52 77 53 71 54
REMARK SMILES IDX 70 55 35 57 61 58 44 59 60 60 45 61 48 62 59 63 75 64 46 65
REMARK SMILES IDX 47 66 58 68 76 69 49 70 36 71 37 72 42 73 38 74 39 75 41 76
REMARK SMILES IDX 43 77 40 78 62 79 63 80 68 81 64 82 65 83 67 84 69 85 66 86
REMARK SMILES IDX 50 87 51 88 56 89 52 90 53 91 55 92 57 93 54 94
REMARK H PARENT 17 6 24 37 74 56 48 67
REMARK Flexibility Score: inf
ROOT
ATOM      1  C   UNL A   1      31.763  23.985  26.547  1.00  0.00     0.021 C 
ENDROOT
BRANCH   1   2
ATOM      2  C   UNL A   1      32.425  22.735  27.131  1.00  0.00     0.116 C 
BRANCH   2   3
ATOM      3  N   UNL A   1      33.802  22.687  26.702  1.00  0.00    -0.356 N 
ATOM      4  C   UNL A   1      34.382  21.850  25.800  1.00  0.00     0.225 C 
ATOM      5  O   UNL A   1      35.478  21.347  26.053  1.00  0.00    -0.275 OA
ATOM      6  H   UNL A   1      34.404  23.346  27.119  1.00  0.00     0.163 HD
BRANCH   4   7
ATOM      7  C   UNL A   1      33.791  21.608  24.441  1.00  0.00     0.107 C 
ATOM      8  N   UNL A   1      32.932  22.795  22.648  1.00  0.00    -0.341 N 
ATOM      9  C   UNL A   1      33.749  22.943  23.791  1.00  0.00     0.133 C 
ATOM     10  C   UNL A   1      31.998  21.671  22.840  1.00  0.00     0.128 C 
ATOM     11  C   UNL A   1      32.423  20.980  24.192  1.00  0.00     0.054 C 
BRANCH   8  12
ATOM     12  C   UNL A   1      32.986  23.713  21.621  1.00  0.00     0.222 C 
ATOM     13  O   UNL A   1      33.501  23.437  20.538  1.00  0.00    -0.275 OA
BRANCH  12  14
ATOM     14  C   UNL A   1      32.527  25.170  21.945  1.00  0.00     0.105 C 
BRANCH  14  15
ATOM     15  C   UNL A   1      31.332  25.482  22.889  1.00  0.00     0.045 C 
BRANCH  15  16
ATOM     16  C   UNL A   1      30.756  26.898  22.947  1.00  0.00    -0.047 A 
ATOM     17  C   UNL A   1      29.597  29.520  22.683  1.00  0.00     0.036 A 
ATOM     18  C   UNL A   1      30.944  29.274  22.381  1.00  0.00     0.026 A 
ATOM     19  C   UNL A   1      28.864  28.444  23.199  1.00  0.00     0.026 A 
ATOM     20  C   UNL A   1      31.517  27.992  22.511  1.00  0.00     0.006 A 
ATOM     21  C   UNL A   1      29.435  27.158  23.353  1.00  0.00     0.006 A 
BRANCH  17  22
ATOM     22  N   UNL A   1      29.069  30.809  22.521  1.00  0.00    -0.378 N 
ATOM     23  C   UNL A   1      28.923  31.541  23.773  1.00  0.00     0.143 C 
ATOM     24  C   UNL A   1      27.958  31.020  21.587  1.00  0.00     0.143 C 
ENDBRANCH  17  22
ENDBRANCH  15  16
ENDBRANCH  14  15
ENDBRANCH  12  14
ENDBRANCH   8  12
BRANCH  11  25
ATOM     25  C   UNL A   1      32.587  19.470  24.313  1.00  0.00    -0.024 A 
ATOM     26  C   UNL A   1      32.673  18.872  25.590  1.00  0.00     0.007 A 
ATOM     27  C   UNL A   1      32.678  18.599  23.242  1.00  0.00     0.115 A 
ATOM     28  C   UNL A   1      32.916  17.518  25.752  1.00  0.00     0.020 A 
ATOM     29  N   UNL A   1      32.890  17.262  23.366  1.00  0.00    -0.264 NA
ATOM     30  C   UNL A   1      33.021  16.758  24.614  1.00  0.00     0.111 A 
ENDBRANCH  11  25
ENDBRANCH   4   7
ENDBRANCH   2   3
ENDBRANCH   1   2
BRANCH   1  31
ATOM     31  C   UNL A   1      32.733  25.164  26.387  1.00  0.00     0.002 C 
BRANCH  31  32
ATOM     32  C   UNL A   1      32.072  26.544  26.450  1.00  0.00     0.002 C 
BRANCH  32  33
ATOM     33  C   UNL A   1      32.936  27.687  25.915  1.00  0.00     0.021 C 
BRANCH  33  34
ATOM     34  C   UNL A   1      33.997  28.177  26.894  1.00  0.00     0.116 C 
BRANCH  34  35
ATOM     35  N   UNL A   1      33.745  29.541  27.322  1.00  0.00    -0.352 N 
ATOM     36  C   UNL A   1      34.549  30.374  28.061  1.00  0.00     0.251 C 
ATOM     37  H   UNL A   1      32.879  29.921  27.046  1.00  0.00     0.163 HD
ATOM     38  O   UNL A   1      34.103  31.412  28.530  1.00  0.00    -0.269 OA
BRANCH  36  39
ATOM     39  C   UNL A   1      35.961  29.999  28.299  1.00  0.00     0.039 A 
ATOM     40  C   UNL A   1      36.312  29.426  29.523  1.00  0.00     0.014 A 
ATOM     41  C   UNL A   1      36.936  30.226  27.323  1.00  0.00     0.014 A 
ATOM     42  C   UNL A   1      37.636  29.047  29.755  1.00  0.00     0.010 A 
ATOM     43  C   UNL A   1      38.236  29.772  27.523  1.00  0.00     0.010 A 
ATOM     44  C   UNL A   1      38.605  29.196  28.749  1.00  0.00    -0.014 A 
BRANCH  44  45
ATOM     45  C   UNL A   1      40.019  28.803  28.976  1.00  0.00     0.031 A 
ATOM     46  C   UNL A   1      40.970  29.770  29.631  1.00  0.00     0.074 A 
ATOM     47  C   UNL A   1      40.460  27.598  28.563  1.00  0.00     0.049 A 
ATOM     48  N   UNL A   1      42.251  29.643  29.865  1.00  0.00    -0.248 NA
ATOM     49  C   UNL A   1      40.408  31.063  30.058  1.00  0.00     0.031 C 
ATOM     50  C   UNL A   1      39.648  26.583  27.889  1.00  0.00     0.029 A 
ATOM     51  N   UNL A   1      41.704  27.027  28.647  1.00  0.00    -0.354 N 
ATOM     52  C   UNL A   1      42.646  30.837  30.457  1.00  0.00     0.074 A 
ATOM     53  C   UNL A   1      41.487  31.701  30.484  1.00  0.00     0.031 C 
ATOM     54  C   UNL A   1      40.409  25.502  27.647  1.00  0.00     0.029 A 
ATOM     55  C   UNL A   1      41.768  25.763  28.111  1.00  0.00     0.049 A 
ATOM     56  H   UNL A   1      42.479  27.479  29.053  1.00  0.00     0.167 HD
ATOM     57  C   UNL A   1      43.856  31.174  30.965  1.00  0.00     0.037 A 
ATOM     58  C   UNL A   1      42.808  24.913  28.002  1.00  0.00     0.037 A 
ATOM     59  C   UNL A   1      45.006  30.309  30.951  1.00  0.00     0.049 A 
ATOM     60  C   UNL A   1      44.151  25.327  28.541  1.00  0.00     0.074 A 
ATOM     61  C   UNL A   1      46.271  30.547  31.457  1.00  0.00     0.029 A 
ATOM     62  N   UNL A   1      45.026  29.034  30.404  1.00  0.00    -0.354 N 
ATOM     63  N   UNL A   1      44.498  26.440  29.141  1.00  0.00    -0.248 NA
ATOM     64  C   UNL A   1      45.248  24.359  28.396  1.00  0.00     0.031 C 
ATOM     65  C   UNL A   1      47.071  29.433  31.178  1.00  0.00     0.029 A 
ATOM     66  C   UNL A   1      46.286  28.478  30.553  1.00  0.00     0.049 A 
ATOM     67  H   UNL A   1      44.259  28.591  29.975  1.00  0.00     0.167 HD
ATOM     68  C   UNL A   1      45.835  26.286  29.488  1.00  0.00     0.074 A 
ATOM     69  C   UNL A   1      46.233  24.969  29.037  1.00  0.00     0.031 C 
ATOM     70  C   UNL A   1      46.659  27.153  30.125  1.00  0.00     0.037 A 
BRANCH  57  71
ATOM     71  C   UNL A   1      43.991  32.534  31.587  1.00  0.00     0.057 A 
ATOM     72  C   UNL A   1      44.361  33.657  30.833  1.00  0.00     0.134 A 
ATOM     73  C   UNL A   1      43.714  32.735  32.946  1.00  0.00     0.134 A 
ATOM     74  F   UNL A   1      44.652  33.533  29.529  1.00  0.00    -0.206 F 
ATOM     75  C   UNL A   1      44.481  34.920  31.412  1.00  0.00     0.040 A 
ATOM     76  C   UNL A   1      43.801  34.000  33.530  1.00  0.00     0.040 A 
ATOM     77  F   UNL A   1      43.348  31.707  33.727  1.00  0.00    -0.206 F 
ATOM     78  C   UNL A   1      44.193  35.096  32.764  1.00  0.00     0.006 A 
ENDBRANCH  57  71
BRANCH  58  79
ATOM     79  C   UNL A   1      42.627  23.574  27.384  1.00  0.00     0.057 A 
ATOM     80  C   UNL A   1      42.842  23.376  26.014  1.00  0.00     0.134 A 
ATOM     81  C   UNL A   1      42.195  22.472  28.132  1.00  0.00     0.134 A 
ATOM     82  F   UNL A   1      43.240  24.397  25.240  1.00  0.00    -0.206 F 
ATOM     83  C   UNL A   1      42.599  22.145  25.404  1.00  0.00     0.040 A 
ATOM     84  C   UNL A   1      41.976  21.227  27.540  1.00  0.00     0.040 A 
ATOM     85  F   UNL A   1      41.979  22.590  29.450  1.00  0.00    -0.206 F 
ATOM     86  C   UNL A   1      42.167  21.065  26.168  1.00  0.00     0.006 A 
ENDBRANCH  58  79
BRANCH  70  87
ATOM     87  C   UNL A   1      48.048  26.679  30.443  1.00  0.00     0.057 A 
ATOM     88  C   UNL A   1      48.357  26.007  31.632  1.00  0.00     0.134 A 
ATOM     89  C   UNL A   1      49.087  26.874  29.524  1.00  0.00     0.134 A 
ATOM     90  F   UNL A   1      47.410  25.797  32.560  1.00  0.00    -0.206 F 
ATOM     91  C   UNL A   1      49.655  25.578  31.911  1.00  0.00     0.040 A 
ATOM     92  C   UNL A   1      50.383  26.421  29.776  1.00  0.00     0.040 A 
ATOM     93  F   UNL A   1      48.859  27.500  28.358  1.00  0.00    -0.206 F 
ATOM     94  C   UNL A   1      50.672  25.779  30.977  1.00  0.00     0.006 A 
ENDBRANCH  70  87
ENDBRANCH  44  45
ENDBRANCH  36  39
ENDBRANCH  34  35
ENDBRANCH  33  34
ENDBRANCH  32  33
ENDBRANCH  31  32
ENDBRANCH   1  31
TORSDOF 19
ENDMDL
MODEL 3
REMARK VINA RESULT:     -12.0      2.498      6.014
REMARK SMILES CN(C)c1ccc(CCC(=O)N2C[C@@H](C(=O)NCCCCCCNC(=O)c3ccc(-c4c5nc(c(-c6c(F)cccc6F)c6ccc([nH]6)c(-c6c(F)cccc6F)c6nc(c(-c7c(F)cccc7F)c7ccc4[nH]7)C=C6)C=C5)cc3)[C@H](c3cccnc3)C2)cc1
REMARK SMILES IDX 19 1 18 2 17 3 15 4 16 5 14 7 12 8 13 9 88 10 81 11 10 12
REMARK SMILES IDX 11 13 9 14 8 15 7 16 4 17 5 18 90 19 6 20 89 21 2 22 1 23
REMARK SMILES IDX 3 24 82 25 83 26 87 27 84 28 86 29 85 30 20 31 21 32 22 33
REMARK SMILES IDX 23 34 24 35 25 36 26 38 27 39 28 40 80 41 29 42 79 43 30 44
REMARK SMILES IDX 31 45 32 46 73 47 33 48 78 49 72 50 74 51 34 52 77 53 71 54
REMARK SMILES IDX 70 55 35 57 61 58 44 59 60 60 45 61 48 62 59 63 75 64 46 65
REMARK SMILES IDX 47 66 58 68 76 69 49 70 36 71 37 72 42 73 38 74 39 75 41 76
REMARK SMILES IDX 43 77 40 78 62 79 63 80 68 81 64 82 65 83 67 84 69 85 66 86
REMARK SMILES IDX 50 87 51 88 56 89 52 90 53 91 55 92 57 93 54 94
REMARK H PARENT 17 6 24 37 74 56 48 67
REMARK Flexibility Score: inf
ROOT
ATOM      1  C   UNL A   1      33.363  25.199  26.164  1.00  0.00     0.021 C 
ENDROOT
BRANCH   1   2
ATOM      2  C   UNL A   1      33.796  23.826  26.682  1.00  0.00     0.116 C 
BRANCH   2   3
ATOM      3  N   UNL A   1      34.960  23.390  25.948  1.00  0.00    -0.356 N 
ATOM      4  C   UNL A   1      35.063  22.379  25.043  1.00  0.00     0.225 C 
ATOM      5  O   UNL A   1      36.033  21.620  25.088  1.00  0.00    -0.275 OA
ATOM      6  H   UNL A   1      35.789  23.890  26.125  1.00  0.00     0.163 HD
BRANCH   4   7
ATOM      7  C   UNL A   1      34.098  22.225  23.903  1.00  0.00     0.107 C 
ATOM      8  N   UNL A   1      32.971  23.521  22.350  1.00  0.00    -0.341 N 
ATOM      9  C   UNL A   1      34.080  23.547  23.226  1.00  0.00     0.133 C 
ATOM     10  C   UNL A   1      31.969  22.557  22.837  1.00  0.00     0.128 C 
ATOM     11  C   UNL A   1      32.636  21.815  24.058  1.00  0.00     0.054 C 
BRANCH   8  12
ATOM     12  C   UNL A   1      32.881  24.414  21.304  1.00  0.00     0.222 C 
ATOM     13  O   UNL A   1      33.259  24.118  20.171  1.00  0.00    -0.275 OA
BRANCH  12  14
ATOM     14  C   UNL A   1      32.444  25.872  21.650  1.00  0.00     0.105 C 
BRANCH  14  15
ATOM     15  C   UNL A   1      31.643  26.225  22.934  1.00  0.00     0.045 C 
BRANCH  15  16
ATOM     16  C   UNL A   1      30.671  27.406  22.926  1.00  0.00    -0.047 A 
ATOM     17  C   UNL A   1      28.770  29.535  22.547  1.00  0.00     0.036 A 
ATOM     18  C   UNL A   1      30.117  29.675  22.185  1.00  0.00     0.026 A 
ATOM     19  C   UNL A   1      28.412  28.337  23.179  1.00  0.00     0.026 A 
ATOM     20  C   UNL A   1      31.053  28.636  22.371  1.00  0.00     0.006 A 
ATOM     21  C   UNL A   1      29.347  27.297  23.389  1.00  0.00     0.006 A 
BRANCH  17  22
ATOM     22  N   UNL A   1      27.874  30.591  22.325  1.00  0.00    -0.378 N 
ATOM     23  C   UNL A   1      28.001  31.195  21.004  1.00  0.00     0.143 C 
ATOM     24  C   UNL A   1      27.631  31.566  23.393  1.00  0.00     0.143 C 
ENDBRANCH  17  22
ENDBRANCH  15  16
ENDBRANCH  14  15
ENDBRANCH  12  14
ENDBRANCH   8  12
BRANCH  11  25
ATOM     25  C   UNL A   1      32.602  20.299  24.202  1.00  0.00    -0.024 A 
ATOM     26  C   UNL A   1      32.501  19.486  23.052  1.00  0.00     0.007 A 
ATOM     27  C   UNL A   1      32.649  19.620  25.407  1.00  0.00     0.115 A 
ATOM     28  C   UNL A   1      32.373  18.109  23.134  1.00  0.00     0.020 A 
ATOM     29  N   UNL A   1      32.552  18.270  25.522  1.00  0.00    -0.264 NA
ATOM     30  C   UNL A   1      32.399  17.549  24.388  1.00  0.00     0.111 A 
ENDBRANCH  11  25
ENDBRANCH   4   7
ENDBRANCH   2   3
ENDBRANCH   1   2
BRANCH   1  31
ATOM     31  C   UNL A   1      31.871  25.487  26.389  1.00  0.00     0.002 C 
BRANCH  31  32
ATOM     32  C   UNL A   1      31.544  26.957  26.669  1.00  0.00     0.002 C 
BRANCH  32  33
ATOM     33  C   UNL A   1      32.621  27.945  26.219  1.00  0.00     0.021 C 
BRANCH  33  34
ATOM     34  C   UNL A   1      33.460  28.513  27.357  1.00  0.00     0.116 C 
BRANCH  34  35
ATOM     35  N   UNL A   1      33.466  29.965  27.348  1.00  0.00    -0.352 N 
ATOM     36  C   UNL A   1      34.395  30.826  27.879  1.00  0.00     0.251 C 
ATOM     37  H   UNL A   1      32.698  30.391  26.902  1.00  0.00     0.163 HD
ATOM     38  O   UNL A   1      34.146  32.019  27.986  1.00  0.00    -0.269 OA
BRANCH  36  39
ATOM     39  C   UNL A   1      35.701  30.296  28.333  1.00  0.00     0.039 A 
ATOM     40  C   UNL A   1      36.823  30.472  27.520  1.00  0.00     0.014 A 
ATOM     41  C   UNL A   1      35.813  29.615  29.549  1.00  0.00     0.014 A 
ATOM     42  C   UNL A   1      38.065  29.997  27.945  1.00  0.00     0.010 A 
ATOM     43  C   UNL A   1      37.064  29.217  30.008  1.00  0.00     0.010 A 
ATOM     44  C   UNL A   1      38.201  29.385  29.201  1.00  0.00    -0.014 A 
BRANCH  44  45
ATOM     45  C   UNL A   1      39.512  28.869  29.670  1.00  0.00     0.031 A 
ATOM     46  C   UNL A   1      40.241  29.576  30.783  1.00  0.00     0.074 A 
ATOM     47  C   UNL A   1      40.067  27.794  29.076  1.00  0.00     0.049 A 
ATOM     48  N   UNL A   1      41.418  29.322  31.296  1.00  0.00    -0.248 NA
ATOM     49  C   UNL A   1      39.565  30.739  31.383  1.00  0.00     0.031 C 
ATOM     50  C   UNL A   1      39.478  27.039  27.969  1.00  0.00     0.029 A 
ATOM     51  N   UNL A   1      41.256  27.154  29.321  1.00  0.00    -0.354 N 
ATOM     52  C   UNL A   1      41.624  30.294  32.268  1.00  0.00     0.074 A 
ATOM     53  C   UNL A   1      40.484  31.182  32.227  1.00  0.00     0.031 C 
ATOM     54  C   UNL A   1      40.294  26.020  27.650  1.00  0.00     0.029 A 
ATOM     55  C   UNL A   1      41.479  26.074  28.500  1.00  0.00     0.049 A 
ATOM     56  H   UNL A   1      41.889  27.439  30.019  1.00  0.00     0.167 HD
ATOM     57  C   UNL A   1      42.652  30.418  33.141  1.00  0.00     0.037 A 
ATOM     58  C   UNL A   1      42.525  25.228  28.438  1.00  0.00     0.037 A 
ATOM     59  C   UNL A   1      43.780  29.526  33.192  1.00  0.00     0.049 A 
ATOM     60  C   UNL A   1      43.673  25.411  29.396  1.00  0.00     0.074 A 
ATOM     61  C   UNL A   1      44.864  29.553  34.051  1.00  0.00     0.029 A 
ATOM     62  N   UNL A   1      43.964  28.441  32.346  1.00  0.00    -0.354 N 
ATOM     63  N   UNL A   1      43.831  26.306  30.340  1.00  0.00    -0.248 NA
ATOM     64  C   UNL A   1      44.786  24.457  29.282  1.00  0.00     0.031 C 
ATOM     65  C   UNL A   1      45.727  28.510  33.698  1.00  0.00     0.029 A 
ATOM     66  C   UNL A   1      45.151  27.798  32.659  1.00  0.00     0.049 A 
ATOM     67  H   UNL A   1      43.345  28.170  31.631  1.00  0.00     0.167 HD
ATOM     68  C   UNL A   1      45.033  25.993  30.965  1.00  0.00     0.074 A 
ATOM     69  C   UNL A   1      45.558  24.821  30.295  1.00  0.00     0.031 C 
ATOM     70  C   UNL A   1      45.645  26.615  32.001  1.00  0.00     0.037 A 
BRANCH  57  71
ATOM     71  C   UNL A   1      42.595  31.557  34.119  1.00  0.00     0.057 A 
ATOM     72  C   UNL A   1      41.983  31.421  35.373  1.00  0.00     0.134 A 
ATOM     73  C   UNL A   1      43.187  32.791  33.823  1.00  0.00     0.134 A 
ATOM     74  F   UNL A   1      41.385  30.270  35.717  1.00  0.00    -0.206 F 
ATOM     75  C   UNL A   1      41.935  32.478  36.283  1.00  0.00     0.040 A 
ATOM     76  C   UNL A   1      43.173  33.847  34.737  1.00  0.00     0.040 A 
ATOM     77  F   UNL A   1      43.796  32.990  32.644  1.00  0.00    -0.206 F 
ATOM     78  C   UNL A   1      42.538  33.694  35.968  1.00  0.00     0.006 A 
ENDBRANCH  57  71
BRANCH  58  79
ATOM     79  C   UNL A   1      42.537  24.111  27.458  1.00  0.00     0.057 A 
ATOM     80  C   UNL A   1      42.134  22.822  27.828  1.00  0.00     0.134 A 
ATOM     81  C   UNL A   1      42.990  24.291  26.146  1.00  0.00     0.134 A 
ATOM     82  F   UNL A   1      41.705  22.582  29.076  1.00  0.00    -0.206 F 
ATOM     83  C   UNL A   1      42.215  21.746  26.943  1.00  0.00     0.040 A 
ATOM     84  C   UNL A   1      43.049  23.230  25.241  1.00  0.00     0.040 A 
ATOM     85  F   UNL A   1      43.383  25.501  25.723  1.00  0.00    -0.206 F 
ATOM     86  C   UNL A   1      42.672  21.949  25.643  1.00  0.00     0.006 A 
ENDBRANCH  58  79
BRANCH  70  87
ATOM     87  C   UNL A   1      46.911  25.998  32.526  1.00  0.00     0.057 A 
ATOM     88  C   UNL A   1      48.177  26.378  32.064  1.00  0.00     0.134 A 
ATOM     89  C   UNL A   1      46.856  25.026  33.534  1.00  0.00     0.134 A 
ATOM     90  F   UNL A   1      48.300  27.295  31.093  1.00  0.00    -0.206 F 
ATOM     91  C   UNL A   1      49.341  25.789  32.561  1.00  0.00     0.040 A 
ATOM     92  C   UNL A   1      48.014  24.454  34.062  1.00  0.00     0.040 A 
ATOM     93  F   UNL A   1      45.676  24.624  34.031  1.00  0.00    -0.206 F 
ATOM     94  C   UNL A   1      49.261  24.828  33.569  1.00  0.00     0.006 A 
ENDBRANCH  70  87
ENDBRANCH  44  45
ENDBRANCH  36  39
ENDBRANCH  34  35
ENDBRANCH  33  34
ENDBRANCH  32  33
ENDBRANCH  31  32
ENDBRANCH   1  31
TORSDOF 19
ENDMDL
