MODEL 1
REMARK VINA RESULT:     -12.5      0.000      0.000
REMARK SMILES CC(C)Cc1ccc(S(=O)(=O)Nc2cnc(N3CCCC3)c(C(=O)NCCCCCCNC(=O)c3ccc(-c4c5nc(c(-c6c(F)cccc6F)c6ccc([nH]6)c(-c6c(F)cccc6F)c6nc(c(-c7c(F)cccc7F)c7ccc4[nH]7)C=C6)C=C5)cc3)c2)cc1
REMARK SMILES IDX 27 1 26 2 25 3 23 4 24 5 22 7 13 8 14 9 89 10 15 11 16 12
REMARK SMILES IDX 12 13 9 15 10 16 11 17 8 18 5 19 6 20 91 21 7 22 90 23 4 24
REMARK SMILES IDX 2 25 1 26 3 27 17 28 18 29 21 30 19 31 20 32 28 33 29 34
REMARK SMILES IDX 30 35 31 36 32 37 33 38 34 40 35 41 36 42 88 43 37 44 87 45
REMARK SMILES IDX 38 46 39 47 40 48 81 49 41 50 86 51 80 52 82 53 42 54 85 55
REMARK SMILES IDX 79 56 78 57 43 59 69 60 52 61 68 62 53 63 56 64 67 65 83 66
REMARK SMILES IDX 54 67 55 68 66 70 84 71 57 72 44 73 45 74 50 75 46 76 47 77
REMARK SMILES IDX 49 78 51 79 48 80 70 81 71 82 76 83 72 84 73 85 75 86 77 87
REMARK SMILES IDX 74 88 58 89 59 90 64 91 60 92 61 93 63 94 65 95 62 96
REMARK H PARENT 25 6 12 14 32 39 82 58 56 69
REMARK Flexibility Score: inf
ROOT
ATOM      1  C   UNL A   1      32.715  29.016  27.604  1.00  0.00     0.021 C 
ENDROOT
BRANCH   1   2
ATOM      2  C   UNL A   1      32.897  27.643  26.966  1.00  0.00     0.116 C 
BRANCH   2   3
ATOM      3  N   UNL A   1      31.609  27.095  26.591  1.00  0.00    -0.352 N 
ATOM      4  C   UNL A   1      30.961  26.663  25.467  1.00  0.00     0.255 C 
ATOM      5  O   UNL A   1      29.841  26.222  25.731  1.00  0.00    -0.269 OA
ATOM      6  H   UNL A   1      31.027  27.010  27.380  1.00  0.00     0.163 HD
BRANCH   4   7
ATOM      7  C   UNL A   1      31.543  26.601  24.077  1.00  0.00     0.084 A 
ATOM      8  C   UNL A   1      32.799  25.261  22.512  1.00  0.00     0.068 A 
ATOM      9  C   UNL A   1      32.088  25.864  21.493  1.00  0.00     0.140 A 
ATOM     10  C   UNL A   1      32.631  25.769  23.790  1.00  0.00     0.046 A 
ATOM     11  N   UNL A   1      31.160  26.814  21.702  1.00  0.00    -0.236 NA
ATOM     12  C   UNL A   1      30.862  27.178  22.981  1.00  0.00     0.141 A 
BRANCH   8  13
ATOM     13  N   UNL A   1      33.545  24.081  22.227  1.00  0.00    -0.278 N 
ATOM     14  H   UNL A   1      33.384  23.628  21.368  1.00  0.00     0.180 HD
BRANCH  13  15
ATOM     15  S   UNL A   1      34.685  23.416  23.272  1.00  0.00     0.261 S 
ATOM     16  O   UNL A   1      34.855  24.341  24.379  1.00  0.00    -0.201 OA
ATOM     17  O   UNL A   1      35.799  23.043  22.435  1.00  0.00    -0.201 OA
BRANCH  15  18
ATOM     18  C   UNL A   1      34.056  21.900  23.983  1.00  0.00     0.087 A 
ATOM     19  C   UNL A   1      33.087  19.354  24.711  1.00  0.00    -0.048 A 
ATOM     20  C   UNL A   1      32.344  20.179  23.857  1.00  0.00     0.005 A 
ATOM     21  C   UNL A   1      34.283  19.849  25.247  1.00  0.00     0.005 A 
ATOM     22  C   UNL A   1      32.831  21.435  23.482  1.00  0.00     0.022 A 
ATOM     23  C   UNL A   1      34.752  21.126  24.910  1.00  0.00     0.022 A 
BRANCH  19  24
ATOM     24  C   UNL A   1      32.601  17.962  25.064  1.00  0.00     0.038 C 
BRANCH  24  25
ATOM     25  C   UNL A   1      33.616  16.838  24.761  1.00  0.00    -0.013 C 
ATOM     26  C   UNL A   1      33.089  15.466  25.184  1.00  0.00     0.008 C 
ATOM     27  C   UNL A   1      33.948  16.805  23.267  1.00  0.00     0.008 C 
ENDBRANCH  24  25
ENDBRANCH  19  24
ENDBRANCH  15  18
ENDBRANCH  13  15
ENDBRANCH   8  13
BRANCH  12  28
ATOM     28  N   UNL A   1      29.856  28.090  23.073  1.00  0.00    -0.356 N 
ATOM     29  C   UNL A   1      28.445  27.787  23.227  1.00  0.00     0.118 C 
ATOM     30  C   UNL A   1      30.125  29.510  23.221  1.00  0.00     0.118 C 
ATOM     31  C   UNL A   1      27.800  29.078  22.736  1.00  0.00     0.023 C 
ATOM     32  C   UNL A   1      28.734  30.146  23.295  1.00  0.00     0.023 C 
ENDBRANCH  12  28
ENDBRANCH   4   7
ENDBRANCH   2   3
ENDBRANCH   1   2
BRANCH   1  33
ATOM     33  C   UNL A   1      32.861  30.171  26.604  1.00  0.00     0.002 C 
BRANCH  33  34
ATOM     34  C   UNL A   1      31.543  30.812  26.152  1.00  0.00     0.002 C 
BRANCH  34  35
ATOM     35  C   UNL A   1      31.330  32.256  26.612  1.00  0.00     0.021 C 
BRANCH  35  36
ATOM     36  C   UNL A   1      32.545  32.889  27.278  1.00  0.00     0.116 C 
BRANCH  36  37
ATOM     37  N   UNL A   1      32.317  34.279  27.630  1.00  0.00    -0.352 N 
ATOM     38  C   UNL A   1      32.966  35.045  28.565  1.00  0.00     0.251 C 
ATOM     39  H   UNL A   1      31.600  34.733  27.131  1.00  0.00     0.163 HD
ATOM     40  O   UNL A   1      32.552  36.164  28.850  1.00  0.00    -0.269 OA
BRANCH  38  41
ATOM     41  C   UNL A   1      34.155  34.501  29.251  1.00  0.00     0.039 A 
ATOM     42  C   UNL A   1      33.992  33.883  30.492  1.00  0.00     0.014 A 
ATOM     43  C   UNL A   1      35.425  34.596  28.669  1.00  0.00     0.014 A 
ATOM     44  C   UNL A   1      35.094  33.313  31.129  1.00  0.00     0.010 A 
ATOM     45  C   UNL A   1      36.510  33.972  29.274  1.00  0.00     0.010 A 
ATOM     46  C   UNL A   1      36.355  33.332  30.513  1.00  0.00    -0.014 A 
BRANCH  46  47
ATOM     47  C   UNL A   1      37.529  32.699  31.160  1.00  0.00     0.031 A 
ATOM     48  C   UNL A   1      38.179  31.499  30.532  1.00  0.00     0.074 A 
ATOM     49  C   UNL A   1      37.972  33.170  32.341  1.00  0.00     0.049 A 
ATOM     50  N   UNL A   1      39.181  30.781  30.967  1.00  0.00    -0.248 NA
ATOM     51  C   UNL A   1      37.608  31.028  29.260  1.00  0.00     0.031 C 
ATOM     52  C   UNL A   1      37.388  34.293  33.077  1.00  0.00     0.029 A 
ATOM     53  N   UNL A   1      39.013  32.757  33.133  1.00  0.00    -0.354 N 
ATOM     54  C   UNL A   1      39.348  29.764  30.036  1.00  0.00     0.074 A 
ATOM     55  C   UNL A   1      38.318  29.931  29.035  1.00  0.00     0.031 C 
ATOM     56  C   UNL A   1      38.094  34.494  34.203  1.00  0.00     0.029 A 
ATOM     57  C   UNL A   1      39.161  33.500  34.279  1.00  0.00     0.049 A 
ATOM     58  H   UNL A   1      39.597  31.999  32.903  1.00  0.00     0.167 HD
ATOM     59  C   UNL A   1      40.289  28.791  30.007  1.00  0.00     0.037 A 
ATOM     60  C   UNL A   1      40.059  33.392  35.274  1.00  0.00     0.037 A 
ATOM     61  C   UNL A   1      41.338  28.649  30.981  1.00  0.00     0.049 A 
ATOM     62  C   UNL A   1      41.114  32.327  35.200  1.00  0.00     0.074 A 
ATOM     63  C   UNL A   1      42.382  27.741  31.000  1.00  0.00     0.029 A 
ATOM     64  N   UNL A   1      41.475  29.443  32.110  1.00  0.00    -0.354 N 
ATOM     65  N   UNL A   1      41.303  31.414  34.279  1.00  0.00    -0.248 NA
ATOM     66  C   UNL A   1      42.087  32.279  36.302  1.00  0.00     0.031 C 
ATOM     67  C   UNL A   1      43.137  27.969  32.156  1.00  0.00     0.029 A 
ATOM     68  C   UNL A   1      42.581  29.038  32.839  1.00  0.00     0.049 A 
ATOM     69  H   UNL A   1      40.875  30.184  32.355  1.00  0.00     0.167 HD
ATOM     70  C   UNL A   1      42.425  30.699  34.675  1.00  0.00     0.074 A 
ATOM     71  C   UNL A   1      42.882  31.291  35.916  1.00  0.00     0.031 C 
ATOM     72  C   UNL A   1      43.023  29.646  34.066  1.00  0.00     0.037 A 
BRANCH  59  73
ATOM     73  C   UNL A   1      40.230  27.812  28.872  1.00  0.00     0.057 A 
ATOM     74  C   UNL A   1      40.907  28.041  27.667  1.00  0.00     0.134 A 
ATOM     75  C   UNL A   1      39.509  26.619  28.993  1.00  0.00     0.134 A 
ATOM     76  F   UNL A   1      41.605  29.172  27.484  1.00  0.00    -0.206 F 
ATOM     77  C   UNL A   1      40.849  27.128  26.614  1.00  0.00     0.040 A 
ATOM     78  C   UNL A   1      39.461  25.688  27.954  1.00  0.00     0.040 A 
ATOM     79  F   UNL A   1      38.842  26.337  30.123  1.00  0.00    -0.206 F 
ATOM     80  C   UNL A   1      40.127  25.944  26.758  1.00  0.00     0.006 A 
ENDBRANCH  59  73
BRANCH  60  81
ATOM     81  C   UNL A   1      40.024  34.347  36.408  1.00  0.00     0.057 A 
ATOM     82  C   UNL A   1      40.721  35.559  36.348  1.00  0.00     0.134 A 
ATOM     83  C   UNL A   1      39.292  34.077  37.570  1.00  0.00     0.134 A 
ATOM     84  F   UNL A   1      41.452  35.864  35.267  1.00  0.00    -0.206 F 
ATOM     85  C   UNL A   1      40.705  36.463  37.410  1.00  0.00     0.040 A 
ATOM     86  C   UNL A   1      39.252  34.981  38.632  1.00  0.00     0.040 A 
ATOM     87  F   UNL A   1      38.596  32.936  37.683  1.00  0.00    -0.206 F 
ATOM     88  C   UNL A   1      39.964  36.176  38.556  1.00  0.00     0.006 A 
ENDBRANCH  60  81
BRANCH  72  89
ATOM     89  C   UNL A   1      44.248  29.087  34.721  1.00  0.00     0.057 A 
ATOM     90  C   UNL A   1      45.524  29.588  34.442  1.00  0.00     0.134 A 
ATOM     91  C   UNL A   1      44.143  28.062  35.671  1.00  0.00     0.134 A 
ATOM     92  F   UNL A   1      45.688  30.560  33.531  1.00  0.00    -0.206 F 
ATOM     93  C   UNL A   1      46.659  29.079  35.074  1.00  0.00     0.040 A 
ATOM     94  C   UNL A   1      45.269  27.559  36.323  1.00  0.00     0.040 A 
ATOM     95  F   UNL A   1      42.948  27.544  35.985  1.00  0.00    -0.206 F 
ATOM     96  C   UNL A   1      46.533  28.066  36.022  1.00  0.00     0.006 A 
ENDBRANCH  72  89
ENDBRANCH  46  47
ENDBRANCH  38  41
ENDBRANCH  36  37
ENDBRANCH  35  36
ENDBRANCH  34  35
ENDBRANCH  33  34
ENDBRANCH   1  33
TORSDOF 19
ENDMDL
MODEL 2
REMARK VINA RESULT:     -12.5      1.014      6.048
REMARK SMILES CC(C)Cc1ccc(S(=O)(=O)Nc2cnc(N3CCCC3)c(C(=O)NCCCCCCNC(=O)c3ccc(-c4c5nc(c(-c6c(F)cccc6F)c6ccc([nH]6)c(-c6c(F)cccc6F)c6nc(c(-c7c(F)cccc7F)c7ccc4[nH]7)C=C6)C=C5)cc3)c2)cc1
REMARK SMILES IDX 27 1 26 2 25 3 23 4 24 5 22 7 13 8 14 9 89 10 15 11 16 12
REMARK SMILES IDX 12 13 9 15 10 16 11 17 8 18 5 19 6 20 91 21 7 22 90 23 4 24
REMARK SMILES IDX 2 25 1 26 3 27 17 28 18 29 21 30 19 31 20 32 28 33 29 34
REMARK SMILES IDX 30 35 31 36 32 37 33 38 34 40 35 41 36 42 88 43 37 44 87 45
REMARK SMILES IDX 38 46 39 47 40 48 81 49 41 50 86 51 80 52 82 53 42 54 85 55
REMARK SMILES IDX 79 56 78 57 43 59 69 60 52 61 68 62 53 63 56 64 67 65 83 66
REMARK SMILES IDX 54 67 55 68 66 70 84 71 57 72 44 73 45 74 50 75 46 76 47 77
REMARK SMILES IDX 49 78 51 79 48 80 70 81 71 82 76 83 72 84 73 85 75 86 77 87
REMARK SMILES IDX 74 88 58 89 59 90 64 91 60 92 61 93 63 94 65 95 62 96
REMARK H PARENT 25 6 12 14 32 39 82 58 56 69
REMARK Flexibility Score: inf
ROOT
ATOM      1  C   UNL A   1      31.760  29.143  27.587  1.00  0.00     0.021 C 
ENDROOT
BRANCH   1   2
ATOM      2  C   UNL A   1      32.200  27.752  27.145  1.00  0.00     0.116 C 
BRANCH   2   3
ATOM      3  N   UNL A   1      31.057  26.998  26.668  1.00  0.00    -0.352 N 
ATOM      4  C   UNL A   1      30.598  26.449  25.503  1.00  0.00     0.255 C 
ATOM      5  O   UNL A   1      29.542  25.838  25.675  1.00  0.00    -0.269 OA
ATOM      6  H   UNL A   1      30.423  26.832  27.402  1.00  0.00     0.163 HD
BRANCH   4   7
ATOM      7  C   UNL A   1      31.314  26.461  24.175  1.00  0.00     0.084 A 
ATOM      8  C   UNL A   1      32.678  25.185  22.648  1.00  0.00     0.068 A 
ATOM      9  C   UNL A   1      32.092  25.882  21.611  1.00  0.00     0.140 A 
ATOM     10  C   UNL A   1      32.399  25.610  23.938  1.00  0.00     0.046 A 
ATOM     11  N   UNL A   1      31.178  26.851  21.796  1.00  0.00    -0.236 NA
ATOM     12  C   UNL A   1      30.764  27.138  23.063  1.00  0.00     0.141 A 
BRANCH   8  13
ATOM     13  N   UNL A   1      33.412  23.999  22.354  1.00  0.00    -0.278 N 
ATOM     14  H   UNL A   1      33.186  23.508  21.530  1.00  0.00     0.180 HD
BRANCH  13  15
ATOM     15  S   UNL A   1      34.640  23.387  23.330  1.00  0.00     0.261 S 
ATOM     16  O   UNL A   1      34.845  24.331  24.415  1.00  0.00    -0.201 OA
ATOM     17  O   UNL A   1      35.711  23.046  22.427  1.00  0.00    -0.201 OA
BRANCH  15  18
ATOM     18  C   UNL A   1      34.113  21.858  24.093  1.00  0.00     0.087 A 
ATOM     19  C   UNL A   1      33.220  19.308  24.901  1.00  0.00    -0.048 A 
ATOM     20  C   UNL A   1      32.349  20.194  24.254  1.00  0.00     0.005 A 
ATOM     21  C   UNL A   1      34.518  19.743  25.198  1.00  0.00     0.005 A 
ATOM     22  C   UNL A   1      32.795  21.453  23.838  1.00  0.00     0.022 A 
ATOM     23  C   UNL A   1      34.956  21.021  24.823  1.00  0.00     0.022 A 
BRANCH  19  24
ATOM     24  C   UNL A   1      32.765  17.915  25.289  1.00  0.00     0.038 C 
BRANCH  24  25
ATOM     25  C   UNL A   1      33.320  16.791  24.389  1.00  0.00    -0.013 C 
ATOM     26  C   UNL A   1      33.576  17.278  22.962  1.00  0.00     0.008 C 
ATOM     27  C   UNL A   1      34.624  16.237  24.967  1.00  0.00     0.008 C 
ENDBRANCH  24  25
ENDBRANCH  19  24
ENDBRANCH  15  18
ENDBRANCH  13  15
ENDBRANCH   8  13
BRANCH  12  28
ATOM     28  N   UNL A   1      29.783  28.078  23.121  1.00  0.00    -0.356 N 
ATOM     29  C   UNL A   1      28.358  27.818  23.185  1.00  0.00     0.118 C 
ATOM     30  C   UNL A   1      30.087  29.485  23.324  1.00  0.00     0.118 C 
ATOM     31  C   UNL A   1      27.782  29.141  22.693  1.00  0.00     0.023 C 
ATOM     32  C   UNL A   1      28.714  30.163  23.335  1.00  0.00     0.023 C 
ENDBRANCH  12  28
ENDBRANCH   4   7
ENDBRANCH   2   3
ENDBRANCH   1   2
BRANCH   1  33
ATOM     33  C   UNL A   1      32.313  30.264  26.695  1.00  0.00     0.002 C 
BRANCH  33  34
ATOM     34  C   UNL A   1      31.259  31.220  26.122  1.00  0.00     0.002 C 
BRANCH  34  35
ATOM     35  C   UNL A   1      31.387  32.675  26.573  1.00  0.00     0.021 C 
BRANCH  35  36
ATOM     36  C   UNL A   1      32.700  33.004  27.271  1.00  0.00     0.116 C 
BRANCH  36  37
ATOM     37  N   UNL A   1      32.660  34.292  27.942  1.00  0.00    -0.352 N 
ATOM     38  C   UNL A   1      33.444  34.749  28.969  1.00  0.00     0.251 C 
ATOM     39  H   UNL A   1      31.976  34.921  27.615  1.00  0.00     0.163 HD
ATOM     40  O   UNL A   1      33.182  35.809  29.529  1.00  0.00    -0.269 OA
BRANCH  38  41
ATOM     41  C   UNL A   1      34.595  33.941  29.420  1.00  0.00     0.039 A 
ATOM     42  C   UNL A   1      35.869  34.267  28.954  1.00  0.00     0.014 A 
ATOM     43  C   UNL A   1      34.417  32.870  30.304  1.00  0.00     0.014 A 
ATOM     44  C   UNL A   1      36.976  33.552  29.413  1.00  0.00     0.010 A 
ATOM     45  C   UNL A   1      35.526  32.201  30.809  1.00  0.00     0.010 A 
ATOM     46  C   UNL A   1      36.814  32.531  30.362  1.00  0.00    -0.014 A 
BRANCH  46  47
ATOM     47  C   UNL A   1      37.984  31.786  30.887  1.00  0.00     0.031 A 
ATOM     48  C   UNL A   1      38.534  32.110  32.246  1.00  0.00     0.074 A 
ATOM     49  C   UNL A   1      38.582  30.859  30.115  1.00  0.00     0.049 A 
ATOM     50  N   UNL A   1      39.574  31.604  32.858  1.00  0.00    -0.248 NA
ATOM     51  C   UNL A   1      37.841  33.162  33.007  1.00  0.00     0.031 C 
ATOM     52  C   UNL A   1      38.174  30.496  28.757  1.00  0.00     0.029 A 
ATOM     53  N   UNL A   1      39.667  30.057  30.363  1.00  0.00    -0.354 N 
ATOM     54  C   UNL A   1      39.671  32.288  34.062  1.00  0.00     0.074 A 
ATOM     55  C   UNL A   1      38.614  33.274  34.078  1.00  0.00     0.031 C 
ATOM     56  C   UNL A   1      38.985  29.527  28.299  1.00  0.00     0.029 A 
ATOM     57  C   UNL A   1      39.982  29.220  29.320  1.00  0.00     0.049 A 
ATOM     58  H   UNL A   1      40.173  30.081  31.207  1.00  0.00     0.167 HD
ATOM     59  C   UNL A   1      40.550  32.097  35.074  1.00  0.00     0.037 A 
ATOM     60  C   UNL A   1      40.963  28.307  29.206  1.00  0.00     0.037 A 
ATOM     61  C   UNL A   1      41.578  31.089  35.075  1.00  0.00     0.049 A 
ATOM     62  C   UNL A   1      41.903  28.089  30.356  1.00  0.00     0.074 A 
ATOM     63  C   UNL A   1      42.472  30.768  36.081  1.00  0.00     0.029 A 
ATOM     64  N   UNL A   1      41.843  30.237  34.013  1.00  0.00    -0.354 N 
ATOM     65  N   UNL A   1      41.942  28.695  31.517  1.00  0.00    -0.248 NA
ATOM     66  C   UNL A   1      42.934  27.055  30.183  1.00  0.00     0.031 C 
ATOM     67  C   UNL A   1      43.297  29.737  35.618  1.00  0.00     0.029 A 
ATOM     68  C   UNL A   1      42.896  29.397  34.336  1.00  0.00     0.049 A 
ATOM     69  H   UNL A   1      41.356  30.231  33.158  1.00  0.00     0.167 HD
ATOM     70  C   UNL A   1      42.982  28.104  32.221  1.00  0.00     0.074 A 
ATOM     71  C   UNL A   1      43.542  27.082  31.360  1.00  0.00     0.031 C 
ATOM     72  C   UNL A   1      43.433  28.382  33.468  1.00  0.00     0.037 A 
BRANCH  59  73
ATOM     73  C   UNL A   1      40.427  32.992  36.271  1.00  0.00     0.057 A 
ATOM     74  C   UNL A   1      39.499  32.736  37.288  1.00  0.00     0.134 A 
ATOM     75  C   UNL A   1      41.258  34.108  36.419  1.00  0.00     0.134 A 
ATOM     76  F   UNL A   1      38.664  31.689  37.198  1.00  0.00    -0.206 F 
ATOM     77  C   UNL A   1      39.385  33.571  38.399  1.00  0.00     0.040 A 
ATOM     78  C   UNL A   1      41.169  34.940  37.537  1.00  0.00     0.040 A 
ATOM     79  F   UNL A   1      42.171  34.408  35.482  1.00  0.00    -0.206 F 
ATOM     80  C   UNL A   1      40.227  34.675  38.528  1.00  0.00     0.006 A 
ENDBRANCH  59  73
BRANCH  60  81
ATOM     81  C   UNL A   1      41.079  27.500  27.968  1.00  0.00     0.057 A 
ATOM     82  C   UNL A   1      40.415  26.274  27.844  1.00  0.00     0.134 A 
ATOM     83  C   UNL A   1      41.848  27.932  26.881  1.00  0.00     0.134 A 
ATOM     84  F   UNL A   1      39.677  25.801  28.859  1.00  0.00    -0.206 F 
ATOM     85  C   UNL A   1      40.522  25.498  26.689  1.00  0.00     0.040 A 
ATOM     86  C   UNL A   1      41.948  27.176  25.713  1.00  0.00     0.040 A 
ATOM     87  F   UNL A   1      42.501  29.102  26.936  1.00  0.00    -0.206 F 
ATOM     88  C   UNL A   1      41.288  25.952  25.617  1.00  0.00     0.006 A 
ENDBRANCH  60  81
BRANCH  72  89
ATOM     89  C   UNL A   1      44.570  27.554  33.982  1.00  0.00     0.057 A 
ATOM     90  C   UNL A   1      44.354  26.332  34.629  1.00  0.00     0.134 A 
ATOM     91  C   UNL A   1      45.895  27.966  33.791  1.00  0.00     0.134 A 
ATOM     92  F   UNL A   1      43.107  25.892  34.853  1.00  0.00    -0.206 F 
ATOM     93  C   UNL A   1      45.420  25.553  35.084  1.00  0.00     0.040 A 
ATOM     94  C   UNL A   1      46.967  27.187  34.223  1.00  0.00     0.040 A 
ATOM     95  F   UNL A   1      46.166  29.124  33.172  1.00  0.00    -0.206 F 
ATOM     96  C   UNL A   1      46.731  25.977  34.876  1.00  0.00     0.006 A 
ENDBRANCH  72  89
ENDBRANCH  46  47
ENDBRANCH  38  41
ENDBRANCH  36  37
ENDBRANCH  35  36
ENDBRANCH  34  35
ENDBRANCH  33  34
ENDBRANCH   1  33
TORSDOF 19
ENDMDL
MODEL 3
REMARK VINA RESULT:     -12.2      4.784      6.880
REMARK SMILES CC(C)Cc1ccc(S(=O)(=O)Nc2cnc(N3CCCC3)c(C(=O)NCCCCCCNC(=O)c3ccc(-c4c5nc(c(-c6c(F)cccc6F)c6ccc([nH]6)c(-c6c(F)cccc6F)c6nc(c(-c7c(F)cccc7F)c7ccc4[nH]7)C=C6)C=C5)cc3)c2)cc1
REMARK SMILES IDX 27 1 26 2 25 3 23 4 24 5 22 7 13 8 14 9 89 10 15 11 16 12
REMARK SMILES IDX 12 13 9 15 10 16 11 17 8 18 5 19 6 20 91 21 7 22 90 23 4 24
REMARK SMILES IDX 2 25 1 26 3 27 17 28 18 29 21 30 19 31 20 32 28 33 29 34
REMARK SMILES IDX 30 35 31 36 32 37 33 38 34 40 35 41 36 42 88 43 37 44 87 45
REMARK SMILES IDX 38 46 39 47 40 48 81 49 41 50 86 51 80 52 82 53 42 54 85 55
REMARK SMILES IDX 79 56 78 57 43 59 69 60 52 61 68 62 53 63 56 64 67 65 83 66
REMARK SMILES IDX 54 67 55 68 66 70 84 71 57 72 44 73 45 74 50 75 46 76 47 77
REMARK SMILES IDX 49 78 51 79 48 80 70 81 71 82 76 83 72 84 73 85 75 86 77 87
REMARK SMILES IDX 74 88 58 89 59 90 64 91 60 92 61 93 63 94 65 95 62 96
REMARK H PARENT 25 6 12 14 32 39 82 58 56 69
REMARK Flexibility Score: inf
ROOT
ATOM      1  C   UNL A   1      34.143  28.059  23.652  1.00  0.00     0.021 C 
ENDROOT
BRANCH   1   2
ATOM      2  C   UNL A   1      33.473  28.661  22.422  1.00  0.00     0.116 C 
BRANCH   2   3
ATOM      3  N   UNL A   1      32.714  27.644  21.721  1.00  0.00    -0.352 N 
ATOM      4  C   UNL A   1      31.904  26.581  22.010  1.00  0.00     0.255 C 
ATOM      5  O   UNL A   1      31.455  26.063  20.986  1.00  0.00    -0.269 OA
ATOM      6  H   UNL A   1      32.811  27.751  20.748  1.00  0.00     0.163 HD
BRANCH   4   7
ATOM      7  C   UNL A   1      31.489  26.132  23.389  1.00  0.00     0.084 A 
ATOM      8  C   UNL A   1      32.176  24.955  25.380  1.00  0.00     0.068 A 
ATOM      9  C   UNL A   1      31.354  25.794  26.106  1.00  0.00     0.140 A 
ATOM     10  C   UNL A   1      32.098  25.030  23.998  1.00  0.00     0.046 A 
ATOM     11  N   UNL A   1      30.595  26.753  25.545  1.00  0.00    -0.236 NA
ATOM     12  C   UNL A   1      30.666  26.948  24.198  1.00  0.00     0.141 A 
BRANCH   8  13
ATOM     13  N   UNL A   1      33.144  24.172  26.072  1.00  0.00    -0.278 N 
ATOM     14  H   UNL A   1      34.071  24.502  26.101  1.00  0.00     0.180 HD
BRANCH  13  15
ATOM     15  S   UNL A   1      32.798  22.715  26.842  1.00  0.00     0.261 S 
ATOM     16  O   UNL A   1      31.380  22.713  27.154  1.00  0.00    -0.201 OA
ATOM     17  O   UNL A   1      33.790  22.587  27.881  1.00  0.00    -0.201 OA
BRANCH  15  18
ATOM     18  C   UNL A   1      33.061  21.349  25.718  1.00  0.00     0.087 A 
ATOM     19  C   UNL A   1      33.574  18.970  24.292  1.00  0.00    -0.048 A 
ATOM     20  C   UNL A   1      34.607  19.629  24.970  1.00  0.00     0.005 A 
ATOM     21  C   UNL A   1      32.301  19.555  24.281  1.00  0.00     0.005 A 
ATOM     22  C   UNL A   1      34.351  20.800  25.691  1.00  0.00     0.022 A 
ATOM     23  C   UNL A   1      32.050  20.753  24.965  1.00  0.00     0.022 A 
BRANCH  19  24
ATOM     24  C   UNL A   1      33.828  17.662  23.569  1.00  0.00     0.038 C 
BRANCH  24  25
ATOM     25  C   UNL A   1      33.781  16.414  24.478  1.00  0.00    -0.013 C 
ATOM     26  C   UNL A   1      35.124  16.158  25.162  1.00  0.00     0.008 C 
ATOM     27  C   UNL A   1      32.699  16.572  25.548  1.00  0.00     0.008 C 
ENDBRANCH  24  25
ENDBRANCH  19  24
ENDBRANCH  15  18
ENDBRANCH  13  15
ENDBRANCH   8  13
BRANCH  12  28
ATOM     28  N   UNL A   1      29.915  27.992  23.754  1.00  0.00    -0.356 N 
ATOM     29  C   UNL A   1      28.584  27.901  23.184  1.00  0.00     0.118 C 
ATOM     30  C   UNL A   1      30.311  29.370  23.990  1.00  0.00     0.118 C 
ATOM     31  C   UNL A   1      28.493  29.211  22.409  1.00  0.00     0.023 C 
ATOM     32  C   UNL A   1      29.194  30.193  23.341  1.00  0.00     0.023 C 
ENDBRANCH  12  28
ENDBRANCH   4   7
ENDBRANCH   2   3
ENDBRANCH   1   2
BRANCH   1  33
ATOM     33  C   UNL A   1      33.818  28.814  24.948  1.00  0.00     0.002 C 
BRANCH  33  34
ATOM     34  C   UNL A   1      34.012  28.008  26.238  1.00  0.00     0.002 C 
BRANCH  34  35
ATOM     35  C   UNL A   1      33.999  28.830  27.528  1.00  0.00     0.021 C 
BRANCH  35  36
ATOM     36  C   UNL A   1      35.228  29.708  27.725  1.00  0.00     0.116 C 
BRANCH  36  37
ATOM     37  N   UNL A   1      35.224  30.379  29.013  1.00  0.00    -0.352 N 
ATOM     38  C   UNL A   1      36.233  30.467  29.938  1.00  0.00     0.251 C 
ATOM     39  H   UNL A   1      34.384  30.831  29.256  1.00  0.00     0.163 HD
ATOM     40  O   UNL A   1      36.021  30.942  31.049  1.00  0.00    -0.269 OA
BRANCH  38  41
ATOM     41  C   UNL A   1      37.577  29.957  29.598  1.00  0.00     0.039 A 
ATOM     42  C   UNL A   1      38.024  30.067  28.280  1.00  0.00     0.014 A 
ATOM     43  C   UNL A   1      38.393  29.378  30.577  1.00  0.00     0.014 A 
ATOM     44  C   UNL A   1      39.312  29.643  27.952  1.00  0.00     0.010 A 
ATOM     45  C   UNL A   1      39.698  29.016  30.261  1.00  0.00     0.010 A 
ATOM     46  C   UNL A   1      40.166  29.138  28.945  1.00  0.00    -0.014 A 
BRANCH  46  47
ATOM     47  C   UNL A   1      41.550  28.718  28.618  1.00  0.00     0.031 A 
ATOM     48  C   UNL A   1      41.829  27.300  28.212  1.00  0.00     0.074 A 
ATOM     49  C   UNL A   1      42.559  29.600  28.742  1.00  0.00     0.049 A 
ATOM     50  N   UNL A   1      42.973  26.731  27.932  1.00  0.00    -0.248 NA
ATOM     51  C   UNL A   1      40.671  26.393  28.136  1.00  0.00     0.031 C 
ATOM     52  C   UNL A   1      42.421  30.989  29.183  1.00  0.00     0.029 A 
ATOM     53  N   UNL A   1      43.904  29.454  28.516  1.00  0.00    -0.354 N 
ATOM     54  C   UNL A   1      42.677  25.400  27.669  1.00  0.00     0.074 A 
ATOM     55  C   UNL A   1      41.254  25.234  27.863  1.00  0.00     0.031 C 
ATOM     56  C   UNL A   1      43.630  31.575  29.173  1.00  0.00     0.029 A 
ATOM     57  C   UNL A   1      44.628  30.598  28.751  1.00  0.00     0.049 A 
ATOM     58  H   UNL A   1      44.312  28.610  28.216  1.00  0.00     0.167 HD
ATOM     59  C   UNL A   1      43.514  24.409  27.279  1.00  0.00     0.037 A 
ATOM     60  C   UNL A   1      45.948  30.829  28.634  1.00  0.00     0.037 A 
ATOM     61  C   UNL A   1      44.923  24.584  27.047  1.00  0.00     0.049 A 
ATOM     62  C   UNL A   1      46.850  29.723  28.166  1.00  0.00     0.074 A 
ATOM     63  C   UNL A   1      45.843  23.661  26.582  1.00  0.00     0.029 A 
ATOM     64  N   UNL A   1      45.615  25.767  27.263  1.00  0.00    -0.354 N 
ATOM     65  N   UNL A   1      46.548  28.487  27.854  1.00  0.00    -0.248 NA
ATOM     66  C   UNL A   1      48.278  30.046  28.027  1.00  0.00     0.031 C 
ATOM     67  C   UNL A   1      47.098  24.278  26.540  1.00  0.00     0.029 A 
ATOM     68  C   UNL A   1      46.952  25.594  26.951  1.00  0.00     0.049 A 
ATOM     69  H   UNL A   1      45.213  26.604  27.590  1.00  0.00     0.167 HD
ATOM     70  C   UNL A   1      47.738  27.891  27.461  1.00  0.00     0.074 A 
ATOM     71  C   UNL A   1      48.768  28.905  27.563  1.00  0.00     0.031 C 
ATOM     72  C   UNL A   1      47.959  26.617  27.052  1.00  0.00     0.037 A 
BRANCH  59  73
ATOM     73  C   UNL A   1      42.918  23.050  27.066  1.00  0.00     0.057 A 
ATOM     74  C   UNL A   1      42.653  22.556  25.783  1.00  0.00     0.134 A 
ATOM     75  C   UNL A   1      42.627  22.218  28.153  1.00  0.00     0.134 A 
ATOM     76  F   UNL A   1      42.896  23.310  24.700  1.00  0.00    -0.206 F 
ATOM     77  C   UNL A   1      42.097  21.291  25.588  1.00  0.00     0.040 A 
ATOM     78  C   UNL A   1      42.091  20.942  27.971  1.00  0.00     0.040 A 
ATOM     79  F   UNL A   1      42.861  22.629  29.409  1.00  0.00    -0.206 F 
ATOM     80  C   UNL A   1      41.819  20.477  26.686  1.00  0.00     0.006 A 
ENDBRANCH  59  73
BRANCH  60  81
ATOM     81  C   UNL A   1      46.491  32.177  28.927  1.00  0.00     0.057 A 
ATOM     82  C   UNL A   1      46.935  32.508  30.213  1.00  0.00     0.134 A 
ATOM     83  C   UNL A   1      46.585  33.161  27.937  1.00  0.00     0.134 A 
ATOM     84  F   UNL A   1      46.855  31.611  31.206  1.00  0.00    -0.206 F 
ATOM     85  C   UNL A   1      47.439  33.775  30.507  1.00  0.00     0.040 A 
ATOM     86  C   UNL A   1      47.104  34.426  28.212  1.00  0.00     0.040 A 
ATOM     87  F   UNL A   1      46.183  32.900  26.684  1.00  0.00    -0.206 F 
ATOM     88  C   UNL A   1      47.529  34.737  29.503  1.00  0.00     0.006 A 
ENDBRANCH  60  81
BRANCH  72  89
ATOM     89  C   UNL A   1      49.360  26.260  26.663  1.00  0.00     0.057 A 
ATOM     90  C   UNL A   1      49.862  26.540  25.387  1.00  0.00     0.134 A 
ATOM     91  C   UNL A   1      50.228  25.668  27.590  1.00  0.00     0.134 A 
ATOM     92  F   UNL A   1      49.075  27.094  24.453  1.00  0.00    -0.206 F 
ATOM     93  C   UNL A   1      51.177  26.226  25.039  1.00  0.00     0.040 A 
ATOM     94  C   UNL A   1      51.549  25.368  27.260  1.00  0.00     0.040 A 
ATOM     95  F   UNL A   1      49.807  25.382  28.831  1.00  0.00    -0.206 F 
ATOM     96  C   UNL A   1      52.026  25.645  25.978  1.00  0.00     0.006 A 
ENDBRANCH  72  89
ENDBRANCH  46  47
ENDBRANCH  38  41
ENDBRANCH  36  37
ENDBRANCH  35  36
ENDBRANCH  34  35
ENDBRANCH  33  34
ENDBRANCH   1  33
TORSDOF 19
ENDMDL
