MODEL 1
REMARK VINA RESULT:     -11.1      0.000      0.000
REMARK SMILES O=C(/C=C/C(=O)Nc1ccccn1)NCCCCCCNC(=O)c1ccc(-c2c3nc(c(-c4c(F)cccc4F)c4ccc([nH]4)c(-c4c(F)cccc4F)c4nc(c(-c5c(F)cccc5F)c5ccc2[nH]5)C=C4)C=C3)cc1
REMARK SMILES IDX 17 1 16 2 15 3 14 4 1 5 2 6 3 8 4 9 5 10 6 11 7 12 8 14 9 15
REMARK SMILES IDX 13 16 10 17 12 18 11 19 18 20 19 21 20 22 21 23 22 24 23 26
REMARK SMILES IDX 24 27 25 28 77 29 26 30 76 31 27 32 28 33 29 34 70 35 30 36
REMARK SMILES IDX 75 37 69 38 71 39 31 40 74 41 68 42 67 43 32 45 58 46 41 47
REMARK SMILES IDX 57 48 42 49 45 50 56 51 72 52 43 53 44 54 55 56 73 57 46 58
REMARK SMILES IDX 33 59 34 60 39 61 35 62 36 63 38 64 40 65 37 66 59 67 60 68
REMARK SMILES IDX 65 69 61 70 62 71 64 72 66 73 63 74 47 75 48 76 53 77 49 78
REMARK SMILES IDX 50 79 52 80 54 81 51 82
REMARK H PARENT 14 7 7 13 21 25 71 44 45 55
REMARK Flexibility Score: inf
ROOT
ATOM      1  C   UNL A   1      32.252  29.793  27.095  1.00  0.00     0.002 C 
ENDROOT
BRANCH   1   2
ATOM      2  C   UNL A   1      33.617  29.256  26.641  1.00  0.00     0.021 C 
BRANCH   2   3
ATOM      3  C   UNL A   1      33.646  27.739  26.451  1.00  0.00     0.116 C 
BRANCH   3   4
ATOM      4  N   UNL A   1      32.409  27.291  25.847  1.00  0.00    -0.353 N 
ATOM      5  O   UNL A   1      33.214  27.311  23.701  1.00  0.00    -0.270 OA
ATOM      6  C   UNL A   1      32.284  27.202  24.492  1.00  0.00     0.244 C 
ATOM      7  H   UNL A   1      31.648  27.048  26.423  1.00  0.00     0.163 HD
BRANCH   6   8
ATOM      8  C   UNL A   1      30.911  27.033  23.979  1.00  0.00     0.077 C 
ATOM      9  C   UNL A   1      29.984  27.999  23.884  1.00  0.00     0.077 C 
BRANCH   9  10
ATOM     10  C   UNL A   1      28.592  27.652  23.500  1.00  0.00     0.249 C 
ATOM     11  O   UNL A   1      28.208  26.497  23.665  1.00  0.00    -0.270 OA
ATOM     12  N   UNL A   1      27.757  28.625  23.030  1.00  0.00    -0.307 N 
ATOM     13  H   UNL A   1      26.807  28.370  22.976  1.00  0.00     0.171 HD
BRANCH  12  14
ATOM     14  C   UNL A   1      28.047  29.926  22.617  1.00  0.00     0.132 A 
ATOM     15  C   UNL A   1      28.089  31.001  23.500  1.00  0.00     0.047 A 
ATOM     16  N   UNL A   1      28.184  30.072  21.287  1.00  0.00    -0.239 NA
ATOM     17  C   UNL A   1      28.122  32.292  22.985  1.00  0.00     0.005 A 
ATOM     18  C   UNL A   1      28.209  31.338  20.809  1.00  0.00     0.113 A 
ATOM     19  C   UNL A   1      28.153  32.468  21.609  1.00  0.00     0.020 A 
ENDBRANCH  12  14
ENDBRANCH   9  10
ENDBRANCH   6   8
ENDBRANCH   3   4
ENDBRANCH   2   3
ENDBRANCH   1   2
BRANCH   1  20
ATOM     20  C   UNL A   1      31.571  30.736  26.100  1.00  0.00     0.002 C 
BRANCH  20  21
ATOM     21  C   UNL A   1      31.401  32.171  26.597  1.00  0.00     0.021 C 
BRANCH  21  22
ATOM     22  C   UNL A   1      32.675  32.797  27.151  1.00  0.00     0.116 C 
BRANCH  22  23
ATOM     23  N   UNL A   1      32.457  34.155  27.624  1.00  0.00    -0.352 N 
ATOM     24  C   UNL A   1      33.061  34.817  28.662  1.00  0.00     0.251 C 
ATOM     25  H   UNL A   1      31.780  34.672  27.130  1.00  0.00     0.163 HD
ATOM     26  O   UNL A   1      32.623  35.897  29.049  1.00  0.00    -0.269 OA
BRANCH  24  27
ATOM     27  C   UNL A   1      34.233  34.214  29.331  1.00  0.00     0.039 A 
ATOM     28  C   UNL A   1      34.027  33.365  30.420  1.00  0.00     0.014 A 
ATOM     29  C   UNL A   1      35.529  34.480  28.879  1.00  0.00     0.014 A 
ATOM     30  C   UNL A   1      35.119  32.736  31.021  1.00  0.00     0.010 A 
ATOM     31  C   UNL A   1      36.606  33.789  29.425  1.00  0.00     0.010 A 
ATOM     32  C   UNL A   1      36.413  32.915  30.505  1.00  0.00    -0.014 A 
BRANCH  32  33
ATOM     33  C   UNL A   1      37.576  32.196  31.083  1.00  0.00     0.031 A 
ATOM     34  C   UNL A   1      38.134  32.605  32.418  1.00  0.00     0.074 A 
ATOM     35  C   UNL A   1      38.167  31.212  30.378  1.00  0.00     0.049 A 
ATOM     36  N   UNL A   1      39.163  32.123  33.067  1.00  0.00    -0.248 NA
ATOM     37  C   UNL A   1      37.460  33.719  33.102  1.00  0.00     0.031 C 
ATOM     38  C   UNL A   1      37.748  30.750  29.053  1.00  0.00     0.029 A 
ATOM     39  N   UNL A   1      39.248  30.422  30.677  1.00  0.00    -0.354 N 
ATOM     40  C   UNL A   1      39.270  32.883  34.225  1.00  0.00     0.074 A 
ATOM     41  C   UNL A   1      38.237  33.895  34.160  1.00  0.00     0.031 C 
ATOM     42  C   UNL A   1      38.538  29.734  28.671  1.00  0.00     0.029 A 
ATOM     43  C   UNL A   1      39.546  29.502  29.701  1.00  0.00     0.049 A 
ATOM     44  H   UNL A   1      39.763  30.508  31.513  1.00  0.00     0.167 HD
ATOM     45  C   UNL A   1      40.134  32.740  35.259  1.00  0.00     0.037 A 
ATOM     46  C   UNL A   1      40.521  28.576  29.644  1.00  0.00     0.037 A 
ATOM     47  C   UNL A   1      41.150  31.721  35.325  1.00  0.00     0.049 A 
ATOM     48  C   UNL A   1      41.487  28.455  30.790  1.00  0.00     0.074 A 
ATOM     49  C   UNL A   1      42.031  31.449  36.355  1.00  0.00     0.029 A 
ATOM     50  N   UNL A   1      41.426  30.814  34.311  1.00  0.00    -0.354 N 
ATOM     51  N   UNL A   1      41.526  29.128  31.915  1.00  0.00    -0.248 NA
ATOM     52  C   UNL A   1      42.543  27.442  30.659  1.00  0.00     0.031 C 
ATOM     53  C   UNL A   1      42.882  30.418  35.941  1.00  0.00     0.029 A 
ATOM     54  C   UNL A   1      42.489  30.005  34.678  1.00  0.00     0.049 A 
ATOM     55  H   UNL A   1      40.940  30.756  33.458  1.00  0.00     0.167 HD
ATOM     56  C   UNL A   1      42.586  28.596  32.639  1.00  0.00     0.074 A 
ATOM     57  C   UNL A   1      43.155  27.538  31.831  1.00  0.00     0.031 C 
ATOM     58  C   UNL A   1      43.044  28.951  33.865  1.00  0.00     0.037 A 
BRANCH  45  59
ATOM     59  C   UNL A   1      40.021  33.717  36.394  1.00  0.00     0.057 A 
ATOM     60  C   UNL A   1      40.745  34.917  36.419  1.00  0.00     0.134 A 
ATOM     61  C   UNL A   1      39.164  33.462  37.472  1.00  0.00     0.134 A 
ATOM     62  F   UNL A   1      41.593  35.221  35.425  1.00  0.00    -0.206 F 
ATOM     63  C   UNL A   1      40.654  35.805  37.493  1.00  0.00     0.040 A 
ATOM     64  C   UNL A   1      39.037  34.359  38.535  1.00  0.00     0.040 A 
ATOM     65  F   UNL A   1      38.431  32.339  37.511  1.00  0.00    -0.206 F 
ATOM     66  C   UNL A   1      39.792  35.529  38.553  1.00  0.00     0.006 A 
ENDBRANCH  45  59
BRANCH  46  67
ATOM     67  C   UNL A   1      40.615  27.664  28.475  1.00  0.00     0.057 A 
ATOM     68  C   UNL A   1      41.383  28.009  27.356  1.00  0.00     0.134 A 
ATOM     69  C   UNL A   1      39.940  26.438  28.441  1.00  0.00     0.134 A 
ATOM     70  F   UNL A   1      42.038  29.178  27.322  1.00  0.00    -0.206 F 
ATOM     71  C   UNL A   1      41.460  27.178  26.237  1.00  0.00     0.040 A 
ATOM     72  C   UNL A   1      40.030  25.585  27.339  1.00  0.00     0.040 A 
ATOM     73  F   UNL A   1      39.194  26.045  29.484  1.00  0.00    -0.206 F 
ATOM     74  C   UNL A   1      40.786  25.959  26.230  1.00  0.00     0.006 A 
ENDBRANCH  46  67
BRANCH  58  75
ATOM     75  C   UNL A   1      44.192  28.160  34.426  1.00  0.00     0.057 A 
ATOM     76  C   UNL A   1      43.997  26.975  35.147  1.00  0.00     0.134 A 
ATOM     77  C   UNL A   1      45.513  28.576  34.213  1.00  0.00     0.134 A 
ATOM     78  F   UNL A   1      42.758  26.528  35.399  1.00  0.00    -0.206 F 
ATOM     79  C   UNL A   1      45.073  26.248  35.661  1.00  0.00     0.040 A 
ATOM     80  C   UNL A   1      46.598  27.841  34.694  1.00  0.00     0.040 A 
ATOM     81  F   UNL A   1      45.773  29.696  33.523  1.00  0.00    -0.206 F 
ATOM     82  C   UNL A   1      46.378  26.678  35.427  1.00  0.00     0.006 A 
ENDBRANCH  58  75
ENDBRANCH  32  33
ENDBRANCH  24  27
ENDBRANCH  22  23
ENDBRANCH  21  22
ENDBRANCH  20  21
ENDBRANCH   1  20
TORSDOF 15
ENDMDL
MODEL 2
REMARK VINA RESULT:     -11.0      6.315     10.452
REMARK SMILES O=C(/C=C/C(=O)Nc1ccccn1)NCCCCCCNC(=O)c1ccc(-c2c3nc(c(-c4c(F)cccc4F)c4ccc([nH]4)c(-c4c(F)cccc4F)c4nc(c(-c5c(F)cccc5F)c5ccc2[nH]5)C=C4)C=C3)cc1
REMARK SMILES IDX 17 1 16 2 15 3 14 4 1 5 2 6 3 8 4 9 5 10 6 11 7 12 8 14 9 15
REMARK SMILES IDX 13 16 10 17 12 18 11 19 18 20 19 21 20 22 21 23 22 24 23 26
REMARK SMILES IDX 24 27 25 28 77 29 26 30 76 31 27 32 28 33 29 34 70 35 30 36
REMARK SMILES IDX 75 37 69 38 71 39 31 40 74 41 68 42 67 43 32 45 58 46 41 47
REMARK SMILES IDX 57 48 42 49 45 50 56 51 72 52 43 53 44 54 55 56 73 57 46 58
REMARK SMILES IDX 33 59 34 60 39 61 35 62 36 63 38 64 40 65 37 66 59 67 60 68
REMARK SMILES IDX 65 69 61 70 62 71 64 72 66 73 63 74 47 75 48 76 53 77 49 78
REMARK SMILES IDX 50 79 52 80 54 81 51 82
REMARK H PARENT 14 7 7 13 21 25 71 44 45 55
REMARK Flexibility Score: inf
ROOT
ATOM      1  C   UNL A   1      36.984  22.063  24.436  1.00  0.00     0.002 C 
ENDROOT
BRANCH   1   2
ATOM      2  C   UNL A   1      37.063  23.180  25.488  1.00  0.00     0.021 C 
BRANCH   2   3
ATOM      3  C   UNL A   1      35.832  24.088  25.510  1.00  0.00     0.116 C 
BRANCH   3   4
ATOM      4  N   UNL A   1      34.759  23.487  24.748  1.00  0.00    -0.353 N 
ATOM      5  O   UNL A   1      33.399  23.133  26.558  1.00  0.00    -0.270 OA
ATOM      6  C   UNL A   1      33.658  22.977  25.371  1.00  0.00     0.244 C 
ATOM      7  H   UNL A   1      34.825  23.446  23.766  1.00  0.00     0.163 HD
BRANCH   6   8
ATOM      8  C   UNL A   1      32.781  22.128  24.542  1.00  0.00     0.077 C 
ATOM      9  C   UNL A   1      33.186  21.149  23.719  1.00  0.00     0.077 C 
BRANCH   9  10
ATOM     10  C   UNL A   1      32.206  20.483  22.824  1.00  0.00     0.249 C 
ATOM     11  O   UNL A   1      31.499  21.183  22.104  1.00  0.00    -0.270 OA
ATOM     12  N   UNL A   1      32.151  19.119  22.775  1.00  0.00    -0.307 N 
ATOM     13  H   UNL A   1      31.620  18.748  22.033  1.00  0.00     0.171 HD
BRANCH  12  14
ATOM     14  C   UNL A   1      32.733  18.173  23.620  1.00  0.00     0.132 A 
ATOM     15  C   UNL A   1      33.748  17.318  23.200  1.00  0.00     0.047 A 
ATOM     16  N   UNL A   1      32.167  18.086  24.837  1.00  0.00    -0.239 NA
ATOM     17  C   UNL A   1      34.092  16.238  24.006  1.00  0.00     0.005 A 
ATOM     18  C   UNL A   1      32.514  17.024  25.600  1.00  0.00     0.113 A 
ATOM     19  C   UNL A   1      33.441  16.068  25.219  1.00  0.00     0.020 A 
ENDBRANCH  12  14
ENDBRANCH   9  10
ENDBRANCH   6   8
ENDBRANCH   3   4
ENDBRANCH   2   3
ENDBRANCH   1   2
BRANCH   1  20
ATOM     20  C   UNL A   1      36.697  20.670  25.002  1.00  0.00     0.002 C 
BRANCH  20  21
ATOM     21  C   UNL A   1      37.879  19.703  24.942  1.00  0.00     0.021 C 
BRANCH  21  22
ATOM     22  C   UNL A   1      39.089  20.141  25.759  1.00  0.00     0.116 C 
BRANCH  22  23
ATOM     23  N   UNL A   1      40.081  19.084  25.878  1.00  0.00    -0.352 N 
ATOM     24  C   UNL A   1      41.434  19.187  26.079  1.00  0.00     0.251 C 
ATOM     25  H   UNL A   1      39.733  18.167  25.805  1.00  0.00     0.163 HD
ATOM     26  O   UNL A   1      42.155  18.199  25.964  1.00  0.00    -0.269 OA
BRANCH  24  27
ATOM     27  C   UNL A   1      42.027  20.498  26.413  1.00  0.00     0.039 A 
ATOM     28  C   UNL A   1      42.419  21.348  25.376  1.00  0.00     0.014 A 
ATOM     29  C   UNL A   1      42.188  20.891  27.745  1.00  0.00     0.014 A 
ATOM     30  C   UNL A   1      42.919  22.616  25.674  1.00  0.00     0.010 A 
ATOM     31  C   UNL A   1      42.608  22.185  28.038  1.00  0.00     0.010 A 
ATOM     32  C   UNL A   1      42.984  23.058  27.006  1.00  0.00    -0.014 A 
BRANCH  32  33
ATOM     33  C   UNL A   1      43.442  24.430  27.338  1.00  0.00     0.031 A 
ATOM     34  C   UNL A   1      42.454  25.477  27.772  1.00  0.00     0.074 A 
ATOM     35  C   UNL A   1      44.743  24.750  27.191  1.00  0.00     0.049 A 
ATOM     36  N   UNL A   1      42.658  26.736  28.067  1.00  0.00    -0.248 NA
ATOM     37  C   UNL A   1      41.046  25.059  27.862  1.00  0.00     0.031 C 
ATOM     38  C   UNL A   1      45.793  23.837  26.736  1.00  0.00     0.029 A 
ATOM     39  N   UNL A   1      45.403  25.933  27.408  1.00  0.00    -0.354 N 
ATOM     40  C   UNL A   1      41.407  27.262  28.362  1.00  0.00     0.074 A 
ATOM     41  C   UNL A   1      40.444  26.202  28.153  1.00  0.00     0.031 C 
ATOM     42  C   UNL A   1      46.971  24.482  26.745  1.00  0.00     0.029 A 
ATOM     43  C   UNL A   1      46.753  25.864  27.162  1.00  0.00     0.049 A 
ATOM     44  H   UNL A   1      44.951  26.755  27.711  1.00  0.00     0.167 HD
ATOM     45  C   UNL A   1      41.090  28.508  28.789  1.00  0.00     0.037 A 
ATOM     46  C   UNL A   1      47.706  26.809  27.261  1.00  0.00     0.037 A 
ATOM     47  C   UNL A   1      42.053  29.555  29.011  1.00  0.00     0.049 A 
ATOM     48  C   UNL A   1      47.325  28.193  27.709  1.00  0.00     0.074 A 
ATOM     49  C   UNL A   1      41.844  30.829  29.505  1.00  0.00     0.029 A 
ATOM     50  N   UNL A   1      43.411  29.449  28.740  1.00  0.00    -0.354 N 
ATOM     51  N   UNL A   1      46.151  28.655  28.061  1.00  0.00    -0.248 NA
ATOM     52  C   UNL A   1      48.407  29.186  27.775  1.00  0.00     0.031 C 
ATOM     53  C   UNL A   1      43.062  31.516  29.475  1.00  0.00     0.029 A 
ATOM     54  C   UNL A   1      44.044  30.648  29.022  1.00  0.00     0.049 A 
ATOM     55  H   UNL A   1      43.856  28.642  28.396  1.00  0.00     0.167 HD
ATOM     56  C   UNL A   1      46.356  29.981  28.425  1.00  0.00     0.074 A 
ATOM     57  C   UNL A   1      47.771  30.243  28.260  1.00  0.00     0.031 C 
ATOM     58  C   UNL A   1      45.455  30.896  28.858  1.00  0.00     0.037 A 
BRANCH  45  59
ATOM     59  C   UNL A   1      39.637  28.806  29.033  1.00  0.00     0.057 A 
ATOM     60  C   UNL A   1      38.786  29.250  28.011  1.00  0.00     0.134 A 
ATOM     61  C   UNL A   1      39.076  28.632  30.305  1.00  0.00     0.134 A 
ATOM     62  F   UNL A   1      39.258  29.448  26.771  1.00  0.00    -0.206 F 
ATOM     63  C   UNL A   1      37.444  29.550  28.254  1.00  0.00     0.040 A 
ATOM     64  C   UNL A   1      37.728  28.895  30.552  1.00  0.00     0.040 A 
ATOM     65  F   UNL A   1      39.828  28.200  31.328  1.00  0.00    -0.206 F 
ATOM     66  C   UNL A   1      36.910  29.367  29.528  1.00  0.00     0.006 A 
ENDBRANCH  45  59
BRANCH  46  67
ATOM     67  C   UNL A   1      49.123  26.472  26.964  1.00  0.00     0.057 A 
ATOM     68  C   UNL A   1      49.624  26.567  25.660  1.00  0.00     0.134 A 
ATOM     69  C   UNL A   1      50.003  26.042  27.964  1.00  0.00     0.134 A 
ATOM     70  F   UNL A   1      48.825  26.956  24.656  1.00  0.00    -0.206 F 
ATOM     71  C   UNL A   1      50.944  26.227  25.357  1.00  0.00     0.040 A 
ATOM     72  C   UNL A   1      51.333  25.726  27.679  1.00  0.00     0.040 A 
ATOM     73  F   UNL A   1      49.588  25.938  29.235  1.00  0.00    -0.206 F 
ATOM     74  C   UNL A   1      51.804  25.811  26.371  1.00  0.00     0.006 A 
ENDBRANCH  46  67
BRANCH  58  75
ATOM     75  C   UNL A   1      45.979  32.255  29.227  1.00  0.00     0.057 A 
ATOM     76  C   UNL A   1      46.013  33.314  28.310  1.00  0.00     0.134 A 
ATOM     77  C   UNL A   1      46.428  32.515  30.529  1.00  0.00     0.134 A 
ATOM     78  F   UNL A   1      45.611  33.130  27.044  1.00  0.00    -0.206 F 
ATOM     79  C   UNL A   1      46.500  34.573  28.667  1.00  0.00     0.040 A 
ATOM     80  C   UNL A   1      46.887  33.777  30.906  1.00  0.00     0.040 A 
ATOM     81  F   UNL A   1      46.414  31.549  31.460  1.00  0.00    -0.206 F 
ATOM     82  C   UNL A   1      46.932  34.808  29.971  1.00  0.00     0.006 A 
ENDBRANCH  58  75
ENDBRANCH  32  33
ENDBRANCH  24  27
ENDBRANCH  22  23
ENDBRANCH  21  22
ENDBRANCH  20  21
ENDBRANCH   1  20
TORSDOF 15
ENDMDL
MODEL 3
REMARK VINA RESULT:     -11.0      6.202     10.972
REMARK SMILES O=C(/C=C/C(=O)Nc1ccccn1)NCCCCCCNC(=O)c1ccc(-c2c3nc(c(-c4c(F)cccc4F)c4ccc([nH]4)c(-c4c(F)cccc4F)c4nc(c(-c5c(F)cccc5F)c5ccc2[nH]5)C=C4)C=C3)cc1
REMARK SMILES IDX 17 1 16 2 15 3 14 4 1 5 2 6 3 8 4 9 5 10 6 11 7 12 8 14 9 15
REMARK SMILES IDX 13 16 10 17 12 18 11 19 18 20 19 21 20 22 21 23 22 24 23 26
REMARK SMILES IDX 24 27 25 28 77 29 26 30 76 31 27 32 28 33 29 34 70 35 30 36
REMARK SMILES IDX 75 37 69 38 71 39 31 40 74 41 68 42 67 43 32 45 58 46 41 47
REMARK SMILES IDX 57 48 42 49 45 50 56 51 72 52 43 53 44 54 55 56 73 57 46 58
REMARK SMILES IDX 33 59 34 60 39 61 35 62 36 63 38 64 40 65 37 66 59 67 60 68
REMARK SMILES IDX 65 69 61 70 62 71 64 72 66 73 63 74 47 75 48 76 53 77 49 78
REMARK SMILES IDX 50 79 52 80 54 81 51 82
REMARK H PARENT 14 7 7 13 21 25 71 44 45 55
REMARK Flexibility Score: inf
ROOT
ATOM      1  C   UNL A   1      37.229  21.945  24.482  1.00  0.00     0.002 C 
ENDROOT
BRANCH   1   2
ATOM      2  C   UNL A   1      37.379  22.976  25.610  1.00  0.00     0.021 C 
BRANCH   2   3
ATOM      3  C   UNL A   1      36.243  23.999  25.661  1.00  0.00     0.116 C 
BRANCH   3   4
ATOM      4  N   UNL A   1      35.098  23.503  24.931  1.00  0.00    -0.353 N 
ATOM      5  O   UNL A   1      33.841  23.066  26.797  1.00  0.00    -0.270 OA
ATOM      6  C   UNL A   1      34.016  22.992  25.587  1.00  0.00     0.244 C 
ATOM      7  H   UNL A   1      35.098  23.535  23.946  1.00  0.00     0.163 HD
BRANCH   6   8
ATOM      8  C   UNL A   1      33.050  22.246  24.758  1.00  0.00     0.077 C 
ATOM      9  C   UNL A   1      33.348  21.252  23.908  1.00  0.00     0.077 C 
BRANCH   9  10
ATOM     10  C   UNL A   1      32.294  20.699  23.018  1.00  0.00     0.249 C 
ATOM     11  O   UNL A   1      31.613  21.480  22.361  1.00  0.00    -0.270 OA
ATOM     12  N   UNL A   1      32.145  19.346  22.906  1.00  0.00    -0.307 N 
ATOM     13  H   UNL A   1      31.565  19.050  22.166  1.00  0.00     0.171 HD
BRANCH  12  14
ATOM     14  C   UNL A   1      32.690  18.321  23.681  1.00  0.00     0.132 A 
ATOM     15  C   UNL A   1      33.626  17.421  23.181  1.00  0.00     0.047 A 
ATOM     16  N   UNL A   1      32.165  18.213  24.914  1.00  0.00    -0.239 NA
ATOM     17  C   UNL A   1      33.923  16.281  23.919  1.00  0.00     0.005 A 
ATOM     18  C   UNL A   1      32.463  17.092  25.611  1.00  0.00     0.113 A 
ATOM     19  C   UNL A   1      33.307  16.096  25.148  1.00  0.00     0.020 A 
ENDBRANCH  12  14
ENDBRANCH   9  10
ENDBRANCH   6   8
ENDBRANCH   3   4
ENDBRANCH   2   3
ENDBRANCH   1   2
BRANCH   1  20
ATOM     20  C   UNL A   1      36.974  20.512  24.954  1.00  0.00     0.002 C 
BRANCH  20  21
ATOM     21  C   UNL A   1      38.198  19.598  24.904  1.00  0.00     0.021 C 
BRANCH  21  22
ATOM     22  C   UNL A   1      39.240  19.886  25.978  1.00  0.00     0.116 C 
BRANCH  22  23
ATOM     23  N   UNL A   1      40.344  18.940  25.938  1.00  0.00    -0.352 N 
ATOM     24  C   UNL A   1      41.690  19.177  26.041  1.00  0.00     0.251 C 
ATOM     25  H   UNL A   1      40.088  17.997  25.823  1.00  0.00     0.163 HD
ATOM     26  O   UNL A   1      42.498  18.285  25.796  1.00  0.00    -0.269 OA
BRANCH  24  27
ATOM     27  C   UNL A   1      42.170  20.520  26.427  1.00  0.00     0.039 A 
ATOM     28  C   UNL A   1      42.592  21.401  25.429  1.00  0.00     0.014 A 
ATOM     29  C   UNL A   1      42.194  20.912  27.770  1.00  0.00     0.014 A 
ATOM     30  C   UNL A   1      42.985  22.695  25.772  1.00  0.00     0.010 A 
ATOM     31  C   UNL A   1      42.506  22.227  28.100  1.00  0.00     0.010 A 
ATOM     32  C   UNL A   1      42.911  23.130  27.106  1.00  0.00    -0.014 A 
BRANCH  32  33
ATOM     33  C   UNL A   1      43.253  24.525  27.478  1.00  0.00     0.031 A 
ATOM     34  C   UNL A   1      44.686  24.978  27.490  1.00  0.00     0.074 A 
ATOM     35  C   UNL A   1      42.276  25.369  27.863  1.00  0.00     0.049 A 
ATOM     36  N   UNL A   1      45.183  26.143  27.822  1.00  0.00    -0.248 NA
ATOM     37  C   UNL A   1      45.697  23.983  27.102  1.00  0.00     0.031 C 
ATOM     38  C   UNL A   1      40.851  25.039  27.936  1.00  0.00     0.029 A 
ATOM     39  N   UNL A   1      42.332  26.679  28.267  1.00  0.00    -0.354 N 
ATOM     40  C   UNL A   1      46.561  26.015  27.697  1.00  0.00     0.074 A 
ATOM     41  C   UNL A   1      46.824  24.644  27.317  1.00  0.00     0.031 C 
ATOM     42  C   UNL A   1      40.166  26.127  28.321  1.00  0.00     0.029 A 
ATOM     43  C   UNL A   1      41.105  27.218  28.567  1.00  0.00     0.049 A 
ATOM     44  H   UNL A   1      43.175  27.185  28.337  1.00  0.00     0.167 HD
ATOM     45  C   UNL A   1      47.519  26.959  27.862  1.00  0.00     0.037 A 
ATOM     46  C   UNL A   1      40.774  28.451  28.990  1.00  0.00     0.037 A 
ATOM     47  C   UNL A   1      47.251  28.326  28.226  1.00  0.00     0.049 A 
ATOM     48  C   UNL A   1      41.858  29.473  29.195  1.00  0.00     0.074 A 
ATOM     49  C   UNL A   1      48.144  29.375  28.354  1.00  0.00     0.029 A 
ATOM     50  N   UNL A   1      45.995  28.830  28.530  1.00  0.00    -0.354 N 
ATOM     51  N   UNL A   1      43.149  29.362  28.996  1.00  0.00    -0.248 NA
ATOM     52  C   UNL A   1      41.436  30.795  29.681  1.00  0.00     0.031 C 
ATOM     53  C   UNL A   1      47.437  30.498  28.796  1.00  0.00     0.029 A 
ATOM     54  C   UNL A   1      46.094  30.167  28.882  1.00  0.00     0.049 A 
ATOM     55  H   UNL A   1      45.157  28.314  28.502  1.00  0.00     0.167 HD
ATOM     56  C   UNL A   1      43.689  30.607  29.298  1.00  0.00     0.074 A 
ATOM     57  C   UNL A   1      42.583  31.459  29.682  1.00  0.00     0.031 C 
ATOM     58  C   UNL A   1      44.984  31.007  29.258  1.00  0.00     0.037 A 
BRANCH  45  59
ATOM     59  C   UNL A   1      48.947  26.535  27.662  1.00  0.00     0.057 A 
ATOM     60  C   UNL A   1      49.550  26.525  26.397  1.00  0.00     0.134 A 
ATOM     61  C   UNL A   1      49.735  26.144  28.752  1.00  0.00     0.134 A 
ATOM     62  F   UNL A   1      48.852  26.877  25.307  1.00  0.00    -0.206 F 
ATOM     63  C   UNL A   1      50.870  26.103  26.218  1.00  0.00     0.040 A 
ATOM     64  C   UNL A   1      51.066  25.753  28.590  1.00  0.00     0.040 A 
ATOM     65  F   UNL A   1      49.227  26.139  29.994  1.00  0.00    -0.206 F 
ATOM     66  C   UNL A   1      51.634  25.721  27.319  1.00  0.00     0.006 A 
ENDBRANCH  45  59
BRANCH  46  67
ATOM     67  C   UNL A   1      39.348  28.804  29.217  1.00  0.00     0.057 A 
ATOM     68  C   UNL A   1      38.753  28.612  30.470  1.00  0.00     0.134 A 
ATOM     69  C   UNL A   1      38.548  29.330  28.196  1.00  0.00     0.134 A 
ATOM     70  F   UNL A   1      39.463  28.095  31.483  1.00  0.00    -0.206 F 
ATOM     71  C   UNL A   1      37.408  28.910  30.694  1.00  0.00     0.040 A 
ATOM     72  C   UNL A   1      37.208  29.658  28.415  1.00  0.00     0.040 A 
ATOM     73  F   UNL A   1      39.059  29.546  26.976  1.00  0.00    -0.206 F 
ATOM     74  C   UNL A   1      36.633  29.441  29.665  1.00  0.00     0.006 A 
ENDBRANCH  46  67
BRANCH  58  75
ATOM     75  C   UNL A   1      45.271  32.442  29.597  1.00  0.00     0.057 A 
ATOM     76  C   UNL A   1      45.228  33.457  28.633  1.00  0.00     0.134 A 
ATOM     77  C   UNL A   1      45.565  32.816  30.915  1.00  0.00     0.134 A 
ATOM     78  F   UNL A   1      44.966  33.167  27.350  1.00  0.00    -0.206 F 
ATOM     79  C   UNL A   1      45.494  34.788  28.962  1.00  0.00     0.040 A 
ATOM     80  C   UNL A   1      45.801  34.147  31.262  1.00  0.00     0.040 A 
ATOM     81  F   UNL A   1      45.613  31.897  31.891  1.00  0.00    -0.206 F 
ATOM     82  C   UNL A   1      45.775  35.136  30.282  1.00  0.00     0.006 A 
ENDBRANCH  58  75
ENDBRANCH  32  33
ENDBRANCH  24  27
ENDBRANCH  22  23
ENDBRANCH  21  22
ENDBRANCH  20  21
ENDBRANCH   1  20
TORSDOF 15
ENDMDL
