MODEL 1
REMARK VINA RESULT:      -9.2      0.000      0.000
REMARK SMILES CCCc1noc(C)c1C(=O)NCCCCCCNC(=O)c1ccc(-c2c3nc(c(-c4c(F)cccc4F)c4ccc([nH]4)c(-c4c(F)cccc4F)c4nc(c(-c5c(F)cccc5F)c5ccc2[nH]5)C=C4)C=C3)cc1
REMARK SMILES IDX 15 1 14 2 13 3 12 4 10 5 11 6 9 8 4 9 5 10 6 11 7 12 8 13
REMARK SMILES IDX 3 14 2 15 1 16 16 17 17 18 18 19 19 20 20 21 21 23 22 24
REMARK SMILES IDX 23 25 75 26 24 27 74 28 25 29 26 30 27 31 68 32 28 33 73 34
REMARK SMILES IDX 67 35 69 36 29 37 72 38 66 39 65 40 30 42 56 43 39 44 55 45
REMARK SMILES IDX 40 46 43 47 54 48 70 49 41 50 42 51 53 53 71 54 44 55 31 56
REMARK SMILES IDX 32 57 37 58 33 59 34 60 36 61 38 62 35 63 57 64 58 65 63 66
REMARK SMILES IDX 59 67 60 68 62 69 64 70 61 71 45 72 46 73 51 74 47 75 48 76
REMARK SMILES IDX 50 77 52 78 49 79
REMARK H PARENT 12 7 19 22 69 41 43 52
REMARK Flexibility Score: inf
ROOT
ATOM      1  C   UNL A   1      35.334  35.183  32.601  1.00  0.00     0.002 C 
ENDROOT
BRANCH   1   2
ATOM      2  C   UNL A   1      35.136  33.848  33.332  1.00  0.00     0.021 C 
BRANCH   2   3
ATOM      3  C   UNL A   1      35.497  33.941  34.817  1.00  0.00     0.116 C 
BRANCH   3   4
ATOM      4  N   UNL A   1      36.904  34.255  34.904  1.00  0.00    -0.352 N 
ATOM      5  C   UNL A   1      37.848  33.883  35.821  1.00  0.00     0.256 C 
ATOM      6  O   UNL A   1      38.829  34.612  35.933  1.00  0.00    -0.269 OA
ATOM      7  H   UNL A   1      37.239  34.834  34.182  1.00  0.00     0.163 HD
BRANCH   5   8
ATOM      8  C   UNL A   1      37.787  32.595  36.477  1.00  0.00     0.105 A 
ATOM      9  C   UNL A   1      38.181  31.367  35.859  1.00  0.00     0.097 A 
ATOM     10  N   UNL A   1      38.007  30.326  36.680  1.00  0.00    -0.084 NA
ATOM     11  O   UNL A   1      37.569  30.858  37.870  1.00  0.00    -0.361 OA
ATOM     12  C   UNL A   1      37.476  32.214  37.768  1.00  0.00     0.146 A 
ATOM     13  C   UNL A   1      37.129  32.875  39.040  1.00  0.00     0.092 C 
BRANCH   9  14
ATOM     14  C   UNL A   1      38.771  31.146  34.502  1.00  0.00     0.060 C 
BRANCH  14  15
ATOM     15  C   UNL A   1      40.028  30.274  34.478  1.00  0.00     0.003 C 
ATOM     16  C   UNL A   1      40.055  29.248  33.353  1.00  0.00     0.004 C 
ENDBRANCH  14  15
ENDBRANCH   9  14
ENDBRANCH   5   8
ENDBRANCH   3   4
ENDBRANCH   2   3
ENDBRANCH   1   2
BRANCH   1  17
ATOM     17  C   UNL A   1      34.199  36.187  32.821  1.00  0.00     0.002 C 
BRANCH  17  18
ATOM     18  C   UNL A   1      33.047  36.079  31.818  1.00  0.00     0.021 C 
BRANCH  18  19
ATOM     19  C   UNL A   1      33.440  36.388  30.377  1.00  0.00     0.116 C 
BRANCH  19  20
ATOM     20  N   UNL A   1      32.731  35.538  29.437  1.00  0.00    -0.352 N 
ATOM     21  C   UNL A   1      33.193  34.444  28.752  1.00  0.00     0.251 C 
ATOM     22  H   UNL A   1      31.792  35.780  29.268  1.00  0.00     0.163 HD
ATOM     23  O   UNL A   1      32.550  33.976  27.818  1.00  0.00    -0.269 OA
BRANCH  21  24
ATOM     24  C   UNL A   1      34.481  33.833  29.142  1.00  0.00     0.039 A 
ATOM     25  C   UNL A   1      34.480  32.768  30.045  1.00  0.00     0.014 A 
ATOM     26  C   UNL A   1      35.685  34.324  28.628  1.00  0.00     0.014 A 
ATOM     27  C   UNL A   1      35.687  32.167  30.402  1.00  0.00     0.010 A 
ATOM     28  C   UNL A   1      36.881  33.682  28.933  1.00  0.00     0.010 A 
ATOM     29  C   UNL A   1      36.894  32.606  29.832  1.00  0.00    -0.014 A 
BRANCH  29  30
ATOM     30  C   UNL A   1      38.184  31.961  30.181  1.00  0.00     0.031 A 
ATOM     31  C   UNL A   1      39.142  32.650  31.112  1.00  0.00     0.074 A 
ATOM     32  C   UNL A   1      38.514  30.784  29.617  1.00  0.00     0.049 A 
ATOM     33  N   UNL A   1      40.337  32.276  31.493  1.00  0.00    -0.248 NA
ATOM     34  C   UNL A   1      38.712  33.944  31.665  1.00  0.00     0.031 C 
ATOM     35  C   UNL A   1      37.689  30.041  28.662  1.00  0.00     0.029 A 
ATOM     36  N   UNL A   1      39.638  30.011  29.759  1.00  0.00    -0.354 N 
ATOM     37  C   UNL A   1      40.805  33.293  32.316  1.00  0.00     0.074 A 
ATOM     38  C   UNL A   1      39.789  34.323  32.338  1.00  0.00     0.031 C 
ATOM     39  C   UNL A   1      38.326  28.909  28.321  1.00  0.00     0.029 A 
ATOM     40  C   UNL A   1      39.613  28.861  29.007  1.00  0.00     0.049 A 
ATOM     41  H   UNL A   1      40.391  30.255  30.344  1.00  0.00     0.167 HD
ATOM     42  C   UNL A   1      41.966  33.353  33.010  1.00  0.00     0.037 A 
ATOM     43  C   UNL A   1      40.528  27.881  28.884  1.00  0.00     0.037 A 
ATOM     44  C   UNL A   1      42.962  32.314  33.009  1.00  0.00     0.049 A 
ATOM     45  C   UNL A   1      41.805  27.966  29.671  1.00  0.00     0.074 A 
ATOM     46  C   UNL A   1      44.144  32.252  33.726  1.00  0.00     0.029 A 
ATOM     47  N   UNL A   1      42.890  31.154  32.253  1.00  0.00    -0.354 N 
ATOM     48  N   UNL A   1      42.206  28.902  30.498  1.00  0.00    -0.248 NA
ATOM     49  C   UNL A   1      42.755  26.855  29.515  1.00  0.00     0.031 C 
ATOM     50  C   UNL A   1      44.806  31.070  33.375  1.00  0.00     0.029 A 
ATOM     51  C   UNL A   1      44.015  30.377  32.472  1.00  0.00     0.049 A 
ATOM     52  H   UNL A   1      42.148  30.918  31.650  1.00  0.00     0.167 HD
ATOM     53  C   UNL A   1      43.438  28.482  30.980  1.00  0.00     0.074 A 
ATOM     54  C   UNL A   1      43.713  27.200  30.364  1.00  0.00     0.031 C 
ATOM     55  C   UNL A   1      44.269  29.101  31.855  1.00  0.00     0.037 A 
BRANCH  42  56
ATOM     56  C   UNL A   1      42.216  34.583  33.834  1.00  0.00     0.057 A 
ATOM     57  C   UNL A   1      42.006  34.599  35.218  1.00  0.00     0.134 A 
ATOM     58  C   UNL A   1      42.700  35.756  33.240  1.00  0.00     0.134 A 
ATOM     59  F   UNL A   1      41.531  33.513  35.846  1.00  0.00    -0.206 F 
ATOM     60  C   UNL A   1      42.242  35.745  35.980  1.00  0.00     0.040 A 
ATOM     61  C   UNL A   1      42.965  36.900  33.995  1.00  0.00     0.040 A 
ATOM     62  F   UNL A   1      42.928  35.808  31.919  1.00  0.00    -0.206 F 
ATOM     63  C   UNL A   1      42.730  36.898  35.368  1.00  0.00     0.006 A 
ENDBRANCH  42  56
BRANCH  43  64
ATOM     64  C   UNL A   1      40.255  26.719  28.002  1.00  0.00     0.057 A 
ATOM     65  C   UNL A   1      39.466  25.651  28.443  1.00  0.00     0.134 A 
ATOM     66  C   UNL A   1      40.777  26.645  26.705  1.00  0.00     0.134 A 
ATOM     67  F   UNL A   1      38.953  25.657  29.682  1.00  0.00    -0.206 F 
ATOM     68  C   UNL A   1      39.219  24.541  27.634  1.00  0.00     0.040 A 
ATOM     69  C   UNL A   1      40.519  25.553  25.876  1.00  0.00     0.040 A 
ATOM     70  F   UNL A   1      41.533  27.641  26.222  1.00  0.00    -0.206 F 
ATOM     71  C   UNL A   1      39.744  24.493  26.343  1.00  0.00     0.006 A 
ENDBRANCH  43  64
BRANCH  55  72
ATOM     72  C   UNL A   1      45.534  28.384  32.221  1.00  0.00     0.057 A 
ATOM     73  C   UNL A   1      46.745  28.643  31.567  1.00  0.00     0.134 A 
ATOM     74  C   UNL A   1      45.546  27.450  33.264  1.00  0.00     0.134 A 
ATOM     75  F   UNL A   1      46.795  29.518  30.551  1.00  0.00    -0.206 F 
ATOM     76  C   UNL A   1      47.921  27.982  31.925  1.00  0.00     0.040 A 
ATOM     77  C   UNL A   1      46.720  26.800  33.647  1.00  0.00     0.040 A 
ATOM     78  F   UNL A   1      44.421  27.162  33.935  1.00  0.00    -0.206 F 
ATOM     79  C   UNL A   1      47.911  27.062  32.973  1.00  0.00     0.006 A 
ENDBRANCH  55  72
ENDBRANCH  29  30
ENDBRANCH  21  24
ENDBRANCH  19  20
ENDBRANCH  18  19
ENDBRANCH  17  18
ENDBRANCH   1  17
TORSDOF 15
ENDMDL
MODEL 2
REMARK VINA RESULT:      -9.1      0.646      6.395
REMARK SMILES CCCc1noc(C)c1C(=O)NCCCCCCNC(=O)c1ccc(-c2c3nc(c(-c4c(F)cccc4F)c4ccc([nH]4)c(-c4c(F)cccc4F)c4nc(c(-c5c(F)cccc5F)c5ccc2[nH]5)C=C4)C=C3)cc1
REMARK SMILES IDX 15 1 14 2 13 3 12 4 10 5 11 6 9 8 4 9 5 10 6 11 7 12 8 13
REMARK SMILES IDX 3 14 2 15 1 16 16 17 17 18 18 19 19 20 20 21 21 23 22 24
REMARK SMILES IDX 23 25 75 26 24 27 74 28 25 29 26 30 27 31 68 32 28 33 73 34
REMARK SMILES IDX 67 35 69 36 29 37 72 38 66 39 65 40 30 42 56 43 39 44 55 45
REMARK SMILES IDX 40 46 43 47 54 48 70 49 41 50 42 51 53 53 71 54 44 55 31 56
REMARK SMILES IDX 32 57 37 58 33 59 34 60 36 61 38 62 35 63 57 64 58 65 63 66
REMARK SMILES IDX 59 67 60 68 62 69 64 70 61 71 45 72 46 73 51 74 47 75 48 76
REMARK SMILES IDX 50 77 52 78 49 79
REMARK H PARENT 12 7 19 22 69 41 43 52
REMARK Flexibility Score: inf
ROOT
ATOM      1  C   UNL A   1      34.627  34.936  32.168  1.00  0.00     0.002 C 
ENDROOT
BRANCH   1   2
ATOM      2  C   UNL A   1      34.668  33.645  32.998  1.00  0.00     0.021 C 
BRANCH   2   3
ATOM      3  C   UNL A   1      35.111  33.897  34.441  1.00  0.00     0.116 C 
BRANCH   3   4
ATOM      4  N   UNL A   1      36.481  34.355  34.402  1.00  0.00    -0.352 N 
ATOM      5  C   UNL A   1      37.535  34.096  35.234  1.00  0.00     0.256 C 
ATOM      6  O   UNL A   1      38.441  34.923  35.255  1.00  0.00    -0.269 OA
ATOM      7  H   UNL A   1      36.690  34.955  33.649  1.00  0.00     0.163 HD
BRANCH   5   8
ATOM      8  C   UNL A   1      37.665  32.818  35.900  1.00  0.00     0.105 A 
ATOM      9  C   UNL A   1      37.869  31.580  35.215  1.00  0.00     0.097 A 
ATOM     10  N   UNL A   1      37.938  30.552  36.068  1.00  0.00    -0.084 NA
ATOM     11  O   UNL A   1      37.855  31.104  37.325  1.00  0.00    -0.361 OA
ATOM     12  C   UNL A   1      37.734  32.458  37.232  1.00  0.00     0.146 A 
ATOM     13  C   UNL A   1      37.762  33.140  38.540  1.00  0.00     0.092 C 
BRANCH   9  14
ATOM     14  C   UNL A   1      38.050  31.336  33.750  1.00  0.00     0.060 C 
BRANCH  14  15
ATOM     15  C   UNL A   1      38.484  29.917  33.379  1.00  0.00     0.003 C 
ATOM     16  C   UNL A   1      37.500  29.176  32.484  1.00  0.00     0.004 C 
ENDBRANCH  14  15
ENDBRANCH   9  14
ENDBRANCH   5   8
ENDBRANCH   3   4
ENDBRANCH   2   3
ENDBRANCH   1   2
BRANCH   1  17
ATOM     17  C   UNL A   1      33.424  35.834  32.474  1.00  0.00     0.002 C 
BRANCH  17  18
ATOM     18  C   UNL A   1      32.571  36.195  31.254  1.00  0.00     0.021 C 
BRANCH  18  19
ATOM     19  C   UNL A   1      33.296  36.056  29.919  1.00  0.00     0.116 C 
BRANCH  19  20
ATOM     20  N   UNL A   1      32.594  35.154  29.023  1.00  0.00    -0.352 N 
ATOM     21  C   UNL A   1      33.080  34.062  28.351  1.00  0.00     0.251 C 
ATOM     22  H   UNL A   1      31.642  35.354  28.877  1.00  0.00     0.163 HD
ATOM     23  O   UNL A   1      32.429  33.544  27.450  1.00  0.00    -0.269 OA
BRANCH  21  24
ATOM     24  C   UNL A   1      34.402  33.513  28.716  1.00  0.00     0.039 A 
ATOM     25  C   UNL A   1      35.542  34.017  28.086  1.00  0.00     0.014 A 
ATOM     26  C   UNL A   1      34.511  32.493  29.666  1.00  0.00     0.014 A 
ATOM     27  C   UNL A   1      36.799  33.525  28.439  1.00  0.00     0.010 A 
ATOM     28  C   UNL A   1      35.769  32.050  30.065  1.00  0.00     0.010 A 
ATOM     29  C   UNL A   1      36.923  32.553  29.446  1.00  0.00    -0.014 A 
BRANCH  29  30
ATOM     30  C   UNL A   1      38.253  32.037  29.853  1.00  0.00     0.031 A 
ATOM     31  C   UNL A   1      38.728  30.702  29.350  1.00  0.00     0.074 A 
ATOM     32  C   UNL A   1      39.006  32.743  30.715  1.00  0.00     0.049 A 
ATOM     33  N   UNL A   1      39.831  30.057  29.633  1.00  0.00    -0.248 NA
ATOM     34  C   UNL A   1      37.831  29.985  28.429  1.00  0.00     0.031 C 
ATOM     35  C   UNL A   1      38.633  34.029  31.310  1.00  0.00     0.029 A 
ATOM     36  N   UNL A   1      40.241  32.475  31.250  1.00  0.00    -0.354 N 
ATOM     37  C   UNL A   1      39.753  28.856  28.939  1.00  0.00     0.074 A 
ATOM     38  C   UNL A   1      38.475  28.838  28.263  1.00  0.00     0.031 C 
ATOM     39  C   UNL A   1      39.627  34.447  32.110  1.00  0.00     0.029 A 
ATOM     40  C   UNL A   1      40.691  33.448  32.109  1.00  0.00     0.049 A 
ATOM     41  H   UNL A   1      40.755  31.663  31.038  1.00  0.00     0.167 HD
ATOM     42  C   UNL A   1      40.675  27.867  28.853  1.00  0.00     0.037 A 
ATOM     43  C   UNL A   1      41.833  33.522  32.818  1.00  0.00     0.037 A 
ATOM     44  C   UNL A   1      41.958  27.901  29.504  1.00  0.00     0.049 A 
ATOM     45  C   UNL A   1      42.844  32.416  32.699  1.00  0.00     0.074 A 
ATOM     46  C   UNL A   1      42.987  26.978  29.431  1.00  0.00     0.029 A 
ATOM     47  N   UNL A   1      42.388  28.914  30.347  1.00  0.00    -0.354 N 
ATOM     48  N   UNL A   1      42.787  31.317  31.987  1.00  0.00    -0.248 NA
ATOM     49  C   UNL A   1      44.083  32.565  33.477  1.00  0.00     0.031 C 
ATOM     50  C   UNL A   1      44.025  27.415  30.261  1.00  0.00     0.029 A 
ATOM     51  C   UNL A   1      43.660  28.631  30.816  1.00  0.00     0.049 A 
ATOM     52  H   UNL A   1      41.866  29.716  30.579  1.00  0.00     0.167 HD
ATOM     53  C   UNL A   1      43.989  30.657  32.208  1.00  0.00     0.074 A 
ATOM     54  C   UNL A   1      44.761  31.486  33.111  1.00  0.00     0.031 C 
ATOM     55  C   UNL A   1      44.415  29.471  31.709  1.00  0.00     0.037 A 
BRANCH  42  56
ATOM     56  C   UNL A   1      40.327  26.669  28.020  1.00  0.00     0.057 A 
ATOM     57  C   UNL A   1      39.455  25.675  28.483  1.00  0.00     0.134 A 
ATOM     58  C   UNL A   1      40.848  26.520  26.728  1.00  0.00     0.134 A 
ATOM     59  F   UNL A   1      38.932  25.751  29.716  1.00  0.00    -0.206 F 
ATOM     60  C   UNL A   1      39.134  24.563  27.703  1.00  0.00     0.040 A 
ATOM     61  C   UNL A   1      40.514  25.425  25.928  1.00  0.00     0.040 A 
ATOM     62  F   UNL A   1      41.686  27.436  26.220  1.00  0.00    -0.206 F 
ATOM     63  C   UNL A   1      39.660  24.440  26.418  1.00  0.00     0.006 A 
ENDBRANCH  42  56
BRANCH  43  64
ATOM     64  C   UNL A   1      42.096  34.702  33.680  1.00  0.00     0.057 A 
ATOM     65  C   UNL A   1      41.766  34.687  35.039  1.00  0.00     0.134 A 
ATOM     66  C   UNL A   1      42.677  35.868  33.168  1.00  0.00     0.134 A 
ATOM     67  F   UNL A   1      41.191  33.604  35.583  1.00  0.00    -0.206 F 
ATOM     68  C   UNL A   1      41.986  35.796  35.857  1.00  0.00     0.040 A 
ATOM     69  C   UNL A   1      42.925  36.976  33.979  1.00  0.00     0.040 A 
ATOM     70  F   UNL A   1      43.023  35.941  31.875  1.00  0.00    -0.206 F 
ATOM     71  C   UNL A   1      42.572  36.944  35.327  1.00  0.00     0.006 A 
ENDBRANCH  43  64
BRANCH  55  72
ATOM     72  C   UNL A   1      45.790  29.018  32.103  1.00  0.00     0.057 A 
ATOM     73  C   UNL A   1      46.925  29.379  31.367  1.00  0.00     0.134 A 
ATOM     74  C   UNL A   1      45.982  28.243  33.253  1.00  0.00     0.134 A 
ATOM     75  F   UNL A   1      46.806  30.110  30.247  1.00  0.00    -0.206 F 
ATOM     76  C   UNL A   1      48.202  28.966  31.749  1.00  0.00     0.040 A 
ATOM     77  C   UNL A   1      47.256  27.844  33.659  1.00  0.00     0.040 A 
ATOM     78  F   UNL A   1      44.937  27.870  34.007  1.00  0.00    -0.206 F 
ATOM     79  C   UNL A   1      48.370  28.202  32.903  1.00  0.00     0.006 A 
ENDBRANCH  55  72
ENDBRANCH  29  30
ENDBRANCH  21  24
ENDBRANCH  19  20
ENDBRANCH  18  19
ENDBRANCH  17  18
ENDBRANCH   1  17
TORSDOF 15
ENDMDL
MODEL 3
REMARK VINA RESULT:      -8.9      0.520      2.224
REMARK SMILES CCCc1noc(C)c1C(=O)NCCCCCCNC(=O)c1ccc(-c2c3nc(c(-c4c(F)cccc4F)c4ccc([nH]4)c(-c4c(F)cccc4F)c4nc(c(-c5c(F)cccc5F)c5ccc2[nH]5)C=C4)C=C3)cc1
REMARK SMILES IDX 15 1 14 2 13 3 12 4 10 5 11 6 9 8 4 9 5 10 6 11 7 12 8 13
REMARK SMILES IDX 3 14 2 15 1 16 16 17 17 18 18 19 19 20 20 21 21 23 22 24
REMARK SMILES IDX 23 25 75 26 24 27 74 28 25 29 26 30 27 31 68 32 28 33 73 34
REMARK SMILES IDX 67 35 69 36 29 37 72 38 66 39 65 40 30 42 56 43 39 44 55 45
REMARK SMILES IDX 40 46 43 47 54 48 70 49 41 50 42 51 53 53 71 54 44 55 31 56
REMARK SMILES IDX 32 57 37 58 33 59 34 60 36 61 38 62 35 63 57 64 58 65 63 66
REMARK SMILES IDX 59 67 60 68 62 69 64 70 61 71 45 72 46 73 51 74 47 75 48 76
REMARK SMILES IDX 50 77 52 78 49 79
REMARK H PARENT 12 7 19 22 69 41 43 52
REMARK Flexibility Score: inf
ROOT
ATOM      1  C   UNL A   1      35.169  35.286  32.866  1.00  0.00     0.002 C 
ENDROOT
BRANCH   1   2
ATOM      2  C   UNL A   1      35.796  33.992  33.402  1.00  0.00     0.021 C 
BRANCH   2   3
ATOM      3  C   UNL A   1      35.812  33.944  34.932  1.00  0.00     0.116 C 
BRANCH   3   4
ATOM      4  N   UNL A   1      37.135  34.327  35.366  1.00  0.00    -0.352 N 
ATOM      5  C   UNL A   1      37.946  33.802  36.334  1.00  0.00     0.256 C 
ATOM      6  O   UNL A   1      38.799  34.548  36.807  1.00  0.00    -0.269 OA
ATOM      7  H   UNL A   1      37.517  35.096  34.883  1.00  0.00     0.163 HD
BRANCH   5   8
ATOM      8  C   UNL A   1      37.930  32.388  36.636  1.00  0.00     0.105 A 
ATOM      9  C   UNL A   1      37.384  31.836  37.838  1.00  0.00     0.097 A 
ATOM     10  N   UNL A   1      37.513  30.505  37.870  1.00  0.00    -0.084 NA
ATOM     11  O   UNL A   1      38.075  30.156  36.665  1.00  0.00    -0.361 OA
ATOM     12  C   UNL A   1      38.287  31.269  35.909  1.00  0.00     0.146 A 
ATOM     13  C   UNL A   1      38.776  30.970  34.549  1.00  0.00     0.092 C 
BRANCH   9  14
ATOM     14  C   UNL A   1      36.689  32.538  38.961  1.00  0.00     0.060 C 
BRANCH  14  15
ATOM     15  C   UNL A   1      36.138  31.620  40.055  1.00  0.00     0.003 C 
ATOM     16  C   UNL A   1      35.323  32.338  41.122  1.00  0.00     0.004 C 
ENDBRANCH  14  15
ENDBRANCH   9  14
ENDBRANCH   5   8
ENDBRANCH   3   4
ENDBRANCH   2   3
ENDBRANCH   1   2
BRANCH   1  17
ATOM     17  C   UNL A   1      33.640  35.249  32.782  1.00  0.00     0.002 C 
BRANCH  17  18
ATOM     18  C   UNL A   1      33.021  36.363  31.934  1.00  0.00     0.021 C 
BRANCH  18  19
ATOM     19  C   UNL A   1      33.565  36.443  30.512  1.00  0.00     0.116 C 
BRANCH  19  20
ATOM     20  N   UNL A   1      32.778  35.637  29.594  1.00  0.00    -0.352 N 
ATOM     21  C   UNL A   1      33.164  34.537  28.872  1.00  0.00     0.251 C 
ATOM     22  H   UNL A   1      31.843  35.919  29.474  1.00  0.00     0.163 HD
ATOM     23  O   UNL A   1      32.459  34.111  27.963  1.00  0.00    -0.269 OA
BRANCH  21  24
ATOM     24  C   UNL A   1      34.442  33.870  29.190  1.00  0.00     0.039 A 
ATOM     25  C   UNL A   1      35.613  34.318  28.574  1.00  0.00     0.014 A 
ATOM     26  C   UNL A   1      34.480  32.794  30.084  1.00  0.00     0.014 A 
ATOM     27  C   UNL A   1      36.830  33.712  28.885  1.00  0.00     0.010 A 
ATOM     28  C   UNL A   1      35.702  32.236  30.443  1.00  0.00     0.010 A 
ATOM     29  C   UNL A   1      36.886  32.681  29.838  1.00  0.00    -0.014 A 
BRANCH  29  30
ATOM     30  C   UNL A   1      38.176  32.043  30.200  1.00  0.00     0.031 A 
ATOM     31  C   UNL A   1      39.127  32.742  31.130  1.00  0.00     0.074 A 
ATOM     32  C   UNL A   1      38.512  30.861  29.649  1.00  0.00     0.049 A 
ATOM     33  N   UNL A   1      40.320  32.375  31.522  1.00  0.00    -0.248 NA
ATOM     34  C   UNL A   1      38.690  34.041  31.668  1.00  0.00     0.031 C 
ATOM     35  C   UNL A   1      37.695  30.107  28.696  1.00  0.00     0.029 A 
ATOM     36  N   UNL A   1      39.637  30.092  29.805  1.00  0.00    -0.354 N 
ATOM     37  C   UNL A   1      40.781  33.401  32.338  1.00  0.00     0.074 A 
ATOM     38  C   UNL A   1      39.762  34.428  32.344  1.00  0.00     0.031 C 
ATOM     39  C   UNL A   1      38.336  28.973  28.370  1.00  0.00     0.029 A 
ATOM     40  C   UNL A   1      39.619  28.935  29.064  1.00  0.00     0.049 A 
ATOM     41  H   UNL A   1      40.386  30.343  30.392  1.00  0.00     0.167 HD
ATOM     42  C   UNL A   1      41.937  33.470  33.039  1.00  0.00     0.037 A 
ATOM     43  C   UNL A   1      40.537  27.956  28.956  1.00  0.00     0.037 A 
ATOM     44  C   UNL A   1      42.936  32.434  33.054  1.00  0.00     0.049 A 
ATOM     45  C   UNL A   1      41.809  28.052  29.750  1.00  0.00     0.074 A 
ATOM     46  C   UNL A   1      44.114  32.381  33.778  1.00  0.00     0.029 A 
ATOM     47  N   UNL A   1      42.871  31.267  32.308  1.00  0.00    -0.354 N 
ATOM     48  N   UNL A   1      42.203  28.996  30.570  1.00  0.00    -0.248 NA
ATOM     49  C   UNL A   1      42.763  26.941  29.610  1.00  0.00     0.031 C 
ATOM     50  C   UNL A   1      44.780  31.198  33.442  1.00  0.00     0.029 A 
ATOM     51  C   UNL A   1      43.997  30.494  32.541  1.00  0.00     0.049 A 
ATOM     52  H   UNL A   1      42.134  31.023  31.703  1.00  0.00     0.167 HD
ATOM     53  C   UNL A   1      43.433  28.583  31.064  1.00  0.00     0.074 A 
ATOM     54  C   UNL A   1      43.715  27.297  30.461  1.00  0.00     0.031 C 
ATOM     55  C   UNL A   1      44.257  29.213  31.938  1.00  0.00     0.037 A 
BRANCH  42  56
ATOM     56  C   UNL A   1      42.180  34.708  33.852  1.00  0.00     0.057 A 
ATOM     57  C   UNL A   1      41.916  34.752  35.227  1.00  0.00     0.134 A 
ATOM     58  C   UNL A   1      42.711  35.861  33.260  1.00  0.00     0.134 A 
ATOM     59  F   UNL A   1      41.395  33.685  35.853  1.00  0.00    -0.206 F 
ATOM     60  C   UNL A   1      42.145  35.905  35.979  1.00  0.00     0.040 A 
ATOM     61  C   UNL A   1      42.968  37.013  34.006  1.00  0.00     0.040 A 
ATOM     62  F   UNL A   1      42.991  35.887  31.948  1.00  0.00    -0.206 F 
ATOM     63  C   UNL A   1      42.679  37.038  35.369  1.00  0.00     0.006 A 
ENDBRANCH  42  56
BRANCH  43  64
ATOM     64  C   UNL A   1      40.272  26.785  28.084  1.00  0.00     0.057 A 
ATOM     65  C   UNL A   1      40.831  26.701  26.803  1.00  0.00     0.134 A 
ATOM     66  C   UNL A   1      39.457  25.728  28.504  1.00  0.00     0.134 A 
ATOM     67  F   UNL A   1      41.606  27.691  26.339  1.00  0.00    -0.206 F 
ATOM     68  C   UNL A   1      40.574  25.616  25.963  1.00  0.00     0.040 A 
ATOM     69  C   UNL A   1      39.210  24.626  27.685  1.00  0.00     0.040 A 
ATOM     70  F   UNL A   1      38.900  25.746  29.724  1.00  0.00    -0.206 F 
ATOM     71  C   UNL A   1      39.764  24.572  26.406  1.00  0.00     0.006 A 
ENDBRANCH  43  64
BRANCH  55  72
ATOM     72  C   UNL A   1      45.521  28.502  32.318  1.00  0.00     0.057 A 
ATOM     73  C   UNL A   1      45.570  27.606  33.393  1.00  0.00     0.134 A 
ATOM     74  C   UNL A   1      46.694  28.690  31.576  1.00  0.00     0.134 A 
ATOM     75  F   UNL A   1      44.483  27.393  34.150  1.00  0.00    -0.206 F 
ATOM     76  C   UNL A   1      46.748  26.937  33.730  1.00  0.00     0.040 A 
ATOM     77  C   UNL A   1      47.872  28.010  31.888  1.00  0.00     0.040 A 
ATOM     78  F   UNL A   1      46.713  29.530  30.530  1.00  0.00    -0.206 F 
ATOM     79  C   UNL A   1      47.902  27.134  32.972  1.00  0.00     0.006 A 
ENDBRANCH  55  72
ENDBRANCH  29  30
ENDBRANCH  21  24
ENDBRANCH  19  20
ENDBRANCH  18  19
ENDBRANCH  17  18
ENDBRANCH   1  17
TORSDOF 15
ENDMDL
