MODEL 1
REMARK VINA RESULT:     -10.2      0.000      0.000
REMARK SMILES CCOc1cc(OCC)cc(-c2ccc([C@@H](C)C(=O)NCCCCCCNC(=O)c3ccc(-c4c5nc(c(-c6c(F)cccc6F)c6ccc([nH]6)c(-c6c(F)cccc6F)c6nc(c(-c7c(F)cccc7F)c7ccc4[nH]7)C=C6)C=C5)cc3)cc2)c1
REMARK SMILES IDX 22 1 21 2 20 3 18 4 19 5 16 7 17 8 15 9 12 10 13 11 85 12
REMARK SMILES IDX 14 13 84 14 11 15 4 16 5 17 86 18 6 19 10 20 3 21 2 22 1 23
REMARK SMILES IDX 7 24 8 25 9 26 23 27 24 28 25 29 26 30 27 31 28 32 29 34
REMARK SMILES IDX 30 35 31 36 83 37 32 38 82 39 33 40 34 41 35 42 76 43 36 44
REMARK SMILES IDX 81 45 75 46 77 47 37 48 80 49 74 50 73 51 38 53 64 54 47 55
REMARK SMILES IDX 63 56 48 57 51 58 62 59 78 60 49 61 50 62 61 64 79 65 52 66
REMARK SMILES IDX 39 67 40 68 45 69 41 70 42 71 44 72 46 73 43 74 65 75 66 76
REMARK SMILES IDX 71 77 67 78 68 79 70 80 72 81 69 82 53 83 54 84 59 85 55 86
REMARK SMILES IDX 56 87 58 88 60 89 57 90
REMARK H PARENT 20 6 27 33 77 52 51 63
REMARK Flexibility Score: inf
ROOT
ATOM      1  C   UNL A   1      30.902  31.451  25.772  1.00  0.00     0.021 C 
ENDROOT
BRANCH   1   2
ATOM      2  C   UNL A   1      30.265  32.213  24.607  1.00  0.00     0.116 C 
BRANCH   2   3
ATOM      3  N   UNL A   1      28.864  31.882  24.451  1.00  0.00    -0.356 N 
ATOM      4  C   UNL A   1      28.183  31.263  23.450  1.00  0.00     0.227 C 
ATOM      5  O   UNL A   1      26.953  31.207  23.579  1.00  0.00    -0.274 OA
ATOM      6  H   UNL A   1      28.302  32.156  25.210  1.00  0.00     0.163 HD
BRANCH   4   7
ATOM      7  C   UNL A   1      28.848  30.639  22.213  1.00  0.00     0.105 C 
ATOM      8  C   UNL A   1      28.018  30.738  20.934  1.00  0.00     0.023 C 
BRANCH   7   9
ATOM      9  C   UNL A   1      29.467  29.279  22.485  1.00  0.00    -0.036 A 
ATOM     10  C   UNL A   1      30.746  26.810  23.105  1.00  0.00    -0.018 A 
ATOM     11  C   UNL A   1      29.435  27.087  23.521  1.00  0.00     0.009 A 
ATOM     12  C   UNL A   1      31.398  27.790  22.347  1.00  0.00     0.009 A 
ATOM     13  C   UNL A   1      28.793  28.274  23.179  1.00  0.00     0.005 A 
ATOM     14  C   UNL A   1      30.778  29.013  22.060  1.00  0.00     0.005 A 
BRANCH  10  15
ATOM     15  C   UNL A   1      31.384  25.534  23.483  1.00  0.00    -0.011 A 
ATOM     16  C   UNL A   1      31.334  23.360  24.570  1.00  0.00     0.123 A 
ATOM     17  C   UNL A   1      32.575  23.039  24.019  1.00  0.00     0.092 A 
ATOM     18  C   UNL A   1      30.754  24.602  24.315  1.00  0.00     0.055 A 
ATOM     19  C   UNL A   1      33.244  23.959  23.211  1.00  0.00     0.123 A 
ATOM     20  C   UNL A   1      32.650  25.197  22.970  1.00  0.00     0.055 A 
BRANCH  16  21
ATOM     21  O   UNL A   1      30.774  22.486  25.461  1.00  0.00    -0.494 OA
BRANCH  21  22
ATOM     22  C   UNL A   1      30.811  22.924  26.826  1.00  0.00     0.226 C 
ATOM     23  C   UNL A   1      32.214  22.898  27.415  1.00  0.00     0.049 C 
ENDBRANCH  21  22
ENDBRANCH  16  21
BRANCH  19  24
ATOM     24  O   UNL A   1      34.441  23.552  22.686  1.00  0.00    -0.494 OA
BRANCH  24  25
ATOM     25  C   UNL A   1      35.302  22.757  23.510  1.00  0.00     0.226 C 
ATOM     26  C   UNL A   1      36.774  23.006  23.206  1.00  0.00     0.049 C 
ENDBRANCH  24  25
ENDBRANCH  19  24
ENDBRANCH  10  15
ENDBRANCH   7   9
ENDBRANCH   4   7
ENDBRANCH   2   3
ENDBRANCH   1   2
BRANCH   1  27
ATOM     27  C   UNL A   1      31.222  29.987  25.449  1.00  0.00     0.002 C 
BRANCH  27  28
ATOM     28  C   UNL A   1      32.711  29.679  25.243  1.00  0.00     0.002 C 
BRANCH  28  29
ATOM     29  C   UNL A   1      33.205  28.381  25.890  1.00  0.00     0.021 C 
BRANCH  29  30
ATOM     30  C   UNL A   1      34.048  28.583  27.144  1.00  0.00     0.116 C 
BRANCH  30  31
ATOM     31  N   UNL A   1      33.949  29.948  27.643  1.00  0.00    -0.352 N 
ATOM     32  C   UNL A   1      34.835  30.664  28.406  1.00  0.00     0.251 C 
ATOM     33  H   UNL A   1      33.126  30.426  27.395  1.00  0.00     0.163 HD
ATOM     34  O   UNL A   1      34.487  31.709  28.942  1.00  0.00    -0.269 OA
BRANCH  32  35
ATOM     35  C   UNL A   1      36.217  30.172  28.583  1.00  0.00     0.039 A 
ATOM     36  C   UNL A   1      37.131  30.314  27.536  1.00  0.00     0.014 A 
ATOM     37  C   UNL A   1      36.598  29.542  29.772  1.00  0.00     0.014 A 
ATOM     38  C   UNL A   1      38.444  29.867  27.699  1.00  0.00     0.010 A 
ATOM     39  C   UNL A   1      37.923  29.164  29.959  1.00  0.00     0.010 A 
ATOM     40  C   UNL A   1      38.856  29.312  28.921  1.00  0.00    -0.014 A 
BRANCH  40  41
ATOM     41  C   UNL A   1      40.250  28.848  29.133  1.00  0.00     0.031 A 
ATOM     42  C   UNL A   1      41.263  29.782  29.735  1.00  0.00     0.074 A 
ATOM     43  C   UNL A   1      40.619  27.622  28.720  1.00  0.00     0.049 A 
ATOM     44  N   UNL A   1      42.550  29.611  29.903  1.00  0.00    -0.248 NA
ATOM     45  C   UNL A   1      40.768  31.094  30.180  1.00  0.00     0.031 C 
ATOM     46  C   UNL A   1      39.735  26.638  28.092  1.00  0.00     0.029 A 
ATOM     47  N   UNL A   1      41.841  27.000  28.752  1.00  0.00    -0.354 N 
ATOM     48  C   UNL A   1      43.018  30.798  30.453  1.00  0.00     0.074 A 
ATOM     49  C   UNL A   1      41.890  31.699  30.541  1.00  0.00     0.031 C 
ATOM     50  C   UNL A   1      40.442  25.529  27.814  1.00  0.00     0.029 A 
ATOM     51  C   UNL A   1      41.833  25.740  28.204  1.00  0.00     0.049 A 
ATOM     52  H   UNL A   1      42.648  27.417  29.130  1.00  0.00     0.167 HD
ATOM     53  C   UNL A   1      44.271  31.101  30.869  1.00  0.00     0.037 A 
ATOM     54  C   UNL A   1      42.836  24.860  28.028  1.00  0.00     0.037 A 
ATOM     55  C   UNL A   1      45.385  30.192  30.802  1.00  0.00     0.049 A 
ATOM     56  C   UNL A   1      44.222  25.225  28.483  1.00  0.00     0.074 A 
ATOM     57  C   UNL A   1      46.682  30.385  31.241  1.00  0.00     0.029 A 
ATOM     58  N   UNL A   1      45.331  28.918  30.259  1.00  0.00    -0.354 N 
ATOM     59  N   UNL A   1      44.641  26.331  29.050  1.00  0.00    -0.248 NA
ATOM     60  C   UNL A   1      45.273  24.219  28.278  1.00  0.00     0.031 C 
ATOM     61  C   UNL A   1      47.425  29.243  30.923  1.00  0.00     0.029 A 
ATOM     62  C   UNL A   1      46.576  28.319  30.334  1.00  0.00     0.049 A 
ATOM     63  H   UNL A   1      44.525  28.500  29.876  1.00  0.00     0.167 HD
ATOM     64  C   UNL A   1      45.994  26.140  29.302  1.00  0.00     0.074 A 
ATOM     65  C   UNL A   1      46.323  24.810  28.830  1.00  0.00     0.031 C 
ATOM     66  C   UNL A   1      46.883  26.988  29.875  1.00  0.00     0.037 A 
BRANCH  53  67
ATOM     67  C   UNL A   1      44.498  32.474  31.433  1.00  0.00     0.057 A 
ATOM     68  C   UNL A   1      44.882  33.553  30.625  1.00  0.00     0.134 A 
ATOM     69  C   UNL A   1      44.311  32.727  32.798  1.00  0.00     0.134 A 
ATOM     70  F   UNL A   1      45.090  33.378  29.311  1.00  0.00    -0.206 F 
ATOM     71  C   UNL A   1      45.103  34.825  31.158  1.00  0.00     0.040 A 
ATOM     72  C   UNL A   1      44.501  34.001  33.338  1.00  0.00     0.040 A 
ATOM     73  F   UNL A   1      43.938  31.742  33.629  1.00  0.00    -0.206 F 
ATOM     74  C   UNL A   1      44.906  35.052  32.518  1.00  0.00     0.006 A 
ENDBRANCH  53  67
BRANCH  54  75
ATOM     75  C   UNL A   1      42.563  23.536  27.413  1.00  0.00     0.057 A 
ATOM     76  C   UNL A   1      42.622  23.361  26.026  1.00  0.00     0.134 A 
ATOM     77  C   UNL A   1      42.234  22.419  28.191  1.00  0.00     0.134 A 
ATOM     78  F   UNL A   1      42.916  24.398  25.227  1.00  0.00    -0.206 F 
ATOM     79  C   UNL A   1      42.345  22.129  25.431  1.00  0.00     0.040 A 
ATOM     80  C   UNL A   1      41.978  21.175  27.612  1.00  0.00     0.040 A 
ATOM     81  F   UNL A   1      42.169  22.518  29.526  1.00  0.00    -0.206 F 
ATOM     82  C   UNL A   1      42.026  21.030  26.225  1.00  0.00     0.006 A 
ENDBRANCH  54  75
BRANCH  66  83
ATOM     83  C   UNL A   1      48.285  26.487  30.071  1.00  0.00     0.057 A 
ATOM     84  C   UNL A   1      49.282  26.671  29.107  1.00  0.00     0.134 A 
ATOM     85  C   UNL A   1      48.649  25.856  31.268  1.00  0.00     0.134 A 
ATOM     86  F   UNL A   1      48.994  27.257  27.934  1.00  0.00    -0.206 F 
ATOM     87  C   UNL A   1      50.588  26.226  29.316  1.00  0.00     0.040 A 
ATOM     88  C   UNL A   1      49.957  25.431  31.500  1.00  0.00     0.040 A 
ATOM     89  F   UNL A   1      47.743  25.657  32.238  1.00  0.00    -0.206 F 
ATOM     90  C   UNL A   1      50.930  25.612  30.519  1.00  0.00     0.006 A 
ENDBRANCH  66  83
ENDBRANCH  40  41
ENDBRANCH  32  35
ENDBRANCH  30  31
ENDBRANCH  29  30
ENDBRANCH  28  29
ENDBRANCH  27  28
ENDBRANCH   1  27
TORSDOF 19
ENDMDL
MODEL 2
REMARK VINA RESULT:     -10.2      2.079      2.818
REMARK SMILES CCOc1cc(OCC)cc(-c2ccc([C@@H](C)C(=O)NCCCCCCNC(=O)c3ccc(-c4c5nc(c(-c6c(F)cccc6F)c6ccc([nH]6)c(-c6c(F)cccc6F)c6nc(c(-c7c(F)cccc7F)c7ccc4[nH]7)C=C6)C=C5)cc3)cc2)c1
REMARK SMILES IDX 22 1 21 2 20 3 18 4 19 5 16 7 17 8 15 9 12 10 13 11 85 12
REMARK SMILES IDX 14 13 84 14 11 15 4 16 5 17 86 18 6 19 10 20 3 21 2 22 1 23
REMARK SMILES IDX 7 24 8 25 9 26 23 27 24 28 25 29 26 30 27 31 28 32 29 34
REMARK SMILES IDX 30 35 31 36 83 37 32 38 82 39 33 40 34 41 35 42 76 43 36 44
REMARK SMILES IDX 81 45 75 46 77 47 37 48 80 49 74 50 73 51 38 53 64 54 47 55
REMARK SMILES IDX 63 56 48 57 51 58 62 59 78 60 49 61 50 62 61 64 79 65 52 66
REMARK SMILES IDX 39 67 40 68 45 69 41 70 42 71 44 72 46 73 43 74 65 75 66 76
REMARK SMILES IDX 71 77 67 78 68 79 70 80 72 81 69 82 53 83 54 84 59 85 55 86
REMARK SMILES IDX 56 87 58 88 60 89 57 90
REMARK H PARENT 20 6 27 33 77 52 51 63
REMARK Flexibility Score: inf
ROOT
ATOM      1  C   UNL A   1      32.359  28.984  24.753  1.00  0.00     0.021 C 
ENDROOT
BRANCH   1   2
ATOM      2  C   UNL A   1      31.031  29.743  24.679  1.00  0.00     0.116 C 
BRANCH   2   3
ATOM      3  N   UNL A   1      30.665  30.053  23.313  1.00  0.00    -0.356 N 
ATOM      4  C   UNL A   1      29.873  29.408  22.416  1.00  0.00     0.227 C 
ATOM      5  O   UNL A   1      29.830  29.892  21.278  1.00  0.00    -0.274 OA
ATOM      6  H   UNL A   1      31.063  30.885  22.972  1.00  0.00     0.163 HD
BRANCH   4   7
ATOM      7  C   UNL A   1      29.048  28.154  22.742  1.00  0.00     0.105 C 
ATOM      8  C   UNL A   1      27.750  28.432  23.500  1.00  0.00     0.023 C 
BRANCH   7   9
ATOM      9  C   UNL A   1      29.884  27.006  23.281  1.00  0.00    -0.036 A 
ATOM     10  C   UNL A   1      31.588  24.972  24.317  1.00  0.00    -0.018 A 
ATOM     11  C   UNL A   1      30.453  25.410  25.016  1.00  0.00     0.009 A 
ATOM     12  C   UNL A   1      31.840  25.558  23.071  1.00  0.00     0.009 A 
ATOM     13  C   UNL A   1      29.594  26.372  24.488  1.00  0.00     0.005 A 
ATOM     14  C   UNL A   1      31.015  26.574  22.570  1.00  0.00     0.005 A 
BRANCH  10  15
ATOM     15  C   UNL A   1      32.465  23.943  24.910  1.00  0.00    -0.011 A 
ATOM     16  C   UNL A   1      33.019  21.624  25.385  1.00  0.00     0.123 A 
ATOM     17  C   UNL A   1      34.262  22.009  25.891  1.00  0.00     0.092 A 
ATOM     18  C   UNL A   1      32.126  22.586  24.915  1.00  0.00     0.055 A 
ATOM     19  C   UNL A   1      34.617  23.358  25.930  1.00  0.00     0.123 A 
ATOM     20  C   UNL A   1      33.710  24.305  25.458  1.00  0.00     0.055 A 
BRANCH  16  21
ATOM     21  O   UNL A   1      32.656  20.309  25.487  1.00  0.00    -0.494 OA
BRANCH  21  22
ATOM     22  C   UNL A   1      32.660  19.594  24.245  1.00  0.00     0.226 C 
ATOM     23  C   UNL A   1      32.494  18.092  24.430  1.00  0.00     0.049 C 
ENDBRANCH  21  22
ENDBRANCH  16  21
BRANCH  19  24
ATOM     24  O   UNL A   1      35.866  23.646  26.412  1.00  0.00    -0.494 OA
BRANCH  24  25
ATOM     25  C   UNL A   1      36.964  23.624  25.491  1.00  0.00     0.226 C 
ATOM     26  C   UNL A   1      38.308  23.657  26.206  1.00  0.00     0.049 C 
ENDBRANCH  24  25
ENDBRANCH  19  24
ENDBRANCH  10  15
ENDBRANCH   7   9
ENDBRANCH   4   7
ENDBRANCH   2   3
ENDBRANCH   1   2
BRANCH   1  27
ATOM     27  C   UNL A   1      32.649  28.383  26.132  1.00  0.00     0.002 C 
BRANCH  27  28
ATOM     28  C   UNL A   1      33.054  29.397  27.210  1.00  0.00     0.002 C 
BRANCH  28  29
ATOM     29  C   UNL A   1      34.521  29.337  27.646  1.00  0.00     0.021 C 
BRANCH  29  30
ATOM     30  C   UNL A   1      35.179  30.700  27.833  1.00  0.00     0.116 C 
BRANCH  30  31
ATOM     31  N   UNL A   1      35.110  31.143  29.218  1.00  0.00    -0.352 N 
ATOM     32  C   UNL A   1      36.010  30.961  30.238  1.00  0.00     0.251 C 
ATOM     33  H   UNL A   1      34.300  31.647  29.458  1.00  0.00     0.163 HD
ATOM     34  O   UNL A   1      35.684  31.184  31.398  1.00  0.00    -0.269 OA
BRANCH  32  35
ATOM     35  C   UNL A   1      37.379  30.494  29.935  1.00  0.00     0.039 A 
ATOM     36  C   UNL A   1      38.251  30.212  30.989  1.00  0.00     0.014 A 
ATOM     37  C   UNL A   1      37.806  30.365  28.610  1.00  0.00     0.014 A 
ATOM     38  C   UNL A   1      39.541  29.754  30.714  1.00  0.00     0.010 A 
ATOM     39  C   UNL A   1      39.065  29.840  28.339  1.00  0.00     0.010 A 
ATOM     40  C   UNL A   1      39.949  29.540  29.387  1.00  0.00    -0.014 A 
BRANCH  40  41
ATOM     41  C   UNL A   1      41.305  29.032  29.063  1.00  0.00     0.031 A 
ATOM     42  C   UNL A   1      42.475  29.978  29.059  1.00  0.00     0.074 A 
ATOM     43  C   UNL A   1      41.472  27.747  28.703  1.00  0.00     0.049 A 
ATOM     44  N   UNL A   1      43.714  29.760  28.700  1.00  0.00    -0.248 NA
ATOM     45  C   UNL A   1      42.207  31.359  29.488  1.00  0.00     0.031 C 
ATOM     46  C   UNL A   1      40.409  26.741  28.637  1.00  0.00     0.029 A 
ATOM     47  N   UNL A   1      42.597  27.068  28.308  1.00  0.00    -0.354 N 
ATOM     48  C   UNL A   1      44.366  30.979  28.841  1.00  0.00     0.074 A 
ATOM     49  C   UNL A   1      43.375  31.943  29.266  1.00  0.00     0.031 C 
ATOM     50  C   UNL A   1      40.938  25.571  28.243  1.00  0.00     0.029 A 
ATOM     51  C   UNL A   1      42.364  25.753  27.989  1.00  0.00     0.049 A 
ATOM     52  H   UNL A   1      43.487  27.486  28.258  1.00  0.00     0.167 HD
ATOM     53  C   UNL A   1      45.677  31.264  28.655  1.00  0.00     0.037 A 
ATOM     54  C   UNL A   1      43.204  24.806  27.532  1.00  0.00     0.037 A 
ATOM     55  C   UNL A   1      46.664  30.295  28.254  1.00  0.00     0.049 A 
ATOM     56  C   UNL A   1      44.653  25.149  27.318  1.00  0.00     0.074 A 
ATOM     57  C   UNL A   1      48.025  30.471  28.086  1.00  0.00     0.029 A 
ATOM     58  N   UNL A   1      46.391  28.968  27.960  1.00  0.00    -0.354 N 
ATOM     59  N   UNL A   1      45.267  26.293  27.506  1.00  0.00    -0.248 NA
ATOM     60  C   UNL A   1      45.524  24.071  26.832  1.00  0.00     0.031 C 
ATOM     61  C   UNL A   1      48.570  29.260  27.646  1.00  0.00     0.029 A 
ATOM     62  C   UNL A   1      47.556  28.317  27.592  1.00  0.00     0.049 A 
ATOM     63  H   UNL A   1      45.500  28.550  28.005  1.00  0.00     0.167 HD
ATOM     64  C   UNL A   1      46.602  26.061  27.197  1.00  0.00     0.074 A 
ATOM     65  C   UNL A   1      46.708  24.668  26.815  1.00  0.00     0.031 C 
ATOM     66  C   UNL A   1      47.646  26.925  27.230  1.00  0.00     0.037 A 
BRANCH  53  67
ATOM     67  C   UNL A   1      46.115  32.682  28.884  1.00  0.00     0.057 A 
ATOM     68  C   UNL A   1      46.080  33.642  27.863  1.00  0.00     0.134 A 
ATOM     69  C   UNL A   1      46.560  33.099  30.145  1.00  0.00     0.134 A 
ATOM     70  F   UNL A   1      45.676  33.307  26.629  1.00  0.00    -0.206 F 
ATOM     71  C   UNL A   1      46.500  34.956  28.080  1.00  0.00     0.040 A 
ATOM     72  C   UNL A   1      46.954  34.417  30.381  1.00  0.00     0.040 A 
ATOM     73  F   UNL A   1      46.614  32.233  31.169  1.00  0.00    -0.206 F 
ATOM     74  C   UNL A   1      46.933  35.347  29.344  1.00  0.00     0.006 A 
ENDBRANCH  53  67
BRANCH  54  75
ATOM     75  C   UNL A   1      42.703  23.432  27.270  1.00  0.00     0.057 A 
ATOM     76  C   UNL A   1      42.454  22.544  28.322  1.00  0.00     0.134 A 
ATOM     77  C   UNL A   1      42.466  22.974  25.968  1.00  0.00     0.134 A 
ATOM     78  F   UNL A   1      42.678  22.920  29.590  1.00  0.00    -0.206 F 
ATOM     79  C   UNL A   1      42.006  21.242  28.091  1.00  0.00     0.040 A 
ATOM     80  C   UNL A   1      41.994  21.683  25.723  1.00  0.00     0.040 A 
ATOM     81  F   UNL A   1      42.676  23.778  24.917  1.00  0.00    -0.206 F 
ATOM     82  C   UNL A   1      41.771  20.810  26.787  1.00  0.00     0.006 A 
ENDBRANCH  54  75
BRANCH  66  83
ATOM     83  C   UNL A   1      49.003  26.378  26.893  1.00  0.00     0.057 A 
ATOM     84  C   UNL A   1      49.535  26.453  25.601  1.00  0.00     0.134 A 
ATOM     85  C   UNL A   1      49.806  25.812  27.892  1.00  0.00     0.134 A 
ATOM     86  F   UNL A   1      48.812  26.972  24.596  1.00  0.00    -0.206 F 
ATOM     87  C   UNL A   1      50.811  25.967  25.308  1.00  0.00     0.040 A 
ATOM     88  C   UNL A   1      51.093  25.348  27.618  1.00  0.00     0.040 A 
ATOM     89  F   UNL A   1      49.360  25.719  29.154  1.00  0.00    -0.206 F 
ATOM     90  C   UNL A   1      51.596  25.421  26.322  1.00  0.00     0.006 A 
ENDBRANCH  66  83
ENDBRANCH  40  41
ENDBRANCH  32  35
ENDBRANCH  30  31
ENDBRANCH  29  30
ENDBRANCH  28  29
ENDBRANCH  27  28
ENDBRANCH   1  27
TORSDOF 19
ENDMDL
MODEL 3
REMARK VINA RESULT:     -10.2      2.195      6.775
REMARK SMILES CCOc1cc(OCC)cc(-c2ccc([C@@H](C)C(=O)NCCCCCCNC(=O)c3ccc(-c4c5nc(c(-c6c(F)cccc6F)c6ccc([nH]6)c(-c6c(F)cccc6F)c6nc(c(-c7c(F)cccc7F)c7ccc4[nH]7)C=C6)C=C5)cc3)cc2)c1
REMARK SMILES IDX 22 1 21 2 20 3 18 4 19 5 16 7 17 8 15 9 12 10 13 11 85 12
REMARK SMILES IDX 14 13 84 14 11 15 4 16 5 17 86 18 6 19 10 20 3 21 2 22 1 23
REMARK SMILES IDX 7 24 8 25 9 26 23 27 24 28 25 29 26 30 27 31 28 32 29 34
REMARK SMILES IDX 30 35 31 36 83 37 32 38 82 39 33 40 34 41 35 42 76 43 36 44
REMARK SMILES IDX 81 45 75 46 77 47 37 48 80 49 74 50 73 51 38 53 64 54 47 55
REMARK SMILES IDX 63 56 48 57 51 58 62 59 78 60 49 61 50 62 61 64 79 65 52 66
REMARK SMILES IDX 39 67 40 68 45 69 41 70 42 71 44 72 46 73 43 74 65 75 66 76
REMARK SMILES IDX 71 77 67 78 68 79 70 80 72 81 69 82 53 83 54 84 59 85 55 86
REMARK SMILES IDX 56 87 58 88 60 89 57 90
REMARK H PARENT 20 6 27 33 77 52 51 63
REMARK Flexibility Score: inf
ROOT
ATOM      1  C   UNL A   1      32.602  29.090  24.757  1.00  0.00     0.021 C 
ENDROOT
BRANCH   1   2
ATOM      2  C   UNL A   1      31.165  29.617  24.734  1.00  0.00     0.116 C 
BRANCH   2   3
ATOM      3  N   UNL A   1      30.745  29.971  23.394  1.00  0.00    -0.356 N 
ATOM      4  C   UNL A   1      29.952  29.334  22.491  1.00  0.00     0.227 C 
ATOM      5  O   UNL A   1      29.855  29.865  21.378  1.00  0.00    -0.274 OA
ATOM      6  H   UNL A   1      31.098  30.834  23.079  1.00  0.00     0.163 HD
BRANCH   4   7
ATOM      7  C   UNL A   1      29.189  28.033  22.784  1.00  0.00     0.105 C 
ATOM      8  C   UNL A   1      27.872  28.230  23.533  1.00  0.00     0.023 C 
BRANCH   7   9
ATOM      9  C   UNL A   1      30.077  26.919  23.310  1.00  0.00    -0.036 A 
ATOM     10  C   UNL A   1      31.602  24.718  24.285  1.00  0.00    -0.018 A 
ATOM     11  C   UNL A   1      31.854  25.292  23.030  1.00  0.00     0.009 A 
ATOM     12  C   UNL A   1      30.582  25.289  25.057  1.00  0.00     0.009 A 
ATOM     13  C   UNL A   1      31.139  26.397  22.573  1.00  0.00     0.005 A 
ATOM     14  C   UNL A   1      29.818  26.356  24.570  1.00  0.00     0.005 A 
BRANCH  10  15
ATOM     15  C   UNL A   1      32.390  23.554  24.734  1.00  0.00    -0.011 A 
ATOM     16  C   UNL A   1      34.338  22.582  25.817  1.00  0.00     0.123 A 
ATOM     17  C   UNL A   1      33.766  21.311  25.737  1.00  0.00     0.092 A 
ATOM     18  C   UNL A   1      33.660  23.689  25.305  1.00  0.00     0.055 A 
ATOM     19  C   UNL A   1      32.516  21.140  25.144  1.00  0.00     0.123 A 
ATOM     20  C   UNL A   1      31.854  22.257  24.635  1.00  0.00     0.055 A 
BRANCH  16  21
ATOM     21  O   UNL A   1      35.619  22.689  26.283  1.00  0.00    -0.494 OA
BRANCH  21  22
ATOM     22  C   UNL A   1      36.588  23.034  25.285  1.00  0.00     0.226 C 
ATOM     23  C   UNL A   1      36.947  21.861  24.383  1.00  0.00     0.049 C 
ENDBRANCH  21  22
ENDBRANCH  16  21
BRANCH  19  24
ATOM     24  O   UNL A   1      32.015  19.866  25.135  1.00  0.00    -0.494 OA
BRANCH  24  25
ATOM     25  C   UNL A   1      32.681  18.886  24.329  1.00  0.00     0.226 C 
ATOM     26  C   UNL A   1      32.323  19.022  22.854  1.00  0.00     0.049 C 
ENDBRANCH  24  25
ENDBRANCH  19  24
ENDBRANCH  10  15
ENDBRANCH   7   9
ENDBRANCH   4   7
ENDBRANCH   2   3
ENDBRANCH   1   2
BRANCH   1  27
ATOM     27  C   UNL A   1      32.968  28.357  26.052  1.00  0.00     0.002 C 
BRANCH  27  28
ATOM     28  C   UNL A   1      33.448  29.261  27.196  1.00  0.00     0.002 C 
BRANCH  28  29
ATOM     29  C   UNL A   1      34.949  29.198  27.492  1.00  0.00     0.021 C 
BRANCH  29  30
ATOM     30  C   UNL A   1      35.538  30.495  28.038  1.00  0.00     0.116 C 
BRANCH  30  31
ATOM     31  N   UNL A   1      35.467  30.546  29.491  1.00  0.00    -0.352 N 
ATOM     32  C   UNL A   1      36.377  30.117  30.424  1.00  0.00     0.251 C 
ATOM     33  H   UNL A   1      34.647  30.948  29.857  1.00  0.00     0.163 HD
ATOM     34  O   UNL A   1      36.052  30.010  31.601  1.00  0.00    -0.269 OA
BRANCH  32  35
ATOM     35  C   UNL A   1      37.754  29.781  30.007  1.00  0.00     0.039 A 
ATOM     36  C   UNL A   1      38.616  29.179  30.926  1.00  0.00     0.014 A 
ATOM     37  C   UNL A   1      38.198  30.090  28.718  1.00  0.00     0.014 A 
ATOM     38  C   UNL A   1      39.914  28.841  30.536  1.00  0.00     0.010 A 
ATOM     39  C   UNL A   1      39.466  29.688  28.310  1.00  0.00     0.010 A 
ATOM     40  C   UNL A   1      40.340  29.071  29.219  1.00  0.00    -0.014 A 
BRANCH  40  41
ATOM     41  C   UNL A   1      41.706  28.703  28.768  1.00  0.00     0.031 A 
ATOM     42  C   UNL A   1      41.989  27.297  28.314  1.00  0.00     0.074 A 
ATOM     43  C   UNL A   1      42.701  29.606  28.836  1.00  0.00     0.049 A 
ATOM     44  N   UNL A   1      43.130  26.747  27.987  1.00  0.00    -0.248 NA
ATOM     45  C   UNL A   1      40.839  26.382  28.248  1.00  0.00     0.031 C 
ATOM     46  C   UNL A   1      42.558  30.991  29.289  1.00  0.00     0.029 A 
ATOM     47  N   UNL A   1      44.034  29.490  28.537  1.00  0.00    -0.354 N 
ATOM     48  C   UNL A   1      42.837  25.420  27.696  1.00  0.00     0.074 A 
ATOM     49  C   UNL A   1      41.423  25.234  27.938  1.00  0.00     0.031 C 
ATOM     50  C   UNL A   1      43.754  31.600  29.223  1.00  0.00     0.029 A 
ATOM     51  C   UNL A   1      44.752  30.639  28.763  1.00  0.00     0.049 A 
ATOM     52  H   UNL A   1      44.439  28.661  28.195  1.00  0.00     0.167 HD
ATOM     53  C   UNL A   1      43.669  24.449  27.248  1.00  0.00     0.037 A 
ATOM     54  C   UNL A   1      46.068  30.885  28.625  1.00  0.00     0.037 A 
ATOM     55  C   UNL A   1      45.071  24.645  26.986  1.00  0.00     0.049 A 
ATOM     56  C   UNL A   1      46.975  29.787  28.140  1.00  0.00     0.074 A 
ATOM     57  C   UNL A   1      45.988  23.740  26.484  1.00  0.00     0.029 A 
ATOM     58  N   UNL A   1      45.756  25.830  27.209  1.00  0.00    -0.354 N 
ATOM     59  N   UNL A   1      46.676  28.551  27.819  1.00  0.00    -0.248 NA
ATOM     60  C   UNL A   1      48.399  30.119  27.995  1.00  0.00     0.031 C 
ATOM     61  C   UNL A   1      47.240  24.364  26.444  1.00  0.00     0.029 A 
ATOM     62  C   UNL A   1      47.089  25.674  26.872  1.00  0.00     0.049 A 
ATOM     63  H   UNL A   1      45.353  26.659  27.556  1.00  0.00     0.167 HD
ATOM     64  C   UNL A   1      47.867  27.970  27.400  1.00  0.00     0.074 A 
ATOM     65  C   UNL A   1      48.889  28.990  27.503  1.00  0.00     0.031 C 
ATOM     66  C   UNL A   1      48.091  26.705  26.965  1.00  0.00     0.037 A 
BRANCH  53  67
ATOM     67  C   UNL A   1      43.078  23.089  27.012  1.00  0.00     0.057 A 
ATOM     68  C   UNL A   1      42.789  22.214  28.068  1.00  0.00     0.134 A 
ATOM     69  C   UNL A   1      42.775  22.655  25.715  1.00  0.00     0.134 A 
ATOM     70  F   UNL A   1      43.065  22.561  29.334  1.00  0.00    -0.206 F 
ATOM     71  C   UNL A   1      42.251  20.945  27.841  1.00  0.00     0.040 A 
ATOM     72  C   UNL A   1      42.210  21.401  25.478  1.00  0.00     0.040 A 
ATOM     73  F   UNL A   1      43.021  23.443  24.658  1.00  0.00    -0.206 F 
ATOM     74  C   UNL A   1      41.954  20.539  26.542  1.00  0.00     0.006 A 
ENDBRANCH  53  67
BRANCH  54  75
ATOM     75  C   UNL A   1      46.607  32.236  28.926  1.00  0.00     0.057 A 
ATOM     76  C   UNL A   1      47.043  32.567  30.214  1.00  0.00     0.134 A 
ATOM     77  C   UNL A   1      46.695  33.228  27.941  1.00  0.00     0.134 A 
ATOM     78  F   UNL A   1      46.967  31.664  31.204  1.00  0.00    -0.206 F 
ATOM     79  C   UNL A   1      47.529  33.839  30.519  1.00  0.00     0.040 A 
ATOM     80  C   UNL A   1      47.202  34.497  28.225  1.00  0.00     0.040 A 
ATOM     81  F   UNL A   1      46.303  32.972  26.685  1.00  0.00    -0.206 F 
ATOM     82  C   UNL A   1      47.613  34.808  29.521  1.00  0.00     0.006 A 
ENDBRANCH  54  75
BRANCH  66  83
ATOM     83  C   UNL A   1      49.484  26.367  26.520  1.00  0.00     0.057 A 
ATOM     84  C   UNL A   1      50.367  25.641  27.327  1.00  0.00     0.134 A 
ATOM     85  C   UNL A   1      49.927  26.735  25.243  1.00  0.00     0.134 A 
ATOM     86  F   UNL A   1      50.008  25.270  28.566  1.00  0.00    -0.206 F 
ATOM     87  C   UNL A   1      51.650  25.308  26.888  1.00  0.00     0.040 A 
ATOM     88  C   UNL A   1      51.197  26.385  24.782  1.00  0.00     0.040 A 
ATOM     89  F   UNL A   1      49.128  27.424  24.415  1.00  0.00    -0.206 F 
ATOM     90  C   UNL A   1      52.064  25.673  25.609  1.00  0.00     0.006 A 
ENDBRANCH  66  83
ENDBRANCH  40  41
ENDBRANCH  32  35
ENDBRANCH  30  31
ENDBRANCH  29  30
ENDBRANCH  28  29
ENDBRANCH  27  28
ENDBRANCH   1  27
TORSDOF 19
ENDMDL
