MODEL 1
REMARK VINA RESULT:     -11.7      0.000      0.000
REMARK SMILES O=C(NCCCCCCNC(=O)c1c(F)cccc1NS(=O)(=O)C(F)(F)F)c1ccc(-c2c3nc(c(-c4c(F)cccc4F)c4ccc([nH]4)c(-c4c(F)cccc4F)c4nc(c(-c5c(F)cccc5F)c5ccc2[nH]5)C=C4)C=C3)cc1
REMARK SMILES IDX 7 1 6 2 5 3 4 4 3 5 1 6 2 7 28 9 29 10 81 11 30 12 80 13
REMARK SMILES IDX 31 14 32 15 33 16 74 17 34 18 79 19 73 20 75 21 35 22 78 23
REMARK SMILES IDX 72 24 71 25 36 27 62 28 45 29 61 30 46 31 49 32 60 33 76 34
REMARK SMILES IDX 47 35 48 36 59 38 77 39 50 40 37 41 38 42 43 43 39 44 40 45
REMARK SMILES IDX 42 46 44 47 41 48 63 49 64 50 69 51 65 52 66 53 68 54 70 55
REMARK SMILES IDX 67 56 51 57 52 58 57 59 53 60 54 61 56 62 58 63 55 64 8 65
REMARK SMILES IDX 9 66 10 67 11 68 12 70 13 71 14 72 19 73 15 74 16 75 18 76
REMARK SMILES IDX 17 77 20 78 21 80 22 81 23 82 24 83 25 84 26 85 27 86
REMARK H PARENT 3 8 75 26 49 37 10 69 20 79
REMARK Flexibility Score: inf
ROOT
ATOM      1  C   UNL A   1      32.282  29.671  26.975  1.00  0.00     0.002 C 
ENDROOT
BRANCH   1   2
ATOM      2  C   UNL A   1      31.501  30.691  26.140  1.00  0.00     0.002 C 
BRANCH   2   3
ATOM      3  C   UNL A   1      31.383  32.085  26.759  1.00  0.00     0.021 C 
BRANCH   3   4
ATOM      4  C   UNL A   1      32.713  32.734  27.126  1.00  0.00     0.116 C 
BRANCH   4   5
ATOM      5  N   UNL A   1      32.536  34.045  27.727  1.00  0.00    -0.352 N 
ATOM      6  O   UNL A   1      32.796  35.665  29.274  1.00  0.00    -0.269 OA
ATOM      7  C   UNL A   1      33.208  34.620  28.772  1.00  0.00     0.251 C 
ATOM      8  H   UNL A   1      31.829  34.601  27.324  1.00  0.00     0.163 HD
BRANCH   7   9
ATOM      9  C   UNL A   1      34.422  33.978  29.311  1.00  0.00     0.039 A 
ATOM     10  C   UNL A   1      35.695  34.379  28.888  1.00  0.00     0.014 A 
ATOM     11  C   UNL A   1      34.284  32.977  30.276  1.00  0.00     0.014 A 
ATOM     12  C   UNL A   1      36.823  33.705  29.347  1.00  0.00     0.010 A 
ATOM     13  C   UNL A   1      35.420  32.352  30.789  1.00  0.00     0.010 A 
ATOM     14  C   UNL A   1      36.696  32.696  30.313  1.00  0.00    -0.014 A 
BRANCH  14  15
ATOM     15  C   UNL A   1      37.900  32.042  30.880  1.00  0.00     0.031 A 
ATOM     16  C   UNL A   1      38.611  30.959  30.126  1.00  0.00     0.074 A 
ATOM     17  C   UNL A   1      38.318  32.399  32.108  1.00  0.00     0.049 A 
ATOM     18  N   UNL A   1      39.608  30.204  30.512  1.00  0.00    -0.248 NA
ATOM     19  C   UNL A   1      38.137  30.680  28.762  1.00  0.00     0.031 C 
ATOM     20  C   UNL A   1      37.708  33.444  32.933  1.00  0.00     0.029 A 
ATOM     21  N   UNL A   1      39.342  31.917  32.884  1.00  0.00    -0.354 N 
ATOM     22  C   UNL A   1      39.863  29.343  29.452  1.00  0.00     0.074 A 
ATOM     23  C   UNL A   1      38.904  29.656  28.414  1.00  0.00     0.031 C 
ATOM     24  C   UNL A   1      38.373  33.532  34.092  1.00  0.00     0.029 A 
ATOM     25  C   UNL A   1      39.411  32.505  34.122  1.00  0.00     0.049 A 
ATOM     26  H   UNL A   1      39.965  31.218  32.582  1.00  0.00     0.167 HD
ATOM     27  C   UNL A   1      40.814  28.383  29.361  1.00  0.00     0.037 A 
ATOM     28  C   UNL A   1      40.193  32.229  35.183  1.00  0.00     0.037 A 
ATOM     29  C   UNL A   1      41.767  28.091  30.402  1.00  0.00     0.049 A 
ATOM     30  C   UNL A   1      41.202  31.124  35.083  1.00  0.00     0.074 A 
ATOM     31  C   UNL A   1      42.803  27.175  30.382  1.00  0.00     0.029 A 
ATOM     32  N   UNL A   1      41.789  28.695  31.651  1.00  0.00    -0.354 N 
ATOM     33  N   UNL A   1      41.461  30.340  34.063  1.00  0.00    -0.248 NA
ATOM     34  C   UNL A   1      42.022  30.856  36.271  1.00  0.00     0.031 C 
ATOM     35  C   UNL A   1      43.408  27.175  31.641  1.00  0.00     0.029 A 
ATOM     36  C   UNL A   1      42.796  28.143  32.423  1.00  0.00     0.049 A 
ATOM     37  H   UNL A   1      41.179  29.411  31.943  1.00  0.00     0.167 HD
ATOM     38  C   UNL A   1      42.486  29.502  34.478  1.00  0.00     0.074 A 
ATOM     39  C   UNL A   1      42.803  29.872  35.842  1.00  0.00     0.031 C 
ATOM     40  C   UNL A   1      43.109  28.522  33.780  1.00  0.00     0.037 A 
BRANCH  27  41
ATOM     41  C   UNL A   1      40.854  27.552  28.110  1.00  0.00     0.057 A 
ATOM     42  C   UNL A   1      40.163  26.335  28.044  1.00  0.00     0.134 A 
ATOM     43  C   UNL A   1      41.616  27.921  26.994  1.00  0.00     0.134 A 
ATOM     44  F   UNL A   1      39.423  25.914  29.081  1.00  0.00    -0.206 F 
ATOM     45  C   UNL A   1      40.230  25.515  26.916  1.00  0.00     0.040 A 
ATOM     46  C   UNL A   1      41.667  27.124  25.848  1.00  0.00     0.040 A 
ATOM     47  F   UNL A   1      42.298  29.077  26.986  1.00  0.00    -0.206 F 
ATOM     48  C   UNL A   1      40.978  25.913  25.811  1.00  0.00     0.006 A 
ENDBRANCH  27  41
BRANCH  28  49
ATOM     49  C   UNL A   1      40.029  33.034  36.416  1.00  0.00     0.057 A 
ATOM     50  C   UNL A   1      40.871  34.119  36.696  1.00  0.00     0.134 A 
ATOM     51  C   UNL A   1      39.097  32.670  37.393  1.00  0.00     0.134 A 
ATOM     52  F   UNL A   1      41.795  34.506  35.805  1.00  0.00    -0.206 F 
ATOM     53  C   UNL A   1      40.818  34.788  37.920  1.00  0.00     0.040 A 
ATOM     54  C   UNL A   1      39.017  33.346  38.611  1.00  0.00     0.040 A 
ATOM     55  F   UNL A   1      38.257  31.647  37.176  1.00  0.00    -0.206 F 
ATOM     56  C   UNL A   1      39.890  34.399  38.883  1.00  0.00     0.006 A 
ENDBRANCH  28  49
BRANCH  40  57
ATOM     57  C   UNL A   1      44.226  27.777  34.450  1.00  0.00     0.057 A 
ATOM     58  C   UNL A   1      45.550  28.219  34.315  1.00  0.00     0.134 A 
ATOM     59  C   UNL A   1      44.013  26.558  35.102  1.00  0.00     0.134 A 
ATOM     60  F   UNL A   1      45.821  29.376  33.691  1.00  0.00    -0.206 F 
ATOM     61  C   UNL A   1      46.624  27.453  34.769  1.00  0.00     0.040 A 
ATOM     62  C   UNL A   1      45.078  25.795  35.583  1.00  0.00     0.040 A 
ATOM     63  F   UNL A   1      42.768  26.087  35.273  1.00  0.00    -0.206 F 
ATOM     64  C   UNL A   1      46.389  26.234  35.401  1.00  0.00     0.006 A 
ENDBRANCH  40  57
ENDBRANCH  14  15
ENDBRANCH   7   9
ENDBRANCH   4   5
ENDBRANCH   3   4
ENDBRANCH   2   3
ENDBRANCH   1   2
BRANCH   1  65
ATOM     65  C   UNL A   1      31.458  28.495  27.506  1.00  0.00     0.021 C 
BRANCH  65  66
ATOM     66  C   UNL A   1      31.860  27.132  26.947  1.00  0.00     0.116 C 
BRANCH  66  67
ATOM     67  N   UNL A   1      30.753  26.496  26.254  1.00  0.00    -0.352 N 
ATOM     68  C   UNL A   1      30.468  26.501  24.913  1.00  0.00     0.256 C 
ATOM     69  H   UNL A   1      30.124  25.996  26.822  1.00  0.00     0.163 HD
ATOM     70  O   UNL A   1      29.365  26.147  24.512  1.00  0.00    -0.269 OA
BRANCH  68  71
ATOM     71  C   UNL A   1      31.446  27.026  23.949  1.00  0.00     0.099 A 
ATOM     72  C   UNL A   1      32.562  26.243  23.632  1.00  0.00     0.138 A 
ATOM     73  C   UNL A   1      31.277  28.302  23.376  1.00  0.00     0.065 A 
ATOM     74  F   UNL A   1      32.717  25.019  24.157  1.00  0.00    -0.206 F 
ATOM     75  C   UNL A   1      33.570  26.737  22.817  1.00  0.00     0.040 A 
ATOM     76  C   UNL A   1      32.323  28.796  22.590  1.00  0.00     0.028 A 
ATOM     77  C   UNL A   1      33.455  28.022  22.304  1.00  0.00     0.005 A 
BRANCH  73  78
ATOM     78  N   UNL A   1      30.207  29.177  23.813  1.00  0.00    -0.275 N 
ATOM     79  H   UNL A   1      30.221  29.524  24.734  1.00  0.00     0.180 HD
BRANCH  78  80
ATOM     80  S   UNL A   1      28.925  29.623  22.780  1.00  0.00     0.333 S 
ATOM     81  O   UNL A   1      29.492  29.746  21.450  1.00  0.00    -0.197 OA
ATOM     82  O   UNL A   1      27.927  28.592  23.026  1.00  0.00    -0.197 OA
BRANCH  80  83
ATOM     83  C   UNL A   1      28.247  31.263  23.348  1.00  0.00     0.516 C 
ATOM     84  F   UNL A   1      27.162  31.124  24.164  1.00  0.00    -0.155 F 
ATOM     85  F   UNL A   1      29.171  31.982  24.050  1.00  0.00    -0.155 F 
ATOM     86  F   UNL A   1      27.855  32.053  22.309  1.00  0.00    -0.155 F 
ENDBRANCH  80  83
ENDBRANCH  78  80
ENDBRANCH  73  78
ENDBRANCH  68  71
ENDBRANCH  66  67
ENDBRANCH  65  66
ENDBRANCH   1  65
TORSDOF 16
ENDMDL
MODEL 2
REMARK VINA RESULT:     -11.5      6.157     10.741
REMARK SMILES O=C(NCCCCCCNC(=O)c1c(F)cccc1NS(=O)(=O)C(F)(F)F)c1ccc(-c2c3nc(c(-c4c(F)cccc4F)c4ccc([nH]4)c(-c4c(F)cccc4F)c4nc(c(-c5c(F)cccc5F)c5ccc2[nH]5)C=C4)C=C3)cc1
REMARK SMILES IDX 7 1 6 2 5 3 4 4 3 5 1 6 2 7 28 9 29 10 81 11 30 12 80 13
REMARK SMILES IDX 31 14 32 15 33 16 74 17 34 18 79 19 73 20 75 21 35 22 78 23
REMARK SMILES IDX 72 24 71 25 36 27 62 28 45 29 61 30 46 31 49 32 60 33 76 34
REMARK SMILES IDX 47 35 48 36 59 38 77 39 50 40 37 41 38 42 43 43 39 44 40 45
REMARK SMILES IDX 42 46 44 47 41 48 63 49 64 50 69 51 65 52 66 53 68 54 70 55
REMARK SMILES IDX 67 56 51 57 52 58 57 59 53 60 54 61 56 62 58 63 55 64 8 65
REMARK SMILES IDX 9 66 10 67 11 68 12 70 13 71 14 72 19 73 15 74 16 75 18 76
REMARK SMILES IDX 17 77 20 78 21 80 22 81 23 82 24 83 25 84 26 85 27 86
REMARK H PARENT 3 8 75 26 49 37 10 69 20 79
REMARK Flexibility Score: inf
ROOT
ATOM      1  C   UNL A   1      37.683  22.035  24.923  1.00  0.00     0.002 C 
ENDROOT
BRANCH   1   2
ATOM      2  C   UNL A   1      37.258  20.629  24.488  1.00  0.00     0.002 C 
BRANCH   2   3
ATOM      3  C   UNL A   1      38.152  19.495  24.992  1.00  0.00     0.021 C 
BRANCH   3   4
ATOM      4  C   UNL A   1      39.248  19.928  25.959  1.00  0.00     0.116 C 
BRANCH   4   5
ATOM      5  N   UNL A   1      40.382  19.018  25.948  1.00  0.00    -0.352 N 
ATOM      6  O   UNL A   1      42.552  18.419  25.836  1.00  0.00    -0.269 OA
ATOM      7  C   UNL A   1      41.718  19.294  26.061  1.00  0.00     0.251 C 
ATOM      8  H   UNL A   1      40.155  18.065  25.844  1.00  0.00     0.163 HD
BRANCH   7   9
ATOM      9  C   UNL A   1      42.163  20.650  26.438  1.00  0.00     0.039 A 
ATOM     10  C   UNL A   1      42.474  21.602  25.460  1.00  0.00     0.014 A 
ATOM     11  C   UNL A   1      42.243  20.980  27.793  1.00  0.00     0.014 A 
ATOM     12  C   UNL A   1      42.970  22.846  25.837  1.00  0.00     0.010 A 
ATOM     13  C   UNL A   1      42.671  22.253  28.169  1.00  0.00     0.010 A 
ATOM     14  C   UNL A   1      43.058  23.188  27.194  1.00  0.00    -0.014 A 
BRANCH  14  15
ATOM     15  C   UNL A   1      43.491  24.547  27.601  1.00  0.00     0.031 A 
ATOM     16  C   UNL A   1      42.488  25.571  28.040  1.00  0.00     0.074 A 
ATOM     17  C   UNL A   1      44.796  24.866  27.523  1.00  0.00     0.049 A 
ATOM     18  N   UNL A   1      42.672  26.835  28.324  1.00  0.00    -0.248 NA
ATOM     19  C   UNL A   1      41.094  25.121  28.170  1.00  0.00     0.031 C 
ATOM     20  C   UNL A   1      45.862  23.950  27.115  1.00  0.00     0.029 A 
ATOM     21  N   UNL A   1      45.447  26.049  27.766  1.00  0.00    -0.354 N 
ATOM     22  C   UNL A   1      41.416  27.339  28.639  1.00  0.00     0.074 A 
ATOM     23  C   UNL A   1      40.475  26.249  28.493  1.00  0.00     0.031 C 
ATOM     24  C   UNL A   1      47.033  24.599  27.146  1.00  0.00     0.029 A 
ATOM     25  C   UNL A   1      46.794  25.993  27.508  1.00  0.00     0.049 A 
ATOM     26  H   UNL A   1      44.992  26.858  28.094  1.00  0.00     0.167 HD
ATOM     27  C   UNL A   1      41.086  28.597  29.016  1.00  0.00     0.037 A 
ATOM     28  C   UNL A   1      47.731  26.959  27.522  1.00  0.00     0.037 A 
ATOM     29  C   UNL A   1      42.038  29.669  29.165  1.00  0.00     0.049 A 
ATOM     30  C   UNL A   1      47.337  28.359  27.887  1.00  0.00     0.074 A 
ATOM     31  C   UNL A   1      41.809  30.963  29.596  1.00  0.00     0.029 A 
ATOM     32  N   UNL A   1      43.391  29.576  28.873  1.00  0.00    -0.354 N 
ATOM     33  N   UNL A   1      46.154  28.817  28.220  1.00  0.00    -0.248 NA
ATOM     34  C   UNL A   1      48.395  29.377  27.875  1.00  0.00     0.031 C 
ATOM     35  C   UNL A   1      43.009  31.672  29.498  1.00  0.00     0.029 A 
ATOM     36  C   UNL A   1      44.002  30.802  29.076  1.00  0.00     0.049 A 
ATOM     37  H   UNL A   1      43.849  28.759  28.567  1.00  0.00     0.167 HD
ATOM     38  C   UNL A   1      46.327  30.169  28.478  1.00  0.00     0.074 A 
ATOM     39  C   UNL A   1      47.731  30.460  28.264  1.00  0.00     0.031 C 
ATOM     40  C   UNL A   1      45.402  31.080  28.866  1.00  0.00     0.037 A 
BRANCH  27  41
ATOM     41  C   UNL A   1      39.636  28.898  29.263  1.00  0.00     0.057 A 
ATOM     42  C   UNL A   1      39.086  28.740  30.543  1.00  0.00     0.134 A 
ATOM     43  C   UNL A   1      38.769  29.289  28.234  1.00  0.00     0.134 A 
ATOM     44  F   UNL A   1      39.856  28.357  31.573  1.00  0.00    -0.206 F 
ATOM     45  C   UNL A   1      37.729  28.957  30.789  1.00  0.00     0.040 A 
ATOM     46  C   UNL A   1      37.416  29.538  28.474  1.00  0.00     0.040 A 
ATOM     47  F   UNL A   1      39.229  29.466  26.987  1.00  0.00    -0.206 F 
ATOM     48  C   UNL A   1      36.891  29.363  29.754  1.00  0.00     0.006 A 
ENDBRANCH  27  41
BRANCH  28  49
ATOM     49  C   UNL A   1      49.127  26.600  27.175  1.00  0.00     0.057 A 
ATOM     50  C   UNL A   1      49.606  26.721  25.863  1.00  0.00     0.134 A 
ATOM     51  C   UNL A   1      49.979  26.027  28.124  1.00  0.00     0.134 A 
ATOM     52  F   UNL A   1      48.830  27.249  24.905  1.00  0.00    -0.206 F 
ATOM     53  C   UNL A   1      50.868  26.248  25.500  1.00  0.00     0.040 A 
ATOM     54  C   UNL A   1      51.252  25.572  27.780  1.00  0.00     0.040 A 
ATOM     55  F   UNL A   1      49.579  25.897  29.397  1.00  0.00    -0.206 F 
ATOM     56  C   UNL A   1      51.693  25.669  26.461  1.00  0.00     0.006 A 
ENDBRANCH  28  49
BRANCH  40  57
ATOM     57  C   UNL A   1      45.858  32.487  29.119  1.00  0.00     0.057 A 
ATOM     58  C   UNL A   1      46.251  32.881  30.406  1.00  0.00     0.134 A 
ATOM     59  C   UNL A   1      45.773  33.478  28.136  1.00  0.00     0.134 A 
ATOM     60  F   UNL A   1      46.342  31.979  31.396  1.00  0.00    -0.206 F 
ATOM     61  C   UNL A   1      46.503  34.218  30.714  1.00  0.00     0.040 A 
ATOM     62  C   UNL A   1      46.048  34.816  28.426  1.00  0.00     0.040 A 
ATOM     63  F   UNL A   1      45.414  33.163  26.882  1.00  0.00    -0.206 F 
ATOM     64  C   UNL A   1      46.398  35.190  29.722  1.00  0.00     0.006 A 
ENDBRANCH  40  57
ENDBRANCH  14  15
ENDBRANCH   7   9
ENDBRANCH   4   5
ENDBRANCH   3   4
ENDBRANCH   2   3
ENDBRANCH   1   2
BRANCH   1  65
ATOM     65  C   UNL A   1      36.606  23.114  24.784  1.00  0.00     0.021 C 
BRANCH  65  66
ATOM     66  C   UNL A   1      35.965  23.548  26.100  1.00  0.00     0.116 C 
BRANCH  66  67
ATOM     67  N   UNL A   1      35.366  22.420  26.794  1.00  0.00    -0.352 N 
ATOM     68  C   UNL A   1      34.121  21.873  26.619  1.00  0.00     0.256 C 
ATOM     69  H   UNL A   1      35.928  21.993  27.479  1.00  0.00     0.163 HD
ATOM     70  O   UNL A   1      33.662  21.100  27.453  1.00  0.00    -0.269 OA
BRANCH  68  71
ATOM     71  C   UNL A   1      33.283  22.284  25.483  1.00  0.00     0.099 A 
ATOM     72  C   UNL A   1      32.551  23.472  25.586  1.00  0.00     0.138 A 
ATOM     73  C   UNL A   1      33.196  21.483  24.328  1.00  0.00     0.065 A 
ATOM     74  F   UNL A   1      32.647  24.249  26.675  1.00  0.00    -0.206 F 
ATOM     75  C   UNL A   1      31.659  23.847  24.591  1.00  0.00     0.040 A 
ATOM     76  C   UNL A   1      32.262  21.857  23.356  1.00  0.00     0.028 A 
ATOM     77  C   UNL A   1      31.506  23.031  23.479  1.00  0.00     0.005 A 
BRANCH  73  78
ATOM     78  N   UNL A   1      33.831  20.181  24.277  1.00  0.00    -0.275 N 
ATOM     79  H   UNL A   1      34.814  20.130  24.255  1.00  0.00     0.180 HD
BRANCH  78  80
ATOM     80  S   UNL A   1      32.927  18.734  24.255  1.00  0.00     0.333 S 
ATOM     81  O   UNL A   1      32.102  18.747  25.448  1.00  0.00    -0.197 OA
ATOM     82  O   UNL A   1      32.279  18.768  22.952  1.00  0.00    -0.197 OA
BRANCH  80  83
ATOM     83  C   UNL A   1      34.108  17.294  24.300  1.00  0.00     0.516 C 
ATOM     84  F   UNL A   1      33.937  16.513  25.407  1.00  0.00    -0.155 F 
ATOM     85  F   UNL A   1      33.956  16.474  23.219  1.00  0.00    -0.155 F 
ATOM     86  F   UNL A   1      35.413  17.690  24.299  1.00  0.00    -0.155 F 
ENDBRANCH  80  83
ENDBRANCH  78  80
ENDBRANCH  73  78
ENDBRANCH  68  71
ENDBRANCH  66  67
ENDBRANCH  65  66
ENDBRANCH   1  65
TORSDOF 16
ENDMDL
MODEL 3
REMARK VINA RESULT:     -11.3      1.059      2.043
REMARK SMILES O=C(NCCCCCCNC(=O)c1c(F)cccc1NS(=O)(=O)C(F)(F)F)c1ccc(-c2c3nc(c(-c4c(F)cccc4F)c4ccc([nH]4)c(-c4c(F)cccc4F)c4nc(c(-c5c(F)cccc5F)c5ccc2[nH]5)C=C4)C=C3)cc1
REMARK SMILES IDX 7 1 6 2 5 3 4 4 3 5 1 6 2 7 28 9 29 10 81 11 30 12 80 13
REMARK SMILES IDX 31 14 32 15 33 16 74 17 34 18 79 19 73 20 75 21 35 22 78 23
REMARK SMILES IDX 72 24 71 25 36 27 62 28 45 29 61 30 46 31 49 32 60 33 76 34
REMARK SMILES IDX 47 35 48 36 59 38 77 39 50 40 37 41 38 42 43 43 39 44 40 45
REMARK SMILES IDX 42 46 44 47 41 48 63 49 64 50 69 51 65 52 66 53 68 54 70 55
REMARK SMILES IDX 67 56 51 57 52 58 57 59 53 60 54 61 56 62 58 63 55 64 8 65
REMARK SMILES IDX 9 66 10 67 11 68 12 70 13 71 14 72 19 73 15 74 16 75 18 76
REMARK SMILES IDX 17 77 20 78 21 80 22 81 23 82 24 83 25 84 26 85 27 86
REMARK H PARENT 3 8 75 26 49 37 10 69 20 79
REMARK Flexibility Score: inf
ROOT
ATOM      1  C   UNL A   1      32.581  30.139  27.289  1.00  0.00     0.002 C 
ENDROOT
BRANCH   1   2
ATOM      2  C   UNL A   1      31.530  30.815  26.403  1.00  0.00     0.002 C 
BRANCH   2   3
ATOM      3  C   UNL A   1      31.403  32.329  26.584  1.00  0.00     0.021 C 
BRANCH   3   4
ATOM      4  C   UNL A   1      32.689  33.031  27.005  1.00  0.00     0.116 C 
BRANCH   4   5
ATOM      5  N   UNL A   1      32.433  34.319  27.627  1.00  0.00    -0.352 N 
ATOM      6  O   UNL A   1      32.529  35.896  29.236  1.00  0.00    -0.269 OA
ATOM      7  C   UNL A   1      33.005  34.877  28.738  1.00  0.00     0.251 C 
ATOM      8  H   UNL A   1      31.748  34.871  27.184  1.00  0.00     0.163 HD
BRANCH   7   9
ATOM      9  C   UNL A   1      34.188  34.245  29.355  1.00  0.00     0.039 A 
ATOM     10  C   UNL A   1      34.053  33.370  30.439  1.00  0.00     0.014 A 
ATOM     11  C   UNL A   1      35.451  34.513  28.820  1.00  0.00     0.014 A 
ATOM     12  C   UNL A   1      35.186  32.851  31.057  1.00  0.00     0.010 A 
ATOM     13  C   UNL A   1      36.581  33.935  29.396  1.00  0.00     0.010 A 
ATOM     14  C   UNL A   1      36.459  33.116  30.531  1.00  0.00    -0.014 A 
BRANCH  14  15
ATOM     15  C   UNL A   1      37.664  32.486  31.124  1.00  0.00     0.031 A 
ATOM     16  C   UNL A   1      38.326  31.319  30.454  1.00  0.00     0.074 A 
ATOM     17  C   UNL A   1      38.127  32.944  32.301  1.00  0.00     0.049 A 
ATOM     18  N   UNL A   1      39.316  30.577  30.881  1.00  0.00    -0.248 NA
ATOM     19  C   UNL A   1      37.805  30.928  29.136  1.00  0.00     0.031 C 
ATOM     20  C   UNL A   1      37.568  34.077  33.041  1.00  0.00     0.029 A 
ATOM     21  N   UNL A   1      39.162  32.509  33.090  1.00  0.00    -0.354 N 
ATOM     22  C   UNL A   1      39.519  29.615  29.900  1.00  0.00     0.074 A 
ATOM     23  C   UNL A   1      38.537  29.855  28.865  1.00  0.00     0.031 C 
ATOM     24  C   UNL A   1      38.269  34.254  34.168  1.00  0.00     0.029 A 
ATOM     25  C   UNL A   1      39.282  33.207  34.265  1.00  0.00     0.049 A 
ATOM     26  H   UNL A   1      39.759  31.769  32.837  1.00  0.00     0.167 HD
ATOM     27  C   UNL A   1      40.443  28.626  29.873  1.00  0.00     0.037 A 
ATOM     28  C   UNL A   1      40.090  33.010  35.325  1.00  0.00     0.037 A 
ATOM     29  C   UNL A   1      41.419  28.406  30.909  1.00  0.00     0.049 A 
ATOM     30  C   UNL A   1      41.068  31.874  35.300  1.00  0.00     0.074 A 
ATOM     31  C   UNL A   1      42.432  27.465  30.946  1.00  0.00     0.029 A 
ATOM     32  N   UNL A   1      41.493  29.123  32.095  1.00  0.00    -0.354 N 
ATOM     33  N   UNL A   1      41.278  30.993  34.352  1.00  0.00    -0.248 NA
ATOM     34  C   UNL A   1      41.917  31.696  36.485  1.00  0.00     0.031 C 
ATOM     35  C   UNL A   1      43.074  27.566  32.183  1.00  0.00     0.029 A 
ATOM     36  C   UNL A   1      42.510  28.618  32.888  1.00  0.00     0.049 A 
ATOM     37  H   UNL A   1      40.910  29.879  32.336  1.00  0.00     0.167 HD
ATOM     38  C   UNL A   1      42.295  30.170  34.814  1.00  0.00     0.074 A 
ATOM     39  C   UNL A   1      42.662  30.656  36.129  1.00  0.00     0.031 C 
ATOM     40  C   UNL A   1      42.873  29.113  34.194  1.00  0.00     0.037 A 
BRANCH  27  41
ATOM     41  C   UNL A   1      40.426  27.682  28.704  1.00  0.00     0.057 A 
ATOM     42  C   UNL A   1      39.659  26.510  28.750  1.00  0.00     0.134 A 
ATOM     43  C   UNL A   1      41.204  27.897  27.560  1.00  0.00     0.134 A 
ATOM     44  F   UNL A   1      38.898  26.234  29.821  1.00  0.00    -0.206 F 
ATOM     45  C   UNL A   1      39.669  25.586  27.703  1.00  0.00     0.040 A 
ATOM     46  C   UNL A   1      41.200  26.996  26.493  1.00  0.00     0.040 A 
ATOM     47  F   UNL A   1      41.957  29.002  27.446  1.00  0.00    -0.206 F 
ATOM     48  C   UNL A   1      40.437  25.832  26.568  1.00  0.00     0.006 A 
ENDBRANCH  27  41
BRANCH  28  49
ATOM     49  C   UNL A   1      39.981  33.930  36.482  1.00  0.00     0.057 A 
ATOM     50  C   UNL A   1      39.121  33.655  37.553  1.00  0.00     0.134 A 
ATOM     51  C   UNL A   1      40.654  35.156  36.490  1.00  0.00     0.134 A 
ATOM     52  F   UNL A   1      38.437  32.502  37.594  1.00  0.00    -0.206 F 
ATOM     53  C   UNL A   1      38.903  34.584  38.572  1.00  0.00     0.040 A 
ATOM     54  C   UNL A   1      40.464  36.084  37.516  1.00  0.00     0.040 A 
ATOM     55  F   UNL A   1      41.499  35.469  35.497  1.00  0.00    -0.206 F 
ATOM     56  C   UNL A   1      39.574  35.804  38.552  1.00  0.00     0.006 A 
ENDBRANCH  28  49
BRANCH  40  57
ATOM     57  C   UNL A   1      43.991  28.404  34.899  1.00  0.00     0.057 A 
ATOM     58  C   UNL A   1      43.712  27.382  35.818  1.00  0.00     0.134 A 
ATOM     59  C   UNL A   1      45.321  28.823  34.781  1.00  0.00     0.134 A 
ATOM     60  F   UNL A   1      42.455  26.943  35.986  1.00  0.00    -0.206 F 
ATOM     61  C   UNL A   1      44.710  26.831  36.622  1.00  0.00     0.040 A 
ATOM     62  C   UNL A   1      46.333  28.261  35.561  1.00  0.00     0.040 A 
ATOM     63  F   UNL A   1      45.654  29.788  33.910  1.00  0.00    -0.206 F 
ATOM     64  C   UNL A   1      46.025  27.274  36.497  1.00  0.00     0.006 A 
ENDBRANCH  40  57
ENDBRANCH  14  15
ENDBRANCH   7   9
ENDBRANCH   4   5
ENDBRANCH   3   4
ENDBRANCH   2   3
ENDBRANCH   1   2
BRANCH   1  65
ATOM     65  C   UNL A   1      33.854  29.691  26.565  1.00  0.00     0.021 C 
BRANCH  65  66
ATOM     66  C   UNL A   1      33.662  28.515  25.610  1.00  0.00     0.116 C 
BRANCH  66  67
ATOM     67  N   UNL A   1      33.637  28.955  24.226  1.00  0.00    -0.352 N 
ATOM     68  C   UNL A   1      32.958  28.408  23.168  1.00  0.00     0.256 C 
ATOM     69  H   UNL A   1      34.178  29.751  24.021  1.00  0.00     0.163 HD
ATOM     70  O   UNL A   1      33.241  28.728  22.018  1.00  0.00    -0.269 OA
BRANCH  68  71
ATOM     71  C   UNL A   1      31.954  27.358  23.393  1.00  0.00     0.099 A 
ATOM     72  C   UNL A   1      32.336  26.021  23.238  1.00  0.00     0.138 A 
ATOM     73  C   UNL A   1      30.628  27.693  23.732  1.00  0.00     0.065 A 
ATOM     74  F   UNL A   1      33.601  25.696  22.937  1.00  0.00    -0.206 F 
ATOM     75  C   UNL A   1      31.402  24.999  23.327  1.00  0.00     0.040 A 
ATOM     76  C   UNL A   1      29.695  26.652  23.778  1.00  0.00     0.028 A 
ATOM     77  C   UNL A   1      30.075  25.317  23.587  1.00  0.00     0.005 A 
BRANCH  73  78
ATOM     78  N   UNL A   1      30.191  29.075  23.747  1.00  0.00    -0.275 N 
ATOM     79  H   UNL A   1      30.540  29.678  24.443  1.00  0.00     0.180 HD
BRANCH  78  80
ATOM     80  S   UNL A   1      29.094  29.689  22.594  1.00  0.00     0.333 S 
ATOM     81  O   UNL A   1      29.795  29.699  21.323  1.00  0.00    -0.197 OA
ATOM     82  O   UNL A   1      27.933  28.826  22.750  1.00  0.00    -0.197 OA
BRANCH  80  83
ATOM     83  C   UNL A   1      28.623  31.424  23.086  1.00  0.00     0.516 C 
ATOM     84  F   UNL A   1      28.971  32.347  22.143  1.00  0.00    -0.155 F 
ATOM     85  F   UNL A   1      27.278  31.553  23.278  1.00  0.00    -0.155 F 
ATOM     86  F   UNL A   1      29.215  31.813  24.251  1.00  0.00    -0.155 F 
ENDBRANCH  80  83
ENDBRANCH  78  80
ENDBRANCH  73  78
ENDBRANCH  68  71
ENDBRANCH  66  67
ENDBRANCH  65  66
ENDBRANCH   1  65
TORSDOF 16
ENDMDL
