MODEL 1
REMARK VINA RESULT:     -11.4      0.000      0.000
REMARK SMILES Cc1ccccc1OCC(=O)N1C[C@@H](O)C[C@H]1C(=O)NCCCCCCNC(=O)c1ccc(-c2c3nc(c(-c4c(F)cccc4F)c4ccc([nH]4)c(-c4c(F)cccc4F)c4nc(c(-c5c(F)cccc5F)c5ccc2[nH]5)C=C4)C=C3)cc1
REMARK SMILES IDX 22 1 21 2 20 3 18 4 19 5 17 7 12 8 13 9 14 10 16 11 10 12
REMARK SMILES IDX 11 13 9 14 8 15 7 16 1 17 2 18 3 19 4 20 6 21 5 22 15 23
REMARK SMILES IDX 23 25 24 26 25 27 26 28 27 29 28 30 29 32 30 33 31 34 83 35
REMARK SMILES IDX 32 36 82 37 33 38 34 39 35 40 76 41 36 42 81 43 75 44 77 45
REMARK SMILES IDX 37 46 80 47 74 48 73 49 38 51 64 52 47 53 63 54 48 55 51 56
REMARK SMILES IDX 62 57 78 58 49 59 50 60 61 62 79 63 52 64 39 65 40 66 45 67
REMARK SMILES IDX 41 68 42 69 44 70 46 71 43 72 65 73 66 74 71 75 67 76 68 77
REMARK SMILES IDX 70 78 72 79 69 80 53 81 54 82 59 83 55 84 56 85 58 86 60 87
REMARK SMILES IDX 57 88
REMARK H PARENT 20 6 15 24 27 31 77 50 51 61
REMARK Flexibility Score: inf
ROOT
ATOM      1  C   UNL A   1      32.484  28.077  24.746  1.00  0.00     0.021 C 
ENDROOT
BRANCH   1   2
ATOM      2  C   UNL A   1      33.589  27.070  24.446  1.00  0.00     0.116 C 
BRANCH   2   3
ATOM      3  N   UNL A   1      33.831  26.877  23.034  1.00  0.00    -0.354 N 
ATOM      4  C   UNL A   1      33.262  25.991  22.164  1.00  0.00     0.242 C 
ATOM      5  O   UNL A   1      33.315  26.284  20.964  1.00  0.00    -0.273 OA
ATOM      6  H   UNL A   1      34.508  27.474  22.640  1.00  0.00     0.163 HD
BRANCH   4   7
ATOM      7  C   UNL A   1      32.420  24.782  22.634  1.00  0.00     0.177 C 
ATOM      8  N   UNL A   1      32.964  24.003  23.748  1.00  0.00    -0.325 N 
ATOM      9  C   UNL A   1      31.995  23.814  24.813  1.00  0.00     0.152 C 
ATOM     10  C   UNL A   1      30.662  24.295  24.240  1.00  0.00     0.136 C 
ATOM     11  C   UNL A   1      31.025  25.222  23.082  1.00  0.00     0.069 C 
BRANCH   8  12
ATOM     12  C   UNL A   1      34.127  23.277  23.572  1.00  0.00     0.261 C 
ATOM     13  O   UNL A   1      35.105  23.765  23.001  1.00  0.00    -0.271 OA
BRANCH  12  14
ATOM     14  C   UNL A   1      34.148  21.809  24.018  1.00  0.00     0.329 C 
BRANCH  14  15
ATOM     15  O   UNL A   1      34.827  21.481  25.204  1.00  0.00    -0.484 OA
BRANCH  15  16
ATOM     16  C   UNL A   1      36.182  21.380  25.300  1.00  0.00     0.122 A 
ATOM     17  C   UNL A   1      36.917  23.748  26.067  1.00  0.00     0.048 C 
ATOM     18  C   UNL A   1      37.156  22.318  25.674  1.00  0.00    -0.009 A 
ATOM     19  C   UNL A   1      38.503  21.890  25.733  1.00  0.00     0.007 A 
ATOM     20  C   UNL A   1      38.878  20.590  25.398  1.00  0.00     0.001 A 
ATOM     21  C   UNL A   1      36.587  20.077  24.950  1.00  0.00     0.047 A 
ATOM     22  C   UNL A   1      37.919  19.681  24.993  1.00  0.00     0.004 A 
ENDBRANCH  15  16
ENDBRANCH  14  15
ENDBRANCH  12  14
ENDBRANCH   8  12
BRANCH  10  23
ATOM     23  O   UNL A   1      29.875  24.977  25.207  1.00  0.00    -0.391 OA
ATOM     24  H   UNL A   1      30.046  25.930  25.148  1.00  0.00     0.211 HD
ENDBRANCH  10  23
ENDBRANCH   4   7
ENDBRANCH   2   3
ENDBRANCH   1   2
BRANCH   1  25
ATOM     25  C   UNL A   1      32.516  28.734  26.130  1.00  0.00     0.002 C 
BRANCH  25  26
ATOM     26  C   UNL A   1      33.271  30.066  26.263  1.00  0.00     0.002 C 
BRANCH  26  27
ATOM     27  C   UNL A   1      34.012  30.310  27.580  1.00  0.00     0.021 C 
BRANCH  27  28
ATOM     28  C   UNL A   1      35.038  31.434  27.538  1.00  0.00     0.116 C 
BRANCH  28  29
ATOM     29  N   UNL A   1      35.501  31.876  28.847  1.00  0.00    -0.352 N 
ATOM     30  C   UNL A   1      36.363  31.245  29.730  1.00  0.00     0.251 C 
ATOM     31  H   UNL A   1      35.151  32.746  29.148  1.00  0.00     0.163 HD
ATOM     32  O   UNL A   1      36.630  31.760  30.805  1.00  0.00    -0.269 OA
BRANCH  30  33
ATOM     33  C   UNL A   1      37.071  30.013  29.298  1.00  0.00     0.039 A 
ATOM     34  C   UNL A   1      37.232  28.994  30.244  1.00  0.00     0.014 A 
ATOM     35  C   UNL A   1      37.750  29.954  28.085  1.00  0.00     0.014 A 
ATOM     36  C   UNL A   1      38.268  28.079  30.088  1.00  0.00     0.010 A 
ATOM     37  C   UNL A   1      38.840  29.112  27.972  1.00  0.00     0.010 A 
ATOM     38  C   UNL A   1      39.145  28.229  29.012  1.00  0.00    -0.014 A 
BRANCH  38  39
ATOM     39  C   UNL A   1      40.468  27.617  28.985  1.00  0.00     0.031 A 
ATOM     40  C   UNL A   1      40.653  26.204  28.605  1.00  0.00     0.074 A 
ATOM     41  C   UNL A   1      41.556  28.378  29.246  1.00  0.00     0.049 A 
ATOM     42  N   UNL A   1      41.686  25.506  28.934  1.00  0.00    -0.248 NA
ATOM     43  C   UNL A   1      39.669  25.453  27.837  1.00  0.00     0.031 C 
ATOM     44  C   UNL A   1      42.960  28.030  29.033  1.00  0.00     0.029 A 
ATOM     45  N   UNL A   1      41.606  29.583  29.959  1.00  0.00    -0.354 N 
ATOM     46  C   UNL A   1      41.640  24.327  28.234  1.00  0.00     0.074 A 
ATOM     47  C   UNL A   1      40.340  24.321  27.599  1.00  0.00     0.031 C 
ATOM     48  C   UNL A   1      43.724  28.810  29.811  1.00  0.00     0.029 A 
ATOM     49  C   UNL A   1      42.830  29.569  30.665  1.00  0.00     0.049 A 
ATOM     50  H   UNL A   1      40.926  30.295  29.967  1.00  0.00     0.167 HD
ATOM     51  C   UNL A   1      42.747  23.534  28.179  1.00  0.00     0.037 A 
ATOM     52  C   UNL A   1      42.840  29.535  32.030  1.00  0.00     0.037 A 
ATOM     53  C   UNL A   1      43.851  24.070  28.971  1.00  0.00     0.049 A 
ATOM     54  C   UNL A   1      43.462  28.292  32.635  1.00  0.00     0.074 A 
ATOM     55  C   UNL A   1      45.005  24.780  28.681  1.00  0.00     0.029 A 
ATOM     56  N   UNL A   1      43.703  24.142  30.344  1.00  0.00    -0.354 N 
ATOM     57  N   UNL A   1      43.934  27.287  31.948  1.00  0.00    -0.248 NA
ATOM     58  C   UNL A   1      43.507  28.046  34.077  1.00  0.00     0.031 C 
ATOM     59  C   UNL A   1      45.554  25.265  29.903  1.00  0.00     0.029 A 
ATOM     60  C   UNL A   1      44.731  24.851  30.933  1.00  0.00     0.049 A 
ATOM     61  H   UNL A   1      42.957  23.736  30.841  1.00  0.00     0.167 HD
ATOM     62  C   UNL A   1      44.270  26.270  32.805  1.00  0.00     0.074 A 
ATOM     63  C   UNL A   1      43.995  26.795  34.127  1.00  0.00     0.031 C 
ATOM     64  C   UNL A   1      44.701  25.050  32.370  1.00  0.00     0.037 A 
BRANCH  51  65
ATOM     65  C   UNL A   1      42.882  22.381  27.219  1.00  0.00     0.057 A 
ATOM     66  C   UNL A   1      42.095  21.222  27.355  1.00  0.00     0.134 A 
ATOM     67  C   UNL A   1      43.802  22.341  26.157  1.00  0.00     0.134 A 
ATOM     68  F   UNL A   1      41.102  21.145  28.249  1.00  0.00    -0.206 F 
ATOM     69  C   UNL A   1      42.295  20.073  26.582  1.00  0.00     0.040 A 
ATOM     70  C   UNL A   1      44.054  21.179  25.414  1.00  0.00     0.040 A 
ATOM     71  F   UNL A   1      44.467  23.439  25.770  1.00  0.00    -0.206 F 
ATOM     72  C   UNL A   1      43.308  20.032  25.636  1.00  0.00     0.006 A 
ENDBRANCH  51  65
BRANCH  52  73
ATOM     73  C   UNL A   1      41.719  30.307  32.629  1.00  0.00     0.057 A 
ATOM     74  C   UNL A   1      41.829  31.707  32.706  1.00  0.00     0.134 A 
ATOM     75  C   UNL A   1      40.444  29.757  32.782  1.00  0.00     0.134 A 
ATOM     76  F   UNL A   1      43.026  32.298  32.560  1.00  0.00    -0.206 F 
ATOM     77  C   UNL A   1      40.707  32.530  32.818  1.00  0.00     0.040 A 
ATOM     78  C   UNL A   1      39.315  30.572  32.912  1.00  0.00     0.040 A 
ATOM     79  F   UNL A   1      40.255  28.433  32.692  1.00  0.00    -0.206 F 
ATOM     80  C   UNL A   1      39.440  31.960  32.891  1.00  0.00     0.006 A 
ENDBRANCH  52  73
BRANCH  64  81
ATOM     81  C   UNL A   1      45.105  23.929  33.287  1.00  0.00     0.057 A 
ATOM     82  C   UNL A   1      44.232  22.891  33.642  1.00  0.00     0.134 A 
ATOM     83  C   UNL A   1      46.352  23.925  33.945  1.00  0.00     0.134 A 
ATOM     84  F   UNL A   1      42.989  22.831  33.139  1.00  0.00    -0.206 F 
ATOM     85  C   UNL A   1      44.594  21.888  34.549  1.00  0.00     0.040 A 
ATOM     86  C   UNL A   1      46.706  22.957  34.888  1.00  0.00     0.040 A 
ATOM     87  F   UNL A   1      47.288  24.849  33.686  1.00  0.00    -0.206 F 
ATOM     88  C   UNL A   1      45.831  21.924  35.184  1.00  0.00     0.006 A 
ENDBRANCH  64  81
ENDBRANCH  38  39
ENDBRANCH  30  33
ENDBRANCH  28  29
ENDBRANCH  27  28
ENDBRANCH  26  27
ENDBRANCH  25  26
ENDBRANCH   1  25
TORSDOF 18
ENDMDL
MODEL 2
REMARK VINA RESULT:     -11.4      1.425      3.700
REMARK SMILES Cc1ccccc1OCC(=O)N1C[C@@H](O)C[C@H]1C(=O)NCCCCCCNC(=O)c1ccc(-c2c3nc(c(-c4c(F)cccc4F)c4ccc([nH]4)c(-c4c(F)cccc4F)c4nc(c(-c5c(F)cccc5F)c5ccc2[nH]5)C=C4)C=C3)cc1
REMARK SMILES IDX 22 1 21 2 20 3 18 4 19 5 17 7 12 8 13 9 14 10 16 11 10 12
REMARK SMILES IDX 11 13 9 14 8 15 7 16 1 17 2 18 3 19 4 20 6 21 5 22 15 23
REMARK SMILES IDX 23 25 24 26 25 27 26 28 27 29 28 30 29 32 30 33 31 34 83 35
REMARK SMILES IDX 32 36 82 37 33 38 34 39 35 40 76 41 36 42 81 43 75 44 77 45
REMARK SMILES IDX 37 46 80 47 74 48 73 49 38 51 64 52 47 53 63 54 48 55 51 56
REMARK SMILES IDX 62 57 78 58 49 59 50 60 61 62 79 63 52 64 39 65 40 66 45 67
REMARK SMILES IDX 41 68 42 69 44 70 46 71 43 72 65 73 66 74 71 75 67 76 68 77
REMARK SMILES IDX 70 78 72 79 69 80 53 81 54 82 59 83 55 84 56 85 58 86 60 87
REMARK SMILES IDX 57 88
REMARK H PARENT 20 6 15 24 27 31 77 50 51 61
REMARK Flexibility Score: inf
ROOT
ATOM      1  C   UNL A   1      32.645  28.204  25.468  1.00  0.00     0.021 C 
ENDROOT
BRANCH   1   2
ATOM      2  C   UNL A   1      32.353  26.790  25.956  1.00  0.00     0.116 C 
BRANCH   2   3
ATOM      3  N   UNL A   1      33.529  25.957  26.063  1.00  0.00    -0.354 N 
ATOM      4  C   UNL A   1      33.846  24.804  25.402  1.00  0.00     0.242 C 
ATOM      5  O   UNL A   1      35.046  24.511  25.347  1.00  0.00    -0.273 OA
ATOM      6  H   UNL A   1      34.204  26.266  26.710  1.00  0.00     0.163 HD
BRANCH   4   7
ATOM      7  C   UNL A   1      32.809  23.997  24.587  1.00  0.00     0.177 C 
ATOM      8  N   UNL A   1      32.989  23.985  23.134  1.00  0.00    -0.325 N 
ATOM      9  C   UNL A   1      32.975  22.639  22.588  1.00  0.00     0.152 C 
ATOM     10  C   UNL A   1      32.512  21.741  23.734  1.00  0.00     0.136 C 
ATOM     11  C   UNL A   1      32.795  22.527  25.012  1.00  0.00     0.069 C 
BRANCH   8  12
ATOM     12  C   UNL A   1      32.824  25.153  22.414  1.00  0.00     0.261 C 
ATOM     13  O   UNL A   1      33.793  25.777  21.977  1.00  0.00    -0.271 OA
BRANCH  12  14
ATOM     14  C   UNL A   1      31.407  25.717  22.248  1.00  0.00     0.329 C 
BRANCH  14  15
ATOM     15  O   UNL A   1      31.176  27.058  22.602  1.00  0.00    -0.484 OA
BRANCH  15  16
ATOM     16  C   UNL A   1      29.941  27.575  22.852  1.00  0.00     0.122 A 
ATOM     17  C   UNL A   1      30.067  29.967  21.854  1.00  0.00     0.048 C 
ATOM     18  C   UNL A   1      29.384  28.826  22.553  1.00  0.00    -0.009 A 
ATOM     19  C   UNL A   1      28.030  29.051  22.898  1.00  0.00     0.007 A 
ATOM     20  C   UNL A   1      27.266  28.084  23.549  1.00  0.00     0.001 A 
ATOM     21  C   UNL A   1      29.154  26.620  23.526  1.00  0.00     0.047 A 
ATOM     22  C   UNL A   1      27.831  26.867  23.877  1.00  0.00     0.004 A 
ENDBRANCH  15  16
ENDBRANCH  14  15
ENDBRANCH  12  14
ENDBRANCH   8  12
BRANCH  10  23
ATOM     23  O   UNL A   1      33.190  20.492  23.748  1.00  0.00    -0.391 OA
ATOM     24  H   UNL A   1      32.583  19.791  23.465  1.00  0.00     0.211 HD
ENDBRANCH  10  23
ENDBRANCH   4   7
ENDBRANCH   2   3
ENDBRANCH   1   2
BRANCH   1  25
ATOM     25  C   UNL A   1      34.003  28.795  25.858  1.00  0.00     0.002 C 
BRANCH  25  26
ATOM     26  C   UNL A   1      34.176  29.271  27.310  1.00  0.00     0.002 C 
BRANCH  26  27
ATOM     27  C   UNL A   1      33.894  30.749  27.590  1.00  0.00     0.021 C 
BRANCH  27  28
ATOM     28  C   UNL A   1      35.128  31.638  27.639  1.00  0.00     0.116 C 
BRANCH  28  29
ATOM     29  N   UNL A   1      35.534  32.031  28.982  1.00  0.00    -0.352 N 
ATOM     30  C   UNL A   1      36.341  31.357  29.885  1.00  0.00     0.251 C 
ATOM     31  H   UNL A   1      35.186  32.898  29.292  1.00  0.00     0.163 HD
ATOM     32  O   UNL A   1      36.564  31.834  30.987  1.00  0.00    -0.269 OA
BRANCH  30  33
ATOM     33  C   UNL A   1      37.047  30.125  29.450  1.00  0.00     0.039 A 
ATOM     34  C   UNL A   1      37.222  29.111  30.399  1.00  0.00     0.014 A 
ATOM     35  C   UNL A   1      37.710  30.062  28.229  1.00  0.00     0.014 A 
ATOM     36  C   UNL A   1      38.259  28.198  30.234  1.00  0.00     0.010 A 
ATOM     37  C   UNL A   1      38.801  29.223  28.106  1.00  0.00     0.010 A 
ATOM     38  C   UNL A   1      39.122  28.345  29.146  1.00  0.00    -0.014 A 
BRANCH  38  39
ATOM     39  C   UNL A   1      40.446  27.738  29.104  1.00  0.00     0.031 A 
ATOM     40  C   UNL A   1      40.634  26.335  28.690  1.00  0.00     0.074 A 
ATOM     41  C   UNL A   1      41.533  28.494  29.386  1.00  0.00     0.049 A 
ATOM     42  N   UNL A   1      41.669  25.631  29.002  1.00  0.00    -0.248 NA
ATOM     43  C   UNL A   1      39.652  25.601  27.902  1.00  0.00     0.031 C 
ATOM     44  C   UNL A   1      42.937  28.155  29.165  1.00  0.00     0.029 A 
ATOM     45  N   UNL A   1      41.579  29.681  30.128  1.00  0.00    -0.354 N 
ATOM     46  C   UNL A   1      41.625  24.469  28.273  1.00  0.00     0.074 A 
ATOM     47  C   UNL A   1      40.325  24.476  27.637  1.00  0.00     0.031 C 
ATOM     48  C   UNL A   1      43.699  28.916  29.962  1.00  0.00     0.029 A 
ATOM     49  C   UNL A   1      42.803  29.652  30.835  1.00  0.00     0.049 A 
ATOM     50  H   UNL A   1      40.897  30.391  30.153  1.00  0.00     0.167 HD
ATOM     51  C   UNL A   1      42.734  23.680  28.199  1.00  0.00     0.037 A 
ATOM     52  C   UNL A   1      42.812  29.584  32.198  1.00  0.00     0.037 A 
ATOM     53  C   UNL A   1      43.836  24.199  29.005  1.00  0.00     0.049 A 
ATOM     54  C   UNL A   1      43.436  28.327  32.772  1.00  0.00     0.074 A 
ATOM     55  C   UNL A   1      44.989  24.919  28.734  1.00  0.00     0.029 A 
ATOM     56  N   UNL A   1      43.687  24.236  30.380  1.00  0.00    -0.354 N 
ATOM     57  N   UNL A   1      43.910  27.341  32.062  1.00  0.00    -0.248 NA
ATOM     58  C   UNL A   1      43.481  28.046  34.208  1.00  0.00     0.031 C 
ATOM     59  C   UNL A   1      45.536  25.374  29.968  1.00  0.00     0.029 A 
ATOM     60  C   UNL A   1      44.713  24.933  30.986  1.00  0.00     0.049 A 
ATOM     61  H   UNL A   1      42.942  23.816  30.866  1.00  0.00     0.167 HD
ATOM     62  C   UNL A   1      44.248  26.303  32.893  1.00  0.00     0.074 A 
ATOM     63  C   UNL A   1      43.971  26.795  34.228  1.00  0.00     0.031 C 
ATOM     64  C   UNL A   1      44.682  25.096  32.428  1.00  0.00     0.037 A 
BRANCH  51  65
ATOM     65  C   UNL A   1      42.873  22.552  27.210  1.00  0.00     0.057 A 
ATOM     66  C   UNL A   1      42.130  21.364  27.351  1.00  0.00     0.134 A 
ATOM     67  C   UNL A   1      43.753  22.565  26.115  1.00  0.00     0.134 A 
ATOM     68  F   UNL A   1      41.174  21.235  28.279  1.00  0.00    -0.206 F 
ATOM     69  C   UNL A   1      42.341  20.238  26.547  1.00  0.00     0.040 A 
ATOM     70  C   UNL A   1      44.016  21.427  25.339  1.00  0.00     0.040 A 
ATOM     71  F   UNL A   1      44.366  23.692  25.727  1.00  0.00    -0.206 F 
ATOM     72  C   UNL A   1      43.319  20.250  25.565  1.00  0.00     0.006 A 
ENDBRANCH  51  65
BRANCH  52  73
ATOM     73  C   UNL A   1      41.689  30.338  32.816  1.00  0.00     0.057 A 
ATOM     74  C   UNL A   1      41.790  31.737  32.915  1.00  0.00     0.134 A 
ATOM     75  C   UNL A   1      40.418  29.778  32.965  1.00  0.00     0.134 A 
ATOM     76  F   UNL A   1      42.983  32.339  32.775  1.00  0.00    -0.206 F 
ATOM     77  C   UNL A   1      40.663  32.551  33.047  1.00  0.00     0.040 A 
ATOM     78  C   UNL A   1      39.284  30.583  33.114  1.00  0.00     0.040 A 
ATOM     79  F   UNL A   1      40.237  28.454  32.854  1.00  0.00    -0.206 F 
ATOM     80  C   UNL A   1      39.400  31.972  33.116  1.00  0.00     0.006 A 
ENDBRANCH  52  73
BRANCH  64  81
ATOM     81  C   UNL A   1      45.087  23.953  33.317  1.00  0.00     0.057 A 
ATOM     82  C   UNL A   1      44.203  22.928  33.682  1.00  0.00     0.134 A 
ATOM     83  C   UNL A   1      46.352  23.914  33.939  1.00  0.00     0.134 A 
ATOM     84  F   UNL A   1      42.945  22.901  33.214  1.00  0.00    -0.206 F 
ATOM     85  C   UNL A   1      44.569  21.904  34.564  1.00  0.00     0.040 A 
ATOM     86  C   UNL A   1      46.712  22.925  34.858  1.00  0.00     0.040 A 
ATOM     87  F   UNL A   1      47.300  24.822  33.668  1.00  0.00    -0.206 F 
ATOM     88  C   UNL A   1      45.824  21.905  35.164  1.00  0.00     0.006 A 
ENDBRANCH  64  81
ENDBRANCH  38  39
ENDBRANCH  30  33
ENDBRANCH  28  29
ENDBRANCH  27  28
ENDBRANCH  26  27
ENDBRANCH  25  26
ENDBRANCH   1  25
TORSDOF 18
ENDMDL
MODEL 3
REMARK VINA RESULT:     -11.4      3.636      8.925
REMARK SMILES Cc1ccccc1OCC(=O)N1C[C@@H](O)C[C@H]1C(=O)NCCCCCCNC(=O)c1ccc(-c2c3nc(c(-c4c(F)cccc4F)c4ccc([nH]4)c(-c4c(F)cccc4F)c4nc(c(-c5c(F)cccc5F)c5ccc2[nH]5)C=C4)C=C3)cc1
REMARK SMILES IDX 22 1 21 2 20 3 18 4 19 5 17 7 12 8 13 9 14 10 16 11 10 12
REMARK SMILES IDX 11 13 9 14 8 15 7 16 1 17 2 18 3 19 4 20 6 21 5 22 15 23
REMARK SMILES IDX 23 25 24 26 25 27 26 28 27 29 28 30 29 32 30 33 31 34 83 35
REMARK SMILES IDX 32 36 82 37 33 38 34 39 35 40 76 41 36 42 81 43 75 44 77 45
REMARK SMILES IDX 37 46 80 47 74 48 73 49 38 51 64 52 47 53 63 54 48 55 51 56
REMARK SMILES IDX 62 57 78 58 49 59 50 60 61 62 79 63 52 64 39 65 40 66 45 67
REMARK SMILES IDX 41 68 42 69 44 70 46 71 43 72 65 73 66 74 71 75 67 76 68 77
REMARK SMILES IDX 70 78 72 79 69 80 53 81 54 82 59 83 55 84 56 85 58 86 60 87
REMARK SMILES IDX 57 88
REMARK H PARENT 20 6 15 24 27 31 77 50 51 61
REMARK Flexibility Score: inf
ROOT
ATOM      1  C   UNL A   1      35.345  22.935  24.358  1.00  0.00     0.021 C 
ENDROOT
BRANCH   1   2
ATOM      2  C   UNL A   1      35.464  24.400  24.762  1.00  0.00     0.116 C 
BRANCH   2   3
ATOM      3  N   UNL A   1      34.482  24.816  25.737  1.00  0.00    -0.354 N 
ATOM      4  C   UNL A   1      33.611  25.868  25.704  1.00  0.00     0.242 C 
ATOM      5  O   UNL A   1      32.612  25.781  26.427  1.00  0.00    -0.273 OA
ATOM      6  H   UNL A   1      34.433  24.259  26.546  1.00  0.00     0.163 HD
BRANCH   4   7
ATOM      7  C   UNL A   1      33.736  27.024  24.684  1.00  0.00     0.177 C 
ATOM      8  N   UNL A   1      32.772  27.027  23.582  1.00  0.00    -0.325 N 
ATOM      9  C   UNL A   1      32.104  28.309  23.437  1.00  0.00     0.152 C 
ATOM     10  C   UNL A   1      32.865  29.268  24.351  1.00  0.00     0.136 C 
ATOM     11  C   UNL A   1      33.582  28.384  25.368  1.00  0.00     0.069 C 
BRANCH   8  12
ATOM     12  C   UNL A   1      32.816  26.024  22.632  1.00  0.00     0.261 C 
ATOM     13  O   UNL A   1      33.724  25.971  21.799  1.00  0.00    -0.271 OA
BRANCH  12  14
ATOM     14  C   UNL A   1      31.653  25.025  22.568  1.00  0.00     0.329 C 
BRANCH  14  15
ATOM     15  O   UNL A   1      31.308  24.326  23.738  1.00  0.00    -0.484 OA
BRANCH  15  16
ATOM     16  C   UNL A   1      31.657  23.033  23.980  1.00  0.00     0.122 A 
ATOM     17  C   UNL A   1      31.390  22.799  26.551  1.00  0.00     0.048 C 
ATOM     18  C   UNL A   1      31.711  22.296  25.172  1.00  0.00    -0.009 A 
ATOM     19  C   UNL A   1      32.064  20.928  25.093  1.00  0.00     0.007 A 
ATOM     20  C   UNL A   1      32.388  20.320  23.882  1.00  0.00     0.001 A 
ATOM     21  C   UNL A   1      32.005  22.400  22.770  1.00  0.00     0.047 A 
ATOM     22  C   UNL A   1      32.371  21.060  22.715  1.00  0.00     0.004 A 
ENDBRANCH  15  16
ENDBRANCH  14  15
ENDBRANCH  12  14
ENDBRANCH   8  12
BRANCH  10  23
ATOM     23  O   UNL A   1      32.000  30.189  25.003  1.00  0.00    -0.391 OA
ATOM     24  H   UNL A   1      31.926  30.995  24.469  1.00  0.00     0.211 HD
ENDBRANCH  10  23
ENDBRANCH   4   7
ENDBRANCH   2   3
ENDBRANCH   1   2
BRANCH   1  25
ATOM     25  C   UNL A   1      36.536  22.033  24.698  1.00  0.00     0.002 C 
BRANCH  25  26
ATOM     26  C   UNL A   1      37.550  22.559  25.727  1.00  0.00     0.002 C 
BRANCH  26  27
ATOM     27  C   UNL A   1      38.883  21.813  25.826  1.00  0.00     0.021 C 
BRANCH  27  28
ATOM     28  C   UNL A   1      39.855  22.373  26.855  1.00  0.00     0.116 C 
BRANCH  28  29
ATOM     29  N   UNL A   1      41.118  22.840  26.297  1.00  0.00    -0.352 N 
ATOM     30  C   UNL A   1      41.582  24.136  26.147  1.00  0.00     0.251 C 
ATOM     31  H   UNL A   1      41.728  22.134  25.982  1.00  0.00     0.163 HD
ATOM     32  O   UNL A   1      42.672  24.346  25.637  1.00  0.00    -0.269 OA
BRANCH  30  33
ATOM     33  C   UNL A   1      40.811  25.258  26.741  1.00  0.00     0.039 A 
ATOM     34  C   UNL A   1      40.844  26.489  26.077  1.00  0.00     0.014 A 
ATOM     35  C   UNL A   1      40.265  25.167  28.018  1.00  0.00     0.014 A 
ATOM     36  C   UNL A   1      40.589  27.655  26.793  1.00  0.00     0.010 A 
ATOM     37  C   UNL A   1      40.107  26.322  28.759  1.00  0.00     0.010 A 
ATOM     38  C   UNL A   1      40.348  27.565  28.166  1.00  0.00    -0.014 A 
BRANCH  38  39
ATOM     39  C   UNL A   1      40.489  28.704  29.065  1.00  0.00     0.031 A 
ATOM     40  C   UNL A   1      39.386  29.660  29.272  1.00  0.00     0.074 A 
ATOM     41  C   UNL A   1      41.631  28.849  29.777  1.00  0.00     0.049 A 
ATOM     42  N   UNL A   1      39.555  30.861  29.710  1.00  0.00    -0.248 NA
ATOM     43  C   UNL A   1      37.994  29.342  28.979  1.00  0.00     0.031 C 
ATOM     44  C   UNL A   1      41.875  29.758  30.895  1.00  0.00     0.029 A 
ATOM     45  N   UNL A   1      42.893  28.314  29.488  1.00  0.00    -0.354 N 
ATOM     46  C   UNL A   1      38.319  31.385  29.995  1.00  0.00     0.074 A 
ATOM     47  C   UNL A   1      37.375  30.417  29.479  1.00  0.00     0.031 C 
ATOM     48  C   UNL A   1      43.196  29.942  31.026  1.00  0.00     0.029 A 
ATOM     49  C   UNL A   1      43.833  29.287  29.898  1.00  0.00     0.049 A 
ATOM     50  H   UNL A   1      43.086  27.438  29.082  1.00  0.00     0.167 HD
ATOM     51  C   UNL A   1      38.227  32.527  30.733  1.00  0.00     0.037 A 
ATOM     52  C   UNL A   1      44.626  29.911  28.980  1.00  0.00     0.037 A 
ATOM     53  C   UNL A   1      39.539  33.074  31.070  1.00  0.00     0.049 A 
ATOM     54  C   UNL A   1      44.412  31.407  28.861  1.00  0.00     0.074 A 
ATOM     55  C   UNL A   1      40.347  33.051  32.195  1.00  0.00     0.029 A 
ATOM     56  N   UNL A   1      40.341  33.542  30.044  1.00  0.00    -0.354 N 
ATOM     57  N   UNL A   1      43.526  32.088  29.537  1.00  0.00    -0.248 NA
ATOM     58  C   UNL A   1      45.123  32.239  27.888  1.00  0.00     0.031 C 
ATOM     59  C   UNL A   1      41.640  33.527  31.832  1.00  0.00     0.029 A 
ATOM     60  C   UNL A   1      41.616  33.835  30.485  1.00  0.00     0.049 A 
ATOM     61  H   UNL A   1      40.039  33.654  29.114  1.00  0.00     0.167 HD
ATOM     62  C   UNL A   1      43.492  33.378  29.070  1.00  0.00     0.074 A 
ATOM     63  C   UNL A   1      44.516  33.427  28.046  1.00  0.00     0.031 C 
ATOM     64  C   UNL A   1      42.593  34.302  29.518  1.00  0.00     0.037 A 
BRANCH  51  65
ATOM     65  C   UNL A   1      36.933  33.015  31.330  1.00  0.00     0.057 A 
ATOM     66  C   UNL A   1      36.594  32.733  32.667  1.00  0.00     0.134 A 
ATOM     67  C   UNL A   1      35.961  33.741  30.622  1.00  0.00     0.134 A 
ATOM     68  F   UNL A   1      37.457  32.142  33.504  1.00  0.00    -0.206 F 
ATOM     69  C   UNL A   1      35.341  33.034  33.212  1.00  0.00     0.040 A 
ATOM     70  C   UNL A   1      34.682  33.999  31.135  1.00  0.00     0.040 A 
ATOM     71  F   UNL A   1      36.225  34.267  29.417  1.00  0.00    -0.206 F 
ATOM     72  C   UNL A   1      34.362  33.629  32.432  1.00  0.00     0.006 A 
ENDBRANCH  51  65
BRANCH  52  73
ATOM     73  C   UNL A   1      45.021  29.015  27.862  1.00  0.00     0.057 A 
ATOM     74  C   UNL A   1      46.049  28.080  28.077  1.00  0.00     0.134 A 
ATOM     75  C   UNL A   1      44.196  28.811  26.752  1.00  0.00     0.134 A 
ATOM     76  F   UNL A   1      46.873  28.215  29.130  1.00  0.00    -0.206 F 
ATOM     77  C   UNL A   1      46.183  26.935  27.290  1.00  0.00     0.040 A 
ATOM     78  C   UNL A   1      44.332  27.676  25.947  1.00  0.00     0.040 A 
ATOM     79  F   UNL A   1      43.176  29.643  26.498  1.00  0.00    -0.206 F 
ATOM     80  C   UNL A   1      45.300  26.716  26.237  1.00  0.00     0.006 A 
ENDBRANCH  52  73
BRANCH  64  81
ATOM     81  C   UNL A   1      42.553  35.728  29.047  1.00  0.00     0.057 A 
ATOM     82  C   UNL A   1      41.810  36.135  27.930  1.00  0.00     0.134 A 
ATOM     83  C   UNL A   1      43.366  36.722  29.630  1.00  0.00     0.134 A 
ATOM     84  F   UNL A   1      41.057  35.260  27.245  1.00  0.00    -0.206 F 
ATOM     85  C   UNL A   1      41.832  37.453  27.458  1.00  0.00     0.040 A 
ATOM     86  C   UNL A   1      43.433  38.028  29.138  1.00  0.00     0.040 A 
ATOM     87  F   UNL A   1      44.115  36.474  30.714  1.00  0.00    -0.206 F 
ATOM     88  C   UNL A   1      42.653  38.403  28.055  1.00  0.00     0.006 A 
ENDBRANCH  64  81
ENDBRANCH  38  39
ENDBRANCH  30  33
ENDBRANCH  28  29
ENDBRANCH  27  28
ENDBRANCH  26  27
ENDBRANCH  25  26
ENDBRANCH   1  25
TORSDOF 18
ENDMDL
