MODEL 1
REMARK VINA RESULT:     -11.3      0.000      0.000
REMARK SMILES O=C(NCCCCCCNC(=O)c1cccc(Oc2ncc([N+](=O)[O-])cc2Br)c1)c1ccc(-c2c3nc(c(-c4c(F)cccc4F)c4ccc([nH]4)c(-c4c(F)cccc4F)c4nc(c(-c5c(F)cccc5F)c5ccc2[nH]5)C=C4)C=C3)cc1
REMARK SMILES IDX 7 1 6 2 5 3 4 4 3 5 1 6 2 7 30 9 31 10 83 11 32 12 82 13
REMARK SMILES IDX 33 14 34 15 35 16 76 17 36 18 81 19 75 20 77 21 37 22 80 23
REMARK SMILES IDX 74 24 73 25 38 27 64 28 47 29 63 30 48 31 51 32 62 33 78 34
REMARK SMILES IDX 49 35 50 36 61 38 79 39 52 40 39 41 40 42 45 43 41 44 42 45
REMARK SMILES IDX 44 46 46 47 43 48 65 49 66 50 71 51 67 52 68 53 70 54 72 55
REMARK SMILES IDX 69 56 53 57 54 58 59 59 55 60 56 61 58 62 60 63 57 64 8 65
REMARK SMILES IDX 9 66 10 67 11 68 12 70 13 71 14 72 29 73 15 74 17 75 16 76
REMARK SMILES IDX 18 77 19 78 20 79 27 80 21 81 26 82 28 83 22 84 23 85 24 86
REMARK SMILES IDX 25 87
REMARK H PARENT 3 8 77 26 51 37 10 69
REMARK Flexibility Score: inf
ROOT
ATOM      1  C   UNL A   1      36.778  21.579  24.678  1.00  0.00     0.002 C 
ENDROOT
BRANCH   1   2
ATOM      2  C   UNL A   1      36.538  20.098  24.987  1.00  0.00     0.002 C 
BRANCH   2   3
ATOM      3  C   UNL A   1      37.788  19.220  25.001  1.00  0.00     0.021 C 
BRANCH   3   4
ATOM      4  C   UNL A   1      38.978  19.804  25.750  1.00  0.00     0.116 C 
BRANCH   4   5
ATOM      5  N   UNL A   1      40.121  18.906  25.779  1.00  0.00    -0.352 N 
ATOM      6  O   UNL A   1      42.307  18.339  25.829  1.00  0.00    -0.269 OA
ATOM      7  C   UNL A   1      41.445  19.202  25.980  1.00  0.00     0.251 C 
ATOM      8  H   UNL A   1      39.916  17.954  25.633  1.00  0.00     0.163 HD
BRANCH   7   9
ATOM      9  C   UNL A   1      41.837  20.576  26.358  1.00  0.00     0.039 A 
ATOM     10  C   UNL A   1      42.099  21.537  25.378  1.00  0.00     0.014 A 
ATOM     11  C   UNL A   1      41.945  20.907  27.712  1.00  0.00     0.014 A 
ATOM     12  C   UNL A   1      42.595  22.781  25.746  1.00  0.00     0.010 A 
ATOM     13  C   UNL A   1      42.361  22.188  28.082  1.00  0.00     0.010 A 
ATOM     14  C   UNL A   1      42.712  23.128  27.102  1.00  0.00    -0.014 A 
BRANCH  14  15
ATOM     15  C   UNL A   1      43.132  24.504  27.465  1.00  0.00     0.031 A 
ATOM     16  C   UNL A   1      44.571  24.927  27.398  1.00  0.00     0.074 A 
ATOM     17  C   UNL A   1      42.183  25.384  27.840  1.00  0.00     0.049 A 
ATOM     18  N   UNL A   1      45.099  26.094  27.674  1.00  0.00    -0.248 NA
ATOM     19  C   UNL A   1      45.547  23.912  26.973  1.00  0.00     0.031 C 
ATOM     20  C   UNL A   1      40.753  25.083  27.954  1.00  0.00     0.029 A 
ATOM     21  N   UNL A   1      42.270  26.709  28.180  1.00  0.00    -0.354 N 
ATOM     22  C   UNL A   1      46.466  25.951  27.469  1.00  0.00     0.074 A 
ATOM     23  C   UNL A   1      46.691  24.576  27.074  1.00  0.00     0.031 C 
ATOM     24  C   UNL A   1      40.093  26.199  28.294  1.00  0.00     0.029 A 
ATOM     25  C   UNL A   1      41.057  27.276  28.486  1.00  0.00     0.049 A 
ATOM     26  H   UNL A   1      43.120  27.206  28.204  1.00  0.00     0.167 HD
ATOM     27  C   UNL A   1      47.440  26.886  27.594  1.00  0.00     0.037 A 
ATOM     28  C   UNL A   1      40.752  28.520  28.897  1.00  0.00     0.037 A 
ATOM     29  C   UNL A   1      47.207  28.254  27.985  1.00  0.00     0.049 A 
ATOM     30  C   UNL A   1      41.856  29.523  29.060  1.00  0.00     0.074 A 
ATOM     31  C   UNL A   1      48.125  29.282  28.114  1.00  0.00     0.029 A 
ATOM     32  N   UNL A   1      45.967  28.782  28.316  1.00  0.00    -0.354 N 
ATOM     33  N   UNL A   1      43.140  29.382  28.831  1.00  0.00    -0.248 NA
ATOM     34  C   UNL A   1      41.471  30.854  29.543  1.00  0.00     0.031 C 
ATOM     35  C   UNL A   1      47.448  30.420  28.566  1.00  0.00     0.029 A 
ATOM     36  C   UNL A   1      46.101  30.115  28.671  1.00  0.00     0.049 A 
ATOM     37  H   UNL A   1      45.119  28.283  28.302  1.00  0.00     0.167 HD
ATOM     38  C   UNL A   1      43.713  30.611  29.125  1.00  0.00     0.074 A 
ATOM     39  C   UNL A   1      42.634  31.490  29.527  1.00  0.00     0.031 C 
ATOM     40  C   UNL A   1      45.016  30.977  29.069  1.00  0.00     0.037 A 
BRANCH  27  41
ATOM     41  C   UNL A   1      48.853  26.458  27.321  1.00  0.00     0.057 A 
ATOM     42  C   UNL A   1      49.701  26.007  28.341  1.00  0.00     0.134 A 
ATOM     43  C   UNL A   1      49.358  26.450  26.013  1.00  0.00     0.134 A 
ATOM     44  F   UNL A   1      49.284  25.996  29.616  1.00  0.00    -0.206 F 
ATOM     45  C   UNL A   1      51.005  25.583  28.073  1.00  0.00     0.040 A 
ATOM     46  C   UNL A   1      50.651  26.005  25.731  1.00  0.00     0.040 A 
ATOM     47  F   UNL A   1      48.597  26.861  24.987  1.00  0.00    -0.206 F 
ATOM     48  C   UNL A   1      51.480  25.575  26.763  1.00  0.00     0.006 A 
ENDBRANCH  27  41
BRANCH  28  49
ATOM     49  C   UNL A   1      39.342  28.877  29.188  1.00  0.00     0.057 A 
ATOM     50  C   UNL A   1      38.522  29.446  28.208  1.00  0.00     0.134 A 
ATOM     51  C   UNL A   1      38.779  28.650  30.449  1.00  0.00     0.134 A 
ATOM     52  F   UNL A   1      39.008  29.702  26.985  1.00  0.00    -0.206 F 
ATOM     53  C   UNL A   1      37.196  29.792  28.476  1.00  0.00     0.040 A 
ATOM     54  C   UNL A   1      37.448  28.964  30.723  1.00  0.00     0.040 A 
ATOM     55  F   UNL A   1      39.512  28.098  31.429  1.00  0.00    -0.206 F 
ATOM     56  C   UNL A   1      36.655  29.544  29.736  1.00  0.00     0.006 A 
ENDBRANCH  28  49
BRANCH  40  57
ATOM     57  C   UNL A   1      45.336  32.399  29.423  1.00  0.00     0.057 A 
ATOM     58  C   UNL A   1      45.678  32.777  30.728  1.00  0.00     0.134 A 
ATOM     59  C   UNL A   1      45.322  33.399  28.442  1.00  0.00     0.134 A 
ATOM     60  F   UNL A   1      45.695  31.870  31.716  1.00  0.00    -0.206 F 
ATOM     61  C   UNL A   1      45.969  34.104  31.049  1.00  0.00     0.040 A 
ATOM     62  C   UNL A   1      45.636  34.724  28.746  1.00  0.00     0.040 A 
ATOM     63  F   UNL A   1      45.008  33.102  27.172  1.00  0.00    -0.206 F 
ATOM     64  C   UNL A   1      45.953  35.080  30.055  1.00  0.00     0.006 A 
ENDBRANCH  40  57
ENDBRANCH  14  15
ENDBRANCH   7   9
ENDBRANCH   4   5
ENDBRANCH   3   4
ENDBRANCH   2   3
ENDBRANCH   1   2
BRANCH   1  65
ATOM     65  C   UNL A   1      36.338  22.563  25.766  1.00  0.00     0.021 C 
BRANCH  65  66
ATOM     66  C   UNL A   1      35.802  23.895  25.252  1.00  0.00     0.116 C 
BRANCH  66  67
ATOM     67  N   UNL A   1      35.442  23.823  23.847  1.00  0.00    -0.352 N 
ATOM     68  C   UNL A   1      34.232  23.510  23.283  1.00  0.00     0.251 C 
ATOM     69  H   UNL A   1      36.166  24.028  23.212  1.00  0.00     0.163 HD
ATOM     70  O   UNL A   1      34.151  23.277  22.081  1.00  0.00    -0.269 OA
BRANCH  68  71
ATOM     71  C   UNL A   1      33.017  23.476  24.122  1.00  0.00     0.043 A 
ATOM     72  C   UNL A   1      32.614  22.271  24.702  1.00  0.00     0.014 A 
ATOM     73  C   UNL A   1      32.235  24.627  24.266  1.00  0.00     0.061 A 
ATOM     74  C   UNL A   1      31.450  22.234  25.467  1.00  0.00     0.005 A 
ATOM     75  C   UNL A   1      31.061  24.591  25.021  1.00  0.00     0.130 A 
ATOM     76  C   UNL A   1      30.680  23.390  25.629  1.00  0.00     0.047 A 
BRANCH  75  77
ATOM     77  O   UNL A   1      30.195  25.653  25.193  1.00  0.00    -0.438 OA
BRANCH  77  78
ATOM     78  C   UNL A   1      30.741  26.863  25.561  1.00  0.00     0.234 A 
ATOM     79  N   UNL A   1      31.134  26.950  26.859  1.00  0.00    -0.214 NA
ATOM     80  C   UNL A   1      30.863  27.916  24.649  1.00  0.00     0.087 A 
ATOM     81  C   UNL A   1      31.698  28.115  27.258  1.00  0.00     0.200 A 
ATOM     82  C   UNL A   1      31.487  29.090  25.071  1.00  0.00     0.108 A 
ATOM     83  Br  UNL A   1      30.260  27.799  22.859  1.00  0.00    -0.045 Br
ATOM     84  C   UNL A   1      31.909  29.184  26.400  1.00  0.00     0.288 A 
BRANCH  84  85
ATOM     85  N   UNL A   1      32.584  30.379  26.886  1.00  0.00     0.064 N 
ATOM     86  O   UNL A   1      33.734  30.251  27.323  1.00  0.00    -0.258 OA
ATOM     87  O   UNL A   1      31.967  31.450  26.816  1.00  0.00    -0.258 OA
ENDBRANCH  84  85
ENDBRANCH  77  78
ENDBRANCH  75  77
ENDBRANCH  68  71
ENDBRANCH  66  67
ENDBRANCH  65  66
ENDBRANCH   1  65
TORSDOF 16
ENDMDL
MODEL 2
REMARK VINA RESULT:     -11.3      1.617      2.406
REMARK SMILES O=C(NCCCCCCNC(=O)c1cccc(Oc2ncc([N+](=O)[O-])cc2Br)c1)c1ccc(-c2c3nc(c(-c4c(F)cccc4F)c4ccc([nH]4)c(-c4c(F)cccc4F)c4nc(c(-c5c(F)cccc5F)c5ccc2[nH]5)C=C4)C=C3)cc1
REMARK SMILES IDX 7 1 6 2 5 3 4 4 3 5 1 6 2 7 30 9 31 10 83 11 32 12 82 13
REMARK SMILES IDX 33 14 34 15 35 16 76 17 36 18 81 19 75 20 77 21 37 22 80 23
REMARK SMILES IDX 74 24 73 25 38 27 64 28 47 29 63 30 48 31 51 32 62 33 78 34
REMARK SMILES IDX 49 35 50 36 61 38 79 39 52 40 39 41 40 42 45 43 41 44 42 45
REMARK SMILES IDX 44 46 46 47 43 48 65 49 66 50 71 51 67 52 68 53 70 54 72 55
REMARK SMILES IDX 69 56 53 57 54 58 59 59 55 60 56 61 58 62 60 63 57 64 8 65
REMARK SMILES IDX 9 66 10 67 11 68 12 70 13 71 14 72 29 73 15 74 17 75 16 76
REMARK SMILES IDX 18 77 19 78 20 79 27 80 21 81 26 82 28 83 22 84 23 85 24 86
REMARK SMILES IDX 25 87
REMARK H PARENT 3 8 77 26 51 37 10 69
REMARK Flexibility Score: inf
ROOT
ATOM      1  C   UNL A   1      35.367  20.348  24.964  1.00  0.00     0.002 C 
ENDROOT
BRANCH   1   2
ATOM      2  C   UNL A   1      36.504  19.327  24.859  1.00  0.00     0.002 C 
BRANCH   2   3
ATOM      3  C   UNL A   1      37.890  19.913  24.597  1.00  0.00     0.021 C 
BRANCH   3   4
ATOM      4  C   UNL A   1      38.773  20.058  25.830  1.00  0.00     0.116 C 
BRANCH   4   5
ATOM      5  N   UNL A   1      39.958  19.219  25.774  1.00  0.00    -0.352 N 
ATOM      6  O   UNL A   1      42.169  18.756  25.800  1.00  0.00    -0.269 OA
ATOM      7  C   UNL A   1      41.263  19.553  26.035  1.00  0.00     0.251 C 
ATOM      8  H   UNL A   1      39.804  18.282  25.513  1.00  0.00     0.163 HD
BRANCH   7   9
ATOM      9  C   UNL A   1      41.581  20.889  26.580  1.00  0.00     0.039 A 
ATOM     10  C   UNL A   1      41.882  21.952  25.725  1.00  0.00     0.014 A 
ATOM     11  C   UNL A   1      41.577  21.080  27.964  1.00  0.00     0.014 A 
ATOM     12  C   UNL A   1      42.309  23.164  26.255  1.00  0.00     0.010 A 
ATOM     13  C   UNL A   1      41.923  22.326  28.494  1.00  0.00     0.010 A 
ATOM     14  C   UNL A   1      42.314  23.371  27.644  1.00  0.00    -0.014 A 
BRANCH  14  15
ATOM     15  C   UNL A   1      42.660  24.712  28.176  1.00  0.00     0.031 A 
ATOM     16  C   UNL A   1      44.076  25.077  28.517  1.00  0.00     0.074 A 
ATOM     17  C   UNL A   1      41.671  25.614  28.331  1.00  0.00     0.049 A 
ATOM     18  N   UNL A   1      44.544  26.209  28.983  1.00  0.00    -0.248 NA
ATOM     19  C   UNL A   1      45.101  24.042  28.315  1.00  0.00     0.031 C 
ATOM     20  C   UNL A   1      40.255  25.367  28.045  1.00  0.00     0.029 A 
ATOM     21  N   UNL A   1      41.701  26.918  28.751  1.00  0.00    -0.354 N 
ATOM     22  C   UNL A   1      45.911  26.019  29.142  1.00  0.00     0.074 A 
ATOM     23  C   UNL A   1      46.195  24.654  28.750  1.00  0.00     0.031 C 
ATOM     24  C   UNL A   1      39.560  26.494  28.255  1.00  0.00     0.029 A 
ATOM     25  C   UNL A   1      40.467  27.522  28.752  1.00  0.00     0.049 A 
ATOM     26  H   UNL A   1      42.528  27.379  29.025  1.00  0.00     0.167 HD
ATOM     27  C   UNL A   1      46.843  26.906  29.570  1.00  0.00     0.037 A 
ATOM     28  C   UNL A   1      40.100  28.759  29.131  1.00  0.00     0.037 A 
ATOM     29  C   UNL A   1      46.552  28.265  29.955  1.00  0.00     0.049 A 
ATOM     30  C   UNL A   1      41.148  29.707  29.634  1.00  0.00     0.074 A 
ATOM     31  C   UNL A   1      47.431  29.249  30.376  1.00  0.00     0.029 A 
ATOM     32  N   UNL A   1      45.285  28.829  29.972  1.00  0.00    -0.354 N 
ATOM     33  N   UNL A   1      42.441  29.523  29.747  1.00  0.00    -0.248 NA
ATOM     34  C   UNL A   1      40.685  31.031  30.065  1.00  0.00     0.031 C 
ATOM     35  C   UNL A   1      46.690  30.393  30.691  1.00  0.00     0.029 A 
ATOM     36  C   UNL A   1      45.357  30.140  30.418  1.00  0.00     0.049 A 
ATOM     37  H   UNL A   1      44.458  28.367  29.707  1.00  0.00     0.167 HD
ATOM     38  C   UNL A   1      42.950  30.714  30.246  1.00  0.00     0.074 A 
ATOM     39  C   UNL A   1      41.827  31.619  30.392  1.00  0.00     0.031 C 
ATOM     40  C   UNL A   1      44.230  31.028  30.557  1.00  0.00     0.037 A 
BRANCH  27  41
ATOM     41  C   UNL A   1      48.265  26.433  29.660  1.00  0.00     0.057 A 
ATOM     42  C   UNL A   1      49.181  26.639  28.621  1.00  0.00     0.134 A 
ATOM     43  C   UNL A   1      48.739  25.810  30.822  1.00  0.00     0.134 A 
ATOM     44  F   UNL A   1      48.793  27.223  27.477  1.00  0.00    -0.206 F 
ATOM     45  C   UNL A   1      50.510  26.222  28.725  1.00  0.00     0.040 A 
ATOM     46  C   UNL A   1      50.071  25.411  30.948  1.00  0.00     0.040 A 
ATOM     47  F   UNL A   1      47.917  25.589  31.860  1.00  0.00    -0.206 F 
ATOM     48  C   UNL A   1      50.960  25.612  29.895  1.00  0.00     0.006 A 
ENDBRANCH  27  41
BRANCH  28  49
ATOM     49  C   UNL A   1      38.674  29.160  29.054  1.00  0.00     0.057 A 
ATOM     50  C   UNL A   1      37.847  29.115  30.183  1.00  0.00     0.134 A 
ATOM     51  C   UNL A   1      38.106  29.607  27.855  1.00  0.00     0.134 A 
ATOM     52  F   UNL A   1      38.329  28.681  31.356  1.00  0.00    -0.206 F 
ATOM     53  C   UNL A   1      36.502  29.483  30.117  1.00  0.00     0.040 A 
ATOM     54  C   UNL A   1      36.771  30.006  27.782  1.00  0.00     0.040 A 
ATOM     55  F   UNL A   1      38.849  29.683  26.740  1.00  0.00    -0.206 F 
ATOM     56  C   UNL A   1      35.963  29.937  28.914  1.00  0.00     0.006 A 
ENDBRANCH  28  49
BRANCH  40  57
ATOM     57  C   UNL A   1      44.484  32.419  31.057  1.00  0.00     0.057 A 
ATOM     58  C   UNL A   1      44.454  32.732  32.422  1.00  0.00     0.134 A 
ATOM     59  C   UNL A   1      44.783  33.455  30.162  1.00  0.00     0.134 A 
ATOM     60  F   UNL A   1      44.158  31.788  33.329  1.00  0.00    -0.206 F 
ATOM     61  C   UNL A   1      44.685  34.030  32.877  1.00  0.00     0.040 A 
ATOM     62  C   UNL A   1      45.041  34.752  30.607  1.00  0.00     0.040 A 
ATOM     63  F   UNL A   1      44.833  33.221  28.843  1.00  0.00    -0.206 F 
ATOM     64  C   UNL A   1      44.986  35.043  31.969  1.00  0.00     0.006 A 
ENDBRANCH  40  57
ENDBRANCH  14  15
ENDBRANCH   7   9
ENDBRANCH   4   5
ENDBRANCH   3   4
ENDBRANCH   2   3
ENDBRANCH   1   2
BRANCH   1  65
ATOM     65  C   UNL A   1      33.950  19.768  24.926  1.00  0.00     0.021 C 
BRANCH  65  66
ATOM     66  C   UNL A   1      32.832  20.785  25.128  1.00  0.00     0.116 C 
BRANCH  66  67
ATOM     67  N   UNL A   1      32.671  21.137  26.527  1.00  0.00    -0.352 N 
ATOM     68  C   UNL A   1      32.924  22.333  27.148  1.00  0.00     0.251 C 
ATOM     69  H   UNL A   1      32.333  20.419  27.110  1.00  0.00     0.163 HD
ATOM     70  O   UNL A   1      32.947  22.401  28.374  1.00  0.00    -0.269 OA
BRANCH  68  71
ATOM     71  C   UNL A   1      33.147  23.549  26.340  1.00  0.00     0.043 A 
ATOM     72  C   UNL A   1      34.447  23.901  25.969  1.00  0.00     0.014 A 
ATOM     73  C   UNL A   1      32.070  24.381  26.019  1.00  0.00     0.061 A 
ATOM     74  C   UNL A   1      34.658  25.065  25.233  1.00  0.00     0.005 A 
ATOM     75  C   UNL A   1      32.279  25.555  25.294  1.00  0.00     0.130 A 
ATOM     76  C   UNL A   1      33.578  25.886  24.894  1.00  0.00     0.047 A 
BRANCH  75  77
ATOM     77  O   UNL A   1      31.297  26.468  24.961  1.00  0.00    -0.438 OA
BRANCH  77  78
ATOM     78  C   UNL A   1      31.450  27.759  25.418  1.00  0.00     0.234 A 
ATOM     79  N   UNL A   1      31.831  27.871  26.717  1.00  0.00    -0.214 NA
ATOM     80  C   UNL A   1      31.216  28.859  24.588  1.00  0.00     0.087 A 
ATOM     81  C   UNL A   1      32.016  29.123  27.201  1.00  0.00     0.200 A 
ATOM     82  C   UNL A   1      31.455  30.136  25.094  1.00  0.00     0.108 A 
ATOM     83  Br  UNL A   1      30.632  28.687  22.796  1.00  0.00    -0.045 Br
ATOM     84  C   UNL A   1      31.862  30.263  26.426  1.00  0.00     0.288 A 
BRANCH  84  85
ATOM     85  N   UNL A   1      32.146  31.570  26.998  1.00  0.00     0.064 N 
ATOM     86  O   UNL A   1      31.281  32.448  26.882  1.00  0.00    -0.258 OA
ATOM     87  O   UNL A   1      33.230  31.716  27.578  1.00  0.00    -0.258 OA
ENDBRANCH  84  85
ENDBRANCH  77  78
ENDBRANCH  75  77
ENDBRANCH  68  71
ENDBRANCH  66  67
ENDBRANCH  65  66
ENDBRANCH   1  65
TORSDOF 16
ENDMDL
MODEL 3
REMARK VINA RESULT:     -11.2      4.602     10.170
REMARK SMILES O=C(NCCCCCCNC(=O)c1cccc(Oc2ncc([N+](=O)[O-])cc2Br)c1)c1ccc(-c2c3nc(c(-c4c(F)cccc4F)c4ccc([nH]4)c(-c4c(F)cccc4F)c4nc(c(-c5c(F)cccc5F)c5ccc2[nH]5)C=C4)C=C3)cc1
REMARK SMILES IDX 7 1 6 2 5 3 4 4 3 5 1 6 2 7 30 9 31 10 83 11 32 12 82 13
REMARK SMILES IDX 33 14 34 15 35 16 76 17 36 18 81 19 75 20 77 21 37 22 80 23
REMARK SMILES IDX 74 24 73 25 38 27 64 28 47 29 63 30 48 31 51 32 62 33 78 34
REMARK SMILES IDX 49 35 50 36 61 38 79 39 52 40 39 41 40 42 45 43 41 44 42 45
REMARK SMILES IDX 44 46 46 47 43 48 65 49 66 50 71 51 67 52 68 53 70 54 72 55
REMARK SMILES IDX 69 56 53 57 54 58 59 59 55 60 56 61 58 62 60 63 57 64 8 65
REMARK SMILES IDX 9 66 10 67 11 68 12 70 13 71 14 72 29 73 15 74 17 75 16 76
REMARK SMILES IDX 18 77 19 78 20 79 27 80 21 81 26 82 28 83 22 84 23 85 24 86
REMARK SMILES IDX 25 87
REMARK H PARENT 3 8 77 26 51 37 10 69
REMARK Flexibility Score: inf
ROOT
ATOM      1  C   UNL A   1      31.951  29.888  25.434  1.00  0.00     0.002 C 
ENDROOT
BRANCH   1   2
ATOM      2  C   UNL A   1      31.748  30.487  26.829  1.00  0.00     0.002 C 
BRANCH   2   3
ATOM      3  C   UNL A   1      31.498  31.994  26.866  1.00  0.00     0.021 C 
BRANCH   3   4
ATOM      4  C   UNL A   1      32.752  32.853  26.949  1.00  0.00     0.116 C 
BRANCH   4   5
ATOM      5  N   UNL A   1      32.509  34.145  27.569  1.00  0.00    -0.352 N 
ATOM      6  O   UNL A   1      32.699  35.754  29.144  1.00  0.00    -0.269 OA
ATOM      7  C   UNL A   1      33.125  34.708  28.658  1.00  0.00     0.251 C 
ATOM      8  H   UNL A   1      31.805  34.691  27.151  1.00  0.00     0.163 HD
BRANCH   7   9
ATOM      9  C   UNL A   1      34.296  34.038  29.262  1.00  0.00     0.039 A 
ATOM     10  C   UNL A   1      35.593  34.391  28.880  1.00  0.00     0.014 A 
ATOM     11  C   UNL A   1      34.093  33.044  30.223  1.00  0.00     0.014 A 
ATOM     12  C   UNL A   1      36.675  33.662  29.357  1.00  0.00     0.010 A 
ATOM     13  C   UNL A   1      35.189  32.370  30.768  1.00  0.00     0.010 A 
ATOM     14  C   UNL A   1      36.488  32.658  30.321  1.00  0.00    -0.014 A 
BRANCH  14  15
ATOM     15  C   UNL A   1      37.673  31.977  30.899  1.00  0.00     0.031 A 
ATOM     16  C   UNL A   1      38.186  32.327  32.266  1.00  0.00     0.074 A 
ATOM     17  C   UNL A   1      38.274  31.013  30.174  1.00  0.00     0.049 A 
ATOM     18  N   UNL A   1      39.204  31.820  32.917  1.00  0.00    -0.248 NA
ATOM     19  C   UNL A   1      37.473  33.384  32.999  1.00  0.00     0.031 C 
ATOM     20  C   UNL A   1      37.871  30.597  28.829  1.00  0.00     0.029 A 
ATOM     21  N   UNL A   1      39.338  30.201  30.467  1.00  0.00    -0.354 N 
ATOM     22  C   UNL A   1      39.262  32.502  34.126  1.00  0.00     0.074 A 
ATOM     23  C   UNL A   1      38.194  33.480  34.108  1.00  0.00     0.031 C 
ATOM     24  C   UNL A   1      38.648  29.580  28.431  1.00  0.00     0.029 A 
ATOM     25  C   UNL A   1      39.643  29.315  29.462  1.00  0.00     0.049 A 
ATOM     26  H   UNL A   1      39.837  30.247  31.316  1.00  0.00     0.167 HD
ATOM     27  C   UNL A   1      40.123  32.322  35.157  1.00  0.00     0.037 A 
ATOM     28  C   UNL A   1      40.628  28.404  29.369  1.00  0.00     0.037 A 
ATOM     29  C   UNL A   1      41.182  31.342  35.168  1.00  0.00     0.049 A 
ATOM     30  C   UNL A   1      41.588  28.253  30.511  1.00  0.00     0.074 A 
ATOM     31  C   UNL A   1      42.090  31.065  36.176  1.00  0.00     0.029 A 
ATOM     32  N   UNL A   1      41.478  30.485  34.118  1.00  0.00    -0.354 N 
ATOM     33  N   UNL A   1      41.610  28.882  31.661  1.00  0.00    -0.248 NA
ATOM     34  C   UNL A   1      42.664  27.268  30.342  1.00  0.00     0.031 C 
ATOM     35  C   UNL A   1      42.962  30.072  35.719  1.00  0.00     0.029 A 
ATOM     36  C   UNL A   1      42.568  29.694  34.446  1.00  0.00     0.049 A 
ATOM     37  H   UNL A   1      40.987  30.445  33.266  1.00  0.00     0.167 HD
ATOM     38  C   UNL A   1      42.688  28.357  32.360  1.00  0.00     0.074 A 
ATOM     39  C   UNL A   1      43.282  27.343  31.512  1.00  0.00     0.031 C 
ATOM     40  C   UNL A   1      43.147  28.689  33.591  1.00  0.00     0.037 A 
BRANCH  27  41
ATOM     41  C   UNL A   1      39.970  33.212  36.356  1.00  0.00     0.057 A 
ATOM     42  C   UNL A   1      40.648  34.433  36.462  1.00  0.00     0.134 A 
ATOM     43  C   UNL A   1      39.094  32.869  37.394  1.00  0.00     0.134 A 
ATOM     44  F   UNL A   1      41.507  34.820  35.507  1.00  0.00    -0.206 F 
ATOM     45  C   UNL A   1      40.477  35.270  37.568  1.00  0.00     0.040 A 
ATOM     46  C   UNL A   1      38.897  33.708  38.492  1.00  0.00     0.040 A 
ATOM     47  F   UNL A   1      38.407  31.717  37.353  1.00  0.00    -0.206 F 
ATOM     48  C   UNL A   1      39.593  34.911  38.584  1.00  0.00     0.006 A 
ENDBRANCH  27  41
BRANCH  28  49
ATOM     49  C   UNL A   1      40.754  27.576  28.145  1.00  0.00     0.057 A 
ATOM     50  C   UNL A   1      40.129  26.328  28.046  1.00  0.00     0.134 A 
ATOM     51  C   UNL A   1      41.496  28.016  27.042  1.00  0.00     0.134 A 
ATOM     52  F   UNL A   1      39.418  25.847  29.075  1.00  0.00    -0.206 F 
ATOM     53  C   UNL A   1      40.250  25.540  26.901  1.00  0.00     0.040 A 
ATOM     54  C   UNL A   1      41.601  27.252  25.879  1.00  0.00     0.040 A 
ATOM     55  F   UNL A   1      42.112  29.208  27.070  1.00  0.00    -0.206 F 
ATOM     56  C   UNL A   1      40.983  26.006  25.810  1.00  0.00     0.006 A 
ENDBRANCH  28  49
BRANCH  40  57
ATOM     57  C   UNL A   1      44.330  27.922  34.102  1.00  0.00     0.057 A 
ATOM     58  C   UNL A   1      45.641  28.382  33.927  1.00  0.00     0.134 A 
ATOM     59  C   UNL A   1      44.154  26.717  34.795  1.00  0.00     0.134 A 
ATOM     60  F   UNL A   1      45.879  29.521  33.257  1.00  0.00    -0.206 F 
ATOM     61  C   UNL A   1      46.737  27.658  34.400  1.00  0.00     0.040 A 
ATOM     62  C   UNL A   1      45.239  25.998  35.296  1.00  0.00     0.040 A 
ATOM     63  F   UNL A   1      42.924  26.224  35.002  1.00  0.00    -0.206 F 
ATOM     64  C   UNL A   1      46.536  26.466  35.092  1.00  0.00     0.006 A 
ENDBRANCH  40  57
ENDBRANCH  14  15
ENDBRANCH   7   9
ENDBRANCH   4   5
ENDBRANCH   3   4
ENDBRANCH   2   3
ENDBRANCH   1   2
BRANCH   1  65
ATOM     65  C   UNL A   1      30.786  30.075  24.457  1.00  0.00     0.021 C 
BRANCH  65  66
ATOM     66  C   UNL A   1      30.708  29.037  23.342  1.00  0.00     0.116 C 
BRANCH  66  67
ATOM     67  N   UNL A   1      29.527  28.201  23.468  1.00  0.00    -0.352 N 
ATOM     68  C   UNL A   1      29.435  26.901  23.892  1.00  0.00     0.251 C 
ATOM     69  H   UNL A   1      28.676  28.627  23.215  1.00  0.00     0.163 HD
ATOM     70  O   UNL A   1      28.394  26.269  23.729  1.00  0.00    -0.269 OA
BRANCH  68  71
ATOM     71  C   UNL A   1      30.583  26.264  24.569  1.00  0.00     0.043 A 
ATOM     72  C   UNL A   1      30.840  26.554  25.910  1.00  0.00     0.014 A 
ATOM     73  C   UNL A   1      31.450  25.439  23.844  1.00  0.00     0.061 A 
ATOM     74  C   UNL A   1      31.942  25.977  26.538  1.00  0.00     0.005 A 
ATOM     75  C   UNL A   1      32.562  24.869  24.465  1.00  0.00     0.130 A 
ATOM     76  C   UNL A   1      32.797  25.134  25.819  1.00  0.00     0.047 A 
BRANCH  75  77
ATOM     77  O   UNL A   1      33.504  24.077  23.837  1.00  0.00    -0.438 OA
BRANCH  77  78
ATOM     78  C   UNL A   1      33.514  22.736  24.150  1.00  0.00     0.234 A 
ATOM     79  N   UNL A   1      32.407  22.045  23.771  1.00  0.00    -0.214 NA
ATOM     80  C   UNL A   1      34.594  22.150  24.817  1.00  0.00     0.087 A 
ATOM     81  C   UNL A   1      32.386  20.716  24.038  1.00  0.00     0.200 A 
ATOM     82  C   UNL A   1      34.569  20.774  25.042  1.00  0.00     0.108 A 
ATOM     83  Br  UNL A   1      36.105  23.137  25.387  1.00  0.00    -0.045 Br
ATOM     84  C   UNL A   1      33.442  20.051  24.643  1.00  0.00     0.288 A 
BRANCH  84  85
ATOM     85  N   UNL A   1      33.373  18.610  24.834  1.00  0.00     0.064 N 
ATOM     86  O   UNL A   1      34.329  17.931  24.437  1.00  0.00    -0.258 OA
ATOM     87  O   UNL A   1      32.368  18.156  25.397  1.00  0.00    -0.258 OA
ENDBRANCH  84  85
ENDBRANCH  77  78
ENDBRANCH  75  77
ENDBRANCH  68  71
ENDBRANCH  66  67
ENDBRANCH  65  66
ENDBRANCH   1  65
TORSDOF 16
ENDMDL
