MODEL 1
REMARK VINA RESULT:     -10.4      0.000      0.000
REMARK SMILES CN(C)c1cccc(C(=O)CCCC(=O)NCCCCCCNC(=O)c2ccc(-c3c4nc(c(-c5c(F)cccc5F)c5ccc([nH]5)c(-c5c(F)cccc5F)c5nc(c(-c6c(F)cccc6F)c6ccc3[nH]6)C=C5)C=C4)cc2)c1
REMARK SMILES IDX 18 1 17 2 16 3 14 4 15 5 13 7 12 8 11 9 9 10 10 11 8 12 4 13
REMARK SMILES IDX 5 14 80 15 6 16 7 17 2 18 1 19 3 20 19 21 20 22 21 23 22 24
REMARK SMILES IDX 23 25 24 26 25 28 26 29 27 30 79 31 28 32 78 33 29 34 30 35
REMARK SMILES IDX 31 36 72 37 32 38 77 39 71 40 73 41 33 42 76 43 70 44 69 45
REMARK SMILES IDX 34 47 60 48 43 49 59 50 44 51 47 52 58 53 74 54 45 55 46 56
REMARK SMILES IDX 57 58 75 59 48 60 35 61 36 62 41 63 37 64 38 65 40 66 42 67
REMARK SMILES IDX 39 68 61 69 62 70 67 71 63 72 64 73 66 74 68 75 65 76 49 77
REMARK SMILES IDX 50 78 55 79 51 80 52 81 54 82 56 83 53 84
REMARK H PARENT 16 6 23 27 73 46 47 57
REMARK Flexibility Score: inf
ROOT
ATOM      1  C   UNL A   1      36.424  23.429  24.618  1.00  0.00     0.021 C 
ENDROOT
BRANCH   1   2
ATOM      2  C   UNL A   1      35.977  22.917  23.250  1.00  0.00     0.116 C 
BRANCH   2   3
ATOM      3  N   UNL A   1      34.682  23.443  22.887  1.00  0.00    -0.356 N 
ATOM      4  C   UNL A   1      33.400  23.047  23.032  1.00  0.00     0.220 C 
ATOM      5  O   UNL A   1      32.564  23.850  22.592  1.00  0.00    -0.275 OA
ATOM      6  H   UNL A   1      34.750  24.305  22.415  1.00  0.00     0.163 HD
BRANCH   4   7
ATOM      7  C   UNL A   1      32.886  21.820  23.788  1.00  0.00     0.100 C 
BRANCH   7   8
ATOM      8  C   UNL A   1      33.133  21.485  25.255  1.00  0.00     0.018 C 
BRANCH   8   9
ATOM      9  C   UNL A   1      33.179  22.492  26.399  1.00  0.00     0.081 C 
BRANCH   9  10
ATOM     10  C   UNL A   1      32.226  23.691  26.578  1.00  0.00     0.162 C 
ATOM     11  O   UNL A   1      31.404  23.638  27.501  1.00  0.00    -0.294 OA
BRANCH  10  12
ATOM     12  C   UNL A   1      32.318  25.005  25.846  1.00  0.00     0.020 A 
ATOM     13  C   UNL A   1      31.356  26.851  24.506  1.00  0.00     0.037 A 
ATOM     14  C   UNL A   1      32.626  27.422  24.428  1.00  0.00     0.026 A 
ATOM     15  C   UNL A   1      31.248  25.648  25.226  1.00  0.00     0.037 A 
ATOM     16  C   UNL A   1      33.724  26.823  25.051  1.00  0.00     0.003 A 
ATOM     17  C   UNL A   1      33.570  25.624  25.753  1.00  0.00     0.012 A 
BRANCH  13  18
ATOM     18  N   UNL A   1      30.254  27.421  23.890  1.00  0.00    -0.378 N 
ATOM     19  C   UNL A   1      30.273  28.806  23.434  1.00  0.00     0.143 C 
ATOM     20  C   UNL A   1      28.988  26.703  23.876  1.00  0.00     0.143 C 
ENDBRANCH  13  18
ENDBRANCH  10  12
ENDBRANCH   9  10
ENDBRANCH   8   9
ENDBRANCH   7   8
ENDBRANCH   4   7
ENDBRANCH   2   3
ENDBRANCH   1   2
BRANCH   1  21
ATOM     21  C   UNL A   1      37.052  22.329  25.476  1.00  0.00     0.002 C 
BRANCH  21  22
ATOM     22  C   UNL A   1      36.690  20.903  25.036  1.00  0.00     0.002 C 
BRANCH  22  23
ATOM     23  C   UNL A   1      37.873  19.939  24.907  1.00  0.00     0.021 C 
BRANCH  23  24
ATOM     24  C   UNL A   1      39.086  20.308  25.751  1.00  0.00     0.116 C 
BRANCH  24  25
ATOM     25  N   UNL A   1      40.031  19.206  25.860  1.00  0.00    -0.352 N 
ATOM     26  C   UNL A   1      41.391  19.250  26.048  1.00  0.00     0.251 C 
ATOM     27  H   UNL A   1      39.642  18.305  25.791  1.00  0.00     0.163 HD
ATOM     28  O   UNL A   1      42.076  18.248  25.921  1.00  0.00    -0.269 OA
BRANCH  26  29
ATOM     29  C   UNL A   1      42.014  20.542  26.395  1.00  0.00     0.039 A 
ATOM     30  C   UNL A   1      42.373  21.426  25.376  1.00  0.00     0.014 A 
ATOM     31  C   UNL A   1      42.209  20.880  27.736  1.00  0.00     0.014 A 
ATOM     32  C   UNL A   1      42.878  22.685  25.707  1.00  0.00     0.010 A 
ATOM     33  C   UNL A   1      42.638  22.158  28.064  1.00  0.00     0.010 A 
ATOM     34  C   UNL A   1      42.984  23.070  27.054  1.00  0.00    -0.014 A 
BRANCH  34  35
ATOM     35  C   UNL A   1      43.483  24.408  27.451  1.00  0.00     0.031 A 
ATOM     36  C   UNL A   1      42.503  25.452  27.907  1.00  0.00     0.074 A 
ATOM     37  C   UNL A   1      44.786  24.712  27.307  1.00  0.00     0.049 A 
ATOM     38  N   UNL A   1      42.696  26.725  28.140  1.00  0.00    -0.248 NA
ATOM     39  C   UNL A   1      41.110  25.011  28.091  1.00  0.00     0.031 C 
ATOM     40  C   UNL A   1      45.827  23.793  26.845  1.00  0.00     0.029 A 
ATOM     41  N   UNL A   1      45.454  25.894  27.512  1.00  0.00    -0.354 N 
ATOM     42  C   UNL A   1      41.449  27.239  28.471  1.00  0.00     0.074 A 
ATOM     43  C   UNL A   1      40.499  26.155  28.356  1.00  0.00     0.031 C 
ATOM     44  C   UNL A   1      47.003  24.442  26.810  1.00  0.00     0.029 A 
ATOM     45  C   UNL A   1      46.790  25.833  27.199  1.00  0.00     0.049 A 
ATOM     46  H   UNL A   1      45.017  26.708  27.850  1.00  0.00     0.167 HD
ATOM     47  C   UNL A   1      41.128  28.497  28.854  1.00  0.00     0.037 A 
ATOM     48  C   UNL A   1      47.731  26.796  27.204  1.00  0.00     0.037 A 
ATOM     49  C   UNL A   1      42.085  29.563  28.988  1.00  0.00     0.049 A 
ATOM     50  C   UNL A   1      47.346  28.192  27.615  1.00  0.00     0.074 A 
ATOM     51  C   UNL A   1      41.874  30.861  29.417  1.00  0.00     0.029 A 
ATOM     52  N   UNL A   1      43.436  29.452  28.692  1.00  0.00    -0.354 N 
ATOM     53  N   UNL A   1      46.175  28.656  27.974  1.00  0.00    -0.248 NA
ATOM     54  C   UNL A   1      48.417  29.200  27.622  1.00  0.00     0.031 C 
ATOM     55  C   UNL A   1      43.087  31.550  29.333  1.00  0.00     0.029 A 
ATOM     56  C   UNL A   1      44.066  30.664  28.911  1.00  0.00     0.049 A 
ATOM     57  H   UNL A   1      43.879  28.634  28.372  1.00  0.00     0.167 HD
ATOM     58  C   UNL A   1      46.374  29.994  28.293  1.00  0.00     0.074 A 
ATOM     59  C   UNL A   1      47.780  30.266  28.084  1.00  0.00     0.031 C 
ATOM     60  C   UNL A   1      45.474  30.911  28.724  1.00  0.00     0.037 A 
BRANCH  47  61
ATOM     61  C   UNL A   1      39.685  28.785  29.151  1.00  0.00     0.057 A 
ATOM     62  C   UNL A   1      39.155  28.666  30.442  1.00  0.00     0.134 A 
ATOM     63  C   UNL A   1      38.819  29.213  28.136  1.00  0.00     0.134 A 
ATOM     64  F   UNL A   1      39.926  28.247  31.459  1.00  0.00    -0.206 F 
ATOM     65  C   UNL A   1      37.811  28.930  30.708  1.00  0.00     0.040 A 
ATOM     66  C   UNL A   1      37.481  29.512  28.397  1.00  0.00     0.040 A 
ATOM     67  F   UNL A   1      39.261  29.356  26.878  1.00  0.00    -0.206 F 
ATOM     68  C   UNL A   1      36.971  29.363  29.684  1.00  0.00     0.006 A 
ENDBRANCH  47  61
BRANCH  48  69
ATOM     69  C   UNL A   1      49.130  26.475  26.823  1.00  0.00     0.057 A 
ATOM     70  C   UNL A   1      49.580  26.660  25.510  1.00  0.00     0.134 A 
ATOM     71  C   UNL A   1      50.047  25.966  27.751  1.00  0.00     0.134 A 
ATOM     72  F   UNL A   1      48.745  27.128  24.570  1.00  0.00    -0.206 F 
ATOM     73  C   UNL A   1      50.880  26.328  25.127  1.00  0.00     0.040 A 
ATOM     74  C   UNL A   1      51.359  25.657  27.388  1.00  0.00     0.040 A 
ATOM     75  F   UNL A   1      49.684  25.774  29.027  1.00  0.00    -0.206 F 
ATOM     76  C   UNL A   1      51.776  25.829  26.069  1.00  0.00     0.006 A 
ENDBRANCH  48  69
BRANCH  60  77
ATOM     77  C   UNL A   1      45.987  32.279  29.068  1.00  0.00     0.057 A 
ATOM     78  C   UNL A   1      46.483  32.593  30.339  1.00  0.00     0.134 A 
ATOM     79  C   UNL A   1      46.043  33.277  28.085  1.00  0.00     0.134 A 
ATOM     80  F   UNL A   1      46.447  31.687  31.327  1.00  0.00    -0.206 F 
ATOM     81  C   UNL A   1      47.002  33.857  30.624  1.00  0.00     0.040 A 
ATOM     82  C   UNL A   1      46.586  34.534  28.351  1.00  0.00     0.040 A 
ATOM     83  F   UNL A   1      45.593  33.038  26.844  1.00  0.00    -0.206 F 
ATOM     84  C   UNL A   1      47.064  34.829  29.626  1.00  0.00     0.006 A 
ENDBRANCH  60  77
ENDBRANCH  34  35
ENDBRANCH  26  29
ENDBRANCH  24  25
ENDBRANCH  23  24
ENDBRANCH  22  23
ENDBRANCH  21  22
ENDBRANCH   1  21
TORSDOF 18
ENDMDL
MODEL 2
REMARK VINA RESULT:     -10.3      5.248     10.113
REMARK SMILES CN(C)c1cccc(C(=O)CCCC(=O)NCCCCCCNC(=O)c2ccc(-c3c4nc(c(-c5c(F)cccc5F)c5ccc([nH]5)c(-c5c(F)cccc5F)c5nc(c(-c6c(F)cccc6F)c6ccc3[nH]6)C=C5)C=C4)cc2)c1
REMARK SMILES IDX 18 1 17 2 16 3 14 4 15 5 13 7 12 8 11 9 9 10 10 11 8 12 4 13
REMARK SMILES IDX 5 14 80 15 6 16 7 17 2 18 1 19 3 20 19 21 20 22 21 23 22 24
REMARK SMILES IDX 23 25 24 26 25 28 26 29 27 30 79 31 28 32 78 33 29 34 30 35
REMARK SMILES IDX 31 36 72 37 32 38 77 39 71 40 73 41 33 42 76 43 70 44 69 45
REMARK SMILES IDX 34 47 60 48 43 49 59 50 44 51 47 52 58 53 74 54 45 55 46 56
REMARK SMILES IDX 57 58 75 59 48 60 35 61 36 62 41 63 37 64 38 65 40 66 42 67
REMARK SMILES IDX 39 68 61 69 62 70 67 71 63 72 64 73 66 74 68 75 65 76 49 77
REMARK SMILES IDX 50 78 55 79 51 80 52 81 54 82 56 83 53 84
REMARK H PARENT 16 6 23 27 73 46 47 57
REMARK Flexibility Score: inf
ROOT
ATOM      1  C   UNL A   1      33.276  29.020  25.558  1.00  0.00     0.021 C 
ENDROOT
BRANCH   1   2
ATOM      2  C   UNL A   1      33.785  27.700  26.137  1.00  0.00     0.116 C 
BRANCH   2   3
ATOM      3  N   UNL A   1      32.693  26.827  26.500  1.00  0.00    -0.356 N 
ATOM      4  C   UNL A   1      32.120  25.724  25.975  1.00  0.00     0.220 C 
ATOM      5  O   UNL A   1      31.199  25.252  26.659  1.00  0.00    -0.275 OA
ATOM      6  H   UNL A   1      32.258  27.106  27.339  1.00  0.00     0.163 HD
BRANCH   4   7
ATOM      7  C   UNL A   1      32.570  24.939  24.742  1.00  0.00     0.100 C 
BRANCH   7   8
ATOM      8  C   UNL A   1      32.190  25.223  23.293  1.00  0.00     0.018 C 
BRANCH   8   9
ATOM      9  C   UNL A   1      31.011  26.075  22.837  1.00  0.00     0.081 C 
BRANCH   9  10
ATOM     10  C   UNL A   1      30.983  27.616  22.783  1.00  0.00     0.162 C 
ATOM     11  O   UNL A   1      32.059  28.204  22.618  1.00  0.00    -0.294 OA
BRANCH  10  12
ATOM     12  C   UNL A   1      29.745  28.473  22.734  1.00  0.00     0.020 A 
ATOM     13  C   UNL A   1      28.563  30.613  22.346  1.00  0.00     0.037 A 
ATOM     14  C   UNL A   1      27.380  30.006  22.766  1.00  0.00     0.026 A 
ATOM     15  C   UNL A   1      29.718  29.811  22.343  1.00  0.00     0.037 A 
ATOM     16  C   UNL A   1      27.356  28.663  23.147  1.00  0.00     0.003 A 
ATOM     17  C   UNL A   1      28.530  27.904  23.133  1.00  0.00     0.012 A 
BRANCH  13  18
ATOM     18  N   UNL A   1      28.613  31.947  21.971  1.00  0.00    -0.378 N 
ATOM     19  C   UNL A   1      29.055  32.979  22.901  1.00  0.00     0.143 C 
ATOM     20  C   UNL A   1      28.028  32.358  20.704  1.00  0.00     0.143 C 
ENDBRANCH  13  18
ENDBRANCH  10  12
ENDBRANCH   9  10
ENDBRANCH   8   9
ENDBRANCH   7   8
ENDBRANCH   4   7
ENDBRANCH   2   3
ENDBRANCH   1   2
BRANCH   1  21
ATOM     21  C   UNL A   1      32.084  29.577  26.339  1.00  0.00     0.002 C 
BRANCH  21  22
ATOM     22  C   UNL A   1      31.266  30.628  25.575  1.00  0.00     0.002 C 
BRANCH  22  23
ATOM     23  C   UNL A   1      31.062  31.957  26.308  1.00  0.00     0.021 C 
BRANCH  23  24
ATOM     24  C   UNL A   1      32.284  32.455  27.068  1.00  0.00     0.116 C 
BRANCH  24  25
ATOM     25  N   UNL A   1      32.148  33.849  27.468  1.00  0.00    -0.352 N 
ATOM     26  C   UNL A   1      32.887  34.560  28.381  1.00  0.00     0.251 C 
ATOM     27  H   UNL A   1      31.429  34.349  27.022  1.00  0.00     0.163 HD
ATOM     28  O   UNL A   1      32.528  35.666  28.755  1.00  0.00    -0.269 OA
BRANCH  26  29
ATOM     29  C   UNL A   1      34.122  33.956  28.915  1.00  0.00     0.039 A 
ATOM     30  C   UNL A   1      35.354  34.306  28.358  1.00  0.00     0.014 A 
ATOM     31  C   UNL A   1      34.051  33.066  29.989  1.00  0.00     0.014 A 
ATOM     32  C   UNL A   1      36.529  33.805  28.921  1.00  0.00     0.010 A 
ATOM     33  C   UNL A   1      35.221  32.631  30.595  1.00  0.00     0.010 A 
ATOM     34  C   UNL A   1      36.470  32.989  30.064  1.00  0.00    -0.014 A 
BRANCH  34  35
ATOM     35  C   UNL A   1      37.693  32.462  30.715  1.00  0.00     0.031 A 
ATOM     36  C   UNL A   1      38.368  31.249  30.140  1.00  0.00     0.074 A 
ATOM     37  C   UNL A   1      38.132  33.006  31.866  1.00  0.00     0.049 A 
ATOM     38  N   UNL A   1      39.340  30.527  30.635  1.00  0.00    -0.248 NA
ATOM     39  C   UNL A   1      37.853  30.760  28.849  1.00  0.00     0.031 C 
ATOM     40  C   UNL A   1      37.542  34.165  32.537  1.00  0.00     0.029 A 
ATOM     41  N   UNL A   1      39.165  32.635  32.690  1.00  0.00    -0.354 N 
ATOM     42  C   UNL A   1      39.534  29.490  29.733  1.00  0.00     0.074 A 
ATOM     43  C   UNL A   1      38.545  29.643  28.689  1.00  0.00     0.031 C 
ATOM     44  C   UNL A   1      38.229  34.416  33.664  1.00  0.00     0.029 A 
ATOM     45  C   UNL A   1      39.273  33.409  33.820  1.00  0.00     0.049 A 
ATOM     46  H   UNL A   1      39.772  31.886  32.490  1.00  0.00     0.167 HD
ATOM     47  C   UNL A   1      40.466  28.508  29.763  1.00  0.00     0.037 A 
ATOM     48  C   UNL A   1      40.105  33.302  34.872  1.00  0.00     0.037 A 
ATOM     49  C   UNL A   1      41.461  28.378  30.794  1.00  0.00     0.049 A 
ATOM     50  C   UNL A   1      41.120  32.189  34.893  1.00  0.00     0.074 A 
ATOM     51  C   UNL A   1      42.482  27.450  30.893  1.00  0.00     0.029 A 
ATOM     52  N   UNL A   1      41.556  29.201  31.906  1.00  0.00    -0.354 N 
ATOM     53  N   UNL A   1      41.329  31.243  34.010  1.00  0.00    -0.248 NA
ATOM     54  C   UNL A   1      42.017  32.132  36.056  1.00  0.00     0.031 C 
ATOM     55  C   UNL A   1      43.164  27.680  32.090  1.00  0.00     0.029 A 
ATOM     56  C   UNL A   1      42.608  28.790  32.707  1.00  0.00     0.049 A 
ATOM     57  H   UNL A   1      40.964  29.962  32.098  1.00  0.00     0.167 HD
ATOM     58  C   UNL A   1      42.406  30.506  34.487  1.00  0.00     0.074 A 
ATOM     59  C   UNL A   1      42.807  31.116  35.737  1.00  0.00     0.031 C 
ATOM     60  C   UNL A   1      43.011  29.426  33.935  1.00  0.00     0.037 A 
BRANCH  47  61
ATOM     61  C   UNL A   1      40.448  27.501  28.650  1.00  0.00     0.057 A 
ATOM     62  C   UNL A   1      41.223  27.658  27.493  1.00  0.00     0.134 A 
ATOM     63  C   UNL A   1      39.664  26.344  28.748  1.00  0.00     0.134 A 
ATOM     64  F   UNL A   1      41.986  28.750  27.329  1.00  0.00    -0.206 F 
ATOM     65  C   UNL A   1      41.195  26.719  26.462  1.00  0.00     0.040 A 
ATOM     66  C   UNL A   1      39.654  25.382  27.736  1.00  0.00     0.040 A 
ATOM     67  F   UNL A   1      38.903  26.125  29.830  1.00  0.00    -0.206 F 
ATOM     68  C   UNL A   1      40.415  25.571  26.585  1.00  0.00     0.006 A 
ENDBRANCH  47  61
BRANCH  48  69
ATOM     69  C   UNL A   1      40.028  34.278  35.988  1.00  0.00     0.057 A 
ATOM     70  C   UNL A   1      39.272  34.005  37.135  1.00  0.00     0.134 A 
ATOM     71  C   UNL A   1      40.692  35.510  35.935  1.00  0.00     0.134 A 
ATOM     72  F   UNL A   1      38.598  32.849  37.239  1.00  0.00    -0.206 F 
ATOM     73  C   UNL A   1      39.159  34.928  38.175  1.00  0.00     0.040 A 
ATOM     74  C   UNL A   1      40.610  36.431  36.981  1.00  0.00     0.040 A 
ATOM     75  F   UNL A   1      41.440  35.831  34.870  1.00  0.00    -0.206 F 
ATOM     76  C   UNL A   1      39.833  36.144  38.102  1.00  0.00     0.006 A 
ENDBRANCH  48  69
BRANCH  60  77
ATOM     77  C   UNL A   1      44.214  28.870  34.639  1.00  0.00     0.057 A 
ATOM     78  C   UNL A   1      44.118  27.843  35.586  1.00  0.00     0.134 A 
ATOM     79  C   UNL A   1      45.496  29.332  34.312  1.00  0.00     0.134 A 
ATOM     80  F   UNL A   1      42.920  27.365  35.953  1.00  0.00    -0.206 F 
ATOM     81  C   UNL A   1      45.255  27.305  36.193  1.00  0.00     0.040 A 
ATOM     82  C   UNL A   1      46.641  28.782  34.890  1.00  0.00     0.040 A 
ATOM     83  F   UNL A   1      45.659  30.308  33.406  1.00  0.00    -0.206 F 
ATOM     84  C   UNL A   1      46.521  27.768  35.839  1.00  0.00     0.006 A 
ENDBRANCH  60  77
ENDBRANCH  34  35
ENDBRANCH  26  29
ENDBRANCH  24  25
ENDBRANCH  23  24
ENDBRANCH  22  23
ENDBRANCH  21  22
ENDBRANCH   1  21
TORSDOF 18
ENDMDL
MODEL 3
REMARK VINA RESULT:     -10.1      3.534      7.954
REMARK SMILES CN(C)c1cccc(C(=O)CCCC(=O)NCCCCCCNC(=O)c2ccc(-c3c4nc(c(-c5c(F)cccc5F)c5ccc([nH]5)c(-c5c(F)cccc5F)c5nc(c(-c6c(F)cccc6F)c6ccc3[nH]6)C=C5)C=C4)cc2)c1
REMARK SMILES IDX 18 1 17 2 16 3 14 4 15 5 13 7 12 8 11 9 9 10 10 11 8 12 4 13
REMARK SMILES IDX 5 14 80 15 6 16 7 17 2 18 1 19 3 20 19 21 20 22 21 23 22 24
REMARK SMILES IDX 23 25 24 26 25 28 26 29 27 30 79 31 28 32 78 33 29 34 30 35
REMARK SMILES IDX 31 36 72 37 32 38 77 39 71 40 73 41 33 42 76 43 70 44 69 45
REMARK SMILES IDX 34 47 60 48 43 49 59 50 44 51 47 52 58 53 74 54 45 55 46 56
REMARK SMILES IDX 57 58 75 59 48 60 35 61 36 62 41 63 37 64 38 65 40 66 42 67
REMARK SMILES IDX 39 68 61 69 62 70 67 71 63 72 64 73 66 74 68 75 65 76 49 77
REMARK SMILES IDX 50 78 55 79 51 80 52 81 54 82 56 83 53 84
REMARK H PARENT 16 6 23 27 73 46 47 57
REMARK Flexibility Score: inf
ROOT
ATOM      1  C   UNL A   1      33.014  24.634  22.771  1.00  0.00     0.021 C 
ENDROOT
BRANCH   1   2
ATOM      2  C   UNL A   1      32.931  25.603  21.592  1.00  0.00     0.116 C 
BRANCH   2   3
ATOM      3  N   UNL A   1      31.780  26.469  21.702  1.00  0.00    -0.356 N 
ATOM      4  C   UNL A   1      31.527  27.678  22.248  1.00  0.00     0.220 C 
ATOM      5  O   UNL A   1      30.369  28.085  22.070  1.00  0.00    -0.275 OA
ATOM      6  H   UNL A   1      30.982  26.084  21.273  1.00  0.00     0.163 HD
BRANCH   4   7
ATOM      7  C   UNL A   1      32.526  28.626  22.913  1.00  0.00     0.100 C 
BRANCH   7   8
ATOM      8  C   UNL A   1      33.722  28.232  23.772  1.00  0.00     0.018 C 
BRANCH   8   9
ATOM      9  C   UNL A   1      33.864  28.493  25.267  1.00  0.00     0.081 C 
BRANCH   9  10
ATOM     10  C   UNL A   1      33.117  27.739  26.386  1.00  0.00     0.162 C 
ATOM     11  O   UNL A   1      33.127  28.236  27.519  1.00  0.00    -0.294 OA
BRANCH  10  12
ATOM     12  C   UNL A   1      32.223  26.542  26.195  1.00  0.00     0.020 A 
ATOM     13  C   UNL A   1      31.762  24.110  26.229  1.00  0.00     0.037 A 
ATOM     14  C   UNL A   1      30.492  24.369  25.714  1.00  0.00     0.026 A 
ATOM     15  C   UNL A   1      32.590  25.222  26.457  1.00  0.00     0.037 A 
ATOM     16  C   UNL A   1      30.074  25.677  25.456  1.00  0.00     0.003 A 
ATOM     17  C   UNL A   1      30.933  26.753  25.692  1.00  0.00     0.012 A 
BRANCH  13  18
ATOM     18  N   UNL A   1      32.203  22.821  26.486  1.00  0.00    -0.378 N 
ATOM     19  C   UNL A   1      33.089  22.534  27.607  1.00  0.00     0.143 C 
ATOM     20  C   UNL A   1      31.950  21.769  25.513  1.00  0.00     0.143 C 
ENDBRANCH  13  18
ENDBRANCH  10  12
ENDBRANCH   9  10
ENDBRANCH   8   9
ENDBRANCH   7   8
ENDBRANCH   4   7
ENDBRANCH   2   3
ENDBRANCH   1   2
BRANCH   1  21
ATOM     21  C   UNL A   1      34.377  24.678  23.466  1.00  0.00     0.002 C 
BRANCH  21  22
ATOM     22  C   UNL A   1      35.007  23.299  23.705  1.00  0.00     0.002 C 
BRANCH  22  23
ATOM     23  C   UNL A   1      35.713  23.128  25.053  1.00  0.00     0.021 C 
BRANCH  23  24
ATOM     24  C   UNL A   1      37.096  23.761  25.130  1.00  0.00     0.116 C 
BRANCH  24  25
ATOM     25  N   UNL A   1      38.124  22.788  25.472  1.00  0.00    -0.352 N 
ATOM     26  C   UNL A   1      39.303  22.981  26.148  1.00  0.00     0.251 C 
ATOM     27  H   UNL A   1      37.948  21.865  25.179  1.00  0.00     0.163 HD
ATOM     28  O   UNL A   1      40.156  22.108  26.186  1.00  0.00    -0.269 OA
BRANCH  26  29
ATOM     29  C   UNL A   1      39.528  24.274  26.822  1.00  0.00     0.039 A 
ATOM     30  C   UNL A   1      39.063  24.459  28.125  1.00  0.00     0.014 A 
ATOM     31  C   UNL A   1      40.229  25.287  26.163  1.00  0.00     0.014 A 
ATOM     32  C   UNL A   1      39.354  25.649  28.795  1.00  0.00     0.010 A 
ATOM     33  C   UNL A   1      40.584  26.435  26.856  1.00  0.00     0.010 A 
ATOM     34  C   UNL A   1      40.144  26.632  28.174  1.00  0.00    -0.014 A 
BRANCH  34  35
ATOM     35  C   UNL A   1      40.507  27.895  28.859  1.00  0.00     0.031 A 
ATOM     36  C   UNL A   1      41.858  28.020  29.505  1.00  0.00     0.074 A 
ATOM     37  C   UNL A   1      39.596  28.879  28.987  1.00  0.00     0.049 A 
ATOM     38  N   UNL A   1      42.319  28.959  30.290  1.00  0.00    -0.248 NA
ATOM     39  C   UNL A   1      42.807  26.919  29.262  1.00  0.00     0.031 C 
ATOM     40  C   UNL A   1      38.243  28.861  28.430  1.00  0.00     0.029 A 
ATOM     41  N   UNL A   1      39.667  30.078  29.651  1.00  0.00    -0.354 N 
ATOM     42  C   UNL A   1      43.595  28.550  30.654  1.00  0.00     0.074 A 
ATOM     43  C   UNL A   1      43.816  27.256  30.049  1.00  0.00     0.031 C 
ATOM     44  C   UNL A   1      37.614  29.999  28.768  1.00  0.00     0.029 A 
ATOM     45  C   UNL A   1      38.501  30.802  29.604  1.00  0.00     0.049 A 
ATOM     46  H   UNL A   1      40.476  30.390  30.116  1.00  0.00     0.167 HD
ATOM     47  C   UNL A   1      44.508  29.205  31.410  1.00  0.00     0.037 A 
ATOM     48  C   UNL A   1      38.178  31.971  30.189  1.00  0.00     0.037 A 
ATOM     49  C   UNL A   1      44.287  30.504  31.988  1.00  0.00     0.049 A 
ATOM     50  C   UNL A   1      39.203  32.671  31.041  1.00  0.00     0.074 A 
ATOM     51  C   UNL A   1      45.163  31.277  32.728  1.00  0.00     0.029 A 
ATOM     52  N   UNL A   1      43.102  31.219  31.892  1.00  0.00    -0.354 N 
ATOM     53  N   UNL A   1      40.424  32.301  31.338  1.00  0.00    -0.248 NA
ATOM     54  C   UNL A   1      38.804  33.954  31.639  1.00  0.00     0.031 C 
ATOM     55  C   UNL A   1      44.493  32.438  33.122  1.00  0.00     0.029 A 
ATOM     56  C   UNL A   1      43.219  32.416  32.575  1.00  0.00     0.049 A 
ATOM     57  H   UNL A   1      42.299  30.919  31.410  1.00  0.00     0.167 HD
ATOM     58  C   UNL A   1      40.955  33.321  32.117  1.00  0.00     0.074 A 
ATOM     59  C   UNL A   1      39.921  34.326  32.247  1.00  0.00     0.031 C 
ATOM     60  C   UNL A   1      42.188  33.419  32.671  1.00  0.00     0.037 A 
BRANCH  47  61
ATOM     61  C   UNL A   1      45.823  28.524  31.653  1.00  0.00     0.057 A 
ATOM     62  C   UNL A   1      46.032  27.683  32.754  1.00  0.00     0.134 A 
ATOM     63  C   UNL A   1      46.889  28.690  30.759  1.00  0.00     0.134 A 
ATOM     64  F   UNL A   1      45.057  27.490  33.657  1.00  0.00    -0.206 F 
ATOM     65  C   UNL A   1      47.260  27.058  32.975  1.00  0.00     0.040 A 
ATOM     66  C   UNL A   1      48.111  28.044  30.952  1.00  0.00     0.040 A 
ATOM     67  F   UNL A   1      46.757  29.475  29.679  1.00  0.00    -0.206 F 
ATOM     68  C   UNL A   1      48.303  27.232  32.067  1.00  0.00     0.006 A 
ENDBRANCH  47  61
BRANCH  48  69
ATOM     69  C   UNL A   1      36.832  32.564  29.981  1.00  0.00     0.057 A 
ATOM     70  C   UNL A   1      36.601  33.485  28.951  1.00  0.00     0.134 A 
ATOM     71  C   UNL A   1      35.750  32.239  30.807  1.00  0.00     0.134 A 
ATOM     72  F   UNL A   1      37.602  33.851  28.136  1.00  0.00    -0.206 F 
ATOM     73  C   UNL A   1      35.352  34.079  28.766  1.00  0.00     0.040 A 
ATOM     74  C   UNL A   1      34.488  32.804  30.616  1.00  0.00     0.040 A 
ATOM     75  F   UNL A   1      35.900  31.357  31.806  1.00  0.00    -0.206 F 
ATOM     76  C   UNL A   1      34.289  33.735  29.598  1.00  0.00     0.006 A 
ENDBRANCH  48  69
BRANCH  60  77
ATOM     77  C   UNL A   1      42.519  34.682  33.410  1.00  0.00     0.057 A 
ATOM     78  C   UNL A   1      43.042  35.811  32.766  1.00  0.00     0.134 A 
ATOM     79  C   UNL A   1      42.249  34.787  34.781  1.00  0.00     0.134 A 
ATOM     80  F   UNL A   1      43.335  35.772  31.458  1.00  0.00    -0.206 F 
ATOM     81  C   UNL A   1      43.297  36.993  33.463  1.00  0.00     0.040 A 
ATOM     82  C   UNL A   1      42.471  35.972  35.482  1.00  0.00     0.040 A 
ATOM     83  F   UNL A   1      41.738  33.746  35.457  1.00  0.00    -0.206 F 
ATOM     84  C   UNL A   1      43.002  37.079  34.822  1.00  0.00     0.006 A 
ENDBRANCH  60  77
ENDBRANCH  34  35
ENDBRANCH  26  29
ENDBRANCH  24  25
ENDBRANCH  23  24
ENDBRANCH  22  23
ENDBRANCH  21  22
ENDBRANCH   1  21
TORSDOF 18
ENDMDL
