MODEL 1
REMARK VINA RESULT:     -12.1      0.000      0.000
REMARK SMILES Cc1cccc(C(=O)Nc2cc(C(=O)NCCCCCCNC(=O)c3ccc(-c4c5nc(c(-c6c(F)cccc6F)c6ccc([nH]6)c(-c6c(F)cccc6F)c6nc(c(-c7c(F)cccc7F)c7ccc4[nH]7)C=C6)C=C5)cc3)ccc2N2CC[NH+](CC(=O)NC(C)(C)C)CC2)c1
REMARK SMILES IDX 17 1 16 2 15 3 13 4 14 5 12 7 10 8 11 9 81 10 80 11 79 12
REMARK SMILES IDX 9 13 7 14 8 15 6 17 1 18 2 19 3 20 96 21 4 22 5 23 82 24
REMARK SMILES IDX 83 25 95 26 84 27 94 28 85 29 86 31 87 32 88 33 89 34 90 36
REMARK SMILES IDX 91 37 92 38 93 39 18 40 19 41 20 42 21 43 22 44 23 45 24 47
REMARK SMILES IDX 25 48 26 49 78 50 27 51 77 52 28 53 29 54 30 55 71 56 31 57
REMARK SMILES IDX 76 58 70 59 72 60 32 61 75 62 69 63 68 64 33 66 59 67 42 68
REMARK SMILES IDX 58 69 43 70 46 71 57 72 73 73 44 74 45 75 56 77 74 78 47 79
REMARK SMILES IDX 34 80 35 81 40 82 36 83 37 84 39 85 41 86 38 87 60 88 61 89
REMARK SMILES IDX 66 90 62 91 63 92 65 93 67 94 64 95 48 96 49 97 54 98 50 99
REMARK SMILES IDX 51 100 53 101 55 102 52 103
REMARK H PARENT 15 6 9 16 85 30 89 35 22 46 72 65 46 76
REMARK Flexibility Score: inf
ROOT
ATOM      1  C   UNL A   1      40.499  21.724  27.131  1.00  0.00     0.021 C 
ENDROOT
BRANCH   1   2
ATOM      2  C   UNL A   1      39.270  21.978  26.255  1.00  0.00     0.116 C 
BRANCH   2   3
ATOM      3  N   UNL A   1      38.726  20.755  25.696  1.00  0.00    -0.352 N 
ATOM      4  C   UNL A   1      37.589  20.470  24.977  1.00  0.00     0.251 C 
ATOM      5  O   UNL A   1      37.472  19.320  24.552  1.00  0.00    -0.269 OA
ATOM      6  H   UNL A   1      39.288  19.964  25.867  1.00  0.00     0.163 HD
BRANCH   4   7
ATOM      7  C   UNL A   1      36.531  21.469  24.641  1.00  0.00     0.042 A 
ATOM      8  C   UNL A   1      34.272  22.320  24.723  1.00  0.00     0.065 A 
ATOM      9  C   UNL A   1      35.176  21.268  24.858  1.00  0.00     0.042 A 
ATOM     10  C   UNL A   1      34.638  23.553  24.128  1.00  0.00     0.061 A 
ATOM     11  C   UNL A   1      35.988  23.712  23.807  1.00  0.00     0.029 A 
ATOM     12  C   UNL A   1      36.927  22.704  24.101  1.00  0.00     0.016 A 
BRANCH   8  13
ATOM     13  N   UNL A   1      32.966  22.156  25.213  1.00  0.00    -0.320 N 
ATOM     14  C   UNL A   1      32.136  21.046  25.160  1.00  0.00     0.255 C 
ATOM     15  O   UNL A   1      31.062  21.105  25.766  1.00  0.00    -0.269 OA
ATOM     16  H   UNL A   1      32.583  22.945  25.661  1.00  0.00     0.170 HD
BRANCH  14  17
ATOM     17  C   UNL A   1      32.481  19.750  24.483  1.00  0.00     0.040 A 
ATOM     18  C   UNL A   1      34.334  16.443  24.969  1.00  0.00     0.044 C 
ATOM     19  C   UNL A   1      33.484  17.522  24.355  1.00  0.00    -0.050 A 
ATOM     20  C   UNL A   1      33.183  17.465  22.990  1.00  0.00     0.003 A 
ATOM     21  C   UNL A   1      33.064  18.636  25.107  1.00  0.00     0.017 A 
ATOM     22  C   UNL A   1      32.491  18.508  22.383  1.00  0.00     0.001 A 
ATOM     23  C   UNL A   1      32.157  19.647  23.122  1.00  0.00     0.014 A 
ENDBRANCH  14  17
ENDBRANCH   8  13
BRANCH  10  24
ATOM     24  N   UNL A   1      33.709  24.574  23.969  1.00  0.00    -0.359 N 
ATOM     25  C   UNL A   1      33.473  25.276  22.693  1.00  0.00     0.178 C 
ATOM     26  C   UNL A   1      33.505  25.457  25.118  1.00  0.00     0.178 C 
ATOM     27  C   UNL A   1      32.099  26.033  22.715  1.00  0.00     0.284 C 
ATOM     28  C   UNL A   1      32.031  25.893  25.135  1.00  0.00     0.284 C 
ATOM     29  N   UNL A   1      31.651  26.689  23.967  1.00  0.00    -0.324 N 
ATOM     30  H   UNL A   1      30.633  26.706  23.903  1.00  0.00     0.348 HD
BRANCH  29  31
ATOM     31  C   UNL A   1      31.947  28.128  24.106  1.00  0.00     0.363 C 
BRANCH  31  32
ATOM     32  C   UNL A   1      32.019  28.921  22.807  1.00  0.00     0.275 C 
ATOM     33  O   UNL A   1      33.109  29.064  22.236  1.00  0.00    -0.268 OA
ATOM     34  N   UNL A   1      30.950  29.505  22.200  1.00  0.00    -0.347 N 
ATOM     35  H   UNL A   1      31.204  29.833  21.306  1.00  0.00     0.164 HD
BRANCH  34  36
ATOM     36  C   UNL A   1      29.514  29.802  22.465  1.00  0.00     0.032 C 
ATOM     37  C   UNL A   1      28.738  28.526  22.843  1.00  0.00     0.034 C 
ATOM     38  C   UNL A   1      29.484  30.710  23.714  1.00  0.00     0.034 C 
ATOM     39  C   UNL A   1      28.784  30.542  21.341  1.00  0.00     0.034 C 
ENDBRANCH  34  36
ENDBRANCH  31  32
ENDBRANCH  29  31
ENDBRANCH  10  24
ENDBRANCH   4   7
ENDBRANCH   2   3
ENDBRANCH   1   2
BRANCH   1  40
ATOM     40  C   UNL A   1      41.564  22.824  27.052  1.00  0.00     0.002 C 
BRANCH  40  41
ATOM     41  C   UNL A   1      42.185  23.062  25.665  1.00  0.00     0.002 C 
BRANCH  41  42
ATOM     42  C   UNL A   1      42.855  24.424  25.462  1.00  0.00     0.021 C 
BRANCH  42  43
ATOM     43  C   UNL A   1      44.166  24.344  24.692  1.00  0.00     0.116 C 
BRANCH  43  44
ATOM     44  N   UNL A   1      44.873  23.085  24.890  1.00  0.00    -0.352 N 
ATOM     45  C   UNL A   1      45.726  22.692  25.912  1.00  0.00     0.251 C 
ATOM     46  H   UNL A   1      44.723  22.407  24.191  1.00  0.00     0.163 HD
ATOM     47  O   UNL A   1      46.242  21.593  25.892  1.00  0.00    -0.269 OA
BRANCH  45  48
ATOM     48  C   UNL A   1      45.870  23.567  27.102  1.00  0.00     0.039 A 
ATOM     49  C   UNL A   1      45.069  23.272  28.210  1.00  0.00     0.014 A 
ATOM     50  C   UNL A   1      46.561  24.773  27.032  1.00  0.00     0.014 A 
ATOM     51  C   UNL A   1      44.733  24.291  29.093  1.00  0.00     0.010 A 
ATOM     52  C   UNL A   1      46.159  25.808  27.849  1.00  0.00     0.010 A 
ATOM     53  C   UNL A   1      45.177  25.583  28.822  1.00  0.00    -0.014 A 
BRANCH  53  54
ATOM     54  C   UNL A   1      44.560  26.770  29.399  1.00  0.00     0.031 A 
ATOM     55  C   UNL A   1      43.226  27.213  28.961  1.00  0.00     0.074 A 
ATOM     56  C   UNL A   1      45.190  27.413  30.408  1.00  0.00     0.049 A 
ATOM     57  N   UNL A   1      42.753  28.396  29.154  1.00  0.00    -0.248 NA
ATOM     58  C   UNL A   1      42.325  26.345  28.216  1.00  0.00     0.031 C 
ATOM     59  C   UNL A   1      44.641  28.429  31.301  1.00  0.00     0.029 A 
ATOM     60  N   UNL A   1      46.566  27.426  30.671  1.00  0.00    -0.354 N 
ATOM     61  C   UNL A   1      41.422  28.381  28.809  1.00  0.00     0.074 A 
ATOM     62  C   UNL A   1      41.221  27.096  28.177  1.00  0.00     0.031 C 
ATOM     63  C   UNL A   1      45.653  29.168  31.782  1.00  0.00     0.029 A 
ATOM     64  C   UNL A   1      46.858  28.744  31.092  1.00  0.00     0.049 A 
ATOM     65  H   UNL A   1      47.198  26.677  30.582  1.00  0.00     0.167 HD
ATOM     66  C   UNL A   1      40.623  29.415  29.204  1.00  0.00     0.037 A 
ATOM     67  C   UNL A   1      47.662  29.553  30.343  1.00  0.00     0.037 A 
ATOM     68  C   UNL A   1      41.400  30.482  29.837  1.00  0.00     0.049 A 
ATOM     69  C   UNL A   1      47.003  30.826  29.847  1.00  0.00     0.074 A 
ATOM     70  C   UNL A   1      41.658  30.856  31.146  1.00  0.00     0.029 A 
ATOM     71  N   UNL A   1      42.299  31.189  29.059  1.00  0.00    -0.354 N 
ATOM     72  N   UNL A   1      45.740  31.116  30.001  1.00  0.00    -0.248 NA
ATOM     73  C   UNL A   1      47.705  31.824  29.039  1.00  0.00     0.031 C 
ATOM     74  C   UNL A   1      42.734  31.791  31.139  1.00  0.00     0.029 A 
ATOM     75  C   UNL A   1      43.124  31.985  29.827  1.00  0.00     0.049 A 
ATOM     76  H   UNL A   1      42.344  31.130  28.078  1.00  0.00     0.167 HD
ATOM     77  C   UNL A   1      45.445  32.246  29.285  1.00  0.00     0.074 A 
ATOM     78  C   UNL A   1      46.708  32.659  28.705  1.00  0.00     0.031 C 
ATOM     79  C   UNL A   1      44.177  32.736  29.167  1.00  0.00     0.037 A 
BRANCH  66  80
ATOM     80  C   UNL A   1      39.113  29.355  29.226  1.00  0.00     0.057 A 
ATOM     81  C   UNL A   1      38.371  29.511  28.038  1.00  0.00     0.134 A 
ATOM     82  C   UNL A   1      38.323  29.204  30.378  1.00  0.00     0.134 A 
ATOM     83  F   UNL A   1      38.960  29.546  26.836  1.00  0.00    -0.206 F 
ATOM     84  C   UNL A   1      36.975  29.641  28.020  1.00  0.00     0.040 A 
ATOM     85  C   UNL A   1      36.932  29.392  30.385  1.00  0.00     0.040 A 
ATOM     86  F   UNL A   1      38.847  28.803  31.543  1.00  0.00    -0.206 F 
ATOM     87  C   UNL A   1      36.253  29.627  29.201  1.00  0.00     0.006 A 
ENDBRANCH  66  80
BRANCH  67  88
ATOM     88  C   UNL A   1      48.710  28.804  29.596  1.00  0.00     0.057 A 
ATOM     89  C   UNL A   1      48.544  28.592  28.215  1.00  0.00     0.134 A 
ATOM     90  C   UNL A   1      49.989  28.604  30.120  1.00  0.00     0.134 A 
ATOM     91  F   UNL A   1      47.342  28.768  27.643  1.00  0.00    -0.206 F 
ATOM     92  C   UNL A   1      49.625  28.309  27.377  1.00  0.00     0.040 A 
ATOM     93  C   UNL A   1      51.076  28.299  29.293  1.00  0.00     0.040 A 
ATOM     94  F   UNL A   1      50.236  28.807  31.422  1.00  0.00    -0.206 F 
ATOM     95  C   UNL A   1      50.902  28.191  27.914  1.00  0.00     0.006 A 
ENDBRANCH  67  88
BRANCH  79  96
ATOM     96  C   UNL A   1      43.841  33.970  28.381  1.00  0.00     0.057 A 
ATOM     97  C   UNL A   1      43.771  33.974  26.982  1.00  0.00     0.134 A 
ATOM     98  C   UNL A   1      43.691  35.224  29.005  1.00  0.00     0.134 A 
ATOM     99  F   UNL A   1      43.954  32.847  26.277  1.00  0.00    -0.206 F 
ATOM    100  C   UNL A   1      43.527  35.145  26.251  1.00  0.00     0.040 A 
ATOM    101  C   UNL A   1      43.498  36.406  28.286  1.00  0.00     0.040 A 
ATOM    102  F   UNL A   1      43.703  35.351  30.340  1.00  0.00    -0.206 F 
ATOM    103  C   UNL A   1      43.403  36.367  26.903  1.00  0.00     0.006 A 
ENDBRANCH  79  96
ENDBRANCH  53  54
ENDBRANCH  45  48
ENDBRANCH  43  44
ENDBRANCH  42  43
ENDBRANCH  41  42
ENDBRANCH  40  41
ENDBRANCH   1  40
TORSDOF 19
ENDMDL
MODEL 2
REMARK VINA RESULT:     -12.1      2.195      3.304
REMARK SMILES Cc1cccc(C(=O)Nc2cc(C(=O)NCCCCCCNC(=O)c3ccc(-c4c5nc(c(-c6c(F)cccc6F)c6ccc([nH]6)c(-c6c(F)cccc6F)c6nc(c(-c7c(F)cccc7F)c7ccc4[nH]7)C=C6)C=C5)cc3)ccc2N2CC[NH+](CC(=O)NC(C)(C)C)CC2)c1
REMARK SMILES IDX 17 1 16 2 15 3 13 4 14 5 12 7 10 8 11 9 81 10 80 11 79 12
REMARK SMILES IDX 9 13 7 14 8 15 6 17 1 18 2 19 3 20 96 21 4 22 5 23 82 24
REMARK SMILES IDX 83 25 95 26 84 27 94 28 85 29 86 31 87 32 88 33 89 34 90 36
REMARK SMILES IDX 91 37 92 38 93 39 18 40 19 41 20 42 21 43 22 44 23 45 24 47
REMARK SMILES IDX 25 48 26 49 78 50 27 51 77 52 28 53 29 54 30 55 71 56 31 57
REMARK SMILES IDX 76 58 70 59 72 60 32 61 75 62 69 63 68 64 33 66 59 67 42 68
REMARK SMILES IDX 58 69 43 70 46 71 57 72 73 73 44 74 45 75 56 77 74 78 47 79
REMARK SMILES IDX 34 80 35 81 40 82 36 83 37 84 39 85 41 86 38 87 60 88 61 89
REMARK SMILES IDX 66 90 62 91 63 92 65 93 67 94 64 95 48 96 49 97 54 98 50 99
REMARK SMILES IDX 51 100 53 101 55 102 52 103
REMARK H PARENT 15 6 9 16 85 30 89 35 22 46 72 65 46 76
REMARK Flexibility Score: inf
ROOT
ATOM      1  C   UNL A   1      40.745  21.040  26.885  1.00  0.00     0.021 C 
ENDROOT
BRANCH   1   2
ATOM      2  C   UNL A   1      39.466  21.399  26.125  1.00  0.00     0.116 C 
BRANCH   2   3
ATOM      3  N   UNL A   1      38.743  20.226  25.671  1.00  0.00    -0.352 N 
ATOM      4  C   UNL A   1      37.533  20.048  25.042  1.00  0.00     0.251 C 
ATOM      5  O   UNL A   1      37.250  18.902  24.692  1.00  0.00    -0.269 OA
ATOM      6  H   UNL A   1      39.216  19.382  25.853  1.00  0.00     0.163 HD
BRANCH   4   7
ATOM      7  C   UNL A   1      36.582  21.153  24.715  1.00  0.00     0.042 A 
ATOM      8  C   UNL A   1      34.409  22.205  24.766  1.00  0.00     0.065 A 
ATOM      9  C   UNL A   1      35.208  21.069  24.886  1.00  0.00     0.042 A 
ATOM     10  C   UNL A   1      34.904  23.419  24.231  1.00  0.00     0.061 A 
ATOM     11  C   UNL A   1      36.273  23.465  23.954  1.00  0.00     0.029 A 
ATOM     12  C   UNL A   1      37.105  22.364  24.235  1.00  0.00     0.016 A 
BRANCH   8  13
ATOM     13  N   UNL A   1      33.078  22.144  25.212  1.00  0.00    -0.320 N 
ATOM     14  C   UNL A   1      32.178  21.091  25.165  1.00  0.00     0.255 C 
ATOM     15  O   UNL A   1      31.089  21.242  25.728  1.00  0.00    -0.269 OA
ATOM     16  H   UNL A   1      32.733  22.972  25.620  1.00  0.00     0.170 HD
BRANCH  14  17
ATOM     17  C   UNL A   1      32.458  19.752  24.543  1.00  0.00     0.040 A 
ATOM     18  C   UNL A   1      33.989  16.319  25.233  1.00  0.00     0.044 C 
ATOM     19  C   UNL A   1      33.277  17.446  24.536  1.00  0.00    -0.050 A 
ATOM     20  C   UNL A   1      33.066  17.375  23.155  1.00  0.00     0.003 A 
ATOM     21  C   UNL A   1      32.901  18.612  25.231  1.00  0.00     0.017 A 
ATOM     22  C   UNL A   1      32.508  18.454  22.478  1.00  0.00     0.001 A 
ATOM     23  C   UNL A   1      32.221  19.637  23.164  1.00  0.00     0.014 A 
ENDBRANCH  14  17
ENDBRANCH   8  13
BRANCH  10  24
ATOM     24  N   UNL A   1      34.077  24.527  24.085  1.00  0.00    -0.359 N 
ATOM     25  C   UNL A   1      33.653  25.067  22.779  1.00  0.00     0.178 C 
ATOM     26  C   UNL A   1      34.218  25.583  25.087  1.00  0.00     0.178 C 
ATOM     27  C   UNL A   1      32.404  26.003  22.939  1.00  0.00     0.284 C 
ATOM     28  C   UNL A   1      32.836  26.219  25.315  1.00  0.00     0.284 C 
ATOM     29  N   UNL A   1      32.305  26.886  24.126  1.00  0.00    -0.324 N 
ATOM     30  H   UNL A   1      31.305  27.036  24.258  1.00  0.00     0.348 HD
BRANCH  29  31
ATOM     31  C   UNL A   1      32.776  28.275  23.962  1.00  0.00     0.363 C 
BRANCH  31  32
ATOM     32  C   UNL A   1      32.011  29.334  24.745  1.00  0.00     0.275 C 
ATOM     33  O   UNL A   1      32.457  29.736  25.829  1.00  0.00    -0.268 OA
ATOM     34  N   UNL A   1      30.839  29.896  24.340  1.00  0.00    -0.347 N 
ATOM     35  H   UNL A   1      30.606  30.654  24.924  1.00  0.00     0.164 HD
BRANCH  34  36
ATOM     36  C   UNL A   1      29.799  29.721  23.288  1.00  0.00     0.032 C 
ATOM     37  C   UNL A   1      30.420  29.725  21.878  1.00  0.00     0.034 C 
ATOM     38  C   UNL A   1      29.208  28.308  23.494  1.00  0.00     0.034 C 
ATOM     39  C   UNL A   1      28.638  30.718  23.348  1.00  0.00     0.034 C 
ENDBRANCH  34  36
ENDBRANCH  31  32
ENDBRANCH  29  31
ENDBRANCH  10  24
ENDBRANCH   4   7
ENDBRANCH   2   3
ENDBRANCH   1   2
BRANCH   1  40
ATOM     40  C   UNL A   1      41.157  22.070  27.942  1.00  0.00     0.002 C 
BRANCH  40  41
ATOM     41  C   UNL A   1      42.626  22.526  27.903  1.00  0.00     0.002 C 
BRANCH  41  42
ATOM     42  C   UNL A   1      43.310  22.447  26.534  1.00  0.00     0.021 C 
BRANCH  42  43
ATOM     43  C   UNL A   1      43.346  23.780  25.800  1.00  0.00     0.116 C 
BRANCH  43  44
ATOM     44  N   UNL A   1      42.024  24.358  25.590  1.00  0.00    -0.352 N 
ATOM     45  C   UNL A   1      41.407  25.427  26.224  1.00  0.00     0.251 C 
ATOM     46  H   UNL A   1      41.484  23.922  24.891  1.00  0.00     0.163 HD
ATOM     47  O   UNL A   1      40.277  25.751  25.921  1.00  0.00    -0.269 OA
BRANCH  45  48
ATOM     48  C   UNL A   1      42.202  26.262  27.159  1.00  0.00     0.039 A 
ATOM     49  C   UNL A   1      41.974  26.078  28.527  1.00  0.00     0.014 A 
ATOM     50  C   UNL A   1      42.936  27.354  26.706  1.00  0.00     0.014 A 
ATOM     51  C   UNL A   1      42.225  27.129  29.402  1.00  0.00     0.010 A 
ATOM     52  C   UNL A   1      43.100  28.431  27.552  1.00  0.00     0.010 A 
ATOM     53  C   UNL A   1      42.661  28.344  28.878  1.00  0.00    -0.014 A 
BRANCH  53  54
ATOM     54  C   UNL A   1      42.546  29.604  29.601  1.00  0.00     0.031 A 
ATOM     55  C   UNL A   1      41.267  30.331  29.648  1.00  0.00     0.074 A 
ATOM     56  C   UNL A   1      43.609  30.057  30.305  1.00  0.00     0.049 A 
ATOM     57  N   UNL A   1      41.148  31.575  29.961  1.00  0.00    -0.248 NA
ATOM     58  C   UNL A   1      40.002  29.701  29.294  1.00  0.00     0.031 C 
ATOM     59  C   UNL A   1      43.632  31.121  31.303  1.00  0.00     0.029 A 
ATOM     60  N   UNL A   1      44.961  29.776  30.065  1.00  0.00    -0.354 N 
ATOM     61  C   UNL A   1      39.808  31.849  30.108  1.00  0.00     0.074 A 
ATOM     62  C   UNL A   1      39.137  30.663  29.625  1.00  0.00     0.031 C 
ATOM     63  C   UNL A   1      44.878  31.614  31.375  1.00  0.00     0.029 A 
ATOM     64  C   UNL A   1      45.648  30.985  30.317  1.00  0.00     0.049 A 
ATOM     65  H   UNL A   1      45.350  28.918  29.781  1.00  0.00     0.167 HD
ATOM     66  C   UNL A   1      39.432  33.005  30.729  1.00  0.00     0.037 A 
ATOM     67  C   UNL A   1      46.289  31.647  29.310  1.00  0.00     0.037 A 
ATOM     68  C   UNL A   1      40.586  33.860  31.016  1.00  0.00     0.049 A 
ATOM     69  C   UNL A   1      45.777  33.049  29.041  1.00  0.00     0.074 A 
ATOM     70  C   UNL A   1      41.357  34.112  32.138  1.00  0.00     0.029 A 
ATOM     71  N   UNL A   1      41.280  34.403  29.951  1.00  0.00    -0.354 N 
ATOM     72  N   UNL A   1      44.738  33.583  29.621  1.00  0.00    -0.248 NA
ATOM     73  C   UNL A   1      46.343  33.919  28.008  1.00  0.00     0.031 C 
ATOM     74  C   UNL A   1      42.532  34.806  31.725  1.00  0.00     0.029 A 
ATOM     75  C   UNL A   1      42.469  34.977  30.355  1.00  0.00     0.049 A 
ATOM     76  H   UNL A   1      40.966  34.382  29.019  1.00  0.00     0.167 HD
ATOM     77  C   UNL A   1      44.452  34.782  29.022  1.00  0.00     0.074 A 
ATOM     78  C   UNL A   1      45.488  34.955  28.023  1.00  0.00     0.031 C 
ATOM     79  C   UNL A   1      43.355  35.527  29.345  1.00  0.00     0.037 A 
BRANCH  66  80
ATOM     80  C   UNL A   1      38.048  33.254  31.283  1.00  0.00     0.057 A 
ATOM     81  C   UNL A   1      37.732  32.904  32.611  1.00  0.00     0.134 A 
ATOM     82  C   UNL A   1      36.966  33.781  30.557  1.00  0.00     0.134 A 
ATOM     83  F   UNL A   1      38.670  32.502  33.478  1.00  0.00    -0.206 F 
ATOM     84  C   UNL A   1      36.428  32.948  33.123  1.00  0.00     0.040 A 
ATOM     85  C   UNL A   1      35.647  33.774  31.034  1.00  0.00     0.040 A 
ATOM     86  F   UNL A   1      37.140  34.388  29.377  1.00  0.00    -0.206 F 
ATOM     87  C   UNL A   1      35.371  33.341  32.320  1.00  0.00     0.006 A 
ENDBRANCH  66  80
BRANCH  67  88
ATOM     88  C   UNL A   1      46.828  30.734  28.264  1.00  0.00     0.057 A 
ATOM     89  C   UNL A   1      47.957  29.948  28.560  1.00  0.00     0.134 A 
ATOM     90  C   UNL A   1      46.077  30.371  27.143  1.00  0.00     0.134 A 
ATOM     91  F   UNL A   1      48.723  30.238  29.624  1.00  0.00    -0.206 F 
ATOM     92  C   UNL A   1      48.256  28.787  27.844  1.00  0.00     0.040 A 
ATOM     93  C   UNL A   1      46.380  29.222  26.405  1.00  0.00     0.040 A 
ATOM     94  F   UNL A   1      44.974  31.054  26.806  1.00  0.00    -0.206 F 
ATOM     95  C   UNL A   1      47.447  28.406  26.779  1.00  0.00     0.006 A 
ENDBRANCH  67  88
BRANCH  79  96
ATOM     96  C   UNL A   1      43.029  36.838  28.692  1.00  0.00     0.057 A 
ATOM     97  C   UNL A   1      43.339  38.070  29.282  1.00  0.00     0.134 A 
ATOM     98  C   UNL A   1      42.287  36.902  27.496  1.00  0.00     0.134 A 
ATOM     99  F   UNL A   1      43.994  38.130  30.452  1.00  0.00    -0.206 F 
ATOM    100  C   UNL A   1      42.968  39.290  28.702  1.00  0.00     0.040 A 
ATOM    101  C   UNL A   1      41.868  38.110  26.933  1.00  0.00     0.040 A 
ATOM    102  F   UNL A   1      41.957  35.797  26.813  1.00  0.00    -0.206 F 
ATOM    103  C   UNL A   1      42.219  39.311  27.530  1.00  0.00     0.006 A 
ENDBRANCH  79  96
ENDBRANCH  53  54
ENDBRANCH  45  48
ENDBRANCH  43  44
ENDBRANCH  42  43
ENDBRANCH  41  42
ENDBRANCH  40  41
ENDBRANCH   1  40
TORSDOF 19
ENDMDL
MODEL 3
REMARK VINA RESULT:     -12.1      1.881      2.917
REMARK SMILES Cc1cccc(C(=O)Nc2cc(C(=O)NCCCCCCNC(=O)c3ccc(-c4c5nc(c(-c6c(F)cccc6F)c6ccc([nH]6)c(-c6c(F)cccc6F)c6nc(c(-c7c(F)cccc7F)c7ccc4[nH]7)C=C6)C=C5)cc3)ccc2N2CC[NH+](CC(=O)NC(C)(C)C)CC2)c1
REMARK SMILES IDX 17 1 16 2 15 3 13 4 14 5 12 7 10 8 11 9 81 10 80 11 79 12
REMARK SMILES IDX 9 13 7 14 8 15 6 17 1 18 2 19 3 20 96 21 4 22 5 23 82 24
REMARK SMILES IDX 83 25 95 26 84 27 94 28 85 29 86 31 87 32 88 33 89 34 90 36
REMARK SMILES IDX 91 37 92 38 93 39 18 40 19 41 20 42 21 43 22 44 23 45 24 47
REMARK SMILES IDX 25 48 26 49 78 50 27 51 77 52 28 53 29 54 30 55 71 56 31 57
REMARK SMILES IDX 76 58 70 59 72 60 32 61 75 62 69 63 68 64 33 66 59 67 42 68
REMARK SMILES IDX 58 69 43 70 46 71 57 72 73 73 44 74 45 75 56 77 74 78 47 79
REMARK SMILES IDX 34 80 35 81 40 82 36 83 37 84 39 85 41 86 38 87 60 88 61 89
REMARK SMILES IDX 66 90 62 91 63 92 65 93 67 94 64 95 48 96 49 97 54 98 50 99
REMARK SMILES IDX 51 100 53 101 55 102 52 103
REMARK H PARENT 15 6 9 16 85 30 89 35 22 46 72 65 46 76
REMARK Flexibility Score: inf
ROOT
ATOM      1  C   UNL A   1      40.761  21.445  26.966  1.00  0.00     0.021 C 
ENDROOT
BRANCH   1   2
ATOM      2  C   UNL A   1      39.521  21.752  26.124  1.00  0.00     0.116 C 
BRANCH   2   3
ATOM      3  N   UNL A   1      38.870  20.550  25.638  1.00  0.00    -0.352 N 
ATOM      4  C   UNL A   1      37.669  20.316  25.010  1.00  0.00     0.251 C 
ATOM      5  O   UNL A   1      37.456  19.164  24.626  1.00  0.00    -0.269 OA
ATOM      6  H   UNL A   1      39.396  19.732  25.791  1.00  0.00     0.163 HD
BRANCH   4   7
ATOM      7  C   UNL A   1      36.648  21.367  24.721  1.00  0.00     0.042 A 
ATOM      8  C   UNL A   1      34.413  22.277  24.814  1.00  0.00     0.065 A 
ATOM      9  C   UNL A   1      35.283  21.192  24.895  1.00  0.00     0.042 A 
ATOM     10  C   UNL A   1      34.828  23.537  24.316  1.00  0.00     0.061 A 
ATOM     11  C   UNL A   1      36.189  23.678  24.035  1.00  0.00     0.029 A 
ATOM     12  C   UNL A   1      37.091  22.624  24.278  1.00  0.00     0.016 A 
BRANCH   8  13
ATOM     13  N   UNL A   1      33.091  22.119  25.263  1.00  0.00    -0.320 N 
ATOM     14  C   UNL A   1      32.254  21.018  25.171  1.00  0.00     0.255 C 
ATOM     15  O   UNL A   1      31.162  21.079  25.745  1.00  0.00    -0.269 OA
ATOM     16  H   UNL A   1      32.703  22.905  25.712  1.00  0.00     0.170 HD
BRANCH  14  17
ATOM     17  C   UNL A   1      32.606  19.728  24.485  1.00  0.00     0.040 A 
ATOM     18  C   UNL A   1      34.625  16.507  24.879  1.00  0.00     0.044 C 
ATOM     19  C   UNL A   1      33.691  17.542  24.312  1.00  0.00    -0.050 A 
ATOM     20  C   UNL A   1      33.302  17.455  22.972  1.00  0.00     0.003 A 
ATOM     21  C   UNL A   1      33.276  18.647  25.079  1.00  0.00     0.017 A 
ATOM     22  C   UNL A   1      32.527  18.460  22.403  1.00  0.00     0.001 A 
ATOM     23  C   UNL A   1      32.196  19.594  23.150  1.00  0.00     0.014 A 
ENDBRANCH  14  17
ENDBRANCH   8  13
BRANCH  10  24
ATOM     24  N   UNL A   1      33.932  24.594  24.208  1.00  0.00    -0.359 N 
ATOM     25  C   UNL A   1      33.573  25.238  22.930  1.00  0.00     0.178 C 
ATOM     26  C   UNL A   1      33.908  25.546  25.319  1.00  0.00     0.178 C 
ATOM     27  C   UNL A   1      32.246  26.064  23.071  1.00  0.00     0.284 C 
ATOM     28  C   UNL A   1      32.468  26.057  25.486  1.00  0.00     0.284 C 
ATOM     29  N   UNL A   1      31.984  26.808  24.326  1.00  0.00    -0.324 N 
ATOM     30  H   UNL A   1      30.968  26.873  24.384  1.00  0.00     0.348 HD
BRANCH  29  31
ATOM     31  C   UNL A   1      32.357  28.235  24.343  1.00  0.00     0.363 C 
BRANCH  31  32
ATOM     32  C   UNL A   1      32.347  28.942  22.994  1.00  0.00     0.275 C 
ATOM     33  O   UNL A   1      33.408  29.097  22.375  1.00  0.00    -0.268 OA
ATOM     34  N   UNL A   1      31.230  29.435  22.391  1.00  0.00    -0.347 N 
ATOM     35  H   UNL A   1      31.437  29.714  21.469  1.00  0.00     0.164 HD
BRANCH  34  36
ATOM     36  C   UNL A   1      29.792  29.683  22.690  1.00  0.00     0.032 C 
ATOM     37  C   UNL A   1      29.625  30.653  23.876  1.00  0.00     0.034 C 
ATOM     38  C   UNL A   1      29.212  30.409  21.456  1.00  0.00     0.034 C 
ATOM     39  C   UNL A   1      28.949  28.427  22.924  1.00  0.00     0.034 C 
ENDBRANCH  34  36
ENDBRANCH  31  32
ENDBRANCH  29  31
ENDBRANCH  10  24
ENDBRANCH   4   7
ENDBRANCH   2   3
ENDBRANCH   1   2
BRANCH   1  40
ATOM     40  C   UNL A   1      40.778  22.140  28.332  1.00  0.00     0.002 C 
BRANCH  40  41
ATOM     41  C   UNL A   1      42.076  22.882  28.695  1.00  0.00     0.002 C 
BRANCH  41  42
ATOM     42  C   UNL A   1      43.377  22.182  28.290  1.00  0.00     0.021 C 
BRANCH  42  43
ATOM     43  C   UNL A   1      44.283  23.044  27.422  1.00  0.00     0.116 C 
BRANCH  43  44
ATOM     44  N   UNL A   1      44.155  22.759  25.998  1.00  0.00    -0.352 N 
ATOM     45  C   UNL A   1      43.395  23.394  25.026  1.00  0.00     0.251 C 
ATOM     46  H   UNL A   1      44.691  21.998  25.675  1.00  0.00     0.163 HD
ATOM     47  O   UNL A   1      43.404  22.993  23.880  1.00  0.00    -0.269 OA
BRANCH  45  48
ATOM     48  C   UNL A   1      42.700  24.660  25.372  1.00  0.00     0.039 A 
ATOM     49  C   UNL A   1      43.480  25.820  25.426  1.00  0.00     0.014 A 
ATOM     50  C   UNL A   1      41.404  24.656  25.877  1.00  0.00     0.014 A 
ATOM     51  C   UNL A   1      43.073  26.872  26.238  1.00  0.00     0.010 A 
ATOM     52  C   UNL A   1      41.039  25.656  26.755  1.00  0.00     0.010 A 
ATOM     53  C   UNL A   1      41.917  26.718  27.001  1.00  0.00    -0.014 A 
BRANCH  53  54
ATOM     54  C   UNL A   1      41.629  27.532  28.174  1.00  0.00     0.031 A 
ATOM     55  C   UNL A   1      40.628  28.610  28.114  1.00  0.00     0.074 A 
ATOM     56  C   UNL A   1      42.231  27.231  29.347  1.00  0.00     0.049 A 
ATOM     57  N   UNL A   1      40.545  29.574  28.965  1.00  0.00    -0.248 NA
ATOM     58  C   UNL A   1      39.650  28.703  27.039  1.00  0.00     0.031 C 
ATOM     59  C   UNL A   1      41.890  27.721  30.678  1.00  0.00     0.029 A 
ATOM     60  N   UNL A   1      43.457  26.575  29.522  1.00  0.00    -0.354 N 
ATOM     61  C   UNL A   1      39.376  30.256  28.721  1.00  0.00     0.074 A 
ATOM     62  C   UNL A   1      38.887  29.709  27.475  1.00  0.00     0.031 C 
ATOM     63  C   UNL A   1      42.977  27.631  31.460  1.00  0.00     0.029 A 
ATOM     64  C   UNL A   1      44.083  27.226  30.609  1.00  0.00     0.049 A 
ATOM     65  H   UNL A   1      43.809  25.819  28.998  1.00  0.00     0.167 HD
ATOM     66  C   UNL A   1      38.905  31.123  29.663  1.00  0.00     0.037 A 
ATOM     67  C   UNL A   1      45.237  27.932  30.429  1.00  0.00     0.037 A 
ATOM     68  C   UNL A   1      39.856  31.287  30.765  1.00  0.00     0.049 A 
ATOM     69  C   UNL A   1      45.144  29.406  30.773  1.00  0.00     0.074 A 
ATOM     70  C   UNL A   1      39.967  30.764  32.043  1.00  0.00     0.029 A 
ATOM     71  N   UNL A   1      41.069  31.895  30.499  1.00  0.00    -0.354 N 
ATOM     72  N   UNL A   1      44.044  30.021  31.109  1.00  0.00    -0.248 NA
ATOM     73  C   UNL A   1      46.279  30.324  30.656  1.00  0.00     0.031 C 
ATOM     74  C   UNL A   1      41.273  31.060  32.533  1.00  0.00     0.029 A 
ATOM     75  C   UNL A   1      41.949  31.764  31.555  1.00  0.00     0.049 A 
ATOM     76  H   UNL A   1      41.279  32.363  29.660  1.00  0.00     0.167 HD
ATOM     77  C   UNL A   1      44.283  31.369  31.177  1.00  0.00     0.074 A 
ATOM     78  C   UNL A   1      45.697  31.511  30.894  1.00  0.00     0.031 C 
ATOM     79  C   UNL A   1      43.297  32.284  31.406  1.00  0.00     0.037 A 
BRANCH  66  80
ATOM     80  C   UNL A   1      37.486  31.642  29.700  1.00  0.00     0.057 A 
ATOM     81  C   UNL A   1      37.171  32.910  29.172  1.00  0.00     0.134 A 
ATOM     82  C   UNL A   1      36.394  30.979  30.285  1.00  0.00     0.134 A 
ATOM     83  F   UNL A   1      38.062  33.626  28.474  1.00  0.00    -0.206 F 
ATOM     84  C   UNL A   1      35.917  33.516  29.333  1.00  0.00     0.040 A 
ATOM     85  C   UNL A   1      35.153  31.594  30.508  1.00  0.00     0.040 A 
ATOM     86  F   UNL A   1      36.451  29.682  30.611  1.00  0.00    -0.206 F 
ATOM     87  C   UNL A   1      34.915  32.877  30.044  1.00  0.00     0.006 A 
ENDBRANCH  66  80
BRANCH  67  88
ATOM     88  C   UNL A   1      46.099  27.372  29.352  1.00  0.00     0.057 A 
ATOM     89  C   UNL A   1      46.781  26.163  29.582  1.00  0.00     0.134 A 
ATOM     90  C   UNL A   1      45.995  27.801  28.026  1.00  0.00     0.134 A 
ATOM     91  F   UNL A   1      46.917  25.690  30.831  1.00  0.00    -0.206 F 
ATOM     92  C   UNL A   1      47.234  25.360  28.532  1.00  0.00     0.040 A 
ATOM     93  C   UNL A   1      46.465  27.016  26.968  1.00  0.00     0.040 A 
ATOM     94  F   UNL A   1      45.341  28.931  27.720  1.00  0.00    -0.206 F 
ATOM     95  C   UNL A   1      47.049  25.775  27.217  1.00  0.00     0.006 A 
ENDBRANCH  67  88
BRANCH  79  96
ATOM     96  C   UNL A   1      43.545  33.762  31.478  1.00  0.00     0.057 A 
ATOM     97  C   UNL A   1      43.559  34.464  32.690  1.00  0.00     0.134 A 
ATOM     98  C   UNL A   1      43.664  34.547  30.315  1.00  0.00     0.134 A 
ATOM     99  F   UNL A   1      43.397  33.827  33.860  1.00  0.00    -0.206 F 
ATOM    100  C   UNL A   1      43.720  35.855  32.744  1.00  0.00     0.040 A 
ATOM    101  C   UNL A   1      43.776  35.939  30.353  1.00  0.00     0.040 A 
ATOM    102  F   UNL A   1      43.702  33.994  29.093  1.00  0.00    -0.206 F 
ATOM    103  C   UNL A   1      43.816  36.597  31.573  1.00  0.00     0.006 A 
ENDBRANCH  79  96
ENDBRANCH  53  54
ENDBRANCH  45  48
ENDBRANCH  43  44
ENDBRANCH  42  43
ENDBRANCH  41  42
ENDBRANCH  40  41
ENDBRANCH   1  40
TORSDOF 19
ENDMDL
