MODEL 1
REMARK VINA RESULT:     -11.5      0.000      0.000
REMARK SMILES N#Cc1cc([N+](=O)[O-])cnc1Oc1csc(C(=O)NCCCCCCNC(=O)c2ccc(-c3c4nc(c(-c5c(F)cccc5F)c5ccc([nH]5)c(-c5c(F)cccc5F)c5nc(c(-c6c(F)cccc6F)c6ccc3[nH]6)C=C5)C=C4)cc2)c1
REMARK SMILES IDX 22 1 21 2 20 3 19 4 17 5 18 6 16 8 13 9 14 10 83 11 15 12
REMARK SMILES IDX 12 13 11 14 3 15 4 16 5 17 10 18 9 19 2 20 1 21 6 22 7 23
REMARK SMILES IDX 8 24 23 25 24 26 25 27 26 28 27 29 28 31 29 32 30 33 82 34
REMARK SMILES IDX 31 35 81 36 32 37 33 38 34 39 75 40 35 41 80 42 74 43 76 44
REMARK SMILES IDX 36 45 79 46 73 47 72 48 37 50 63 51 46 52 62 53 47 54 50 55
REMARK SMILES IDX 61 56 77 57 48 58 49 59 60 61 78 62 51 63 38 64 39 65 44 66
REMARK SMILES IDX 40 67 41 68 43 69 45 70 42 71 64 72 65 73 70 74 66 75 67 76
REMARK SMILES IDX 69 77 71 78 68 79 52 80 53 81 58 82 54 83 55 84 57 85 59 86
REMARK SMILES IDX 56 87
REMARK H PARENT 19 7 26 30 76 49 50 60
REMARK Flexibility Score: inf
ROOT
ATOM      1  C   UNL A   1      32.343  29.581  26.848  1.00  0.00     0.002 C 
ENDROOT
BRANCH   1   2
ATOM      2  C   UNL A   1      31.727  28.206  27.144  1.00  0.00     0.021 C 
BRANCH   2   3
ATOM      3  C   UNL A   1      32.185  27.131  26.157  1.00  0.00     0.116 C 
BRANCH   3   4
ATOM      4  N   UNL A   1      31.108  26.795  25.251  1.00  0.00    -0.351 N 
ATOM      5  C   UNL A   1      30.811  25.661  24.537  1.00  0.00     0.261 C 
ATOM      6  O   UNL A   1      29.756  25.711  23.899  1.00  0.00    -0.268 OA
ATOM      7  H   UNL A   1      30.461  27.525  25.120  1.00  0.00     0.163 HD
BRANCH   5   8
ATOM      8  C   UNL A   1      31.673  24.489  24.575  1.00  0.00     0.096 A 
ATOM      9  C   UNL A   1      32.857  22.566  25.150  1.00  0.00     0.141 A 
ATOM     10  C   UNL A   1      33.153  22.638  23.813  1.00  0.00     0.112 A 
ATOM     11  C   UNL A   1      32.042  23.636  25.599  1.00  0.00     0.072 A 
ATOM     12  S   UNL A   1      32.449  24.023  23.102  1.00  0.00    -0.135 S 
BRANCH   9  13
ATOM     13  O   UNL A   1      33.229  21.532  25.924  1.00  0.00    -0.437 OA
BRANCH  13  14
ATOM     14  C   UNL A   1      33.536  20.284  25.455  1.00  0.00     0.237 A 
ATOM     15  C   UNL A   1      34.772  19.818  25.001  1.00  0.00     0.121 A 
ATOM     16  C   UNL A   1      34.835  18.527  24.453  1.00  0.00     0.112 A 
ATOM     17  C   UNL A   1      33.685  17.740  24.407  1.00  0.00     0.289 A 
ATOM     18  N   UNL A   1      32.425  19.493  25.444  1.00  0.00    -0.213 NA
ATOM     19  C   UNL A   1      32.513  18.242  24.934  1.00  0.00     0.200 A 
BRANCH  15  20
ATOM     20  C   UNL A   1      35.997  20.549  25.071  1.00  0.00     0.105 C 
ATOM     21  N   UNL A   1      36.983  21.148  25.201  1.00  0.00    -0.192 NA
ENDBRANCH  15  20
BRANCH  17  22
ATOM     22  N   UNL A   1      33.703  16.418  23.801  1.00  0.00     0.064 N 
ATOM     23  O   UNL A   1      34.141  16.321  22.647  1.00  0.00    -0.258 OA
ATOM     24  O   UNL A   1      33.287  15.474  24.483  1.00  0.00    -0.258 OA
ENDBRANCH  17  22
ENDBRANCH  13  14
ENDBRANCH   9  13
ENDBRANCH   5   8
ENDBRANCH   3   4
ENDBRANCH   2   3
ENDBRANCH   1   2
BRANCH   1  25
ATOM     25  C   UNL A   1      31.459  30.501  25.996  1.00  0.00     0.002 C 
BRANCH  25  26
ATOM     26  C   UNL A   1      31.378  31.944  26.500  1.00  0.00     0.021 C 
BRANCH  26  27
ATOM     27  C   UNL A   1      32.673  32.444  27.127  1.00  0.00     0.116 C 
BRANCH  27  28
ATOM     28  N   UNL A   1      32.562  33.838  27.529  1.00  0.00    -0.352 N 
ATOM     29  C   UNL A   1      33.191  34.496  28.553  1.00  0.00     0.251 C 
ATOM     30  H   UNL A   1      31.947  34.385  26.989  1.00  0.00     0.163 HD
ATOM     31  O   UNL A   1      32.786  35.593  28.927  1.00  0.00    -0.269 OA
BRANCH  29  32
ATOM     32  C   UNL A   1      34.354  33.871  29.211  1.00  0.00     0.039 A 
ATOM     33  C   UNL A   1      34.138  32.932  30.221  1.00  0.00     0.014 A 
ATOM     34  C   UNL A   1      35.655  34.215  28.831  1.00  0.00     0.014 A 
ATOM     35  C   UNL A   1      35.230  32.299  30.814  1.00  0.00     0.010 A 
ATOM     36  C   UNL A   1      36.736  33.518  29.359  1.00  0.00     0.010 A 
ATOM     37  C   UNL A   1      36.535  32.560  30.362  1.00  0.00    -0.014 A 
BRANCH  37  38
ATOM     38  C   UNL A   1      37.700  31.836  30.928  1.00  0.00     0.031 A 
ATOM     39  C   UNL A   1      38.213  32.181  32.300  1.00  0.00     0.074 A 
ATOM     40  C   UNL A   1      38.327  30.903  30.185  1.00  0.00     0.049 A 
ATOM     41  N   UNL A   1      39.240  31.689  32.944  1.00  0.00    -0.248 NA
ATOM     42  C   UNL A   1      37.493  33.233  33.036  1.00  0.00     0.031 C 
ATOM     43  C   UNL A   1      37.947  30.507  28.827  1.00  0.00     0.029 A 
ATOM     44  N   UNL A   1      39.418  30.119  30.464  1.00  0.00    -0.354 N 
ATOM     45  C   UNL A   1      39.296  32.378  34.150  1.00  0.00     0.074 A 
ATOM     46  C   UNL A   1      38.234  33.360  34.126  1.00  0.00     0.031 C 
ATOM     47  C   UNL A   1      38.767  29.530  28.408  1.00  0.00     0.029 A 
ATOM     48  C   UNL A   1      39.762  29.268  29.441  1.00  0.00     0.049 A 
ATOM     49  H   UNL A   1      39.908  30.163  31.317  1.00  0.00     0.167 HD
ATOM     50  C   UNL A   1      40.143  32.194  35.190  1.00  0.00     0.037 A 
ATOM     51  C   UNL A   1      40.772  28.383  29.346  1.00  0.00     0.037 A 
ATOM     52  C   UNL A   1      41.187  31.204  35.213  1.00  0.00     0.049 A 
ATOM     53  C   UNL A   1      41.721  28.229  30.503  1.00  0.00     0.074 A 
ATOM     54  C   UNL A   1      42.057  30.897  36.245  1.00  0.00     0.029 A 
ATOM     55  N   UNL A   1      41.512  30.370  34.154  1.00  0.00    -0.354 N 
ATOM     56  N   UNL A   1      41.713  28.832  31.668  1.00  0.00    -0.248 NA
ATOM     57  C   UNL A   1      42.820  27.268  30.333  1.00  0.00     0.031 C 
ATOM     58  C   UNL A   1      42.958  29.932  35.784  1.00  0.00     0.029 A 
ATOM     59  C   UNL A   1      42.597  29.578  34.494  1.00  0.00     0.049 A 
ATOM     60  H   UNL A   1      41.042  30.344  33.290  1.00  0.00     0.167 HD
ATOM     61  C   UNL A   1      42.776  28.294  32.382  1.00  0.00     0.074 A 
ATOM     62  C   UNL A   1      43.397  27.307  31.525  1.00  0.00     0.031 C 
ATOM     63  C   UNL A   1      43.200  28.590  33.635  1.00  0.00     0.037 A 
BRANCH  50  64
ATOM     64  C   UNL A   1      39.990  33.090  36.386  1.00  0.00     0.057 A 
ATOM     65  C   UNL A   1      40.741  34.262  36.541  1.00  0.00     0.134 A 
ATOM     66  C   UNL A   1      39.034  32.803  37.370  1.00  0.00     0.134 A 
ATOM     67  F   UNL A   1      41.681  34.593  35.643  1.00  0.00    -0.206 F 
ATOM     68  C   UNL A   1      40.565  35.103  37.642  1.00  0.00     0.040 A 
ATOM     69  C   UNL A   1      38.824  33.654  38.457  1.00  0.00     0.040 A 
ATOM     70  F   UNL A   1      38.274  31.701  37.281  1.00  0.00    -0.206 F 
ATOM     71  C   UNL A   1      39.596  34.804  38.598  1.00  0.00     0.006 A 
ENDBRANCH  50  64
BRANCH  51  72
ATOM     72  C   UNL A   1      40.941  27.562  28.118  1.00  0.00     0.057 A 
ATOM     73  C   UNL A   1      41.695  28.028  27.033  1.00  0.00     0.134 A 
ATOM     74  C   UNL A   1      40.325  26.311  27.980  1.00  0.00     0.134 A 
ATOM     75  F   UNL A   1      42.298  29.225  27.096  1.00  0.00    -0.206 F 
ATOM     76  C   UNL A   1      41.797  27.302  25.845  1.00  0.00     0.040 A 
ATOM     77  C   UNL A   1      40.448  25.559  26.810  1.00  0.00     0.040 A 
ATOM     78  F   UNL A   1      39.596  25.800  28.983  1.00  0.00    -0.206 F 
ATOM     79  C   UNL A   1      41.173  26.062  25.733  1.00  0.00     0.006 A 
ENDBRANCH  51  72
BRANCH  63  80
ATOM     80  C   UNL A   1      44.357  27.800  34.179  1.00  0.00     0.057 A 
ATOM     81  C   UNL A   1      44.186  26.568  34.822  1.00  0.00     0.134 A 
ATOM     82  C   UNL A   1      45.670  28.267  34.021  1.00  0.00     0.134 A 
ATOM     83  F   UNL A   1      42.956  26.066  35.017  1.00  0.00    -0.206 F 
ATOM     84  C   UNL A   1      45.273  25.844  35.316  1.00  0.00     0.040 A 
ATOM     85  C   UNL A   1      46.767  27.535  34.477  1.00  0.00     0.040 A 
ATOM     86  F   UNL A   1      45.908  29.433  33.403  1.00  0.00    -0.206 F 
ATOM     87  C   UNL A   1      46.569  26.324  35.135  1.00  0.00     0.006 A 
ENDBRANCH  63  80
ENDBRANCH  37  38
ENDBRANCH  29  32
ENDBRANCH  27  28
ENDBRANCH  26  27
ENDBRANCH  25  26
ENDBRANCH   1  25
TORSDOF 17
ENDMDL
MODEL 2
REMARK VINA RESULT:     -11.5      4.806     10.264
REMARK SMILES N#Cc1cc([N+](=O)[O-])cnc1Oc1csc(C(=O)NCCCCCCNC(=O)c2ccc(-c3c4nc(c(-c5c(F)cccc5F)c5ccc([nH]5)c(-c5c(F)cccc5F)c5nc(c(-c6c(F)cccc6F)c6ccc3[nH]6)C=C5)C=C4)cc2)c1
REMARK SMILES IDX 22 1 21 2 20 3 19 4 17 5 18 6 16 8 13 9 14 10 83 11 15 12
REMARK SMILES IDX 12 13 11 14 3 15 4 16 5 17 10 18 9 19 2 20 1 21 6 22 7 23
REMARK SMILES IDX 8 24 23 25 24 26 25 27 26 28 27 29 28 31 29 32 30 33 82 34
REMARK SMILES IDX 31 35 81 36 32 37 33 38 34 39 75 40 35 41 80 42 74 43 76 44
REMARK SMILES IDX 36 45 79 46 73 47 72 48 37 50 63 51 46 52 62 53 47 54 50 55
REMARK SMILES IDX 61 56 77 57 48 58 49 59 60 61 78 62 51 63 38 64 39 65 44 66
REMARK SMILES IDX 40 67 41 68 43 69 45 70 42 71 64 72 65 73 70 74 66 75 67 76
REMARK SMILES IDX 69 77 71 78 68 79 52 80 53 81 58 82 54 83 55 84 57 85 59 86
REMARK SMILES IDX 56 87
REMARK H PARENT 19 7 26 30 76 49 50 60
REMARK Flexibility Score: inf
ROOT
ATOM      1  C   UNL A   1      37.556  21.861  25.009  1.00  0.00     0.002 C 
ENDROOT
BRANCH   1   2
ATOM      2  C   UNL A   1      36.614  22.940  24.457  1.00  0.00     0.021 C 
BRANCH   2   3
ATOM      3  C   UNL A   1      36.007  23.812  25.557  1.00  0.00     0.116 C 
BRANCH   3   4
ATOM      4  N   UNL A   1      35.374  22.981  26.558  1.00  0.00    -0.351 N 
ATOM      5  C   UNL A   1      34.184  22.297  26.584  1.00  0.00     0.261 C 
ATOM      6  O   UNL A   1      33.992  21.628  27.603  1.00  0.00    -0.268 OA
ATOM      7  H   UNL A   1      35.901  22.887  27.384  1.00  0.00     0.163 HD
BRANCH   5   8
ATOM      8  C   UNL A   1      33.253  22.343  25.466  1.00  0.00     0.096 A 
ATOM      9  C   UNL A   1      31.653  22.922  23.873  1.00  0.00     0.141 A 
ATOM     10  C   UNL A   1      32.108  21.744  23.338  1.00  0.00     0.112 A 
ATOM     11  C   UNL A   1      32.278  23.253  25.103  1.00  0.00     0.072 A 
ATOM     12  S   UNL A   1      33.288  21.027  24.345  1.00  0.00    -0.135 S 
BRANCH   9  13
ATOM     13  O   UNL A   1      30.776  23.719  23.239  1.00  0.00    -0.437 OA
BRANCH  13  14
ATOM     14  C   UNL A   1      30.812  25.086  23.262  1.00  0.00     0.237 A 
ATOM     15  C   UNL A   1      31.605  25.935  22.489  1.00  0.00     0.121 A 
ATOM     16  C   UNL A   1      31.564  27.312  22.760  1.00  0.00     0.112 A 
ATOM     17  C   UNL A   1      30.717  27.794  23.758  1.00  0.00     0.289 A 
ATOM     18  N   UNL A   1      29.957  25.569  24.209  1.00  0.00    -0.213 NA
ATOM     19  C   UNL A   1      29.914  26.902  24.437  1.00  0.00     0.200 A 
BRANCH  15  20
ATOM     20  C   UNL A   1      32.449  25.515  21.415  1.00  0.00     0.105 C 
ATOM     21  N   UNL A   1      33.149  25.246  20.529  1.00  0.00    -0.192 NA
ENDBRANCH  15  20
BRANCH  17  22
ATOM     22  N   UNL A   1      30.686  29.208  24.098  1.00  0.00     0.064 N 
ATOM     23  O   UNL A   1      29.789  29.900  23.599  1.00  0.00    -0.258 OA
ATOM     24  O   UNL A   1      31.555  29.625  24.873  1.00  0.00    -0.258 OA
ENDBRANCH  17  22
ENDBRANCH  13  14
ENDBRANCH   9  13
ENDBRANCH   5   8
ENDBRANCH   3   4
ENDBRANCH   2   3
ENDBRANCH   1   2
BRANCH   1  25
ATOM     25  C   UNL A   1      37.125  20.423  24.694  1.00  0.00     0.002 C 
BRANCH  25  26
ATOM     26  C   UNL A   1      38.185  19.363  25.003  1.00  0.00     0.021 C 
BRANCH  26  27
ATOM     27  C   UNL A   1      39.309  19.868  25.899  1.00  0.00     0.116 C 
BRANCH  27  28
ATOM     28  N   UNL A   1      40.387  18.896  25.994  1.00  0.00    -0.352 N 
ATOM     29  C   UNL A   1      41.737  19.108  26.101  1.00  0.00     0.251 C 
ATOM     30  H   UNL A   1      40.107  17.952  25.978  1.00  0.00     0.163 HD
ATOM     31  O   UNL A   1      42.526  18.191  25.898  1.00  0.00    -0.269 OA
BRANCH  29  32
ATOM     32  C   UNL A   1      42.234  20.451  26.454  1.00  0.00     0.039 A 
ATOM     33  C   UNL A   1      42.725  21.279  25.444  1.00  0.00     0.014 A 
ATOM     34  C   UNL A   1      42.217  20.889  27.782  1.00  0.00     0.014 A 
ATOM     35  C   UNL A   1      43.151  22.570  25.761  1.00  0.00     0.010 A 
ATOM     36  C   UNL A   1      42.556  22.203  28.081  1.00  0.00     0.010 A 
ATOM     37  C   UNL A   1      43.035  23.054  27.075  1.00  0.00    -0.014 A 
BRANCH  37  38
ATOM     38  C   UNL A   1      43.409  24.450  27.412  1.00  0.00     0.031 A 
ATOM     39  C   UNL A   1      44.848  24.885  27.349  1.00  0.00     0.074 A 
ATOM     40  C   UNL A   1      42.458  25.311  27.824  1.00  0.00     0.049 A 
ATOM     41  N   UNL A   1      45.373  26.046  27.645  1.00  0.00    -0.248 NA
ATOM     42  C   UNL A   1      45.831  23.876  26.920  1.00  0.00     0.031 C 
ATOM     43  C   UNL A   1      41.034  24.997  27.961  1.00  0.00     0.029 A 
ATOM     44  N   UNL A   1      42.544  26.626  28.204  1.00  0.00    -0.354 N 
ATOM     45  C   UNL A   1      46.741  25.904  27.451  1.00  0.00     0.074 A 
ATOM     46  C   UNL A   1      46.974  24.530  27.066  1.00  0.00     0.031 C 
ATOM     47  C   UNL A   1      40.377  26.098  28.358  1.00  0.00     0.029 A 
ATOM     48  C   UNL A   1      41.336  27.179  28.556  1.00  0.00     0.049 A 
ATOM     49  H   UNL A   1      43.392  27.127  28.224  1.00  0.00     0.167 HD
ATOM     50  C   UNL A   1      47.712  26.840  27.565  1.00  0.00     0.037 A 
ATOM     51  C   UNL A   1      41.039  28.415  28.998  1.00  0.00     0.037 A 
ATOM     52  C   UNL A   1      47.471  28.210  27.934  1.00  0.00     0.049 A 
ATOM     53  C   UNL A   1      42.146  29.423  29.152  1.00  0.00     0.074 A 
ATOM     54  C   UNL A   1      48.380  29.251  28.016  1.00  0.00     0.029 A 
ATOM     55  N   UNL A   1      46.237  28.729  28.295  1.00  0.00    -0.354 N 
ATOM     56  N   UNL A   1      43.424  29.297  28.889  1.00  0.00    -0.248 NA
ATOM     57  C   UNL A   1      41.767  30.748  29.662  1.00  0.00     0.031 C 
ATOM     58  C   UNL A   1      47.711  30.378  28.500  1.00  0.00     0.029 A 
ATOM     59  C   UNL A   1      46.369  30.064  28.640  1.00  0.00     0.049 A 
ATOM     60  H   UNL A   1      45.392  28.223  28.304  1.00  0.00     0.167 HD
ATOM     61  C   UNL A   1      43.993  30.535  29.162  1.00  0.00     0.074 A 
ATOM     62  C   UNL A   1      42.918  31.401  29.596  1.00  0.00     0.031 C 
ATOM     63  C   UNL A   1      45.288  30.920  29.061  1.00  0.00     0.037 A 
BRANCH  50  64
ATOM     64  C   UNL A   1      49.130  26.416  27.304  1.00  0.00     0.057 A 
ATOM     65  C   UNL A   1      49.700  26.468  26.025  1.00  0.00     0.134 A 
ATOM     66  C   UNL A   1      49.954  26.005  28.360  1.00  0.00     0.134 A 
ATOM     67  F   UNL A   1      48.965  26.842  24.966  1.00  0.00    -0.206 F 
ATOM     68  C   UNL A   1      51.029  26.103  25.802  1.00  0.00     0.040 A 
ATOM     69  C   UNL A   1      51.294  25.671  28.155  1.00  0.00     0.040 A 
ATOM     70  F   UNL A   1      49.476  25.940  29.612  1.00  0.00    -0.206 F 
ATOM     71  C   UNL A   1      51.832  25.713  26.872  1.00  0.00     0.006 A 
ENDBRANCH  50  64
BRANCH  51  72
ATOM     72  C   UNL A   1      39.634  28.784  29.319  1.00  0.00     0.057 A 
ATOM     73  C   UNL A   1      39.127  28.641  30.616  1.00  0.00     0.134 A 
ATOM     74  C   UNL A   1      38.753  29.248  28.333  1.00  0.00     0.134 A 
ATOM     75  F   UNL A   1      39.915  28.187  31.602  1.00  0.00    -0.206 F 
ATOM     76  C   UNL A   1      37.790  28.909  30.915  1.00  0.00     0.040 A 
ATOM     77  C   UNL A   1      37.423  29.553  28.625  1.00  0.00     0.040 A 
ATOM     78  F   UNL A   1      39.175  29.417  27.072  1.00  0.00    -0.206 F 
ATOM     79  C   UNL A   1      36.934  29.369  29.916  1.00  0.00     0.006 A 
ENDBRANCH  51  72
BRANCH  63  80
ATOM     80  C   UNL A   1      45.610  32.354  29.373  1.00  0.00     0.057 A 
ATOM     81  C   UNL A   1      45.987  32.775  30.655  1.00  0.00     0.134 A 
ATOM     82  C   UNL A   1      45.577  33.324  28.362  1.00  0.00     0.134 A 
ATOM     83  F   UNL A   1      46.030  31.901  31.673  1.00  0.00    -0.206 F 
ATOM     84  C   UNL A   1      46.289  34.111  30.926  1.00  0.00     0.040 A 
ATOM     85  C   UNL A   1      45.913  34.655  28.612  1.00  0.00     0.040 A 
ATOM     86  F   UNL A   1      45.238  32.990  27.107  1.00  0.00    -0.206 F 
ATOM     87  C   UNL A   1      46.261  35.053  29.900  1.00  0.00     0.006 A 
ENDBRANCH  63  80
ENDBRANCH  37  38
ENDBRANCH  29  32
ENDBRANCH  27  28
ENDBRANCH  26  27
ENDBRANCH  25  26
ENDBRANCH   1  25
TORSDOF 17
ENDMDL
MODEL 3
REMARK VINA RESULT:     -11.4      1.577      2.576
REMARK SMILES N#Cc1cc([N+](=O)[O-])cnc1Oc1csc(C(=O)NCCCCCCNC(=O)c2ccc(-c3c4nc(c(-c5c(F)cccc5F)c5ccc([nH]5)c(-c5c(F)cccc5F)c5nc(c(-c6c(F)cccc6F)c6ccc3[nH]6)C=C5)C=C4)cc2)c1
REMARK SMILES IDX 22 1 21 2 20 3 19 4 17 5 18 6 16 8 13 9 14 10 83 11 15 12
REMARK SMILES IDX 12 13 11 14 3 15 4 16 5 17 10 18 9 19 2 20 1 21 6 22 7 23
REMARK SMILES IDX 8 24 23 25 24 26 25 27 26 28 27 29 28 31 29 32 30 33 82 34
REMARK SMILES IDX 31 35 81 36 32 37 33 38 34 39 75 40 35 41 80 42 74 43 76 44
REMARK SMILES IDX 36 45 79 46 73 47 72 48 37 50 63 51 46 52 62 53 47 54 50 55
REMARK SMILES IDX 61 56 77 57 48 58 49 59 60 61 78 62 51 63 38 64 39 65 44 66
REMARK SMILES IDX 40 67 41 68 43 69 45 70 42 71 64 72 65 73 70 74 66 75 67 76
REMARK SMILES IDX 69 77 71 78 68 79 52 80 53 81 58 82 54 83 55 84 57 85 59 86
REMARK SMILES IDX 56 87
REMARK H PARENT 19 7 26 30 76 49 50 60
REMARK Flexibility Score: inf
ROOT
ATOM      1  C   UNL A   1      31.936  29.783  26.768  1.00  0.00     0.002 C 
ENDROOT
BRANCH   1   2
ATOM      2  C   UNL A   1      31.806  28.425  26.064  1.00  0.00     0.021 C 
BRANCH   2   3
ATOM      3  C   UNL A   1      32.590  28.365  24.753  1.00  0.00     0.116 C 
BRANCH   3   4
ATOM      4  N   UNL A   1      31.690  28.502  23.628  1.00  0.00    -0.351 N 
ATOM      5  C   UNL A   1      31.069  27.587  22.815  1.00  0.00     0.261 C 
ATOM      6  O   UNL A   1      30.306  28.072  21.975  1.00  0.00    -0.268 OA
ATOM      7  H   UNL A   1      31.481  29.436  23.401  1.00  0.00     0.163 HD
BRANCH   5   8
ATOM      8  C   UNL A   1      31.283  26.156  22.974  1.00  0.00     0.096 A 
ATOM      9  C   UNL A   1      32.050  23.957  22.886  1.00  0.00     0.141 A 
ATOM     10  C   UNL A   1      31.101  23.840  23.870  1.00  0.00     0.112 A 
ATOM     11  C   UNL A   1      32.136  25.266  22.348  1.00  0.00     0.072 A 
ATOM     12  S   UNL A   1      30.299  25.327  24.129  1.00  0.00    -0.135 S 
BRANCH   9  13
ATOM     13  O   UNL A   1      32.872  22.950  22.545  1.00  0.00    -0.437 OA
BRANCH  13  14
ATOM     14  C   UNL A   1      33.969  22.565  23.266  1.00  0.00     0.237 A 
ATOM     15  C   UNL A   1      34.033  21.615  24.287  1.00  0.00     0.121 A 
ATOM     16  C   UNL A   1      35.247  21.460  24.975  1.00  0.00     0.112 A 
ATOM     17  C   UNL A   1      36.354  22.224  24.602  1.00  0.00     0.289 A 
ATOM     18  N   UNL A   1      35.065  23.279  22.882  1.00  0.00    -0.213 NA
ATOM     19  C   UNL A   1      36.233  23.096  23.541  1.00  0.00     0.200 A 
BRANCH  15  20
ATOM     20  C   UNL A   1      32.957  20.761  24.680  1.00  0.00     0.105 C 
ATOM     21  N   UNL A   1      32.039  20.105  24.951  1.00  0.00    -0.192 NA
ENDBRANCH  15  20
BRANCH  17  22
ATOM     22  N   UNL A   1      37.612  22.124  25.325  1.00  0.00     0.064 N 
ATOM     23  O   UNL A   1      37.981  23.111  25.975  1.00  0.00    -0.258 OA
ATOM     24  O   UNL A   1      38.228  21.054  25.249  1.00  0.00    -0.258 OA
ENDBRANCH  17  22
ENDBRANCH  13  14
ENDBRANCH   9  13
ENDBRANCH   5   8
ENDBRANCH   3   4
ENDBRANCH   2   3
ENDBRANCH   1   2
BRANCH   1  25
ATOM     25  C   UNL A   1      31.410  30.972  25.954  1.00  0.00     0.002 C 
BRANCH  25  26
ATOM     26  C   UNL A   1      31.314  32.283  26.738  1.00  0.00     0.021 C 
BRANCH  26  27
ATOM     27  C   UNL A   1      32.666  32.833  27.173  1.00  0.00     0.116 C 
BRANCH  27  28
ATOM     28  N   UNL A   1      32.551  34.202  27.652  1.00  0.00    -0.352 N 
ATOM     29  C   UNL A   1      33.173  34.803  28.715  1.00  0.00     0.251 C 
ATOM     30  H   UNL A   1      31.938  34.778  27.140  1.00  0.00     0.163 HD
ATOM     31  O   UNL A   1      32.765  35.877  29.146  1.00  0.00    -0.269 OA
BRANCH  29  32
ATOM     32  C   UNL A   1      34.334  34.143  29.344  1.00  0.00     0.039 A 
ATOM     33  C   UNL A   1      34.123  33.290  30.427  1.00  0.00     0.014 A 
ATOM     34  C   UNL A   1      35.627  34.371  28.863  1.00  0.00     0.014 A 
ATOM     35  C   UNL A   1      35.209  32.622  30.996  1.00  0.00     0.010 A 
ATOM     36  C   UNL A   1      36.692  33.638  29.372  1.00  0.00     0.010 A 
ATOM     37  C   UNL A   1      36.496  32.763  30.449  1.00  0.00    -0.014 A 
BRANCH  37  38
ATOM     38  C   UNL A   1      37.646  31.999  30.992  1.00  0.00     0.031 A 
ATOM     39  C   UNL A   1      38.168  32.295  32.372  1.00  0.00     0.074 A 
ATOM     40  C   UNL A   1      38.251  31.073  30.223  1.00  0.00     0.049 A 
ATOM     41  N   UNL A   1      39.185  31.764  33.001  1.00  0.00    -0.248 NA
ATOM     42  C   UNL A   1      37.472  33.342  33.138  1.00  0.00     0.031 C 
ATOM     43  C   UNL A   1      37.860  30.722  28.856  1.00  0.00     0.029 A 
ATOM     44  N   UNL A   1      39.324  30.258  30.478  1.00  0.00    -0.354 N 
ATOM     45  C   UNL A   1      39.258  32.419  34.224  1.00  0.00     0.074 A 
ATOM     46  C   UNL A   1      38.218  33.424  34.229  1.00  0.00     0.031 C 
ATOM     47  C   UNL A   1      38.657  29.739  28.409  1.00  0.00     0.029 A 
ATOM     48  C   UNL A   1      39.648  29.427  29.432  1.00  0.00     0.049 A 
ATOM     49  H   UNL A   1      39.817  30.268  31.331  1.00  0.00     0.167 HD
ATOM     50  C   UNL A   1      40.103  32.189  35.257  1.00  0.00     0.037 A 
ATOM     51  C   UNL A   1      40.638  28.524  29.311  1.00  0.00     0.037 A 
ATOM     52  C   UNL A   1      41.125  31.176  35.250  1.00  0.00     0.049 A 
ATOM     53  C   UNL A   1      41.586  28.318  30.461  1.00  0.00     0.074 A 
ATOM     54  C   UNL A   1      41.990  30.822  36.272  1.00  0.00     0.029 A 
ATOM     55  N   UNL A   1      41.430  30.364  34.169  1.00  0.00    -0.354 N 
ATOM     56  N   UNL A   1      41.593  28.889  31.642  1.00  0.00    -0.248 NA
ATOM     57  C   UNL A   1      42.663  27.339  30.263  1.00  0.00     0.031 C 
ATOM     58  C   UNL A   1      42.869  29.851  35.783  1.00  0.00     0.029 A 
ATOM     59  C   UNL A   1      42.498  29.539  34.485  1.00  0.00     0.049 A 
ATOM     60  H   UNL A   1      40.958  30.372  33.305  1.00  0.00     0.167 HD
ATOM     61  C   UNL A   1      42.646  28.309  32.339  1.00  0.00     0.074 A 
ATOM     62  C   UNL A   1      43.244  27.332  31.454  1.00  0.00     0.031 C 
ATOM     63  C   UNL A   1      43.078  28.562  33.598  1.00  0.00     0.037 A 
BRANCH  50  64
ATOM     64  C   UNL A   1      39.972  33.055  36.477  1.00  0.00     0.057 A 
ATOM     65  C   UNL A   1      40.744  34.210  36.659  1.00  0.00     0.134 A 
ATOM     66  C   UNL A   1      39.016  32.759  37.458  1.00  0.00     0.134 A 
ATOM     67  F   UNL A   1      41.684  34.548  35.764  1.00  0.00    -0.206 F 
ATOM     68  C   UNL A   1      40.587  35.024  37.782  1.00  0.00     0.040 A 
ATOM     69  C   UNL A   1      38.827  33.584  38.568  1.00  0.00     0.040 A 
ATOM     70  F   UNL A   1      38.237  31.672  37.345  1.00  0.00    -0.206 F 
ATOM     71  C   UNL A   1      39.619  34.717  38.735  1.00  0.00     0.006 A 
ENDBRANCH  50  64
BRANCH  51  72
ATOM     72  C   UNL A   1      40.788  27.732  28.061  1.00  0.00     0.057 A 
ATOM     73  C   UNL A   1      40.201  26.468  27.930  1.00  0.00     0.134 A 
ATOM     74  C   UNL A   1      41.552  28.199  26.983  1.00  0.00     0.134 A 
ATOM     75  F   UNL A   1      39.469  25.957  28.932  1.00  0.00    -0.206 F 
ATOM     76  C   UNL A   1      40.398  25.681  26.794  1.00  0.00     0.040 A 
ATOM     77  C   UNL A   1      41.729  27.437  25.827  1.00  0.00     0.040 A 
ATOM     78  F   UNL A   1      42.135  29.406  27.037  1.00  0.00    -0.206 F 
ATOM     79  C   UNL A   1      41.163  26.168  25.737  1.00  0.00     0.006 A 
ENDBRANCH  51  72
BRANCH  63  80
ATOM     80  C   UNL A   1      44.219  27.733  34.118  1.00  0.00     0.057 A 
ATOM     81  C   UNL A   1      45.549  28.167  34.054  1.00  0.00     0.134 A 
ATOM     82  C   UNL A   1      43.975  26.495  34.727  1.00  0.00     0.134 A 
ATOM     83  F   UNL A   1      45.856  29.339  33.475  1.00  0.00    -0.206 F 
ATOM     84  C   UNL A   1      46.597  27.388  34.547  1.00  0.00     0.040 A 
ATOM     85  C   UNL A   1      45.010  25.723  35.258  1.00  0.00     0.040 A 
ATOM     86  F   UNL A   1      42.724  26.023  34.835  1.00  0.00    -0.206 F 
ATOM     87  C   UNL A   1      46.326  26.165  35.159  1.00  0.00     0.006 A 
ENDBRANCH  63  80
ENDBRANCH  37  38
ENDBRANCH  29  32
ENDBRANCH  27  28
ENDBRANCH  26  27
ENDBRANCH  25  26
ENDBRANCH   1  25
TORSDOF 17
ENDMDL
