MODEL 1
REMARK VINA RESULT:     -10.1      0.000      0.000
REMARK SMILES CN(C)S(=O)(=O)c1ccc(-n2c(CCC(=O)NCCCCCCNC(=O)c3ccc(-c4c5nc(c(-c6c(F)cccc6F)c6ccc([nH]6)c(-c6c(F)cccc6F)c6nc(c(-c7c(F)cccc7F)c7ccc4[nH]7)C=C6)C=C5)cc3)ccc2-c2ccc(F)cc2)cc1
REMARK SMILES IDX 19 1 18 2 17 3 15 4 16 5 14 7 13 8 12 9 11 10 83 11 81 12
REMARK SMILES IDX 82 13 10 14 7 15 8 16 92 17 9 18 91 19 4 20 5 21 6 22 2 23
REMARK SMILES IDX 1 24 3 25 84 26 85 27 90 28 86 29 89 30 87 31 88 32 20 33
REMARK SMILES IDX 21 34 22 35 23 36 24 37 25 38 26 40 27 41 28 42 80 43 29 44
REMARK SMILES IDX 79 45 30 46 31 47 32 48 73 49 33 50 78 51 72 52 74 53 34 54
REMARK SMILES IDX 77 55 71 56 70 57 35 59 61 60 44 61 60 62 45 63 48 64 59 65
REMARK SMILES IDX 75 66 46 67 47 68 58 70 76 71 49 72 36 73 37 74 42 75 38 76
REMARK SMILES IDX 39 77 41 78 43 79 40 80 62 81 63 82 68 83 64 84 65 85 67 86
REMARK SMILES IDX 69 87 66 88 50 89 51 90 56 91 52 92 53 93 55 94 57 95 54 96
REMARK H PARENT 17 6 24 39 74 58 48 69
REMARK Flexibility Score: inf
ROOT
ATOM      1  C   UNL A   1      42.029  29.060  35.086  1.00  0.00     0.021 C 
ENDROOT
BRANCH   1   2
ATOM      2  C   UNL A   1      41.357  29.561  33.808  1.00  0.00     0.116 C 
BRANCH   2   3
ATOM      3  N   UNL A   1      40.062  28.941  33.567  1.00  0.00    -0.356 N 
ATOM      4  C   UNL A   1      39.596  28.244  32.491  1.00  0.00     0.220 C 
ATOM      5  O   UNL A   1      38.464  27.758  32.570  1.00  0.00    -0.275 OA
ATOM      6  H   UNL A   1      39.414  29.043  34.302  1.00  0.00     0.163 HD
BRANCH   4   7
ATOM      7  C   UNL A   1      40.405  28.099  31.212  1.00  0.00     0.106 C 
BRANCH   7   8
ATOM      8  C   UNL A   1      40.510  29.362  30.333  1.00  0.00     0.064 C 
BRANCH   8   9
ATOM      9  C   UNL A   1      39.354  29.561  29.376  1.00  0.00     0.024 A 
ATOM     10  N   UNL A   1      38.108  30.194  29.612  1.00  0.00    -0.314 N 
ATOM     11  C   UNL A   1      37.358  30.068  28.406  1.00  0.00     0.053 A 
ATOM     12  C   UNL A   1      39.344  29.050  28.087  1.00  0.00     0.024 A 
ATOM     13  C   UNL A   1      38.114  29.356  27.492  1.00  0.00     0.029 A 
BRANCH  10  14
ATOM     14  C   UNL A   1      37.709  31.000  30.762  1.00  0.00     0.046 A 
ATOM     15  C   UNL A   1      36.685  32.834  32.671  1.00  0.00     0.082 A 
ATOM     16  C   UNL A   1      36.070  31.599  32.488  1.00  0.00     0.024 A 
ATOM     17  C   UNL A   1      37.853  33.119  31.983  1.00  0.00     0.024 A 
ATOM     18  C   UNL A   1      36.600  30.682  31.560  1.00  0.00     0.028 A 
ATOM     19  C   UNL A   1      38.346  32.206  31.049  1.00  0.00     0.028 A 
BRANCH  15  20
ATOM     20  S   UNL A   1      36.135  33.977  33.910  1.00  0.00     0.242 S 
ATOM     21  O   UNL A   1      37.024  35.108  33.902  1.00  0.00    -0.207 OA
ATOM     22  O   UNL A   1      35.917  33.211  35.132  1.00  0.00    -0.207 OA
BRANCH  20  23
ATOM     23  N   UNL A   1      34.599  34.528  33.369  1.00  0.00    -0.204 NA
ATOM     24  C   UNL A   1      34.336  35.913  33.851  1.00  0.00     0.124 C 
ATOM     25  C   UNL A   1      34.362  34.440  31.910  1.00  0.00     0.124 C 
ENDBRANCH  20  23
ENDBRANCH  15  20
ENDBRANCH  10  14
BRANCH  11  26
ATOM     26  C   UNL A   1      36.133  30.816  28.079  1.00  0.00    -0.001 A 
ATOM     27  C   UNL A   1      34.923  30.200  27.761  1.00  0.00     0.013 A 
ATOM     28  C   UNL A   1      36.175  32.213  28.134  1.00  0.00     0.013 A 
ATOM     29  C   UNL A   1      33.770  30.983  27.598  1.00  0.00     0.040 A 
ATOM     30  C   UNL A   1      35.038  33.000  27.980  1.00  0.00     0.040 A 
ATOM     31  C   UNL A   1      33.835  32.371  27.728  1.00  0.00     0.123 A 
ATOM     32  F   UNL A   1      32.741  33.114  27.527  1.00  0.00    -0.207 F 
ENDBRANCH  11  26
ENDBRANCH   8   9
ENDBRANCH   7   8
ENDBRANCH   4   7
ENDBRANCH   2   3
ENDBRANCH   1   2
BRANCH   1  33
ATOM     33  C   UNL A   1      43.560  29.141  35.136  1.00  0.00     0.002 C 
BRANCH  33  34
ATOM     34  C   UNL A   1      44.291  29.113  36.507  1.00  0.00     0.002 C 
BRANCH  34  35
ATOM     35  C   UNL A   1      44.254  27.893  37.459  1.00  0.00     0.021 C 
BRANCH  35  36
ATOM     36  C   UNL A   1      45.575  27.195  37.897  1.00  0.00     0.116 C 
BRANCH  36  37
ATOM     37  N   UNL A   1      45.579  25.754  37.663  1.00  0.00    -0.352 N 
ATOM     38  C   UNL A   1      45.089  24.942  36.660  1.00  0.00     0.251 C 
ATOM     39  H   UNL A   1      46.032  25.251  38.379  1.00  0.00     0.163 HD
ATOM     40  O   UNL A   1      44.899  23.763  36.976  1.00  0.00    -0.269 OA
BRANCH  38  41
ATOM     41  C   UNL A   1      44.804  25.323  35.237  1.00  0.00     0.039 A 
ATOM     42  C   UNL A   1      45.897  25.702  34.429  1.00  0.00     0.014 A 
ATOM     43  C   UNL A   1      43.531  25.474  34.693  1.00  0.00     0.014 A 
ATOM     44  C   UNL A   1      45.723  26.197  33.122  1.00  0.00     0.010 A 
ATOM     45  C   UNL A   1      43.343  26.040  33.410  1.00  0.00     0.010 A 
ATOM     46  C   UNL A   1      44.440  26.362  32.591  1.00  0.00    -0.014 A 
BRANCH  46  47
ATOM     47  C   UNL A   1      44.278  26.443  31.097  1.00  0.00     0.031 A 
ATOM     48  C   UNL A   1      44.287  27.939  30.637  1.00  0.00     0.074 A 
ATOM     49  C   UNL A   1      44.125  25.302  30.339  1.00  0.00     0.049 A 
ATOM     50  N   UNL A   1      43.946  28.479  29.505  1.00  0.00    -0.248 NA
ATOM     51  C   UNL A   1      44.730  28.999  31.594  1.00  0.00     0.031 C 
ATOM     52  C   UNL A   1      44.189  23.919  30.863  1.00  0.00     0.029 A 
ATOM     53  N   UNL A   1      43.889  25.053  28.986  1.00  0.00    -0.354 N 
ATOM     54  C   UNL A   1      44.356  29.837  29.537  1.00  0.00     0.074 A 
ATOM     55  C   UNL A   1      44.746  30.118  30.876  1.00  0.00     0.031 C 
ATOM     56  C   UNL A   1      43.912  23.010  29.896  1.00  0.00     0.029 A 
ATOM     57  C   UNL A   1      43.665  23.682  28.631  1.00  0.00     0.049 A 
ATOM     58  H   UNL A   1      43.876  25.774  28.316  1.00  0.00     0.167 HD
ATOM     59  C   UNL A   1      44.479  30.616  28.424  1.00  0.00     0.037 A 
ATOM     60  C   UNL A   1      43.293  23.128  27.423  1.00  0.00     0.037 A 
ATOM     61  C   UNL A   1      43.947  29.935  27.302  1.00  0.00     0.049 A 
ATOM     62  C   UNL A   1      43.447  24.209  26.448  1.00  0.00     0.074 A 
ATOM     63  C   UNL A   1      42.665  29.601  26.962  1.00  0.00     0.029 A 
ATOM     64  N   UNL A   1      44.830  29.205  26.551  1.00  0.00    -0.354 N 
ATOM     65  N   UNL A   1      44.593  24.603  25.987  1.00  0.00    -0.248 NA
ATOM     66  C   UNL A   1      42.256  24.897  25.940  1.00  0.00     0.031 C 
ATOM     67  C   UNL A   1      42.816  28.336  26.370  1.00  0.00     0.029 A 
ATOM     68  C   UNL A   1      44.175  28.071  26.159  1.00  0.00     0.049 A 
ATOM     69  H   UNL A   1      45.760  29.450  26.336  1.00  0.00     0.167 HD
ATOM     70  C   UNL A   1      44.268  25.816  25.441  1.00  0.00     0.074 A 
ATOM     71  C   UNL A   1      42.856  25.765  25.127  1.00  0.00     0.031 C 
ATOM     72  C   UNL A   1      44.964  26.908  25.846  1.00  0.00     0.037 A 
BRANCH  59  73
ATOM     73  C   UNL A   1      45.258  31.874  28.155  1.00  0.00     0.057 A 
ATOM     74  C   UNL A   1      46.672  31.806  28.207  1.00  0.00     0.134 A 
ATOM     75  C   UNL A   1      44.709  33.156  28.256  1.00  0.00     0.134 A 
ATOM     76  F   UNL A   1      47.315  30.635  28.064  1.00  0.00    -0.206 F 
ATOM     77  C   UNL A   1      47.469  32.912  28.506  1.00  0.00     0.040 A 
ATOM     78  C   UNL A   1      45.507  34.282  28.505  1.00  0.00     0.040 A 
ATOM     79  F   UNL A   1      43.386  33.359  28.216  1.00  0.00    -0.206 F 
ATOM     80  C   UNL A   1      46.881  34.155  28.682  1.00  0.00     0.006 A 
ENDBRANCH  59  73
BRANCH  60  81
ATOM     81  C   UNL A   1      42.817  21.818  26.793  1.00  0.00     0.057 A 
ATOM     82  C   UNL A   1      43.533  21.013  25.909  1.00  0.00     0.134 A 
ATOM     83  C   UNL A   1      41.560  21.241  27.177  1.00  0.00     0.134 A 
ATOM     84  F   UNL A   1      44.673  21.440  25.354  1.00  0.00    -0.206 F 
ATOM     85  C   UNL A   1      43.100  19.714  25.541  1.00  0.00     0.040 A 
ATOM     86  C   UNL A   1      41.148  19.940  26.869  1.00  0.00     0.040 A 
ATOM     87  F   UNL A   1      40.647  21.919  27.886  1.00  0.00    -0.206 F 
ATOM     88  C   UNL A   1      41.933  19.155  26.057  1.00  0.00     0.006 A 
ENDBRANCH  60  81
BRANCH  72  89
ATOM     89  C   UNL A   1      46.375  26.598  26.325  1.00  0.00     0.057 A 
ATOM     90  C   UNL A   1      47.317  26.078  25.425  1.00  0.00     0.134 A 
ATOM     91  C   UNL A   1      46.791  26.652  27.664  1.00  0.00     0.134 A 
ATOM     92  F   UNL A   1      47.027  26.001  24.117  1.00  0.00    -0.206 F 
ATOM     93  C   UNL A   1      48.573  25.609  25.837  1.00  0.00     0.040 A 
ATOM     94  C   UNL A   1      48.046  26.196  28.094  1.00  0.00     0.040 A 
ATOM     95  F   UNL A   1      45.992  27.143  28.612  1.00  0.00    -0.206 F 
ATOM     96  C   UNL A   1      48.938  25.660  27.177  1.00  0.00     0.006 A 
ENDBRANCH  72  89
ENDBRANCH  46  47
ENDBRANCH  38  41
ENDBRANCH  36  37
ENDBRANCH  35  36
ENDBRANCH  34  35
ENDBRANCH  33  34
ENDBRANCH   1  33
TORSDOF 19
ENDMDL
MODEL 2
REMARK VINA RESULT:      -9.5      3.728      6.015
REMARK SMILES CN(C)S(=O)(=O)c1ccc(-n2c(CCC(=O)NCCCCCCNC(=O)c3ccc(-c4c5nc(c(-c6c(F)cccc6F)c6ccc([nH]6)c(-c6c(F)cccc6F)c6nc(c(-c7c(F)cccc7F)c7ccc4[nH]7)C=C6)C=C5)cc3)ccc2-c2ccc(F)cc2)cc1
REMARK SMILES IDX 19 1 18 2 17 3 15 4 16 5 14 7 13 8 12 9 11 10 83 11 81 12
REMARK SMILES IDX 82 13 10 14 7 15 8 16 92 17 9 18 91 19 4 20 5 21 6 22 2 23
REMARK SMILES IDX 1 24 3 25 84 26 85 27 90 28 86 29 89 30 87 31 88 32 20 33
REMARK SMILES IDX 21 34 22 35 23 36 24 37 25 38 26 40 27 41 28 42 80 43 29 44
REMARK SMILES IDX 79 45 30 46 31 47 32 48 73 49 33 50 78 51 72 52 74 53 34 54
REMARK SMILES IDX 77 55 71 56 70 57 35 59 61 60 44 61 60 62 45 63 48 64 59 65
REMARK SMILES IDX 75 66 46 67 47 68 58 70 76 71 49 72 36 73 37 74 42 75 38 76
REMARK SMILES IDX 39 77 41 78 43 79 40 80 62 81 63 82 68 83 64 84 65 85 67 86
REMARK SMILES IDX 69 87 66 88 50 89 51 90 56 91 52 92 53 93 55 94 57 95 54 96
REMARK H PARENT 17 6 24 39 74 58 48 69
REMARK Flexibility Score: inf
ROOT
ATOM      1  C   UNL A   1      39.172  34.163  41.164  1.00  0.00     0.021 C 
ENDROOT
BRANCH   1   2
ATOM      2  C   UNL A   1      38.751  32.745  40.777  1.00  0.00     0.116 C 
BRANCH   2   3
ATOM      3  N   UNL A   1      37.417  32.687  40.198  1.00  0.00    -0.356 N 
ATOM      4  C   UNL A   1      37.006  32.771  38.900  1.00  0.00     0.220 C 
ATOM      5  O   UNL A   1      35.802  32.621  38.670  1.00  0.00    -0.275 OA
ATOM      6  H   UNL A   1      36.690  32.569  40.852  1.00  0.00     0.163 HD
BRANCH   4   7
ATOM      7  C   UNL A   1      37.970  33.085  37.768  1.00  0.00     0.106 C 
BRANCH   7   8
ATOM      8  C   UNL A   1      37.327  33.464  36.419  1.00  0.00     0.064 C 
BRANCH   8   9
ATOM      9  C   UNL A   1      37.659  32.527  35.277  1.00  0.00     0.024 A 
ATOM     10  N   UNL A   1      37.024  32.408  34.015  1.00  0.00    -0.314 N 
ATOM     11  C   UNL A   1      37.683  31.346  33.331  1.00  0.00     0.053 A 
ATOM     12  C   UNL A   1      38.646  31.556  35.359  1.00  0.00     0.024 A 
ATOM     13  C   UNL A   1      38.657  30.826  34.165  1.00  0.00     0.029 A 
BRANCH  10  14
ATOM     14  C   UNL A   1      36.034  33.298  33.417  1.00  0.00     0.046 A 
ATOM     15  C   UNL A   1      33.931  35.069  32.710  1.00  0.00     0.082 A 
ATOM     16  C   UNL A   1      35.218  35.559  32.914  1.00  0.00     0.024 A 
ATOM     17  C   UNL A   1      33.708  33.703  32.762  1.00  0.00     0.024 A 
ATOM     18  C   UNL A   1      36.262  34.671  33.237  1.00  0.00     0.028 A 
ATOM     19  C   UNL A   1      34.753  32.845  33.108  1.00  0.00     0.028 A 
BRANCH  15  20
ATOM     20  S   UNL A   1      32.604  36.121  32.183  1.00  0.00     0.242 S 
ATOM     21  O   UNL A   1      32.900  37.462  32.608  1.00  0.00    -0.207 OA
ATOM     22  O   UNL A   1      31.360  35.472  32.581  1.00  0.00    -0.207 OA
BRANCH  20  23
ATOM     23  N   UNL A   1      32.666  36.102  30.465  1.00  0.00    -0.204 NA
ATOM     24  C   UNL A   1      33.271  37.360  29.945  1.00  0.00     0.124 C 
ATOM     25  C   UNL A   1      33.330  34.925  29.859  1.00  0.00     0.124 C 
ENDBRANCH  20  23
ENDBRANCH  15  20
ENDBRANCH  10  14
BRANCH  11  26
ATOM     26  C   UNL A   1      37.566  31.052  31.894  1.00  0.00    -0.001 A 
ATOM     27  C   UNL A   1      37.975  31.938  30.897  1.00  0.00     0.013 A 
ATOM     28  C   UNL A   1      37.063  29.805  31.510  1.00  0.00     0.013 A 
ATOM     29  C   UNL A   1      37.958  31.526  29.556  1.00  0.00     0.040 A 
ATOM     30  C   UNL A   1      37.046  29.383  30.185  1.00  0.00     0.040 A 
ATOM     31  C   UNL A   1      37.513  30.248  29.216  1.00  0.00     0.123 A 
ATOM     32  F   UNL A   1      37.457  29.878  27.931  1.00  0.00    -0.207 F 
ENDBRANCH  11  26
ENDBRANCH   8   9
ENDBRANCH   7   8
ENDBRANCH   4   7
ENDBRANCH   2   3
ENDBRANCH   1   2
BRANCH   1  33
ATOM     33  C   UNL A   1      40.342  34.771  40.381  1.00  0.00     0.002 C 
BRANCH  33  34
ATOM     34  C   UNL A   1      41.489  33.856  39.869  1.00  0.00     0.002 C 
BRANCH  34  35
ATOM     35  C   UNL A   1      42.055  33.936  38.430  1.00  0.00     0.021 C 
BRANCH  35  36
ATOM     36  C   UNL A   1      42.070  35.290  37.663  1.00  0.00     0.116 C 
BRANCH  36  37
ATOM     37  N   UNL A   1      40.798  35.615  37.026  1.00  0.00    -0.352 N 
ATOM     38  C   UNL A   1      40.321  35.526  35.734  1.00  0.00     0.251 C 
ATOM     39  H   UNL A   1      40.134  35.977  37.657  1.00  0.00     0.163 HD
ATOM     40  O   UNL A   1      39.365  36.262  35.468  1.00  0.00    -0.269 OA
BRANCH  38  41
ATOM     41  C   UNL A   1      40.804  34.614  34.644  1.00  0.00     0.039 A 
ATOM     42  C   UNL A   1      40.136  34.666  33.403  1.00  0.00     0.014 A 
ATOM     43  C   UNL A   1      41.764  33.619  34.806  1.00  0.00     0.014 A 
ATOM     44  C   UNL A   1      40.428  33.767  32.358  1.00  0.00     0.010 A 
ATOM     45  C   UNL A   1      42.011  32.665  33.791  1.00  0.00     0.010 A 
ATOM     46  C   UNL A   1      41.381  32.759  32.538  1.00  0.00    -0.014 A 
BRANCH  46  47
ATOM     47  C   UNL A   1      42.001  32.122  31.322  1.00  0.00     0.031 A 
ATOM     48  C   UNL A   1      42.912  33.157  30.582  1.00  0.00     0.074 A 
ATOM     49  C   UNL A   1      41.720  30.816  30.987  1.00  0.00     0.049 A 
ATOM     50  N   UNL A   1      43.437  33.125  29.393  1.00  0.00    -0.248 NA
ATOM     51  C   UNL A   1      43.281  34.434  31.267  1.00  0.00     0.031 C 
ATOM     52  C   UNL A   1      40.885  29.894  31.790  1.00  0.00     0.029 A 
ATOM     53  N   UNL A   1      42.065  29.986  29.919  1.00  0.00    -0.354 N 
ATOM     54  C   UNL A   1      44.354  34.203  29.300  1.00  0.00     0.074 A 
ATOM     55  C   UNL A   1      44.146  35.022  30.446  1.00  0.00     0.031 C 
ATOM     56  C   UNL A   1      40.715  28.705  31.159  1.00  0.00     0.029 A 
ATOM     57  C   UNL A   1      41.435  28.699  29.897  1.00  0.00     0.049 A 
ATOM     58  H   UNL A   1      42.703  30.267  29.224  1.00  0.00     0.167 HD
ATOM     59  C   UNL A   1      45.330  34.286  28.350  1.00  0.00     0.037 A 
ATOM     60  C   UNL A   1      41.470  27.711  28.933  1.00  0.00     0.037 A 
ATOM     61  C   UNL A   1      45.146  33.266  27.385  1.00  0.00     0.049 A 
ATOM     62  C   UNL A   1      42.542  28.111  28.021  1.00  0.00     0.074 A 
ATOM     63  C   UNL A   1      44.188  33.081  26.426  1.00  0.00     0.029 A 
ATOM     64  N   UNL A   1      45.830  32.097  27.589  1.00  0.00    -0.354 N 
ATOM     65  N   UNL A   1      43.803  27.980  28.292  1.00  0.00    -0.248 NA
ATOM     66  C   UNL A   1      42.201  28.687  26.716  1.00  0.00     0.031 C 
ATOM     67  C   UNL A   1      43.999  31.689  26.436  1.00  0.00     0.029 A 
ATOM     68  C   UNL A   1      45.001  31.080  27.204  1.00  0.00     0.049 A 
ATOM     69  H   UNL A   1      46.743  32.006  27.946  1.00  0.00     0.167 HD
ATOM     70  C   UNL A   1      44.373  28.802  27.357  1.00  0.00     0.074 A 
ATOM     71  C   UNL A   1      43.435  28.895  26.259  1.00  0.00     0.031 C 
ATOM     72  C   UNL A   1      45.208  29.781  27.789  1.00  0.00     0.037 A 
BRANCH  59  73
ATOM     73  C   UNL A   1      46.621  35.056  28.295  1.00  0.00     0.057 A 
ATOM     74  C   UNL A   1      46.980  35.669  27.069  1.00  0.00     0.134 A 
ATOM     75  C   UNL A   1      47.663  34.879  29.212  1.00  0.00     0.134 A 
ATOM     76  F   UNL A   1      46.055  35.941  26.134  1.00  0.00    -0.206 F 
ATOM     77  C   UNL A   1      48.305  35.931  26.718  1.00  0.00     0.040 A 
ATOM     78  C   UNL A   1      48.991  35.188  28.887  1.00  0.00     0.040 A 
ATOM     79  F   UNL A   1      47.456  34.315  30.409  1.00  0.00    -0.206 F 
ATOM     80  C   UNL A   1      49.321  35.666  27.622  1.00  0.00     0.006 A 
ENDBRANCH  59  73
BRANCH  60  81
ATOM     81  C   UNL A   1      40.807  26.391  28.535  1.00  0.00     0.057 A 
ATOM     82  C   UNL A   1      39.519  26.228  28.030  1.00  0.00     0.134 A 
ATOM     83  C   UNL A   1      41.555  25.166  28.558  1.00  0.00     0.134 A 
ATOM     84  F   UNL A   1      38.640  27.237  28.040  1.00  0.00    -0.206 F 
ATOM     85  C   UNL A   1      39.062  24.998  27.490  1.00  0.00     0.040 A 
ATOM     86  C   UNL A   1      41.139  23.962  27.977  1.00  0.00     0.040 A 
ATOM     87  F   UNL A   1      42.751  25.067  29.154  1.00  0.00    -0.206 F 
ATOM     88  C   UNL A   1      39.886  23.878  27.418  1.00  0.00     0.006 A 
ENDBRANCH  60  81
BRANCH  72  89
ATOM     89  C   UNL A   1      45.901  29.465  29.105  1.00  0.00     0.057 A 
ATOM     90  C   UNL A   1      46.799  28.390  29.178  1.00  0.00     0.134 A 
ATOM     91  C   UNL A   1      45.605  30.083  30.330  1.00  0.00     0.134 A 
ATOM     92  F   UNL A   1      47.165  27.741  28.062  1.00  0.00    -0.206 F 
ATOM     93  C   UNL A   1      47.335  27.938  30.393  1.00  0.00     0.040 A 
ATOM     94  C   UNL A   1      46.138  29.651  31.553  1.00  0.00     0.040 A 
ATOM     95  F   UNL A   1      44.779  31.128  30.389  1.00  0.00    -0.206 F 
ATOM     96  C   UNL A   1      46.999  28.564  31.588  1.00  0.00     0.006 A 
ENDBRANCH  72  89
ENDBRANCH  46  47
ENDBRANCH  38  41
ENDBRANCH  36  37
ENDBRANCH  35  36
ENDBRANCH  34  35
ENDBRANCH  33  34
ENDBRANCH   1  33
TORSDOF 19
ENDMDL
MODEL 3
REMARK VINA RESULT:      -9.1      4.475      8.676
REMARK SMILES CN(C)S(=O)(=O)c1ccc(-n2c(CCC(=O)NCCCCCCNC(=O)c3ccc(-c4c5nc(c(-c6c(F)cccc6F)c6ccc([nH]6)c(-c6c(F)cccc6F)c6nc(c(-c7c(F)cccc7F)c7ccc4[nH]7)C=C6)C=C5)cc3)ccc2-c2ccc(F)cc2)cc1
REMARK SMILES IDX 19 1 18 2 17 3 15 4 16 5 14 7 13 8 12 9 11 10 83 11 81 12
REMARK SMILES IDX 82 13 10 14 7 15 8 16 92 17 9 18 91 19 4 20 5 21 6 22 2 23
REMARK SMILES IDX 1 24 3 25 84 26 85 27 90 28 86 29 89 30 87 31 88 32 20 33
REMARK SMILES IDX 21 34 22 35 23 36 24 37 25 38 26 40 27 41 28 42 80 43 29 44
REMARK SMILES IDX 79 45 30 46 31 47 32 48 73 49 33 50 78 51 72 52 74 53 34 54
REMARK SMILES IDX 77 55 71 56 70 57 35 59 61 60 44 61 60 62 45 63 48 64 59 65
REMARK SMILES IDX 75 66 46 67 47 68 58 70 76 71 49 72 36 73 37 74 42 75 38 76
REMARK SMILES IDX 39 77 41 78 43 79 40 80 62 81 63 82 68 83 64 84 65 85 67 86
REMARK SMILES IDX 69 87 66 88 50 89 51 90 56 91 52 92 53 93 55 94 57 95 54 96
REMARK H PARENT 17 6 24 39 74 58 48 69
REMARK Flexibility Score: inf
ROOT
ATOM      1  C   UNL A   1      37.081  30.756  31.598  1.00  0.00     0.021 C 
ENDROOT
BRANCH   1   2
ATOM      2  C   UNL A   1      36.661  29.637  30.645  1.00  0.00     0.116 C 
BRANCH   2   3
ATOM      3  N   UNL A   1      37.559  29.493  29.509  1.00  0.00    -0.356 N 
ATOM      4  C   UNL A   1      37.368  29.761  28.184  1.00  0.00     0.220 C 
ATOM      5  O   UNL A   1      38.330  29.613  27.426  1.00  0.00    -0.275 OA
ATOM      6  H   UNL A   1      38.452  29.144  29.732  1.00  0.00     0.163 HD
BRANCH   4   7
ATOM      7  C   UNL A   1      36.014  30.180  27.634  1.00  0.00     0.106 C 
BRANCH   7   8
ATOM      8  C   UNL A   1      34.999  29.043  27.401  1.00  0.00     0.064 C 
BRANCH   8   9
ATOM      9  C   UNL A   1      33.723  29.469  26.708  1.00  0.00     0.024 A 
ATOM     10  N   UNL A   1      33.062  28.857  25.613  1.00  0.00    -0.314 N 
ATOM     11  C   UNL A   1      31.938  29.679  25.311  1.00  0.00     0.053 A 
ATOM     12  C   UNL A   1      33.038  30.630  27.034  1.00  0.00     0.024 A 
ATOM     13  C   UNL A   1      31.943  30.762  26.171  1.00  0.00     0.029 A 
BRANCH  10  14
ATOM     14  C   UNL A   1      33.323  27.549  25.020  1.00  0.00     0.046 A 
ATOM     15  C   UNL A   1      33.344  24.985  23.801  1.00  0.00     0.082 A 
ATOM     16  C   UNL A   1      33.638  26.119  23.049  1.00  0.00     0.024 A 
ATOM     17  C   UNL A   1      33.137  25.110  25.166  1.00  0.00     0.024 A 
ATOM     18  C   UNL A   1      33.652  27.385  23.666  1.00  0.00     0.028 A 
ATOM     19  C   UNL A   1      33.132  26.378  25.750  1.00  0.00     0.028 A 
BRANCH  15  20
ATOM     20  S   UNL A   1      33.429  23.356  23.107  1.00  0.00     0.242 S 
ATOM     21  O   UNL A   1      34.401  23.370  22.047  1.00  0.00    -0.207 OA
ATOM     22  O   UNL A   1      32.059  22.927  22.853  1.00  0.00    -0.207 OA
BRANCH  20  23
ATOM     23  N   UNL A   1      34.054  22.360  24.362  1.00  0.00    -0.204 NA
ATOM     24  C   UNL A   1      33.384  21.030  24.364  1.00  0.00     0.124 C 
ATOM     25  C   UNL A   1      35.526  22.192  24.376  1.00  0.00     0.124 C 
ENDBRANCH  20  23
ENDBRANCH  15  20
ENDBRANCH  10  14
BRANCH  11  26
ATOM     26  C   UNL A   1      30.805  29.296  24.452  1.00  0.00    -0.001 A 
ATOM     27  C   UNL A   1      30.415  27.973  24.245  1.00  0.00     0.013 A 
ATOM     28  C   UNL A   1      30.056  30.313  23.850  1.00  0.00     0.013 A 
ATOM     29  C   UNL A   1      29.242  27.703  23.524  1.00  0.00     0.040 A 
ATOM     30  C   UNL A   1      28.889  30.058  23.139  1.00  0.00     0.040 A 
ATOM     31  C   UNL A   1      28.481  28.747  22.996  1.00  0.00     0.123 A 
ATOM     32  F   UNL A   1      27.389  28.478  22.272  1.00  0.00    -0.207 F 
ENDBRANCH  11  26
ENDBRANCH   8   9
ENDBRANCH   7   8
ENDBRANCH   4   7
ENDBRANCH   2   3
ENDBRANCH   1   2
BRANCH   1  33
ATOM     33  C   UNL A   1      36.567  32.165  31.274  1.00  0.00     0.002 C 
BRANCH  33  34
ATOM     34  C   UNL A   1      35.132  32.581  31.700  1.00  0.00     0.002 C 
BRANCH  34  35
ATOM     35  C   UNL A   1      34.828  33.337  33.017  1.00  0.00     0.021 C 
BRANCH  35  36
ATOM     36  C   UNL A   1      35.818  33.264  34.215  1.00  0.00     0.116 C 
BRANCH  36  37
ATOM     37  N   UNL A   1      36.867  34.276  34.168  1.00  0.00    -0.352 N 
ATOM     38  C   UNL A   1      38.246  34.234  34.228  1.00  0.00     0.251 C 
ATOM     39  H   UNL A   1      36.514  35.191  34.073  1.00  0.00     0.163 HD
ATOM     40  O   UNL A   1      38.796  35.285  34.576  1.00  0.00    -0.269 OA
BRANCH  38  41
ATOM     41  C   UNL A   1      39.139  33.079  33.881  1.00  0.00     0.039 A 
ATOM     42  C   UNL A   1      39.966  33.208  32.746  1.00  0.00     0.014 A 
ATOM     43  C   UNL A   1      39.108  31.834  34.504  1.00  0.00     0.014 A 
ATOM     44  C   UNL A   1      40.745  32.138  32.263  1.00  0.00     0.010 A 
ATOM     45  C   UNL A   1      39.828  30.734  33.983  1.00  0.00     0.010 A 
ATOM     46  C   UNL A   1      40.693  30.887  32.885  1.00  0.00    -0.014 A 
BRANCH  46  47
ATOM     47  C   UNL A   1      41.826  29.921  32.666  1.00  0.00     0.031 A 
ATOM     48  C   UNL A   1      42.962  30.180  33.712  1.00  0.00     0.074 A 
ATOM     49  C   UNL A   1      41.780  28.996  31.646  1.00  0.00     0.049 A 
ATOM     50  N   UNL A   1      44.191  29.761  33.749  1.00  0.00    -0.248 NA
ATOM     51  C   UNL A   1      42.687  31.056  34.893  1.00  0.00     0.031 C 
ATOM     52  C   UNL A   1      40.629  28.789  30.739  1.00  0.00     0.029 A 
ATOM     53  N   UNL A   1      42.671  28.042  31.151  1.00  0.00    -0.354 N 
ATOM     54  C   UNL A   1      44.723  30.101  35.019  1.00  0.00     0.074 A 
ATOM     55  C   UNL A   1      43.784  30.972  35.639  1.00  0.00     0.031 C 
ATOM     56  C   UNL A   1      40.914  27.874  29.779  1.00  0.00     0.029 A 
ATOM     57  C   UNL A   1      42.260  27.359  29.960  1.00  0.00     0.049 A 
ATOM     58  H   UNL A   1      43.530  27.850  31.593  1.00  0.00     0.167 HD
ATOM     59  C   UNL A   1      45.847  29.533  35.545  1.00  0.00     0.037 A 
ATOM     60  C   UNL A   1      42.951  26.463  29.169  1.00  0.00     0.037 A 
ATOM     61  C   UNL A   1      46.486  28.739  34.563  1.00  0.00     0.049 A 
ATOM     62  C   UNL A   1      44.133  26.101  29.951  1.00  0.00     0.074 A 
ATOM     63  C   UNL A   1      47.154  29.070  33.416  1.00  0.00     0.029 A 
ATOM     64  N   UNL A   1      46.159  27.409  34.541  1.00  0.00    -0.354 N 
ATOM     65  N   UNL A   1      44.105  25.286  30.959  1.00  0.00    -0.248 NA
ATOM     66  C   UNL A   1      45.437  26.668  29.593  1.00  0.00     0.031 C 
ATOM     67  C   UNL A   1      46.780  28.048  32.528  1.00  0.00     0.029 A 
ATOM     68  C   UNL A   1      46.114  27.032  33.227  1.00  0.00     0.049 A 
ATOM     69  H   UNL A   1      45.988  26.833  35.322  1.00  0.00     0.167 HD
ATOM     70  C   UNL A   1      45.305  25.555  31.564  1.00  0.00     0.074 A 
ATOM     71  C   UNL A   1      46.175  26.090  30.539  1.00  0.00     0.031 C 
ATOM     72  C   UNL A   1      45.297  25.900  32.876  1.00  0.00     0.037 A 
BRANCH  59  73
ATOM     73  C   UNL A   1      46.347  29.408  36.958  1.00  0.00     0.057 A 
ATOM     74  C   UNL A   1      45.564  28.669  37.879  1.00  0.00     0.134 A 
ATOM     75  C   UNL A   1      47.286  30.277  37.522  1.00  0.00     0.134 A 
ATOM     76  F   UNL A   1      44.668  27.762  37.455  1.00  0.00    -0.206 F 
ATOM     77  C   UNL A   1      45.599  28.902  39.254  1.00  0.00     0.040 A 
ATOM     78  C   UNL A   1      47.364  30.480  38.908  1.00  0.00     0.040 A 
ATOM     79  F   UNL A   1      48.092  31.030  36.762  1.00  0.00    -0.206 F 
ATOM     80  C   UNL A   1      46.486  29.832  39.771  1.00  0.00     0.006 A 
ENDBRANCH  59  73
BRANCH  60  81
ATOM     81  C   UNL A   1      42.882  25.744  27.820  1.00  0.00     0.057 A 
ATOM     82  C   UNL A   1      43.435  26.179  26.617  1.00  0.00     0.134 A 
ATOM     83  C   UNL A   1      42.296  24.437  27.723  1.00  0.00     0.134 A 
ATOM     84  F   UNL A   1      43.922  27.418  26.490  1.00  0.00    -0.206 F 
ATOM     85  C   UNL A   1      43.505  25.351  25.468  1.00  0.00     0.040 A 
ATOM     86  C   UNL A   1      42.409  23.588  26.615  1.00  0.00     0.040 A 
ATOM     87  F   UNL A   1      41.569  23.901  28.713  1.00  0.00    -0.206 F 
ATOM     88  C   UNL A   1      43.038  24.039  25.479  1.00  0.00     0.006 A 
ENDBRANCH  60  81
BRANCH  72  89
ATOM     89  C   UNL A   1      44.116  25.341  33.654  1.00  0.00     0.057 A 
ATOM     90  C   UNL A   1      43.204  26.219  34.260  1.00  0.00     0.134 A 
ATOM     91  C   UNL A   1      43.930  23.983  33.953  1.00  0.00     0.134 A 
ATOM     92  F   UNL A   1      43.281  27.538  34.025  1.00  0.00    -0.206 F 
ATOM     93  C   UNL A   1      42.199  25.776  35.132  1.00  0.00     0.040 A 
ATOM     94  C   UNL A   1      42.926  23.520  34.816  1.00  0.00     0.040 A 
ATOM     95  F   UNL A   1      44.721  23.050  33.423  1.00  0.00    -0.206 F 
ATOM     96  C   UNL A   1      42.062  24.422  35.420  1.00  0.00     0.006 A 
ENDBRANCH  72  89
ENDBRANCH  46  47
ENDBRANCH  38  41
ENDBRANCH  36  37
ENDBRANCH  35  36
ENDBRANCH  34  35
ENDBRANCH  33  34
ENDBRANCH   1  33
TORSDOF 19
ENDMDL
