MODEL 1
REMARK VINA RESULT:     -11.9      0.000      0.000
REMARK SMILES O=C(NCCCCCCNC(=O)[C@@H]1CCC[N@@H+]1CC(=O)N1CCSc2ccccc21)c1ccc(-c2c3nc(c(-c4c(F)cccc4F)c4ccc([nH]4)c(-c4c(F)cccc4F)c4nc(c(-c5c(F)cccc5F)c5ccc2[nH]5)C=C4)C=C3)cc1
REMARK SMILES IDX 7 1 6 2 5 3 4 4 3 5 1 6 2 7 31 9 32 10 84 11 33 12 83 13
REMARK SMILES IDX 34 14 35 15 36 16 77 17 37 18 82 19 76 20 78 21 38 22 81 23
REMARK SMILES IDX 75 24 74 25 39 27 65 28 48 29 64 30 49 31 52 32 63 33 79 34
REMARK SMILES IDX 50 35 51 36 62 38 80 39 53 40 40 41 41 42 46 43 42 44 43 45
REMARK SMILES IDX 45 46 47 47 44 48 66 49 67 50 72 51 68 52 69 53 71 54 73 55
REMARK SMILES IDX 70 56 54 57 55 58 60 59 56 60 57 61 59 62 61 63 58 64 8 65
REMARK SMILES IDX 9 66 10 67 11 68 12 70 13 71 14 72 17 73 15 74 16 75 18 77
REMARK SMILES IDX 19 78 20 79 21 80 22 81 30 82 23 83 25 84 29 85 24 86 26 87
REMARK SMILES IDX 28 88 27 89
REMARK H PARENT 3 8 78 26 52 37 10 69 17 76
REMARK Flexibility Score: inf
ROOT
ATOM      1  C   UNL A   1      32.964  30.048  26.304  1.00  0.00     0.002 C 
ENDROOT
BRANCH   1   2
ATOM      2  C   UNL A   1      31.593  30.649  26.013  1.00  0.00     0.002 C 
BRANCH   2   3
ATOM      3  C   UNL A   1      31.379  32.070  26.522  1.00  0.00     0.021 C 
BRANCH   3   4
ATOM      4  C   UNL A   1      32.585  32.689  27.215  1.00  0.00     0.116 C 
BRANCH   4   5
ATOM      5  N   UNL A   1      32.379  34.092  27.543  1.00  0.00    -0.352 N 
ATOM      6  O   UNL A   1      32.603  35.972  28.782  1.00  0.00    -0.269 OA
ATOM      7  C   UNL A   1      33.018  34.846  28.491  1.00  0.00     0.251 C 
ATOM      8  H   UNL A   1      31.691  34.558  27.016  1.00  0.00     0.163 HD
BRANCH   7   9
ATOM      9  C   UNL A   1      34.207  34.307  29.176  1.00  0.00     0.039 A 
ATOM     10  C   UNL A   1      35.468  34.480  28.601  1.00  0.00     0.014 A 
ATOM     11  C   UNL A   1      34.068  33.617  30.386  1.00  0.00     0.014 A 
ATOM     12  C   UNL A   1      36.599  33.989  29.255  1.00  0.00     0.010 A 
ATOM     13  C   UNL A   1      35.200  33.191  31.070  1.00  0.00     0.010 A 
ATOM     14  C   UNL A   1      36.473  33.349  30.499  1.00  0.00    -0.014 A 
BRANCH  14  15
ATOM     15  C   UNL A   1      37.647  32.757  31.183  1.00  0.00     0.031 A 
ATOM     16  C   UNL A   1      38.316  31.553  30.583  1.00  0.00     0.074 A 
ATOM     17  C   UNL A   1      38.069  33.251  32.361  1.00  0.00     0.049 A 
ATOM     18  N   UNL A   1      39.282  30.813  31.065  1.00  0.00    -0.248 NA
ATOM     19  C   UNL A   1      37.806  31.104  29.278  1.00  0.00     0.031 C 
ATOM     20  C   UNL A   1      37.484  34.396  33.059  1.00  0.00     0.029 A 
ATOM     21  N   UNL A   1      39.082  32.836  33.187  1.00  0.00    -0.354 N 
ATOM     22  C   UNL A   1      39.479  29.802  30.132  1.00  0.00     0.074 A 
ATOM     23  C   UNL A   1      38.495  29.990  29.088  1.00  0.00     0.031 C 
ATOM     24  C   UNL A   1      38.151  34.596  34.207  1.00  0.00     0.029 A 
ATOM     25  C   UNL A   1      39.184  33.571  34.342  1.00  0.00     0.049 A 
ATOM     26  H   UNL A   1      39.679  32.083  32.973  1.00  0.00     0.167 HD
ATOM     27  C   UNL A   1      40.410  28.819  30.132  1.00  0.00     0.037 A 
ATOM     28  C   UNL A   1      40.005  33.422  35.398  1.00  0.00     0.037 A 
ATOM     29  C   UNL A   1      41.401  28.649  31.161  1.00  0.00     0.049 A 
ATOM     30  C   UNL A   1      41.012  32.306  35.396  1.00  0.00     0.074 A 
ATOM     31  C   UNL A   1      42.439  27.737  31.221  1.00  0.00     0.029 A 
ATOM     32  N   UNL A   1      41.467  29.408  32.320  1.00  0.00    -0.354 N 
ATOM     33  N   UNL A   1      41.234  31.395  34.478  1.00  0.00    -0.248 NA
ATOM     34  C   UNL A   1      41.879  32.194  36.577  1.00  0.00     0.031 C 
ATOM     35  C   UNL A   1      43.102  27.912  32.442  1.00  0.00     0.029 A 
ATOM     36  C   UNL A   1      42.504  28.961  33.122  1.00  0.00     0.049 A 
ATOM     37  H   UNL A   1      40.866  30.156  32.540  1.00  0.00     0.167 HD
ATOM     38  C   UNL A   1      42.263  30.603  34.969  1.00  0.00     0.074 A 
ATOM     39  C   UNL A   1      42.642  31.160  36.252  1.00  0.00     0.031 C 
ATOM     40  C   UNL A   1      42.842  29.510  34.411  1.00  0.00     0.037 A 
BRANCH  27  41
ATOM     41  C   UNL A   1      40.378  27.853  28.983  1.00  0.00     0.057 A 
ATOM     42  C   UNL A   1      39.585  26.700  29.043  1.00  0.00     0.134 A 
ATOM     43  C   UNL A   1      41.105  28.074  27.805  1.00  0.00     0.134 A 
ATOM     44  F   UNL A   1      38.865  26.425  30.141  1.00  0.00    -0.206 F 
ATOM     45  C   UNL A   1      39.504  25.813  27.968  1.00  0.00     0.040 A 
ATOM     46  C   UNL A   1      41.009  27.210  26.712  1.00  0.00     0.040 A 
ATOM     47  F   UNL A   1      41.872  29.167  27.676  1.00  0.00    -0.206 F 
ATOM     48  C   UNL A   1      40.207  26.075  26.794  1.00  0.00     0.006 A 
ENDBRANCH  27  41
BRANCH  28  49
ATOM     49  C   UNL A   1      39.899  34.351  36.550  1.00  0.00     0.057 A 
ATOM     50  C   UNL A   1      39.044  34.084  37.626  1.00  0.00     0.134 A 
ATOM     51  C   UNL A   1      40.638  35.537  36.592  1.00  0.00     0.134 A 
ATOM     52  F   UNL A   1      38.304  32.964  37.641  1.00  0.00    -0.206 F 
ATOM     53  C   UNL A   1      38.918  34.970  38.697  1.00  0.00     0.040 A 
ATOM     54  C   UNL A   1      40.539  36.423  37.667  1.00  0.00     0.040 A 
ATOM     55  F   UNL A   1      41.490  35.837  35.600  1.00  0.00    -0.206 F 
ATOM     56  C   UNL A   1      39.670  36.143  38.720  1.00  0.00     0.006 A 
ENDBRANCH  28  49
BRANCH  40  57
ATOM     57  C   UNL A   1      43.928  28.840  35.201  1.00  0.00     0.057 A 
ATOM     58  C   UNL A   1      43.634  27.803  36.094  1.00  0.00     0.134 A 
ATOM     59  C   UNL A   1      45.266  29.242  35.091  1.00  0.00     0.134 A 
ATOM     60  F   UNL A   1      42.372  27.376  36.252  1.00  0.00    -0.206 F 
ATOM     61  C   UNL A   1      44.632  27.190  36.852  1.00  0.00     0.040 A 
ATOM     62  C   UNL A   1      46.276  28.619  35.826  1.00  0.00     0.040 A 
ATOM     63  F   UNL A   1      45.614  30.219  34.241  1.00  0.00    -0.206 F 
ATOM     64  C   UNL A   1      45.959  27.593  36.714  1.00  0.00     0.006 A 
ENDBRANCH  40  57
ENDBRANCH  14  15
ENDBRANCH   7   9
ENDBRANCH   4   5
ENDBRANCH   3   4
ENDBRANCH   2   3
ENDBRANCH   1   2
BRANCH   1  65
ATOM     65  C   UNL A   1      33.012  28.814  27.224  1.00  0.00     0.021 C 
BRANCH  65  66
ATOM     66  C   UNL A   1      31.654  28.300  27.714  1.00  0.00     0.116 C 
BRANCH  66  67
ATOM     67  N   UNL A   1      31.380  26.949  27.266  1.00  0.00    -0.351 N 
ATOM     68  C   UNL A   1      31.136  26.364  26.066  1.00  0.00     0.278 C 
ATOM     69  H   UNL A   1      31.368  26.303  28.009  1.00  0.00     0.163 HD
ATOM     70  O   UNL A   1      31.086  25.127  26.119  1.00  0.00    -0.268 OA
BRANCH  68  71
ATOM     71  C   UNL A   1      30.967  27.119  24.721  1.00  0.00     0.274 C 
ATOM     72  C   UNL A   1      30.122  26.617  23.565  1.00  0.00     0.081 C 
ATOM     73  N   UNL A   1      32.252  27.453  24.044  1.00  0.00    -0.317 N 
ATOM     74  C   UNL A   1      30.554  27.491  22.386  1.00  0.00     0.068 C 
ATOM     75  C   UNL A   1      31.915  28.063  22.764  1.00  0.00     0.263 C 
ATOM     76  H   UNL A   1      32.713  28.091  24.693  1.00  0.00     0.349 HD
BRANCH  73  77
ATOM     77  C   UNL A   1      33.419  26.547  24.041  1.00  0.00     0.364 C 
BRANCH  77  78
ATOM     78  C   UNL A   1      33.556  25.448  22.943  1.00  0.00     0.282 C 
ATOM     79  O   UNL A   1      33.903  25.749  21.799  1.00  0.00    -0.268 OA
BRANCH  78  80
ATOM     80  N   UNL A   1      33.404  24.115  23.378  1.00  0.00    -0.306 N 
ATOM     81  C   UNL A   1      32.138  23.459  23.122  1.00  0.00     0.137 C 
ATOM     82  C   UNL A   1      34.478  23.279  23.880  1.00  0.00     0.057 A 
ATOM     83  C   UNL A   1      31.694  22.534  24.224  1.00  0.00     0.097 C 
ATOM     84  C   UNL A   1      34.274  21.904  24.193  1.00  0.00     0.031 A 
ATOM     85  C   UNL A   1      35.736  23.816  24.182  1.00  0.00     0.027 A 
ATOM     86  S   UNL A   1      32.698  21.058  24.093  1.00  0.00    -0.122 SA
ATOM     87  C   UNL A   1      35.307  21.111  24.714  1.00  0.00     0.017 A 
ATOM     88  C   UNL A   1      36.750  23.023  24.743  1.00  0.00     0.002 A 
ATOM     89  C   UNL A   1      36.541  21.672  24.996  1.00  0.00     0.001 A 
ENDBRANCH  78  80
ENDBRANCH  77  78
ENDBRANCH  73  77
ENDBRANCH  68  71
ENDBRANCH  66  67
ENDBRANCH  65  66
ENDBRANCH   1  65
TORSDOF 16
ENDMDL
MODEL 2
REMARK VINA RESULT:     -11.8      1.208      1.959
REMARK SMILES O=C(NCCCCCCNC(=O)[C@@H]1CCC[N@@H+]1CC(=O)N1CCSc2ccccc21)c1ccc(-c2c3nc(c(-c4c(F)cccc4F)c4ccc([nH]4)c(-c4c(F)cccc4F)c4nc(c(-c5c(F)cccc5F)c5ccc2[nH]5)C=C4)C=C3)cc1
REMARK SMILES IDX 7 1 6 2 5 3 4 4 3 5 1 6 2 7 31 9 32 10 84 11 33 12 83 13
REMARK SMILES IDX 34 14 35 15 36 16 77 17 37 18 82 19 76 20 78 21 38 22 81 23
REMARK SMILES IDX 75 24 74 25 39 27 65 28 48 29 64 30 49 31 52 32 63 33 79 34
REMARK SMILES IDX 50 35 51 36 62 38 80 39 53 40 40 41 41 42 46 43 42 44 43 45
REMARK SMILES IDX 45 46 47 47 44 48 66 49 67 50 72 51 68 52 69 53 71 54 73 55
REMARK SMILES IDX 70 56 54 57 55 58 60 59 56 60 57 61 59 62 61 63 58 64 8 65
REMARK SMILES IDX 9 66 10 67 11 68 12 70 13 71 14 72 17 73 15 74 16 75 18 77
REMARK SMILES IDX 19 78 20 79 21 80 22 81 30 82 23 83 25 84 29 85 24 86 26 87
REMARK SMILES IDX 28 88 27 89
REMARK H PARENT 3 8 78 26 52 37 10 69 17 76
REMARK Flexibility Score: inf
ROOT
ATOM      1  C   UNL A   1      32.171  29.721  27.254  1.00  0.00     0.002 C 
ENDROOT
BRANCH   1   2
ATOM      2  C   UNL A   1      31.553  30.642  26.207  1.00  0.00     0.002 C 
BRANCH   2   3
ATOM      3  C   UNL A   1      31.410  32.102  26.621  1.00  0.00     0.021 C 
BRANCH   3   4
ATOM      4  C   UNL A   1      32.713  32.785  27.016  1.00  0.00     0.116 C 
BRANCH   4   5
ATOM      5  N   UNL A   1      32.499  34.108  27.582  1.00  0.00    -0.352 N 
ATOM      6  O   UNL A   1      32.689  35.738  29.140  1.00  0.00    -0.269 OA
ATOM      7  C   UNL A   1      33.111  34.680  28.665  1.00  0.00     0.251 C 
ATOM      8  H   UNL A   1      31.826  34.664  27.127  1.00  0.00     0.163 HD
BRANCH   7   9
ATOM      9  C   UNL A   1      34.281  34.021  29.276  1.00  0.00     0.039 A 
ATOM     10  C   UNL A   1      34.086  32.942  30.142  1.00  0.00     0.014 A 
ATOM     11  C   UNL A   1      35.573  34.481  28.996  1.00  0.00     0.014 A 
ATOM     12  C   UNL A   1      35.190  32.302  30.707  1.00  0.00     0.010 A 
ATOM     13  C   UNL A   1      36.672  33.799  29.504  1.00  0.00     0.010 A 
ATOM     14  C   UNL A   1      36.491  32.721  30.384  1.00  0.00    -0.014 A 
BRANCH  14  15
ATOM     15  C   UNL A   1      37.679  32.105  31.020  1.00  0.00     0.031 A 
ATOM     16  C   UNL A   1      38.414  31.011  30.298  1.00  0.00     0.074 A 
ATOM     17  C   UNL A   1      38.059  32.475  32.257  1.00  0.00     0.049 A 
ATOM     18  N   UNL A   1      39.405  30.263  30.711  1.00  0.00    -0.248 NA
ATOM     19  C   UNL A   1      37.947  30.697  28.939  1.00  0.00     0.031 C 
ATOM     20  C   UNL A   1      37.409  33.503  33.070  1.00  0.00     0.029 A 
ATOM     21  N   UNL A   1      39.075  32.011  33.051  1.00  0.00    -0.354 N 
ATOM     22  C   UNL A   1      39.665  29.379  29.671  1.00  0.00     0.074 A 
ATOM     23  C   UNL A   1      38.691  29.645  28.635  1.00  0.00     0.031 C 
ATOM     24  C   UNL A   1      38.047  33.595  34.249  1.00  0.00     0.029 A 
ATOM     25  C   UNL A   1      39.124  32.608  34.286  1.00  0.00     0.049 A 
ATOM     26  H   UNL A   1      39.710  31.316  32.763  1.00  0.00     0.167 HD
ATOM     27  C   UNL A   1      40.641  28.445  29.576  1.00  0.00     0.037 A 
ATOM     28  C   UNL A   1      39.933  32.372  35.335  1.00  0.00     0.037 A 
ATOM     29  C   UNL A   1      41.620  28.199  30.601  1.00  0.00     0.049 A 
ATOM     30  C   UNL A   1      40.991  31.310  35.224  1.00  0.00     0.074 A 
ATOM     31  C   UNL A   1      42.698  27.333  30.576  1.00  0.00     0.029 A 
ATOM     32  N   UNL A   1      41.632  28.818  31.841  1.00  0.00    -0.354 N 
ATOM     33  N   UNL A   1      41.270  30.524  34.211  1.00  0.00    -0.248 NA
ATOM     34  C   UNL A   1      41.842  31.098  36.403  1.00  0.00     0.031 C 
ATOM     35  C   UNL A   1      43.332  27.391  31.824  1.00  0.00     0.029 A 
ATOM     36  C   UNL A   1      42.674  28.325  32.609  1.00  0.00     0.049 A 
ATOM     37  H   UNL A   1      40.993  29.507  32.134  1.00  0.00     0.167 HD
ATOM     38  C   UNL A   1      42.327  29.726  34.629  1.00  0.00     0.074 A 
ATOM     39  C   UNL A   1      42.658  30.144  35.976  1.00  0.00     0.031 C 
ATOM     40  C   UNL A   1      42.965  28.734  33.960  1.00  0.00     0.037 A 
BRANCH  27  41
ATOM     41  C   UNL A   1      40.672  27.620  28.322  1.00  0.00     0.057 A 
ATOM     42  C   UNL A   1      41.409  28.044  27.208  1.00  0.00     0.134 A 
ATOM     43  C   UNL A   1      40.003  26.393  28.222  1.00  0.00     0.134 A 
ATOM     44  F   UNL A   1      42.071  29.211  27.233  1.00  0.00    -0.206 F 
ATOM     45  C   UNL A   1      41.490  27.271  26.050  1.00  0.00     0.040 A 
ATOM     46  C   UNL A   1      40.102  25.596  27.080  1.00  0.00     0.040 A 
ATOM     47  F   UNL A   1      39.293  25.920  29.259  1.00  0.00    -0.206 F 
ATOM     48  C   UNL A   1      40.846  26.036  25.989  1.00  0.00     0.006 A 
ENDBRANCH  27  41
BRANCH  28  49
ATOM     49  C   UNL A   1      39.765  33.154  36.585  1.00  0.00     0.057 A 
ATOM     50  C   UNL A   1      38.886  32.737  37.592  1.00  0.00     0.134 A 
ATOM     51  C   UNL A   1      40.468  34.344  36.793  1.00  0.00     0.134 A 
ATOM     52  F   UNL A   1      38.179  31.606  37.449  1.00  0.00    -0.206 F 
ATOM     53  C   UNL A   1      38.701  33.485  38.756  1.00  0.00     0.040 A 
ATOM     54  C   UNL A   1      40.310  35.092  37.961  1.00  0.00     0.040 A 
ATOM     55  F   UNL A   1      41.340  34.783  35.873  1.00  0.00    -0.206 F 
ATOM     56  C   UNL A   1      39.417  34.665  38.944  1.00  0.00     0.006 A 
ENDBRANCH  28  49
BRANCH  40  57
ATOM     57  C   UNL A   1      44.067  28.024  34.690  1.00  0.00     0.057 A 
ATOM     58  C   UNL A   1      45.377  28.517  34.674  1.00  0.00     0.134 A 
ATOM     59  C   UNL A   1      43.832  26.833  35.391  1.00  0.00     0.134 A 
ATOM     60  F   UNL A   1      45.672  29.648  34.015  1.00  0.00    -0.206 F 
ATOM     61  C   UNL A   1      46.415  27.852  35.327  1.00  0.00     0.040 A 
ATOM     62  C   UNL A   1      44.857  26.173  36.070  1.00  0.00     0.040 A 
ATOM     63  F   UNL A   1      42.596  26.317  35.457  1.00  0.00    -0.206 F 
ATOM     64  C   UNL A   1      46.155  26.679  36.034  1.00  0.00     0.006 A 
ENDBRANCH  40  57
ENDBRANCH  14  15
ENDBRANCH   7   9
ENDBRANCH   4   5
ENDBRANCH   3   4
ENDBRANCH   2   3
ENDBRANCH   1   2
BRANCH   1  65
ATOM     65  C   UNL A   1      33.663  29.373  27.093  1.00  0.00     0.021 C 
BRANCH  65  66
ATOM     66  C   UNL A   1      33.971  28.187  26.173  1.00  0.00     0.116 C 
BRANCH  66  67
ATOM     67  N   UNL A   1      34.040  28.575  24.778  1.00  0.00    -0.351 N 
ATOM     68  C   UNL A   1      33.238  28.416  23.694  1.00  0.00     0.278 C 
ATOM     69  H   UNL A   1      34.864  29.069  24.567  1.00  0.00     0.163 HD
ATOM     70  O   UNL A   1      33.627  29.038  22.696  1.00  0.00    -0.268 OA
BRANCH  68  71
ATOM     71  C   UNL A   1      31.931  27.582  23.664  1.00  0.00     0.274 C 
ATOM     72  C   UNL A   1      31.142  27.191  24.902  1.00  0.00     0.081 C 
ATOM     73  N   UNL A   1      32.055  26.279  22.952  1.00  0.00    -0.317 N 
ATOM     74  C   UNL A   1      30.183  26.110  24.402  1.00  0.00     0.068 C 
ATOM     75  C   UNL A   1      30.782  25.586  23.102  1.00  0.00     0.263 C 
ATOM     76  H   UNL A   1      32.266  26.544  21.990  1.00  0.00     0.349 HD
BRANCH  73  77
ATOM     77  C   UNL A   1      33.264  25.433  23.028  1.00  0.00     0.364 C 
BRANCH  77  78
ATOM     78  C   UNL A   1      33.260  24.003  22.408  1.00  0.00     0.282 C 
ATOM     79  O   UNL A   1      33.304  23.852  21.185  1.00  0.00    -0.268 OA
BRANCH  78  80
ATOM     80  N   UNL A   1      33.350  22.932  23.321  1.00  0.00    -0.306 N 
ATOM     81  C   UNL A   1      32.131  22.226  23.660  1.00  0.00     0.137 C 
ATOM     82  C   UNL A   1      34.591  22.348  23.794  1.00  0.00     0.057 A 
ATOM     83  C   UNL A   1      32.060  21.784  25.098  1.00  0.00     0.097 C 
ATOM     84  C   UNL A   1      34.605  21.191  24.627  1.00  0.00     0.031 A 
ATOM     85  C   UNL A   1      35.826  22.959  23.542  1.00  0.00     0.027 A 
ATOM     86  S   UNL A   1      33.143  20.369  25.256  1.00  0.00    -0.122 SA
ATOM     87  C   UNL A   1      35.807  20.654  25.112  1.00  0.00     0.017 A 
ATOM     88  C   UNL A   1      37.018  22.437  24.068  1.00  0.00     0.002 A 
ATOM     89  C   UNL A   1      37.011  21.281  24.840  1.00  0.00     0.001 A 
ENDBRANCH  78  80
ENDBRANCH  77  78
ENDBRANCH  73  77
ENDBRANCH  68  71
ENDBRANCH  66  67
ENDBRANCH  65  66
ENDBRANCH   1  65
TORSDOF 16
ENDMDL
MODEL 3
REMARK VINA RESULT:     -11.7      1.736      2.555
REMARK SMILES O=C(NCCCCCCNC(=O)[C@@H]1CCC[N@@H+]1CC(=O)N1CCSc2ccccc21)c1ccc(-c2c3nc(c(-c4c(F)cccc4F)c4ccc([nH]4)c(-c4c(F)cccc4F)c4nc(c(-c5c(F)cccc5F)c5ccc2[nH]5)C=C4)C=C3)cc1
REMARK SMILES IDX 7 1 6 2 5 3 4 4 3 5 1 6 2 7 31 9 32 10 84 11 33 12 83 13
REMARK SMILES IDX 34 14 35 15 36 16 77 17 37 18 82 19 76 20 78 21 38 22 81 23
REMARK SMILES IDX 75 24 74 25 39 27 65 28 48 29 64 30 49 31 52 32 63 33 79 34
REMARK SMILES IDX 50 35 51 36 62 38 80 39 53 40 40 41 41 42 46 43 42 44 43 45
REMARK SMILES IDX 45 46 47 47 44 48 66 49 67 50 72 51 68 52 69 53 71 54 73 55
REMARK SMILES IDX 70 56 54 57 55 58 60 59 56 60 57 61 59 62 61 63 58 64 8 65
REMARK SMILES IDX 9 66 10 67 11 68 12 70 13 71 14 72 17 73 15 74 16 75 18 77
REMARK SMILES IDX 19 78 20 79 21 80 22 81 30 82 23 83 25 84 29 85 24 86 26 87
REMARK SMILES IDX 28 88 27 89
REMARK H PARENT 3 8 78 26 52 37 10 69 17 76
REMARK Flexibility Score: inf
ROOT
ATOM      1  C   UNL A   1      30.673  29.999  24.278  1.00  0.00     0.002 C 
ENDROOT
BRANCH   1   2
ATOM      2  C   UNL A   1      31.484  30.160  25.560  1.00  0.00     0.002 C 
BRANCH   2   3
ATOM      3  C   UNL A   1      31.257  31.461  26.321  1.00  0.00     0.021 C 
BRANCH   3   4
ATOM      4  C   UNL A   1      32.505  32.050  26.966  1.00  0.00     0.116 C 
BRANCH   4   5
ATOM      5  N   UNL A   1      32.317  33.433  27.380  1.00  0.00    -0.352 N 
ATOM      6  O   UNL A   1      32.676  35.269  28.652  1.00  0.00    -0.269 OA
ATOM      7  C   UNL A   1      33.070  34.168  28.257  1.00  0.00     0.251 C 
ATOM      8  H   UNL A   1      31.550  33.899  26.977  1.00  0.00     0.163 HD
BRANCH   7   9
ATOM      9  C   UNL A   1      34.357  33.635  28.740  1.00  0.00     0.039 A 
ATOM     10  C   UNL A   1      34.387  32.862  29.903  1.00  0.00     0.014 A 
ATOM     11  C   UNL A   1      35.538  33.913  28.043  1.00  0.00     0.014 A 
ATOM     12  C   UNL A   1      35.599  32.339  30.354  1.00  0.00     0.010 A 
ATOM     13  C   UNL A   1      36.733  33.334  28.455  1.00  0.00     0.010 A 
ATOM     14  C   UNL A   1      36.779  32.564  29.627  1.00  0.00    -0.014 A 
BRANCH  14  15
ATOM     15  C   UNL A   1      38.091  32.079  30.118  1.00  0.00     0.031 A 
ATOM     16  C   UNL A   1      38.637  30.783  29.591  1.00  0.00     0.074 A 
ATOM     17  C   UNL A   1      38.756  32.758  31.071  1.00  0.00     0.049 A 
ATOM     18  N   UNL A   1      39.705  30.120  29.958  1.00  0.00    -0.248 NA
ATOM     19  C   UNL A   1      37.858  30.128  28.528  1.00  0.00     0.031 C 
ATOM     20  C   UNL A   1      38.315  34.012  31.681  1.00  0.00     0.029 A 
ATOM     21  N   UNL A   1      39.938  32.474  31.704  1.00  0.00    -0.354 N 
ATOM     22  C   UNL A   1      39.712  28.965  29.186  1.00  0.00     0.074 A 
ATOM     23  C   UNL A   1      38.514  28.989  28.376  1.00  0.00     0.031 C 
ATOM     24  C   UNL A   1      39.218  34.392  32.600  1.00  0.00     0.029 A 
ATOM     25  C   UNL A   1      40.280  33.390  32.666  1.00  0.00     0.049 A 
ATOM     26  H   UNL A   1      40.490  31.687  31.489  1.00  0.00     0.167 HD
ATOM     27  C   UNL A   1      40.643  27.983  29.140  1.00  0.00     0.037 A 
ATOM     28  C   UNL A   1      41.320  33.409  33.520  1.00  0.00     0.037 A 
ATOM     29  C   UNL A   1      41.843  27.974  29.932  1.00  0.00     0.049 A 
ATOM     30  C   UNL A   1      42.328  32.294  33.476  1.00  0.00     0.074 A 
ATOM     31  C   UNL A   1      42.890  27.071  29.907  1.00  0.00     0.029 A 
ATOM     32  N   UNL A   1      42.150  28.916  30.903  1.00  0.00    -0.354 N 
ATOM     33  N   UNL A   1      42.360  31.239  32.696  1.00  0.00    -0.248 NA
ATOM     34  C   UNL A   1      43.441  32.370  34.432  1.00  0.00     0.031 C 
ATOM     35  C   UNL A   1      43.807  27.438  30.900  1.00  0.00     0.029 A 
ATOM     36  C   UNL A   1      43.351  28.595  31.514  1.00  0.00     0.049 A 
ATOM     37  H   UNL A   1      41.595  29.698  31.126  1.00  0.00     0.167 HD
ATOM     38  C   UNL A   1      43.493  30.526  33.066  1.00  0.00     0.074 A 
ATOM     39  C   UNL A   1      44.137  31.285  34.120  1.00  0.00     0.031 C 
ATOM     40  C   UNL A   1      43.958  29.348  32.583  1.00  0.00     0.037 A 
BRANCH  27  41
ATOM     41  C   UNL A   1      40.377  26.838  28.206  1.00  0.00     0.057 A 
ATOM     42  C   UNL A   1      39.544  25.780  28.592  1.00  0.00     0.134 A 
ATOM     43  C   UNL A   1      40.916  26.793  26.913  1.00  0.00     0.134 A 
ATOM     44  F   UNL A   1      38.996  25.758  29.817  1.00  0.00    -0.206 F 
ATOM     45  C   UNL A   1      39.245  24.730  27.723  1.00  0.00     0.040 A 
ATOM     46  C   UNL A   1      40.601  25.764  26.023  1.00  0.00     0.040 A 
ATOM     47  F   UNL A   1      41.709  27.782  26.473  1.00  0.00    -0.206 F 
ATOM     48  C   UNL A   1      39.764  24.727  26.430  1.00  0.00     0.006 A 
ENDBRANCH  27  41
BRANCH  28  49
ATOM     49  C   UNL A   1      41.453  34.520  34.494  1.00  0.00     0.057 A 
ATOM     50  C   UNL A   1      40.891  34.438  35.774  1.00  0.00     0.134 A 
ATOM     51  C   UNL A   1      42.133  35.695  34.162  1.00  0.00     0.134 A 
ATOM     52  F   UNL A   1      40.223  33.337  36.151  1.00  0.00    -0.206 F 
ATOM     53  C   UNL A   1      40.988  35.492  36.683  1.00  0.00     0.040 A 
ATOM     54  C   UNL A   1      42.256  36.750  35.067  1.00  0.00     0.040 A 
ATOM     55  F   UNL A   1      42.710  35.824  32.957  1.00  0.00    -0.206 F 
ATOM     56  C   UNL A   1      41.675  36.652  36.331  1.00  0.00     0.006 A 
ENDBRANCH  28  49
BRANCH  40  57
ATOM     57  C   UNL A   1      45.209  28.805  33.207  1.00  0.00     0.057 A 
ATOM     58  C   UNL A   1      46.471  29.161  32.719  1.00  0.00     0.134 A 
ATOM     59  C   UNL A   1      45.159  27.906  34.281  1.00  0.00     0.134 A 
ATOM     60  F   UNL A   1      46.589  30.012  31.688  1.00  0.00    -0.206 F 
ATOM     61  C   UNL A   1      47.641  28.643  33.275  1.00  0.00     0.040 A 
ATOM     62  C   UNL A   1      46.324  27.400  34.862  1.00  0.00     0.040 A 
ATOM     63  F   UNL A   1      43.982  27.537  34.804  1.00  0.00    -0.206 F 
ATOM     64  C   UNL A   1      47.570  27.764  34.355  1.00  0.00     0.006 A 
ENDBRANCH  40  57
ENDBRANCH  14  15
ENDBRANCH   7   9
ENDBRANCH   4   5
ENDBRANCH   3   4
ENDBRANCH   2   3
ENDBRANCH   1   2
BRANCH   1  65
ATOM     65  C   UNL A   1      30.215  28.577  23.907  1.00  0.00     0.021 C 
BRANCH  65  66
ATOM     66  C   UNL A   1      30.328  28.211  22.423  1.00  0.00     0.116 C 
BRANCH  66  67
ATOM     67  N   UNL A   1      31.696  27.942  22.024  1.00  0.00    -0.351 N 
ATOM     68  C   UNL A   1      32.735  27.250  22.556  1.00  0.00     0.278 C 
ATOM     69  H   UNL A   1      31.924  28.360  21.163  1.00  0.00     0.163 HD
ATOM     70  O   UNL A   1      33.711  27.164  21.799  1.00  0.00    -0.268 OA
BRANCH  68  71
ATOM     71  C   UNL A   1      32.740  26.580  23.955  1.00  0.00     0.274 C 
ATOM     72  C   UNL A   1      33.997  26.127  24.677  1.00  0.00     0.081 C 
ATOM     73  N   UNL A   1      31.872  25.374  24.057  1.00  0.00    -0.317 N 
ATOM     74  C   UNL A   1      33.473  25.234  25.803  1.00  0.00     0.068 C 
ATOM     75  C   UNL A   1      32.067  24.816  25.389  1.00  0.00     0.263 C 
ATOM     76  H   UNL A   1      30.931  25.733  23.897  1.00  0.00     0.349 HD
BRANCH  73  77
ATOM     77  C   UNL A   1      31.727  24.393  22.960  1.00  0.00     0.364 C 
BRANCH  77  78
ATOM     78  C   UNL A   1      32.943  23.523  22.521  1.00  0.00     0.282 C 
ATOM     79  O   UNL A   1      33.624  23.850  21.546  1.00  0.00    -0.268 OA
BRANCH  78  80
ATOM     80  N   UNL A   1      33.285  22.457  23.378  1.00  0.00    -0.306 N 
ATOM     81  C   UNL A   1      32.283  21.442  23.629  1.00  0.00     0.137 C 
ATOM     82  C   UNL A   1      34.622  22.184  23.870  1.00  0.00     0.057 A 
ATOM     83  C   UNL A   1      32.292  20.907  25.037  1.00  0.00     0.097 C 
ATOM     84  C   UNL A   1      34.915  21.021  24.640  1.00  0.00     0.031 A 
ATOM     85  C   UNL A   1      35.662  23.108  23.702  1.00  0.00     0.027 A 
ATOM     86  S   UNL A   1      33.701  19.812  25.164  1.00  0.00    -0.122 SA
ATOM     87  C   UNL A   1      36.202  20.783  25.145  1.00  0.00     0.017 A 
ATOM     88  C   UNL A   1      36.935  22.880  24.247  1.00  0.00     0.002 A 
ATOM     89  C   UNL A   1      37.208  21.715  24.956  1.00  0.00     0.001 A 
ENDBRANCH  78  80
ENDBRANCH  77  78
ENDBRANCH  73  77
ENDBRANCH  68  71
ENDBRANCH  66  67
ENDBRANCH  65  66
ENDBRANCH   1  65
TORSDOF 16
ENDMDL
