MODEL 1
REMARK VINA RESULT:     -11.3      0.000      0.000
REMARK SMILES O=C(C[C@H]([NH2+]Cc1ccco1)C(=O)NCCCCCCNC(=O)c1ccc(-c2c3nc(c(-c4c(F)cccc4F)c4ccc([nH]4)c(-c4c(F)cccc4F)c4nc(c(-c5c(F)cccc5F)c5ccc2[nH]5)C=C4)C=C3)cc1)Nc1ccc(O)cc1
REMARK SMILES IDX 16 1 15 2 14 3 12 4 13 5 4 7 3 8 2 9 1 10 78 11 79 13 80 14
REMARK SMILES IDX 85 15 81 16 84 17 82 18 83 19 5 21 6 24 7 25 8 26 11 27 9 28
REMARK SMILES IDX 10 29 17 30 18 31 19 32 20 33 21 34 22 35 23 37 24 38 25 39
REMARK SMILES IDX 77 40 26 41 76 42 27 43 28 44 29 45 70 46 30 47 75 48 69 49
REMARK SMILES IDX 71 50 31 51 74 52 68 53 67 54 32 56 58 57 41 58 57 59 42 60
REMARK SMILES IDX 45 61 56 62 72 63 43 64 44 65 55 67 73 68 46 69 33 70 34 71
REMARK SMILES IDX 39 72 35 73 36 74 38 75 40 76 37 77 59 78 60 79 65 80 61 81
REMARK SMILES IDX 62 82 64 83 66 84 63 85 47 86 48 87 53 88 49 89 50 90 52 91
REMARK SMILES IDX 54 92 51 93
REMARK H PARENT 14 6 78 12 83 20 5 22 5 23 21 36 71 55 45 66
REMARK Flexibility Score: inf
ROOT
ATOM      1  C   UNL A   1      36.503  23.087  25.638  1.00  0.00     0.021 C 
ENDROOT
BRANCH   1   2
ATOM      2  C   UNL A   1      35.185  23.852  25.736  1.00  0.00     0.116 C 
BRANCH   2   3
ATOM      3  N   UNL A   1      34.401  23.415  26.879  1.00  0.00    -0.351 N 
ATOM      4  C   UNL A   1      33.191  22.786  26.914  1.00  0.00     0.278 C 
ATOM      5  O   UNL A   1      32.680  22.558  28.014  1.00  0.00    -0.268 OA
ATOM      6  H   UNL A   1      34.802  23.600  27.759  1.00  0.00     0.163 HD
BRANCH   4   7
ATOM      7  C   UNL A   1      32.502  22.310  25.622  1.00  0.00     0.282 C 
BRANCH   7   8
ATOM      8  C   UNL A   1      31.318  23.255  25.370  1.00  0.00     0.175 C 
BRANCH   8   9
ATOM      9  C   UNL A   1      31.560  24.347  24.357  1.00  0.00     0.230 C 
ATOM     10  O   UNL A   1      32.067  24.079  23.272  1.00  0.00    -0.274 OA
ATOM     11  N   UNL A   1      31.143  25.598  24.773  1.00  0.00    -0.326 N 
ATOM     12  H   UNL A   1      30.853  25.682  25.710  1.00  0.00     0.169 HD
BRANCH  11  13
ATOM     13  C   UNL A   1      31.093  26.764  23.982  1.00  0.00     0.041 A 
ATOM     14  C   UNL A   1      29.839  27.172  23.513  1.00  0.00     0.030 A 
ATOM     15  C   UNL A   1      32.226  27.501  23.624  1.00  0.00     0.030 A 
ATOM     16  C   UNL A   1      29.720  28.318  22.722  1.00  0.00     0.048 A 
ATOM     17  C   UNL A   1      32.111  28.635  22.817  1.00  0.00     0.048 A 
ATOM     18  C   UNL A   1      30.856  29.038  22.378  1.00  0.00     0.115 A 
BRANCH  18  19
ATOM     19  O   UNL A   1      30.698  30.143  21.597  1.00  0.00    -0.508 OA
ATOM     20  H   UNL A   1      31.397  30.428  21.042  1.00  0.00     0.293 HD
ENDBRANCH  18  19
ENDBRANCH  11  13
ENDBRANCH   8   9
ENDBRANCH   7   8
BRANCH   7  21
ATOM     21  N   UNL A   1      32.165  20.870  25.680  1.00  0.00    -0.329 N 
ATOM     22  H   UNL A   1      31.169  20.774  25.880  1.00  0.00     0.347 HD
ATOM     23  H   UNL A   1      32.731  20.444  26.414  1.00  0.00     0.347 HD
BRANCH  21  24
ATOM     24  C   UNL A   1      32.465  20.183  24.417  1.00  0.00     0.337 C 
BRANCH  24  25
ATOM     25  C   UNL A   1      32.939  18.789  24.652  1.00  0.00     0.157 A 
ATOM     26  C   UNL A   1      34.025  18.049  24.222  1.00  0.00     0.052 A 
ATOM     27  O   UNL A   1      32.175  18.033  25.495  1.00  0.00    -0.463 OA
ATOM     28  C   UNL A   1      33.911  16.775  24.831  1.00  0.00     0.042 A 
ATOM     29  C   UNL A   1      32.768  16.816  25.593  1.00  0.00     0.195 A 
ENDBRANCH  24  25
ENDBRANCH  21  24
ENDBRANCH   7  21
ENDBRANCH   4   7
ENDBRANCH   2   3
ENDBRANCH   1   2
BRANCH   1  30
ATOM     30  C   UNL A   1      36.539  22.038  24.521  1.00  0.00     0.002 C 
BRANCH  30  31
ATOM     31  C   UNL A   1      36.466  20.581  24.991  1.00  0.00     0.002 C 
BRANCH  31  32
ATOM     32  C   UNL A   1      37.768  19.788  24.857  1.00  0.00     0.021 C 
BRANCH  32  33
ATOM     33  C   UNL A   1      38.881  20.222  25.807  1.00  0.00     0.116 C 
BRANCH  33  34
ATOM     34  N   UNL A   1      40.000  19.293  25.806  1.00  0.00    -0.352 N 
ATOM     35  C   UNL A   1      41.325  19.528  26.069  1.00  0.00     0.251 C 
ATOM     36  H   UNL A   1      39.774  18.361  25.584  1.00  0.00     0.163 HD
ATOM     37  O   UNL A   1      42.163  18.654  25.849  1.00  0.00    -0.269 OA
BRANCH  35  38
ATOM     38  C   UNL A   1      41.754  20.840  26.595  1.00  0.00     0.039 A 
ATOM     39  C   UNL A   1      42.234  21.800  25.700  1.00  0.00     0.014 A 
ATOM     40  C   UNL A   1      41.692  21.124  27.962  1.00  0.00     0.014 A 
ATOM     41  C   UNL A   1      42.594  23.065  26.170  1.00  0.00     0.010 A 
ATOM     42  C   UNL A   1      41.981  22.408  28.417  1.00  0.00     0.010 A 
ATOM     43  C   UNL A   1      42.437  23.391  27.527  1.00  0.00    -0.014 A 
BRANCH  43  44
ATOM     44  C   UNL A   1      42.739  24.756  28.028  1.00  0.00     0.031 A 
ATOM     45  C   UNL A   1      44.140  25.124  28.432  1.00  0.00     0.074 A 
ATOM     46  C   UNL A   1      41.738  25.646  28.178  1.00  0.00     0.049 A 
ATOM     47  N   UNL A   1      44.584  26.241  28.953  1.00  0.00    -0.248 NA
ATOM     48  C   UNL A   1      45.176  24.094  28.252  1.00  0.00     0.031 C 
ATOM     49  C   UNL A   1      40.328  25.395  27.870  1.00  0.00     0.029 A 
ATOM     50  N   UNL A   1      41.749  26.938  28.641  1.00  0.00    -0.354 N 
ATOM     51  C   UNL A   1      45.940  26.043  29.175  1.00  0.00     0.074 A 
ATOM     52  C   UNL A   1      46.240  24.684  28.779  1.00  0.00     0.031 C 
ATOM     53  C   UNL A   1      39.615  26.502  28.135  1.00  0.00     0.029 A 
ATOM     54  C   UNL A   1      40.508  27.526  28.668  1.00  0.00     0.049 A 
ATOM     55  H   UNL A   1      42.571  27.401  28.927  1.00  0.00     0.167 HD
ATOM     56  C   UNL A   1      46.857  26.921  29.647  1.00  0.00     0.037 A 
ATOM     57  C   UNL A   1      40.128  28.748  29.088  1.00  0.00     0.037 A 
ATOM     58  C   UNL A   1      46.563  28.281  30.014  1.00  0.00     0.049 A 
ATOM     59  C   UNL A   1      41.169  29.703  29.608  1.00  0.00     0.074 A 
ATOM     60  C   UNL A   1      47.437  29.266  30.439  1.00  0.00     0.029 A 
ATOM     61  N   UNL A   1      45.297  28.846  30.003  1.00  0.00    -0.354 N 
ATOM     62  N   UNL A   1      42.460  29.526  29.741  1.00  0.00    -0.248 NA
ATOM     63  C   UNL A   1      40.699  31.029  30.032  1.00  0.00     0.031 C 
ATOM     64  C   UNL A   1      46.694  30.413  30.732  1.00  0.00     0.029 A 
ATOM     65  C   UNL A   1      45.364  30.160  30.438  1.00  0.00     0.049 A 
ATOM     66  H   UNL A   1      44.472  28.383  29.729  1.00  0.00     0.167 HD
ATOM     67  C   UNL A   1      42.961  30.725  30.231  1.00  0.00     0.074 A 
ATOM     68  C   UNL A   1      41.836  31.626  30.358  1.00  0.00     0.031 C 
ATOM     69  C   UNL A   1      44.237  31.051  30.547  1.00  0.00     0.037 A 
BRANCH  56  70
ATOM     70  C   UNL A   1      48.273  26.443  29.791  1.00  0.00     0.057 A 
ATOM     71  C   UNL A   1      49.231  26.659  28.792  1.00  0.00     0.134 A 
ATOM     72  C   UNL A   1      48.698  25.813  30.968  1.00  0.00     0.134 A 
ATOM     73  F   UNL A   1      48.888  27.246  27.636  1.00  0.00    -0.206 F 
ATOM     74  C   UNL A   1      50.557  26.249  28.950  1.00  0.00     0.040 A 
ATOM     75  C   UNL A   1      50.027  25.424  31.149  1.00  0.00     0.040 A 
ATOM     76  F   UNL A   1      47.835  25.581  31.967  1.00  0.00    -0.206 F 
ATOM     77  C   UNL A   1      50.959  25.637  30.136  1.00  0.00     0.006 A 
ENDBRANCH  56  70
BRANCH  57  78
ATOM     78  C   UNL A   1      38.699  29.150  29.026  1.00  0.00     0.057 A 
ATOM     79  C   UNL A   1      37.875  29.072  30.155  1.00  0.00     0.134 A 
ATOM     80  C   UNL A   1      38.117  29.596  27.833  1.00  0.00     0.134 A 
ATOM     81  F   UNL A   1      38.370  28.633  31.323  1.00  0.00    -0.206 F 
ATOM     82  C   UNL A   1      36.518  29.394  30.095  1.00  0.00     0.040 A 
ATOM     83  C   UNL A   1      36.768  29.949  27.766  1.00  0.00     0.040 A 
ATOM     84  F   UNL A   1      38.853  29.702  26.718  1.00  0.00    -0.206 F 
ATOM     85  C   UNL A   1      35.962  29.838  28.896  1.00  0.00     0.006 A 
ENDBRANCH  57  78
BRANCH  69  86
ATOM     86  C   UNL A   1      44.495  32.452  31.020  1.00  0.00     0.057 A 
ATOM     87  C   UNL A   1      44.782  33.494  30.130  1.00  0.00     0.134 A 
ATOM     88  C   UNL A   1      44.414  32.767  32.382  1.00  0.00     0.134 A 
ATOM     89  F   UNL A   1      44.886  33.256  28.814  1.00  0.00    -0.206 F 
ATOM     90  C   UNL A   1      45.002  34.797  30.581  1.00  0.00     0.040 A 
ATOM     91  C   UNL A   1      44.604  34.072  32.842  1.00  0.00     0.040 A 
ATOM     92  F   UNL A   1      44.132  31.818  33.287  1.00  0.00    -0.206 F 
ATOM     93  C   UNL A   1      44.906  35.089  31.940  1.00  0.00     0.006 A 
ENDBRANCH  69  86
ENDBRANCH  43  44
ENDBRANCH  35  38
ENDBRANCH  33  34
ENDBRANCH  32  33
ENDBRANCH  31  32
ENDBRANCH  30  31
ENDBRANCH   1  30
TORSDOF 20
ENDMDL
MODEL 2
REMARK VINA RESULT:     -11.3      0.723      6.069
REMARK SMILES O=C(C[C@H]([NH2+]Cc1ccco1)C(=O)NCCCCCCNC(=O)c1ccc(-c2c3nc(c(-c4c(F)cccc4F)c4ccc([nH]4)c(-c4c(F)cccc4F)c4nc(c(-c5c(F)cccc5F)c5ccc2[nH]5)C=C4)C=C3)cc1)Nc1ccc(O)cc1
REMARK SMILES IDX 16 1 15 2 14 3 12 4 13 5 4 7 3 8 2 9 1 10 78 11 79 13 80 14
REMARK SMILES IDX 85 15 81 16 84 17 82 18 83 19 5 21 6 24 7 25 8 26 11 27 9 28
REMARK SMILES IDX 10 29 17 30 18 31 19 32 20 33 21 34 22 35 23 37 24 38 25 39
REMARK SMILES IDX 77 40 26 41 76 42 27 43 28 44 29 45 70 46 30 47 75 48 69 49
REMARK SMILES IDX 71 50 31 51 74 52 68 53 67 54 32 56 58 57 41 58 57 59 42 60
REMARK SMILES IDX 45 61 56 62 72 63 43 64 44 65 55 67 73 68 46 69 33 70 34 71
REMARK SMILES IDX 39 72 35 73 36 74 38 75 40 76 37 77 59 78 60 79 65 80 61 81
REMARK SMILES IDX 62 82 64 83 66 84 63 85 47 86 48 87 53 88 49 89 50 90 52 91
REMARK SMILES IDX 54 92 51 93
REMARK H PARENT 14 6 78 12 83 20 5 22 5 23 21 36 71 55 45 66
REMARK Flexibility Score: inf
ROOT
ATOM      1  C   UNL A   1      35.686  22.848  26.100  1.00  0.00     0.021 C 
ENDROOT
BRANCH   1   2
ATOM      2  C   UNL A   1      34.877  21.888  26.968  1.00  0.00     0.116 C 
BRANCH   2   3
ATOM      3  N   UNL A   1      33.727  22.549  27.561  1.00  0.00    -0.351 N 
ATOM      4  C   UNL A   1      32.502  22.814  27.022  1.00  0.00     0.278 C 
ATOM      5  O   UNL A   1      31.686  23.446  27.698  1.00  0.00    -0.268 OA
ATOM      6  H   UNL A   1      33.849  22.852  28.490  1.00  0.00     0.163 HD
BRANCH   4   7
ATOM      7  C   UNL A   1      32.112  22.285  25.629  1.00  0.00     0.282 C 
BRANCH   7   8
ATOM      8  C   UNL A   1      30.851  23.045  25.196  1.00  0.00     0.175 C 
BRANCH   8   9
ATOM      9  C   UNL A   1      31.068  24.145  24.186  1.00  0.00     0.230 C 
ATOM     10  O   UNL A   1      31.451  23.873  23.052  1.00  0.00    -0.274 OA
ATOM     11  N   UNL A   1      30.777  25.409  24.664  1.00  0.00    -0.326 N 
ATOM     12  H   UNL A   1      30.583  25.488  25.626  1.00  0.00     0.169 HD
BRANCH  11  13
ATOM     13  C   UNL A   1      30.730  26.596  23.905  1.00  0.00     0.041 A 
ATOM     14  C   UNL A   1      31.950  27.164  23.518  1.00  0.00     0.030 A 
ATOM     15  C   UNL A   1      29.539  27.240  23.554  1.00  0.00     0.030 A 
ATOM     16  C   UNL A   1      31.974  28.341  22.767  1.00  0.00     0.048 A 
ATOM     17  C   UNL A   1      29.562  28.428  22.820  1.00  0.00     0.048 A 
ATOM     18  C   UNL A   1      30.782  28.965  22.427  1.00  0.00     0.115 A 
BRANCH  18  19
ATOM     19  O   UNL A   1      30.848  30.117  21.702  1.00  0.00    -0.508 OA
ATOM     20  H   UNL A   1      30.950  30.079  20.771  1.00  0.00     0.293 HD
ENDBRANCH  18  19
ENDBRANCH  11  13
ENDBRANCH   8   9
ENDBRANCH   7   8
BRANCH   7  21
ATOM     21  N   UNL A   1      32.001  20.809  25.616  1.00  0.00    -0.329 N 
ATOM     22  H   UNL A   1      31.016  20.553  25.697  1.00  0.00     0.347 HD
ATOM     23  H   UNL A   1      32.542  20.446  26.400  1.00  0.00     0.347 HD
BRANCH  21  24
ATOM     24  C   UNL A   1      32.543  20.226  24.381  1.00  0.00     0.337 C 
BRANCH  24  25
ATOM     25  C   UNL A   1      32.913  18.794  24.568  1.00  0.00     0.157 A 
ATOM     26  C   UNL A   1      34.003  18.021  24.214  1.00  0.00     0.052 A 
ATOM     27  O   UNL A   1      32.016  18.032  25.261  1.00  0.00    -0.463 OA
ATOM     28  C   UNL A   1      33.752  16.719  24.713  1.00  0.00     0.042 A 
ATOM     29  C   UNL A   1      32.530  16.778  25.339  1.00  0.00     0.195 A 
ENDBRANCH  24  25
ENDBRANCH  21  24
ENDBRANCH   7  21
ENDBRANCH   4   7
ENDBRANCH   2   3
ENDBRANCH   1   2
BRANCH   1  30
ATOM     30  C   UNL A   1      36.460  22.169  24.964  1.00  0.00     0.002 C 
BRANCH  30  31
ATOM     31  C   UNL A   1      36.484  20.637  25.015  1.00  0.00     0.002 C 
BRANCH  31  32
ATOM     32  C   UNL A   1      37.848  19.998  24.742  1.00  0.00     0.021 C 
BRANCH  32  33
ATOM     33  C   UNL A   1      38.920  20.312  25.781  1.00  0.00     0.116 C 
BRANCH  33  34
ATOM     34  N   UNL A   1      39.968  19.305  25.814  1.00  0.00    -0.352 N 
ATOM     35  C   UNL A   1      41.305  19.449  26.083  1.00  0.00     0.251 C 
ATOM     36  H   UNL A   1      39.676  18.387  25.614  1.00  0.00     0.163 HD
ATOM     37  O   UNL A   1      42.078  18.511  25.893  1.00  0.00    -0.269 OA
BRANCH  35  38
ATOM     38  C   UNL A   1      41.824  20.740  26.580  1.00  0.00     0.039 A 
ATOM     39  C   UNL A   1      42.322  21.666  25.659  1.00  0.00     0.014 A 
ATOM     40  C   UNL A   1      41.831  21.037  27.946  1.00  0.00     0.014 A 
ATOM     41  C   UNL A   1      42.768  22.912  26.102  1.00  0.00     0.010 A 
ATOM     42  C   UNL A   1      42.207  22.306  28.378  1.00  0.00     0.010 A 
ATOM     43  C   UNL A   1      42.682  23.257  27.461  1.00  0.00    -0.014 A 
BRANCH  43  44
ATOM     44  C   UNL A   1      43.076  24.607  27.937  1.00  0.00     0.031 A 
ATOM     45  C   UNL A   1      42.029  25.653  28.205  1.00  0.00     0.074 A 
ATOM     46  C   UNL A   1      44.382  24.911  28.070  1.00  0.00     0.049 A 
ATOM     47  N   UNL A   1      42.183  26.904  28.562  1.00  0.00    -0.248 NA
ATOM     48  C   UNL A   1      40.625  25.250  28.024  1.00  0.00     0.031 C 
ATOM     49  C   UNL A   1      45.496  24.000  27.793  1.00  0.00     0.029 A 
ATOM     50  N   UNL A   1      44.998  26.075  28.458  1.00  0.00    -0.354 N 
ATOM     51  C   UNL A   1      40.903  27.438  28.632  1.00  0.00     0.074 A 
ATOM     52  C   UNL A   1      39.986  26.392  28.236  1.00  0.00     0.031 C 
ATOM     53  C   UNL A   1      46.654  24.633  28.037  1.00  0.00     0.029 A 
ATOM     54  C   UNL A   1      46.369  26.004  28.448  1.00  0.00     0.049 A 
ATOM     55  H   UNL A   1      44.501  26.885  28.719  1.00  0.00     0.167 HD
ATOM     56  C   UNL A   1      40.525  28.681  29.014  1.00  0.00     0.037 A 
ATOM     57  C   UNL A   1      47.295  26.942  28.727  1.00  0.00     0.037 A 
ATOM     58  C   UNL A   1      41.437  29.712  29.435  1.00  0.00     0.049 A 
ATOM     59  C   UNL A   1      46.846  28.316  29.147  1.00  0.00     0.074 A 
ATOM     60  C   UNL A   1      41.145  30.981  29.903  1.00  0.00     0.029 A 
ATOM     61  N   UNL A   1      42.819  29.593  29.434  1.00  0.00    -0.354 N 
ATOM     62  N   UNL A   1      45.629  28.782  29.282  1.00  0.00    -0.248 NA
ATOM     63  C   UNL A   1      47.900  29.291  29.458  1.00  0.00     0.031 C 
ATOM     64  C   UNL A   1      42.351  31.648  30.140  1.00  0.00     0.029 A 
ATOM     65  C   UNL A   1      43.393  30.776  29.872  1.00  0.00     0.049 A 
ATOM     66  H   UNL A   1      43.318  28.789  29.164  1.00  0.00     0.167 HD
ATOM     67  C   UNL A   1      45.770  30.091  29.725  1.00  0.00     0.074 A 
ATOM     68  C   UNL A   1      47.190  30.340  29.849  1.00  0.00     0.031 C 
ATOM     69  C   UNL A   1      44.809  31.005  30.004  1.00  0.00     0.037 A 
BRANCH  56  70
ATOM     70  C   UNL A   1      39.059  29.001  29.000  1.00  0.00     0.057 A 
ATOM     71  C   UNL A   1      38.261  28.864  30.143  1.00  0.00     0.134 A 
ATOM     72  C   UNL A   1      38.449  29.510  27.846  1.00  0.00     0.134 A 
ATOM     73  F   UNL A   1      38.780  28.372  31.279  1.00  0.00    -0.206 F 
ATOM     74  C   UNL A   1      36.907  29.204  30.135  1.00  0.00     0.040 A 
ATOM     75  C   UNL A   1      37.103  29.879  27.832  1.00  0.00     0.040 A 
ATOM     76  F   UNL A   1      39.156  29.674  26.717  1.00  0.00    -0.206 F 
ATOM     77  C   UNL A   1      36.327  29.722  28.978  1.00  0.00     0.006 A 
ENDBRANCH  56  70
BRANCH  57  78
ATOM     78  C   UNL A   1      48.741  26.618  28.629  1.00  0.00     0.057 A 
ATOM     79  C   UNL A   1      49.468  26.202  29.751  1.00  0.00     0.134 A 
ATOM     80  C   UNL A   1      49.438  26.743  27.421  1.00  0.00     0.134 A 
ATOM     81  F   UNL A   1      48.861  26.081  30.942  1.00  0.00    -0.206 F 
ATOM     82  C   UNL A   1      50.839  25.948  29.683  1.00  0.00     0.040 A 
ATOM     83  C   UNL A   1      50.803  26.466  27.332  1.00  0.00     0.040 A 
ATOM     84  F   UNL A   1      48.800  27.130  26.307  1.00  0.00    -0.206 F 
ATOM     85  C   UNL A   1      51.510  26.077  28.468  1.00  0.00     0.006 A 
ENDBRANCH  57  78
BRANCH  69  86
ATOM     86  C   UNL A   1      45.258  32.344  30.511  1.00  0.00     0.057 A 
ATOM     87  C   UNL A   1      45.468  33.431  29.653  1.00  0.00     0.134 A 
ATOM     88  C   UNL A   1      45.445  32.557  31.883  1.00  0.00     0.134 A 
ATOM     89  F   UNL A   1      45.318  33.290  28.327  1.00  0.00    -0.206 F 
ATOM     90  C   UNL A   1      45.869  34.676  30.140  1.00  0.00     0.040 A 
ATOM     91  C   UNL A   1      45.818  33.805  32.385  1.00  0.00     0.040 A 
ATOM     92  F   UNL A   1      45.251  31.561  32.761  1.00  0.00    -0.206 F 
ATOM     93  C   UNL A   1      46.038  34.867  31.510  1.00  0.00     0.006 A 
ENDBRANCH  69  86
ENDBRANCH  43  44
ENDBRANCH  35  38
ENDBRANCH  33  34
ENDBRANCH  32  33
ENDBRANCH  31  32
ENDBRANCH  30  31
ENDBRANCH   1  30
TORSDOF 20
ENDMDL
MODEL 3
REMARK VINA RESULT:     -11.2      5.962     12.667
REMARK SMILES O=C(C[C@H]([NH2+]Cc1ccco1)C(=O)NCCCCCCNC(=O)c1ccc(-c2c3nc(c(-c4c(F)cccc4F)c4ccc([nH]4)c(-c4c(F)cccc4F)c4nc(c(-c5c(F)cccc5F)c5ccc2[nH]5)C=C4)C=C3)cc1)Nc1ccc(O)cc1
REMARK SMILES IDX 16 1 15 2 14 3 12 4 13 5 4 7 3 8 2 9 1 10 78 11 79 13 80 14
REMARK SMILES IDX 85 15 81 16 84 17 82 18 83 19 5 21 6 24 7 25 8 26 11 27 9 28
REMARK SMILES IDX 10 29 17 30 18 31 19 32 20 33 21 34 22 35 23 37 24 38 25 39
REMARK SMILES IDX 77 40 26 41 76 42 27 43 28 44 29 45 70 46 30 47 75 48 69 49
REMARK SMILES IDX 71 50 31 51 74 52 68 53 67 54 32 56 58 57 41 58 57 59 42 60
REMARK SMILES IDX 45 61 56 62 72 63 43 64 44 65 55 67 73 68 46 69 33 70 34 71
REMARK SMILES IDX 39 72 35 73 36 74 38 75 40 76 37 77 59 78 60 79 65 80 61 81
REMARK SMILES IDX 62 82 64 83 66 84 63 85 47 86 48 87 53 88 49 89 50 90 52 91
REMARK SMILES IDX 54 92 51 93
REMARK H PARENT 14 6 78 12 83 20 5 22 5 23 21 36 71 55 45 66
REMARK Flexibility Score: inf
ROOT
ATOM      1  C   UNL A   1      35.457  33.464  33.664  1.00  0.00     0.021 C 
ENDROOT
BRANCH   1   2
ATOM      2  C   UNL A   1      36.756  33.008  34.327  1.00  0.00     0.116 C 
BRANCH   2   3
ATOM      3  N   UNL A   1      37.057  31.623  34.006  1.00  0.00    -0.351 N 
ATOM      4  C   UNL A   1      38.117  30.853  34.386  1.00  0.00     0.278 C 
ATOM      5  O   UNL A   1      38.198  29.704  33.943  1.00  0.00    -0.268 OA
ATOM      6  H   UNL A   1      36.398  31.172  33.429  1.00  0.00     0.163 HD
BRANCH   4   7
ATOM      7  C   UNL A   1      39.159  31.372  35.395  1.00  0.00     0.282 C 
BRANCH   7   8
ATOM      8  C   UNL A   1      40.536  30.905  34.900  1.00  0.00     0.175 C 
BRANCH   8   9
ATOM      9  C   UNL A   1      41.346  30.102  35.888  1.00  0.00     0.230 C 
ATOM     10  O   UNL A   1      41.581  30.556  37.004  1.00  0.00    -0.274 OA
ATOM     11  N   UNL A   1      41.742  28.866  35.413  1.00  0.00    -0.326 N 
ATOM     12  H   UNL A   1      41.574  28.680  34.461  1.00  0.00     0.169 HD
BRANCH  11  13
ATOM     13  C   UNL A   1      42.362  27.846  36.162  1.00  0.00     0.041 A 
ATOM     14  C   UNL A   1      41.610  26.696  36.433  1.00  0.00     0.030 A 
ATOM     15  C   UNL A   1      43.662  27.943  36.668  1.00  0.00     0.030 A 
ATOM     16  C   UNL A   1      42.164  25.649  37.174  1.00  0.00     0.048 A 
ATOM     17  C   UNL A   1      44.210  26.905  37.425  1.00  0.00     0.048 A 
ATOM     18  C   UNL A   1      43.457  25.762  37.666  1.00  0.00     0.115 A 
BRANCH  18  19
ATOM     19  O   UNL A   1      43.957  24.723  38.391  1.00  0.00    -0.508 OA
ATOM     20  H   UNL A   1      44.458  24.055  37.967  1.00  0.00     0.293 HD
ENDBRANCH  18  19
ENDBRANCH  11  13
ENDBRANCH   8   9
ENDBRANCH   7   8
BRANCH   7  21
ATOM     21  N   UNL A   1      38.817  30.984  36.782  1.00  0.00    -0.329 N 
ATOM     22  H   UNL A   1      39.682  30.832  37.302  1.00  0.00     0.347 HD
ATOM     23  H   UNL A   1      38.255  30.134  36.742  1.00  0.00     0.347 HD
BRANCH  21  24
ATOM     24  C   UNL A   1      38.029  32.019  37.465  1.00  0.00     0.337 C 
BRANCH  24  25
ATOM     25  C   UNL A   1      38.900  33.098  38.013  1.00  0.00     0.157 A 
ATOM     26  C   UNL A   1      38.810  34.475  38.081  1.00  0.00     0.052 A 
ATOM     27  O   UNL A   1      40.052  32.684  38.619  1.00  0.00    -0.463 OA
ATOM     28  C   UNL A   1      39.971  34.923  38.756  1.00  0.00     0.042 A 
ATOM     29  C   UNL A   1      40.696  33.795  39.060  1.00  0.00     0.195 A 
ENDBRANCH  24  25
ENDBRANCH  21  24
ENDBRANCH   7  21
ENDBRANCH   4   7
ENDBRANCH   2   3
ENDBRANCH   1   2
BRANCH   1  30
ATOM     30  C   UNL A   1      35.510  34.883  33.089  1.00  0.00     0.002 C 
BRANCH  30  31
ATOM     31  C   UNL A   1      34.287  35.757  33.390  1.00  0.00     0.002 C 
BRANCH  31  32
ATOM     32  C   UNL A   1      33.157  35.671  32.363  1.00  0.00     0.021 C 
BRANCH  32  33
ATOM     33  C   UNL A   1      33.482  36.281  31.003  1.00  0.00     0.116 C 
BRANCH  33  34
ATOM     34  N   UNL A   1      32.753  35.638  29.921  1.00  0.00    -0.352 N 
ATOM     35  C   UNL A   1      33.153  34.630  29.081  1.00  0.00     0.251 C 
ATOM     36  H   UNL A   1      31.840  35.974  29.770  1.00  0.00     0.163 HD
ATOM     37  O   UNL A   1      32.466  34.329  28.106  1.00  0.00    -0.269 OA
BRANCH  35  38
ATOM     38  C   UNL A   1      34.424  33.919  29.332  1.00  0.00     0.039 A 
ATOM     39  C   UNL A   1      35.585  34.373  28.701  1.00  0.00     0.014 A 
ATOM     40  C   UNL A   1      34.473  32.807  30.176  1.00  0.00     0.014 A 
ATOM     41  C   UNL A   1      36.806  33.749  28.966  1.00  0.00     0.010 A 
ATOM     42  C   UNL A   1      35.701  32.232  30.495  1.00  0.00     0.010 A 
ATOM     43  C   UNL A   1      36.880  32.696  29.892  1.00  0.00    -0.014 A 
BRANCH  43  44
ATOM     44  C   UNL A   1      38.182  32.074  30.245  1.00  0.00     0.031 A 
ATOM     45  C   UNL A   1      39.145  32.792  31.151  1.00  0.00     0.074 A 
ATOM     46  C   UNL A   1      38.524  30.890  29.700  1.00  0.00     0.049 A 
ATOM     47  N   UNL A   1      40.351  32.440  31.520  1.00  0.00    -0.248 NA
ATOM     48  C   UNL A   1      38.705  34.087  31.696  1.00  0.00     0.031 C 
ATOM     49  C   UNL A   1      37.700  30.118  28.768  1.00  0.00     0.029 A 
ATOM     50  N   UNL A   1      39.661  30.134  29.840  1.00  0.00    -0.354 N 
ATOM     51  C   UNL A   1      40.818  33.473  32.323  1.00  0.00     0.074 A 
ATOM     52  C   UNL A   1      39.786  34.487  32.350  1.00  0.00     0.031 C 
ATOM     53  C   UNL A   1      38.350  28.991  28.434  1.00  0.00     0.029 A 
ATOM     54  C   UNL A   1      39.651  28.979  29.096  1.00  0.00     0.049 A 
ATOM     55  H   UNL A   1      40.413  30.395  30.420  1.00  0.00     0.167 HD
ATOM     56  C   UNL A   1      41.992  33.559  32.993  1.00  0.00     0.037 A 
ATOM     57  C   UNL A   1      40.589  28.024  28.952  1.00  0.00     0.037 A 
ATOM     58  C   UNL A   1      43.005  32.537  32.987  1.00  0.00     0.049 A 
ATOM     59  C   UNL A   1      41.884  28.146  29.708  1.00  0.00     0.074 A 
ATOM     60  C   UNL A   1      44.198  32.503  33.687  1.00  0.00     0.029 A 
ATOM     61  N   UNL A   1      42.946  31.370  32.239  1.00  0.00    -0.354 N 
ATOM     62  N   UNL A   1      42.280  29.093  30.523  1.00  0.00    -0.248 NA
ATOM     63  C   UNL A   1      42.861  27.063  29.528  1.00  0.00     0.031 C 
ATOM     64  C   UNL A   1      44.884  31.339  33.327  1.00  0.00     0.029 A 
ATOM     65  C   UNL A   1      44.094  30.621  32.445  1.00  0.00     0.049 A 
ATOM     66  H   UNL A   1      42.200  31.112  31.650  1.00  0.00     0.167 HD
ATOM     67  C   UNL A   1      43.533  28.705  30.978  1.00  0.00     0.074 A 
ATOM     68  C   UNL A   1      43.826  27.430  30.359  1.00  0.00     0.031 C 
ATOM     69  C   UNL A   1      44.367  29.347  31.832  1.00  0.00     0.037 A 
BRANCH  56  70
ATOM     70  C   UNL A   1      42.248  34.800  33.797  1.00  0.00     0.057 A 
ATOM     71  C   UNL A   1      41.921  34.879  35.158  1.00  0.00     0.134 A 
ATOM     72  C   UNL A   1      42.884  35.907  33.221  1.00  0.00     0.134 A 
ATOM     73  F   UNL A   1      41.301  33.859  35.769  1.00  0.00    -0.206 F 
ATOM     74  C   UNL A   1      42.201  36.021  35.911  1.00  0.00     0.040 A 
ATOM     75  C   UNL A   1      43.194  37.044  33.970  1.00  0.00     0.040 A 
ATOM     76  F   UNL A   1      43.230  35.895  31.925  1.00  0.00    -0.206 F 
ATOM     77  C   UNL A   1      42.848  37.104  35.317  1.00  0.00     0.006 A 
ENDBRANCH  56  70
BRANCH  57  78
ATOM     78  C   UNL A   1      40.341  26.859  28.064  1.00  0.00     0.057 A 
ATOM     79  C   UNL A   1      39.547  25.785  28.482  1.00  0.00     0.134 A 
ATOM     80  C   UNL A   1      40.912  26.779  26.788  1.00  0.00     0.134 A 
ATOM     81  F   UNL A   1      38.988  25.794  29.702  1.00  0.00    -0.206 F 
ATOM     82  C   UNL A   1      39.353  24.660  27.678  1.00  0.00     0.040 A 
ATOM     83  C   UNL A   1      40.703  25.674  25.961  1.00  0.00     0.040 A 
ATOM     84  F   UNL A   1      41.677  27.777  26.323  1.00  0.00    -0.206 F 
ATOM     85  C   UNL A   1      39.930  24.605  26.410  1.00  0.00     0.006 A 
ENDBRANCH  57  78
BRANCH  69  86
ATOM     86  C   UNL A   1      45.656  28.663  32.181  1.00  0.00     0.057 A 
ATOM     87  C   UNL A   1      45.708  27.595  33.085  1.00  0.00     0.134 A 
ATOM     88  C   UNL A   1      46.856  29.055  31.572  1.00  0.00     0.134 A 
ATOM     89  F   UNL A   1      44.597  27.179  33.712  1.00  0.00    -0.206 F 
ATOM     90  C   UNL A   1      46.911  26.956  33.389  1.00  0.00     0.040 A 
ATOM     91  C   UNL A   1      48.060  28.404  31.846  1.00  0.00     0.040 A 
ATOM     92  F   UNL A   1      46.875  30.064  30.689  1.00  0.00    -0.206 F 
ATOM     93  C   UNL A   1      48.090  27.356  32.763  1.00  0.00     0.006 A 
ENDBRANCH  69  86
ENDBRANCH  43  44
ENDBRANCH  35  38
ENDBRANCH  33  34
ENDBRANCH  32  33
ENDBRANCH  31  32
ENDBRANCH  30  31
ENDBRANCH   1  30
TORSDOF 20
ENDMDL
