MODEL 1
REMARK VINA RESULT:      -8.5      0.000      0.000
REMARK SMILES O=C(CCNC(=O)C1CCCCC1)NCCCCCCNC(=O)c1ccc(-c2c3nc(c(-c4c(F)cccc4F)c4ccc([nH]4)c(-c4c(F)cccc4F)c4nc(c(-c5c(F)cccc5F)c5ccc2[nH]5)C=C4)C=C3)cc1
REMARK SMILES IDX 17 1 16 2 15 3 14 4 1 5 2 6 3 8 4 9 5 10 6 11 7 13 8 14 9 15
REMARK SMILES IDX 13 16 10 17 12 18 11 19 18 20 19 21 20 22 21 23 22 24 23 26
REMARK SMILES IDX 24 27 25 28 77 29 26 30 76 31 27 32 28 33 29 34 70 35 30 36
REMARK SMILES IDX 75 37 69 38 71 39 31 40 74 41 68 42 67 43 32 45 58 46 41 47
REMARK SMILES IDX 57 48 42 49 45 50 56 51 72 52 43 53 44 54 55 56 73 57 46 58
REMARK SMILES IDX 33 59 34 60 39 61 35 62 36 63 38 64 40 65 37 66 59 67 60 68
REMARK SMILES IDX 65 69 61 70 62 71 64 72 66 73 63 74 47 75 48 76 53 77 49 78
REMARK SMILES IDX 50 79 52 80 54 81 51 82
REMARK H PARENT 14 7 5 12 21 25 71 44 45 55
REMARK Flexibility Score: inf
ROOT
ATOM      1  C   UNL A   1      34.413  34.028  33.433  1.00  0.00     0.002 C 
ENDROOT
BRANCH   1   2
ATOM      2  C   UNL A   1      35.749  33.380  33.827  1.00  0.00     0.021 C 
BRANCH   2   3
ATOM      3  C   UNL A   1      36.838  34.374  34.227  1.00  0.00     0.116 C 
BRANCH   3   4
ATOM      4  N   UNL A   1      37.839  33.727  35.045  1.00  0.00    -0.356 N 
ATOM      5  O   UNL A   1      36.580  33.536  36.961  1.00  0.00    -0.275 OA
ATOM      6  C   UNL A   1      37.635  33.380  36.358  1.00  0.00     0.221 C 
ATOM      7  H   UNL A   1      38.713  33.525  34.640  1.00  0.00     0.163 HD
BRANCH   6   8
ATOM      8  C   UNL A   1      38.857  32.770  36.999  1.00  0.00     0.121 C 
BRANCH   8   9
ATOM      9  C   UNL A   1      39.126  31.372  36.462  1.00  0.00     0.125 C 
BRANCH   9  10
ATOM     10  N   UNL A   1      40.308  31.303  35.608  1.00  0.00    -0.355 N 
ATOM     11  C   UNL A   1      40.542  30.559  34.486  1.00  0.00     0.223 C 
ATOM     12  H   UNL A   1      41.053  31.885  35.882  1.00  0.00     0.163 HD
ATOM     13  O   UNL A   1      41.658  30.629  33.973  1.00  0.00    -0.275 OA
BRANCH  11  14
ATOM     14  C   UNL A   1      39.422  29.691  33.924  1.00  0.00     0.078 C 
ATOM     15  C   UNL A   1      38.373  30.564  33.219  1.00  0.00     0.013 C 
ATOM     16  C   UNL A   1      39.954  28.644  32.928  1.00  0.00     0.013 C 
ATOM     17  C   UNL A   1      37.217  29.712  32.710  1.00  0.00     0.001 C 
ATOM     18  C   UNL A   1      38.824  27.796  32.341  1.00  0.00     0.001 C 
ATOM     19  C   UNL A   1      37.712  28.650  31.735  1.00  0.00     0.000 C 
ENDBRANCH  11  14
ENDBRANCH   9  10
ENDBRANCH   8   9
ENDBRANCH   6   8
ENDBRANCH   3   4
ENDBRANCH   2   3
ENDBRANCH   1   2
BRANCH   1  20
ATOM     20  C   UNL A   1      34.523  35.205  32.460  1.00  0.00     0.002 C 
BRANCH  20  21
ATOM     21  C   UNL A   1      33.213  35.597  31.775  1.00  0.00     0.021 C 
BRANCH  21  22
ATOM     22  C   UNL A   1      33.377  36.173  30.374  1.00  0.00     0.116 C 
BRANCH  22  23
ATOM     23  N   UNL A   1      32.659  35.407  29.368  1.00  0.00    -0.352 N 
ATOM     24  C   UNL A   1      33.097  34.346  28.618  1.00  0.00     0.251 C 
ATOM     25  H   UNL A   1      31.730  35.688  29.203  1.00  0.00     0.163 HD
ATOM     26  O   UNL A   1      32.409  33.912  27.695  1.00  0.00    -0.269 OA
BRANCH  24  27
ATOM     27  C   UNL A   1      34.412  33.734  28.904  1.00  0.00     0.039 A 
ATOM     28  C   UNL A   1      35.531  34.177  28.193  1.00  0.00     0.014 A 
ATOM     29  C   UNL A   1      34.542  32.721  29.859  1.00  0.00     0.014 A 
ATOM     30  C   UNL A   1      36.788  33.634  28.472  1.00  0.00     0.010 A 
ATOM     31  C   UNL A   1      35.805  32.238  30.189  1.00  0.00     0.010 A 
ATOM     32  C   UNL A   1      36.940  32.677  29.489  1.00  0.00    -0.014 A 
BRANCH  32  33
ATOM     33  C   UNL A   1      38.269  32.094  29.805  1.00  0.00     0.031 A 
ATOM     34  C   UNL A   1      39.255  32.880  30.627  1.00  0.00     0.074 A 
ATOM     35  C   UNL A   1      38.605  30.882  29.324  1.00  0.00     0.049 A 
ATOM     36  N   UNL A   1      40.488  32.582  30.949  1.00  0.00    -0.248 NA
ATOM     37  C   UNL A   1      38.803  34.187  31.134  1.00  0.00     0.031 C 
ATOM     38  C   UNL A   1      37.756  30.036  28.483  1.00  0.00     0.029 A 
ATOM     39  N   UNL A   1      39.760  30.153  29.464  1.00  0.00    -0.354 N 
ATOM     40  C   UNL A   1      40.957  33.661  31.689  1.00  0.00     0.074 A 
ATOM     41  C   UNL A   1      39.902  34.649  31.713  1.00  0.00     0.031 C 
ATOM     42  C   UNL A   1      38.412  28.899  28.196  1.00  0.00     0.029 A 
ATOM     43  C   UNL A   1      39.740  28.951  28.800  1.00  0.00     0.049 A 
ATOM     44  H   UNL A   1      40.532  30.465  29.990  1.00  0.00     0.167 HD
ATOM     45  C   UNL A   1      42.145  33.804  32.321  1.00  0.00     0.037 A 
ATOM     46  C   UNL A   1      40.689  28.002  28.684  1.00  0.00     0.037 A 
ATOM     47  C   UNL A   1      43.190  32.815  32.313  1.00  0.00     0.049 A 
ATOM     48  C   UNL A   1      42.008  28.194  29.385  1.00  0.00     0.074 A 
ATOM     49  C   UNL A   1      44.427  32.859  32.934  1.00  0.00     0.029 A 
ATOM     50  N   UNL A   1      43.115  31.595  31.657  1.00  0.00    -0.354 N 
ATOM     51  N   UNL A   1      42.419  29.201  30.116  1.00  0.00    -0.248 NA
ATOM     52  C   UNL A   1      42.991  27.108  29.255  1.00  0.00     0.031 C 
ATOM     53  C   UNL A   1      45.113  31.681  32.628  1.00  0.00     0.029 A 
ATOM     54  C   UNL A   1      44.284  30.880  31.859  1.00  0.00     0.049 A 
ATOM     55  H   UNL A   1      42.346  31.284  31.128  1.00  0.00     0.167 HD
ATOM     56  C   UNL A   1      43.686  28.852  30.567  1.00  0.00     0.074 A 
ATOM     57  C   UNL A   1      43.971  27.536  30.037  1.00  0.00     0.031 C 
ATOM     58  C   UNL A   1      44.538  29.557  31.350  1.00  0.00     0.037 A 
BRANCH  45  59
ATOM     59  C   UNL A   1      42.372  35.069  33.096  1.00  0.00     0.057 A 
ATOM     60  C   UNL A   1      43.087  36.144  32.550  1.00  0.00     0.134 A 
ATOM     61  C   UNL A   1      41.832  35.238  34.377  1.00  0.00     0.134 A 
ATOM     62  F   UNL A   1      43.642  36.043  31.332  1.00  0.00    -0.206 F 
ATOM     63  C   UNL A   1      43.273  37.332  33.257  1.00  0.00     0.040 A 
ATOM     64  C   UNL A   1      41.988  36.433  35.083  1.00  0.00     0.040 A 
ATOM     65  F   UNL A   1      41.132  34.252  34.958  1.00  0.00    -0.206 F 
ATOM     66  C   UNL A   1      42.714  37.483  34.524  1.00  0.00     0.006 A 
ENDBRANCH  45  59
BRANCH  46  67
ATOM     67  C   UNL A   1      40.435  26.776  27.884  1.00  0.00     0.057 A 
ATOM     68  C   UNL A   1      39.669  25.721  28.394  1.00  0.00     0.134 A 
ATOM     69  C   UNL A   1      40.992  26.608  26.611  1.00  0.00     0.134 A 
ATOM     70  F   UNL A   1      39.122  25.813  29.615  1.00  0.00    -0.206 F 
ATOM     71  C   UNL A   1      39.499  24.529  27.686  1.00  0.00     0.040 A 
ATOM     72  C   UNL A   1      40.806  25.434  25.879  1.00  0.00     0.040 A 
ATOM     73  F   UNL A   1      41.729  27.584  26.059  1.00  0.00    -0.206 F 
ATOM     74  C   UNL A   1      40.069  24.384  26.424  1.00  0.00     0.006 A 
ENDBRANCH  46  67
BRANCH  58  75
ATOM     75  C   UNL A   1      45.827  28.893  31.739  1.00  0.00     0.057 A 
ATOM     76  C   UNL A   1      46.995  29.027  30.980  1.00  0.00     0.134 A 
ATOM     77  C   UNL A   1      45.901  28.129  32.912  1.00  0.00     0.134 A 
ATOM     78  F   UNL A   1      46.990  29.736  29.841  1.00  0.00    -0.206 F 
ATOM     79  C   UNL A   1      48.185  28.402  31.358  1.00  0.00     0.040 A 
ATOM     80  C   UNL A   1      47.092  27.523  33.315  1.00  0.00     0.040 A 
ATOM     81  F   UNL A   1      44.821  27.967  33.691  1.00  0.00    -0.206 F 
ATOM     82  C   UNL A   1      48.237  27.652  32.531  1.00  0.00     0.006 A 
ENDBRANCH  58  75
ENDBRANCH  32  33
ENDBRANCH  24  27
ENDBRANCH  22  23
ENDBRANCH  21  22
ENDBRANCH  20  21
ENDBRANCH   1  20
TORSDOF 16
ENDMDL
MODEL 2
REMARK VINA RESULT:      -8.4      4.033      7.400
REMARK SMILES O=C(CCNC(=O)C1CCCCC1)NCCCCCCNC(=O)c1ccc(-c2c3nc(c(-c4c(F)cccc4F)c4ccc([nH]4)c(-c4c(F)cccc4F)c4nc(c(-c5c(F)cccc5F)c5ccc2[nH]5)C=C4)C=C3)cc1
REMARK SMILES IDX 17 1 16 2 15 3 14 4 1 5 2 6 3 8 4 9 5 10 6 11 7 13 8 14 9 15
REMARK SMILES IDX 13 16 10 17 12 18 11 19 18 20 19 21 20 22 21 23 22 24 23 26
REMARK SMILES IDX 24 27 25 28 77 29 26 30 76 31 27 32 28 33 29 34 70 35 30 36
REMARK SMILES IDX 75 37 69 38 71 39 31 40 74 41 68 42 67 43 32 45 58 46 41 47
REMARK SMILES IDX 57 48 42 49 45 50 56 51 72 52 43 53 44 54 55 56 73 57 46 58
REMARK SMILES IDX 33 59 34 60 39 61 35 62 36 63 38 64 40 65 37 66 59 67 60 68
REMARK SMILES IDX 65 69 61 70 62 71 64 72 66 73 63 74 47 75 48 76 53 77 49 78
REMARK SMILES IDX 50 79 52 80 54 81 51 82
REMARK H PARENT 14 7 5 12 21 25 71 44 45 55
REMARK Flexibility Score: inf
ROOT
ATOM      1  C   UNL A   1      34.818  32.751  29.045  1.00  0.00     0.002 C 
ENDROOT
BRANCH   1   2
ATOM      2  C   UNL A   1      34.937  31.756  27.881  1.00  0.00     0.021 C 
BRANCH   2   3
ATOM      3  C   UNL A   1      33.651  30.990  27.573  1.00  0.00     0.116 C 
BRANCH   3   4
ATOM      4  N   UNL A   1      33.825  30.162  26.400  1.00  0.00    -0.356 N 
ATOM      5  O   UNL A   1      31.636  30.183  25.694  1.00  0.00    -0.275 OA
ATOM      6  C   UNL A   1      32.794  29.806  25.566  1.00  0.00     0.221 C 
ATOM      7  H   UNL A   1      34.729  29.835  26.190  1.00  0.00     0.163 HD
BRANCH   6   8
ATOM      8  C   UNL A   1      33.234  28.890  24.450  1.00  0.00     0.121 C 
BRANCH   8   9
ATOM      9  C   UNL A   1      32.339  29.037  23.228  1.00  0.00     0.125 C 
BRANCH   9  10
ATOM     10  N   UNL A   1      31.076  28.316  23.350  1.00  0.00    -0.355 N 
ATOM     11  C   UNL A   1      29.797  28.735  23.120  1.00  0.00     0.223 C 
ATOM     12  H   UNL A   1      31.160  27.380  23.644  1.00  0.00     0.163 HD
ATOM     13  O   UNL A   1      28.883  27.947  23.360  1.00  0.00    -0.275 OA
BRANCH  11  14
ATOM     14  C   UNL A   1      29.561  30.139  22.576  1.00  0.00     0.078 C 
ATOM     15  C   UNL A   1      28.520  30.107  21.447  1.00  0.00     0.013 C 
ATOM     16  C   UNL A   1      29.081  31.105  23.674  1.00  0.00     0.013 C 
ATOM     17  C   UNL A   1      28.324  31.496  20.853  1.00  0.00     0.001 C 
ATOM     18  C   UNL A   1      28.813  32.505  23.119  1.00  0.00     0.001 C 
ATOM     19  C   UNL A   1      27.867  32.483  21.920  1.00  0.00     0.000 C 
ENDBRANCH  11  14
ENDBRANCH   9  10
ENDBRANCH   8   9
ENDBRANCH   6   8
ENDBRANCH   3   4
ENDBRANCH   2   3
ENDBRANCH   1   2
BRANCH   1  20
ATOM     20  C   UNL A   1      34.588  34.208  28.634  1.00  0.00     0.002 C 
BRANCH  20  21
ATOM     21  C   UNL A   1      33.228  34.781  29.033  1.00  0.00     0.021 C 
BRANCH  21  22
ATOM     22  C   UNL A   1      33.278  36.188  29.618  1.00  0.00     0.116 C 
BRANCH  22  23
ATOM     23  N   UNL A   1      32.444  36.330  30.800  1.00  0.00    -0.352 N 
ATOM     24  C   UNL A   1      32.592  35.751  32.034  1.00  0.00     0.251 C 
ATOM     25  H   UNL A   1      31.665  36.924  30.702  1.00  0.00     0.163 HD
ATOM     26  O   UNL A   1      31.703  35.854  32.879  1.00  0.00    -0.269 OA
BRANCH  24  27
ATOM     27  C   UNL A   1      33.814  34.979  32.345  1.00  0.00     0.039 A 
ATOM     28  C   UNL A   1      35.057  35.603  32.217  1.00  0.00     0.014 A 
ATOM     29  C   UNL A   1      33.737  33.642  32.749  1.00  0.00     0.014 A 
ATOM     30  C   UNL A   1      36.222  34.901  32.538  1.00  0.00     0.010 A 
ATOM     31  C   UNL A   1      34.891  32.970  33.142  1.00  0.00     0.010 A 
ATOM     32  C   UNL A   1      36.147  33.586  33.025  1.00  0.00    -0.014 A 
BRANCH  32  33
ATOM     33  C   UNL A   1      37.373  32.825  33.379  1.00  0.00     0.031 A 
ATOM     34  C   UNL A   1      38.100  33.129  34.661  1.00  0.00     0.074 A 
ATOM     35  C   UNL A   1      37.855  31.892  32.534  1.00  0.00     0.049 A 
ATOM     36  N   UNL A   1      39.223  32.633  35.115  1.00  0.00    -0.248 NA
ATOM     37  C   UNL A   1      37.497  34.146  35.539  1.00  0.00     0.031 C 
ATOM     38  C   UNL A   1      37.266  31.530  31.243  1.00  0.00     0.029 A 
ATOM     39  N   UNL A   1      38.960  31.084  32.631  1.00  0.00    -0.354 N 
ATOM     40  C   UNL A   1      39.460  33.277  36.323  1.00  0.00     0.074 A 
ATOM     41  C   UNL A   1      38.403  34.247  36.501  1.00  0.00     0.031 C 
ATOM     42  C   UNL A   1      38.008  30.563  30.677  1.00  0.00     0.029 A 
ATOM     43  C   UNL A   1      39.142  30.263  31.545  1.00  0.00     0.049 A 
ATOM     44  H   UNL A   1      39.567  31.094  33.406  1.00  0.00     0.167 HD
ATOM     45  C   UNL A   1      40.450  33.058  37.220  1.00  0.00     0.037 A 
ATOM     46  C   UNL A   1      40.118  29.374  31.277  1.00  0.00     0.037 A 
ATOM     47  C   UNL A   1      41.493  32.082  37.053  1.00  0.00     0.049 A 
ATOM     48  C   UNL A   1      41.215  29.162  32.286  1.00  0.00     0.074 A 
ATOM     49  C   UNL A   1      42.535  31.775  37.911  1.00  0.00     0.029 A 
ATOM     50  N   UNL A   1      41.621  31.245  35.954  1.00  0.00    -0.354 N 
ATOM     51  N   UNL A   1      41.401  29.749  33.443  1.00  0.00    -0.248 NA
ATOM     52  C   UNL A   1      42.232  28.153  31.957  1.00  0.00     0.031 C 
ATOM     53  C   UNL A   1      43.311  30.775  37.318  1.00  0.00     0.029 A 
ATOM     54  C   UNL A   1      42.723  30.424  36.114  1.00  0.00     0.049 A 
ATOM     55  H   UNL A   1      41.017  31.237  35.177  1.00  0.00     0.167 HD
ATOM     56  C   UNL A   1      42.526  29.151  33.997  1.00  0.00     0.074 A 
ATOM     57  C   UNL A   1      42.974  28.148  33.054  1.00  0.00     0.031 C 
ATOM     58  C   UNL A   1      43.136  29.408  35.180  1.00  0.00     0.037 A 
BRANCH  45  59
ATOM     59  C   UNL A   1      40.439  33.876  38.479  1.00  0.00     0.057 A 
ATOM     60  C   UNL A   1      41.190  35.054  38.593  1.00  0.00     0.134 A 
ATOM     61  C   UNL A   1      39.635  33.515  39.568  1.00  0.00     0.134 A 
ATOM     62  F   UNL A   1      41.991  35.449  37.592  1.00  0.00    -0.206 F 
ATOM     63  C   UNL A   1      41.158  35.831  39.752  1.00  0.00     0.040 A 
ATOM     64  C   UNL A   1      39.573  34.300  40.721  1.00  0.00     0.040 A 
ATOM     65  F   UNL A   1      38.886  32.403  39.524  1.00  0.00    -0.206 F 
ATOM     66  C   UNL A   1      40.340  35.460  40.816  1.00  0.00     0.006 A 
ENDBRANCH  45  59
BRANCH  46  67
ATOM     67  C   UNL A   1      40.108  28.605  30.006  1.00  0.00     0.057 A 
ATOM     68  C   UNL A   1      40.801  29.059  28.876  1.00  0.00     0.134 A 
ATOM     69  C   UNL A   1      39.369  27.423  29.873  1.00  0.00     0.134 A 
ATOM     70  F   UNL A   1      41.514  30.193  28.934  1.00  0.00    -0.206 F 
ATOM     71  C   UNL A   1      40.726  28.391  27.652  1.00  0.00     0.040 A 
ATOM     72  C   UNL A   1      39.310  26.729  28.664  1.00  0.00     0.040 A 
ATOM     73  F   UNL A   1      38.691  26.927  30.918  1.00  0.00    -0.206 F 
ATOM     74  C   UNL A   1      39.978  27.221  27.544  1.00  0.00     0.006 A 
ENDBRANCH  46  67
BRANCH  58  75
ATOM     75  C   UNL A   1      44.307  28.547  35.554  1.00  0.00     0.057 A 
ATOM     76  C   UNL A   1      45.615  28.853  35.160  1.00  0.00     0.134 A 
ATOM     77  C   UNL A   1      44.120  27.406  36.347  1.00  0.00     0.134 A 
ATOM     78  F   UNL A   1      45.862  29.924  34.392  1.00  0.00    -0.206 F 
ATOM     79  C   UNL A   1      46.693  28.040  35.517  1.00  0.00     0.040 A 
ATOM     80  C   UNL A   1      45.192  26.602  36.735  1.00  0.00     0.040 A 
ATOM     81  F   UNL A   1      42.893  27.061  36.766  1.00  0.00    -0.206 F 
ATOM     82  C   UNL A   1      46.483  26.914  36.312  1.00  0.00     0.006 A 
ENDBRANCH  58  75
ENDBRANCH  32  33
ENDBRANCH  24  27
ENDBRANCH  22  23
ENDBRANCH  21  22
ENDBRANCH  20  21
ENDBRANCH   1  20
TORSDOF 16
ENDMDL
MODEL 3
REMARK VINA RESULT:      -8.2      4.164      7.115
REMARK SMILES O=C(CCNC(=O)C1CCCCC1)NCCCCCCNC(=O)c1ccc(-c2c3nc(c(-c4c(F)cccc4F)c4ccc([nH]4)c(-c4c(F)cccc4F)c4nc(c(-c5c(F)cccc5F)c5ccc2[nH]5)C=C4)C=C3)cc1
REMARK SMILES IDX 17 1 16 2 15 3 14 4 1 5 2 6 3 8 4 9 5 10 6 11 7 13 8 14 9 15
REMARK SMILES IDX 13 16 10 17 12 18 11 19 18 20 19 21 20 22 21 23 22 24 23 26
REMARK SMILES IDX 24 27 25 28 77 29 26 30 76 31 27 32 28 33 29 34 70 35 30 36
REMARK SMILES IDX 75 37 69 38 71 39 31 40 74 41 68 42 67 43 32 45 58 46 41 47
REMARK SMILES IDX 57 48 42 49 45 50 56 51 72 52 43 53 44 54 55 56 73 57 46 58
REMARK SMILES IDX 33 59 34 60 39 61 35 62 36 63 38 64 40 65 37 66 59 67 60 68
REMARK SMILES IDX 65 69 61 70 62 71 64 72 66 73 63 74 47 75 48 76 53 77 49 78
REMARK SMILES IDX 50 79 52 80 54 81 51 82
REMARK H PARENT 14 7 5 12 21 25 71 44 45 55
REMARK Flexibility Score: inf
ROOT
ATOM      1  C   UNL A   1      34.702  32.820  28.843  1.00  0.00     0.002 C 
ENDROOT
BRANCH   1   2
ATOM      2  C   UNL A   1      33.803  31.830  28.088  1.00  0.00     0.021 C 
BRANCH   2   3
ATOM      3  C   UNL A   1      34.550  30.654  27.459  1.00  0.00     0.116 C 
BRANCH   3   4
ATOM      4  N   UNL A   1      33.771  29.441  27.571  1.00  0.00    -0.356 N 
ATOM      5  O   UNL A   1      33.735  28.902  25.336  1.00  0.00    -0.275 OA
ATOM      6  C   UNL A   1      33.406  28.674  26.493  1.00  0.00     0.221 C 
ATOM      7  H   UNL A   1      33.487  29.152  28.468  1.00  0.00     0.163 HD
BRANCH   6   8
ATOM      8  C   UNL A   1      32.548  27.493  26.879  1.00  0.00     0.121 C 
BRANCH   8   9
ATOM      9  C   UNL A   1      31.265  27.451  26.062  1.00  0.00     0.125 C 
BRANCH   9  10
ATOM     10  N   UNL A   1      31.428  26.791  24.770  1.00  0.00    -0.355 N 
ATOM     11  C   UNL A   1      30.829  27.045  23.569  1.00  0.00     0.223 C 
ATOM     12  H   UNL A   1      32.071  26.046  24.763  1.00  0.00     0.163 HD
ATOM     13  O   UNL A   1      31.088  26.297  22.628  1.00  0.00    -0.275 OA
BRANCH  11  14
ATOM     14  C   UNL A   1      29.882  28.234  23.448  1.00  0.00     0.078 C 
ATOM     15  C   UNL A   1      30.335  29.163  22.311  1.00  0.00     0.013 C 
ATOM     16  C   UNL A   1      28.433  27.788  23.184  1.00  0.00     0.013 C 
ATOM     17  C   UNL A   1      29.433  30.388  22.223  1.00  0.00     0.001 C 
ATOM     18  C   UNL A   1      27.492  28.984  23.030  1.00  0.00     0.001 C 
ATOM     19  C   UNL A   1      27.984  29.979  21.981  1.00  0.00     0.000 C 
ENDBRANCH  11  14
ENDBRANCH   9  10
ENDBRANCH   8   9
ENDBRANCH   6   8
ENDBRANCH   3   4
ENDBRANCH   2   3
ENDBRANCH   1   2
BRANCH   1  20
ATOM     20  C   UNL A   1      34.576  34.281  28.400  1.00  0.00     0.002 C 
BRANCH  20  21
ATOM     21  C   UNL A   1      33.255  34.954  28.774  1.00  0.00     0.021 C 
BRANCH  21  22
ATOM     22  C   UNL A   1      33.404  36.262  29.542  1.00  0.00     0.116 C 
BRANCH  22  23
ATOM     23  N   UNL A   1      32.481  36.359  30.661  1.00  0.00    -0.352 N 
ATOM     24  C   UNL A   1      32.552  35.758  31.892  1.00  0.00     0.251 C 
ATOM     25  H   UNL A   1      31.696  36.936  30.517  1.00  0.00     0.163 HD
ATOM     26  O   UNL A   1      31.601  35.821  32.670  1.00  0.00    -0.269 OA
BRANCH  24  27
ATOM     27  C   UNL A   1      33.768  35.009  32.278  1.00  0.00     0.039 A 
ATOM     28  C   UNL A   1      33.652  33.655  32.601  1.00  0.00     0.014 A 
ATOM     29  C   UNL A   1      35.014  35.641  32.332  1.00  0.00     0.014 A 
ATOM     30  C   UNL A   1      34.794  32.923  32.936  1.00  0.00     0.010 A 
ATOM     31  C   UNL A   1      36.159  34.893  32.590  1.00  0.00     0.010 A 
ATOM     32  C   UNL A   1      36.061  33.530  32.910  1.00  0.00    -0.014 A 
BRANCH  32  33
ATOM     33  C   UNL A   1      37.287  32.767  33.255  1.00  0.00     0.031 A 
ATOM     34  C   UNL A   1      38.023  33.069  34.533  1.00  0.00     0.074 A 
ATOM     35  C   UNL A   1      37.763  31.834  32.407  1.00  0.00     0.049 A 
ATOM     36  N   UNL A   1      39.147  32.570  34.980  1.00  0.00    -0.248 NA
ATOM     37  C   UNL A   1      37.427  34.086  35.416  1.00  0.00     0.031 C 
ATOM     38  C   UNL A   1      37.166  31.474  31.119  1.00  0.00     0.029 A 
ATOM     39  N   UNL A   1      38.867  31.024  32.497  1.00  0.00    -0.354 N 
ATOM     40  C   UNL A   1      39.393  33.213  36.187  1.00  0.00     0.074 A 
ATOM     41  C   UNL A   1      38.338  34.184  36.373  1.00  0.00     0.031 C 
ATOM     42  C   UNL A   1      37.902  30.506  30.548  1.00  0.00     0.029 A 
ATOM     43  C   UNL A   1      39.041  30.203  31.410  1.00  0.00     0.049 A 
ATOM     44  H   UNL A   1      39.478  31.032  33.269  1.00  0.00     0.167 HD
ATOM     45  C   UNL A   1      40.387  32.991  37.079  1.00  0.00     0.037 A 
ATOM     46  C   UNL A   1      40.013  29.312  31.134  1.00  0.00     0.037 A 
ATOM     47  C   UNL A   1      41.428  32.013  36.904  1.00  0.00     0.049 A 
ATOM     48  C   UNL A   1      41.116  29.098  32.137  1.00  0.00     0.074 A 
ATOM     49  C   UNL A   1      42.474  31.703  37.757  1.00  0.00     0.029 A 
ATOM     50  N   UNL A   1      41.547  31.177  35.804  1.00  0.00    -0.354 N 
ATOM     51  N   UNL A   1      41.310  29.683  33.294  1.00  0.00    -0.248 NA
ATOM     52  C   UNL A   1      42.130  28.087  31.801  1.00  0.00     0.031 C 
ATOM     53  C   UNL A   1      43.244  30.703  37.158  1.00  0.00     0.029 A 
ATOM     54  C   UNL A   1      42.649  30.353  35.957  1.00  0.00     0.049 A 
ATOM     55  H   UNL A   1      40.939  31.171  35.031  1.00  0.00     0.167 HD
ATOM     56  C   UNL A   1      42.437  29.083  33.840  1.00  0.00     0.074 A 
ATOM     57  C   UNL A   1      42.878  28.080  32.894  1.00  0.00     0.031 C 
ATOM     58  C   UNL A   1      43.054  29.337  35.020  1.00  0.00     0.037 A 
BRANCH  45  59
ATOM     59  C   UNL A   1      40.385  33.808  38.338  1.00  0.00     0.057 A 
ATOM     60  C   UNL A   1      41.169  34.964  38.463  1.00  0.00     0.134 A 
ATOM     61  C   UNL A   1      39.559  33.470  39.417  1.00  0.00     0.134 A 
ATOM     62  F   UNL A   1      41.993  35.337  37.471  1.00  0.00    -0.206 F 
ATOM     63  C   UNL A   1      41.145  35.741  39.622  1.00  0.00     0.040 A 
ATOM     64  C   UNL A   1      39.506  34.256  40.570  1.00  0.00     0.040 A 
ATOM     65  F   UNL A   1      38.779  32.380  39.363  1.00  0.00    -0.206 F 
ATOM     66  C   UNL A   1      40.304  35.393  40.676  1.00  0.00     0.006 A 
ENDBRANCH  45  59
BRANCH  46  67
ATOM     67  C   UNL A   1      39.995  28.544  29.863  1.00  0.00     0.057 A 
ATOM     68  C   UNL A   1      39.314  27.324  29.761  1.00  0.00     0.134 A 
ATOM     69  C   UNL A   1      40.697  28.984  28.734  1.00  0.00     0.134 A 
ATOM     70  F   UNL A   1      38.636  26.840  30.812  1.00  0.00    -0.206 F 
ATOM     71  C   UNL A   1      39.364  26.552  28.599  1.00  0.00     0.040 A 
ATOM     72  C   UNL A   1      40.731  28.236  27.556  1.00  0.00     0.040 A 
ATOM     73  F   UNL A   1      41.362  30.148  28.761  1.00  0.00    -0.206 F 
ATOM     74  C   UNL A   1      40.075  27.008  27.492  1.00  0.00     0.006 A 
ENDBRANCH  46  67
BRANCH  58  75
ATOM     75  C   UNL A   1      44.226  28.474  35.386  1.00  0.00     0.057 A 
ATOM     76  C   UNL A   1      44.080  27.285  36.111  1.00  0.00     0.134 A 
ATOM     77  C   UNL A   1      45.519  28.829  34.979  1.00  0.00     0.134 A 
ATOM     78  F   UNL A   1      42.871  26.893  36.540  1.00  0.00    -0.206 F 
ATOM     79  C   UNL A   1      45.181  26.494  36.443  1.00  0.00     0.040 A 
ATOM     80  C   UNL A   1      46.625  28.032  35.279  1.00  0.00     0.040 A 
ATOM     81  F   UNL A   1      45.729  29.950  34.273  1.00  0.00    -0.206 F 
ATOM     82  C   UNL A   1      46.457  26.864  36.021  1.00  0.00     0.006 A 
ENDBRANCH  58  75
ENDBRANCH  32  33
ENDBRANCH  24  27
ENDBRANCH  22  23
ENDBRANCH  21  22
ENDBRANCH  20  21
ENDBRANCH   1  20
TORSDOF 16
ENDMDL
