MODEL 1
REMARK VINA RESULT:     -10.8      0.000      0.000
REMARK SMILES CC[C@H]1CCCC[C@@H]1Sc1csc(C(=O)NCCCCCCNC(=O)c2ccc(-c3c4nc(c(-c5c(F)cccc5F)c5ccc([nH]5)c(-c5c(F)cccc5F)c5nc(c(-c6c(F)cccc6F)c6ccc3[nH]6)C=C5)C=C4)cc2)c1
REMARK SMILES IDX 19 1 18 2 17 3 16 4 14 5 15 6 13 8 10 9 11 10 80 11 12 12
REMARK SMILES IDX 9 13 8 14 3 15 4 16 5 17 7 18 6 19 2 20 1 21 20 22 21 23
REMARK SMILES IDX 22 24 23 25 24 26 25 28 26 29 27 30 79 31 28 32 78 33 29 34
REMARK SMILES IDX 30 35 31 36 72 37 32 38 77 39 71 40 73 41 33 42 76 43 70 44
REMARK SMILES IDX 69 45 34 47 60 48 43 49 59 50 44 51 47 52 58 53 74 54 45 55
REMARK SMILES IDX 46 56 57 58 75 59 48 60 35 61 36 62 41 63 37 64 38 65 40 66
REMARK SMILES IDX 42 67 39 68 61 69 62 70 67 71 63 72 64 73 66 74 68 75 65 76
REMARK SMILES IDX 49 77 50 78 55 79 51 80 52 81 54 82 56 83 53 84
REMARK H PARENT 16 7 23 27 73 46 47 57
REMARK Flexibility Score: inf
ROOT
ATOM      1  C   UNL A   1      33.080  30.189  27.010  1.00  0.00     0.002 C 
ENDROOT
BRANCH   1   2
ATOM      2  C   UNL A   1      33.591  29.370  25.816  1.00  0.00     0.021 C 
BRANCH   2   3
ATOM      3  C   UNL A   1      32.704  29.496  24.576  1.00  0.00     0.116 C 
BRANCH   3   4
ATOM      4  N   UNL A   1      33.480  29.266  23.371  1.00  0.00    -0.351 N 
ATOM      5  C   UNL A   1      33.724  28.126  22.639  1.00  0.00     0.261 C 
ATOM      6  O   UNL A   1      34.395  28.282  21.617  1.00  0.00    -0.268 OA
ATOM      7  H   UNL A   1      33.913  30.074  23.012  1.00  0.00     0.163 HD
BRANCH   5   8
ATOM      8  C   UNL A   1      33.167  26.846  23.050  1.00  0.00     0.093 A 
ATOM      9  C   UNL A   1      32.523  24.958  24.269  1.00  0.00     0.019 A 
ATOM     10  C   UNL A   1      31.649  24.891  23.212  1.00  0.00     0.080 A 
ATOM     11  C   UNL A   1      33.464  26.016  24.114  1.00  0.00     0.040 A 
ATOM     12  S   UNL A   1      31.924  26.148  22.084  1.00  0.00    -0.137 S 
BRANCH   9  13
ATOM     13  S   UNL A   1      32.538  23.987  25.727  1.00  0.00    -0.122 SA
BRANCH  13  14
ATOM     14  C   UNL A   1      34.223  23.262  25.811  1.00  0.00     0.055 C 
ATOM     15  C   UNL A   1      34.502  22.528  24.468  1.00  0.00     0.002 C 
ATOM     16  C   UNL A   1      33.655  21.240  24.344  1.00  0.00     0.005 C 
ATOM     17  C   UNL A   1      33.780  20.317  25.555  1.00  0.00     0.000 C 
ATOM     18  C   UNL A   1      34.366  22.307  27.005  1.00  0.00     0.015 C 
ATOM     19  C   UNL A   1      33.521  21.041  26.871  1.00  0.00     0.001 C 
BRANCH  15  20
ATOM     20  C   UNL A   1      35.997  22.191  24.253  1.00  0.00     0.001 C 
ATOM     21  C   UNL A   1      36.633  22.929  23.083  1.00  0.00     0.004 C 
ENDBRANCH  15  20
ENDBRANCH  13  14
ENDBRANCH   9  13
ENDBRANCH   5   8
ENDBRANCH   3   4
ENDBRANCH   2   3
ENDBRANCH   1   2
BRANCH   1  22
ATOM     22  C   UNL A   1      31.627  30.667  26.892  1.00  0.00     0.002 C 
BRANCH  22  23
ATOM     23  C   UNL A   1      31.443  32.187  26.868  1.00  0.00     0.021 C 
BRANCH  23  24
ATOM     24  C   UNL A   1      32.744  32.980  26.963  1.00  0.00     0.116 C 
BRANCH  24  25
ATOM     25  N   UNL A   1      32.561  34.236  27.672  1.00  0.00    -0.352 N 
ATOM     26  C   UNL A   1      33.175  34.690  28.813  1.00  0.00     0.251 C 
ATOM     27  H   UNL A   1      31.901  34.851  27.277  1.00  0.00     0.163 HD
ATOM     28  O   UNL A   1      32.746  35.680  29.394  1.00  0.00    -0.269 OA
BRANCH  26  29
ATOM     29  C   UNL A   1      34.351  33.972  29.350  1.00  0.00     0.039 A 
ATOM     30  C   UNL A   1      35.629  34.410  28.996  1.00  0.00     0.014 A 
ATOM     31  C   UNL A   1      34.190  32.860  30.181  1.00  0.00     0.014 A 
ATOM     32  C   UNL A   1      36.751  33.763  29.519  1.00  0.00     0.010 A 
ATOM     33  C   UNL A   1      35.307  32.260  30.755  1.00  0.00     0.010 A 
ATOM     34  C   UNL A   1      36.596  32.701  30.426  1.00  0.00    -0.014 A 
BRANCH  34  35
ATOM     35  C   UNL A   1      37.773  32.035  31.037  1.00  0.00     0.031 A 
ATOM     36  C   UNL A   1      38.493  30.945  30.295  1.00  0.00     0.074 A 
ATOM     37  C   UNL A   1      38.151  32.367  32.285  1.00  0.00     0.049 A 
ATOM     38  N   UNL A   1      39.500  30.204  30.685  1.00  0.00    -0.248 NA
ATOM     39  C   UNL A   1      37.996  30.624  28.948  1.00  0.00     0.031 C 
ATOM     40  C   UNL A   1      37.506  33.380  33.122  1.00  0.00     0.029 A 
ATOM     41  N   UNL A   1      39.165  31.880  33.069  1.00  0.00    -0.354 N 
ATOM     42  C   UNL A   1      39.745  29.322  29.642  1.00  0.00     0.074 A 
ATOM     43  C   UNL A   1      38.749  29.583  28.625  1.00  0.00     0.031 C 
ATOM     44  C   UNL A   1      38.158  33.459  34.293  1.00  0.00     0.029 A 
ATOM     45  C   UNL A   1      39.241  32.480  34.302  1.00  0.00     0.049 A 
ATOM     46  H   UNL A   1      39.781  31.170  32.777  1.00  0.00     0.167 HD
ATOM     47  C   UNL A   1      40.724  28.392  29.531  1.00  0.00     0.037 A 
ATOM     48  C   UNL A   1      40.089  32.263  35.325  1.00  0.00     0.037 A 
ATOM     49  C   UNL A   1      41.727  28.150  30.535  1.00  0.00     0.049 A 
ATOM     50  C   UNL A   1      41.161  31.220  35.185  1.00  0.00     0.074 A 
ATOM     51  C   UNL A   1      42.802  27.280  30.489  1.00  0.00     0.029 A 
ATOM     52  N   UNL A   1      41.772  28.778  31.771  1.00  0.00    -0.354 N 
ATOM     53  N   UNL A   1      41.425  30.439  34.167  1.00  0.00    -0.248 NA
ATOM     54  C   UNL A   1      42.053  31.030  36.337  1.00  0.00     0.031 C 
ATOM     55  C   UNL A   1      43.472  27.350  31.717  1.00  0.00     0.029 A 
ATOM     56  C   UNL A   1      42.841  28.297  32.508  1.00  0.00     0.049 A 
ATOM     57  H   UNL A   1      41.138  29.466  32.078  1.00  0.00     0.167 HD
ATOM     58  C   UNL A   1      42.528  29.683  34.542  1.00  0.00     0.074 A 
ATOM     59  C   UNL A   1      42.888  30.108  35.880  1.00  0.00     0.031 C 
ATOM     60  C   UNL A   1      43.185  28.728  33.840  1.00  0.00     0.037 A 
BRANCH  47  61
ATOM     61  C   UNL A   1      40.747  27.567  28.276  1.00  0.00     0.057 A 
ATOM     62  C   UNL A   1      40.050  26.355  28.174  1.00  0.00     0.134 A 
ATOM     63  C   UNL A   1      41.474  27.988  27.156  1.00  0.00     0.134 A 
ATOM     64  F   UNL A   1      39.344  25.887  29.214  1.00  0.00    -0.206 F 
ATOM     65  C   UNL A   1      40.108  25.573  27.018  1.00  0.00     0.040 A 
ATOM     66  C   UNL A   1      41.515  27.230  25.984  1.00  0.00     0.040 A 
ATOM     67  F   UNL A   1      42.160  29.142  27.182  1.00  0.00    -0.206 F 
ATOM     68  C   UNL A   1      40.840  26.013  25.917  1.00  0.00     0.006 A 
ENDBRANCH  47  61
BRANCH  48  69
ATOM     69  C   UNL A   1      39.981  33.085  36.556  1.00  0.00     0.057 A 
ATOM     70  C   UNL A   1      40.766  34.232  36.721  1.00  0.00     0.134 A 
ATOM     71  C   UNL A   1      39.082  32.762  37.579  1.00  0.00     0.134 A 
ATOM     72  F   UNL A   1      41.657  34.580  35.781  1.00  0.00    -0.206 F 
ATOM     73  C   UNL A   1      40.669  35.024  37.866  1.00  0.00     0.040 A 
ATOM     74  C   UNL A   1      38.959  33.558  38.719  1.00  0.00     0.040 A 
ATOM     75  F   UNL A   1      38.296  31.680  37.475  1.00  0.00    -0.206 F 
ATOM     76  C   UNL A   1      39.757  34.692  38.866  1.00  0.00     0.006 A 
ENDBRANCH  48  69
BRANCH  60  77
ATOM     77  C   UNL A   1      44.377  28.096  34.497  1.00  0.00     0.057 A 
ATOM     78  C   UNL A   1      44.271  26.914  35.242  1.00  0.00     0.134 A 
ATOM     79  C   UNL A   1      45.653  28.656  34.349  1.00  0.00     0.134 A 
ATOM     80  F   UNL A   1      43.075  26.337  35.432  1.00  0.00    -0.206 F 
ATOM     81  C   UNL A   1      45.388  26.325  35.835  1.00  0.00     0.040 A 
ATOM     82  C   UNL A   1      46.780  28.062  34.916  1.00  0.00     0.040 A 
ATOM     83  F   UNL A   1      45.825  29.783  33.642  1.00  0.00    -0.206 F 
ATOM     84  C   UNL A   1      46.649  26.895  35.666  1.00  0.00     0.006 A 
ENDBRANCH  60  77
ENDBRANCH  34  35
ENDBRANCH  26  29
ENDBRANCH  24  25
ENDBRANCH  23  24
ENDBRANCH  22  23
ENDBRANCH   1  22
TORSDOF 16
ENDMDL
MODEL 2
REMARK VINA RESULT:     -10.7      0.296      6.366
REMARK SMILES CC[C@H]1CCCC[C@@H]1Sc1csc(C(=O)NCCCCCCNC(=O)c2ccc(-c3c4nc(c(-c5c(F)cccc5F)c5ccc([nH]5)c(-c5c(F)cccc5F)c5nc(c(-c6c(F)cccc6F)c6ccc3[nH]6)C=C5)C=C4)cc2)c1
REMARK SMILES IDX 19 1 18 2 17 3 16 4 14 5 15 6 13 8 10 9 11 10 80 11 12 12
REMARK SMILES IDX 9 13 8 14 3 15 4 16 5 17 7 18 6 19 2 20 1 21 20 22 21 23
REMARK SMILES IDX 22 24 23 25 24 26 25 28 26 29 27 30 79 31 28 32 78 33 29 34
REMARK SMILES IDX 30 35 31 36 72 37 32 38 77 39 71 40 73 41 33 42 76 43 70 44
REMARK SMILES IDX 69 45 34 47 60 48 43 49 59 50 44 51 47 52 58 53 74 54 45 55
REMARK SMILES IDX 46 56 57 58 75 59 48 60 35 61 36 62 41 63 37 64 38 65 40 66
REMARK SMILES IDX 42 67 39 68 61 69 62 70 67 71 63 72 64 73 66 74 68 75 65 76
REMARK SMILES IDX 49 77 50 78 55 79 51 80 52 81 54 82 56 83 53 84
REMARK H PARENT 16 7 23 27 73 46 47 57
REMARK Flexibility Score: inf
ROOT
ATOM      1  C   UNL A   1      33.042  30.111  27.020  1.00  0.00     0.002 C 
ENDROOT
BRANCH   1   2
ATOM      2  C   UNL A   1      33.524  29.300  25.807  1.00  0.00     0.021 C 
BRANCH   2   3
ATOM      3  C   UNL A   1      32.692  29.548  24.549  1.00  0.00     0.116 C 
BRANCH   3   4
ATOM      4  N   UNL A   1      33.475  29.269  23.359  1.00  0.00    -0.351 N 
ATOM      5  C   UNL A   1      33.684  28.109  22.648  1.00  0.00     0.261 C 
ATOM      6  O   UNL A   1      34.375  28.223  21.633  1.00  0.00    -0.268 OA
ATOM      7  H   UNL A   1      33.945  30.053  22.994  1.00  0.00     0.163 HD
BRANCH   5   8
ATOM      8  C   UNL A   1      33.070  26.859  23.068  1.00  0.00     0.093 A 
ATOM      9  C   UNL A   1      32.367  24.997  24.294  1.00  0.00     0.019 A 
ATOM     10  C   UNL A   1      31.448  24.994  23.275  1.00  0.00     0.080 A 
ATOM     11  C   UNL A   1      33.361  25.999  24.110  1.00  0.00     0.040 A 
ATOM     12  S   UNL A   1      31.748  26.247  22.149  1.00  0.00    -0.137 S 
BRANCH   9  13
ATOM     13  S   UNL A   1      32.387  24.007  25.740  1.00  0.00    -0.122 SA
BRANCH  13  14
ATOM     14  C   UNL A   1      34.138  23.502  25.960  1.00  0.00     0.055 C 
ATOM     15  C   UNL A   1      34.647  22.918  24.612  1.00  0.00     0.002 C 
ATOM     16  C   UNL A   1      34.000  21.546  24.312  1.00  0.00     0.005 C 
ATOM     17  C   UNL A   1      34.129  20.553  25.467  1.00  0.00     0.000 C 
ATOM     18  C   UNL A   1      34.290  22.482  27.099  1.00  0.00     0.015 C 
ATOM     19  C   UNL A   1      33.643  21.132  26.791  1.00  0.00     0.001 C 
BRANCH  15  20
ATOM     20  C   UNL A   1      36.188  22.795  24.540  1.00  0.00     0.001 C 
ATOM     21  C   UNL A   1      36.747  22.870  23.125  1.00  0.00     0.004 C 
ENDBRANCH  15  20
ENDBRANCH  13  14
ENDBRANCH   9  13
ENDBRANCH   5   8
ENDBRANCH   3   4
ENDBRANCH   2   3
ENDBRANCH   1   2
BRANCH   1  22
ATOM     22  C   UNL A   1      31.607  30.641  26.914  1.00  0.00     0.002 C 
BRANCH  22  23
ATOM     23  C   UNL A   1      31.483  32.165  26.819  1.00  0.00     0.021 C 
BRANCH  23  24
ATOM     24  C   UNL A   1      32.794  32.917  27.024  1.00  0.00     0.116 C 
BRANCH  24  25
ATOM     25  N   UNL A   1      32.583  34.211  27.654  1.00  0.00    -0.352 N 
ATOM     26  C   UNL A   1      33.166  34.737  28.780  1.00  0.00     0.251 C 
ATOM     27  H   UNL A   1      31.927  34.793  27.208  1.00  0.00     0.163 HD
ATOM     28  O   UNL A   1      32.714  35.756  29.291  1.00  0.00    -0.269 OA
BRANCH  26  29
ATOM     29  C   UNL A   1      34.336  34.066  29.384  1.00  0.00     0.039 A 
ATOM     30  C   UNL A   1      34.125  33.087  30.358  1.00  0.00     0.014 A 
ATOM     31  C   UNL A   1      35.635  34.416  29.005  1.00  0.00     0.014 A 
ATOM     32  C   UNL A   1      35.218  32.421  30.917  1.00  0.00     0.010 A 
ATOM     33  C   UNL A   1      36.718  33.704  29.512  1.00  0.00     0.010 A 
ATOM     34  C   UNL A   1      36.521  32.705  30.476  1.00  0.00    -0.014 A 
BRANCH  34  35
ATOM     35  C   UNL A   1      37.692  31.971  31.015  1.00  0.00     0.031 A 
ATOM     36  C   UNL A   1      38.261  32.338  32.356  1.00  0.00     0.074 A 
ATOM     37  C   UNL A   1      38.282  31.021  30.267  1.00  0.00     0.049 A 
ATOM     38  N   UNL A   1      39.313  31.856  32.969  1.00  0.00    -0.248 NA
ATOM     39  C   UNL A   1      37.573  33.408  33.095  1.00  0.00     0.031 C 
ATOM     40  C   UNL A   1      37.849  30.604  28.933  1.00  0.00     0.029 A 
ATOM     41  N   UNL A   1      39.379  30.238  30.523  1.00  0.00    -0.354 N 
ATOM     42  C   UNL A   1      39.422  32.574  34.152  1.00  0.00     0.074 A 
ATOM     43  C   UNL A   1      38.362  33.559  34.147  1.00  0.00     0.031 C 
ATOM     44  C   UNL A   1      38.655  29.623  28.498  1.00  0.00     0.029 A 
ATOM     45  C   UNL A   1      39.680  29.367  29.505  1.00  0.00     0.049 A 
ATOM     46  H   UNL A   1      39.901  30.295  31.355  1.00  0.00     0.167 HD
ATOM     47  C   UNL A   1      40.312  32.414  35.161  1.00  0.00     0.037 A 
ATOM     48  C   UNL A   1      40.673  28.464  29.397  1.00  0.00     0.037 A 
ATOM     49  C   UNL A   1      41.352  31.419  35.172  1.00  0.00     0.049 A 
ATOM     50  C   UNL A   1      41.654  28.310  30.523  1.00  0.00     0.074 A 
ATOM     51  C   UNL A   1      42.259  31.129  36.175  1.00  0.00     0.029 A 
ATOM     52  N   UNL A   1      41.625  30.553  34.123  1.00  0.00    -0.354 N 
ATOM     53  N   UNL A   1      41.707  28.948  31.666  1.00  0.00    -0.248 NA
ATOM     54  C   UNL A   1      42.715  27.309  30.343  1.00  0.00     0.031 C 
ATOM     55  C   UNL A   1      43.111  30.117  35.716  1.00  0.00     0.029 A 
ATOM     56  C   UNL A   1      42.704  29.746  34.444  1.00  0.00     0.049 A 
ATOM     57  H   UNL A   1      41.124  30.517  33.276  1.00  0.00     0.167 HD
ATOM     58  C   UNL A   1      42.786  28.410  32.355  1.00  0.00     0.074 A 
ATOM     59  C   UNL A   1      43.355  27.386  31.502  1.00  0.00     0.031 C 
ATOM     60  C   UNL A   1      43.259  28.732  33.583  1.00  0.00     0.037 A 
BRANCH  47  61
ATOM     61  C   UNL A   1      40.194  33.347  36.332  1.00  0.00     0.057 A 
ATOM     62  C   UNL A   1      40.925  34.541  36.405  1.00  0.00     0.134 A 
ATOM     63  C   UNL A   1      39.341  33.048  37.402  1.00  0.00     0.134 A 
ATOM     64  F   UNL A   1      41.770  34.881  35.420  1.00  0.00    -0.206 F 
ATOM     65  C   UNL A   1      40.841  35.384  37.515  1.00  0.00     0.040 A 
ATOM     66  C   UNL A   1      39.226  33.897  38.504  1.00  0.00     0.040 A 
ATOM     67  F   UNL A   1      38.608  31.924  37.396  1.00  0.00    -0.206 F 
ATOM     68  C   UNL A   1      39.986  35.064  38.568  1.00  0.00     0.006 A 
ENDBRANCH  47  61
BRANCH  48  69
ATOM     69  C   UNL A   1      40.757  27.605  28.190  1.00  0.00     0.057 A 
ATOM     70  C   UNL A   1      40.058  26.394  28.123  1.00  0.00     0.134 A 
ATOM     71  C   UNL A   1      41.512  27.979  27.072  1.00  0.00     0.134 A 
ATOM     72  F   UNL A   1      39.332  25.976  29.171  1.00  0.00    -0.206 F 
ATOM     73  C   UNL A   1      40.114  25.580  26.991  1.00  0.00     0.040 A 
ATOM     74  C   UNL A   1      41.559  27.185  25.925  1.00  0.00     0.040 A 
ATOM     75  F   UNL A   1      42.196  29.132  27.072  1.00  0.00    -0.206 F 
ATOM     76  C   UNL A   1      40.861  25.979  25.884  1.00  0.00     0.006 A 
ENDBRANCH  48  69
BRANCH  60  77
ATOM     77  C   UNL A   1      44.437  27.950  34.089  1.00  0.00     0.057 A 
ATOM     78  C   UNL A   1      45.753  28.381  33.882  1.00  0.00     0.134 A 
ATOM     79  C   UNL A   1      44.247  26.772  34.823  1.00  0.00     0.134 A 
ATOM     80  F   UNL A   1      46.002  29.493  33.175  1.00  0.00    -0.206 F 
ATOM     81  C   UNL A   1      46.841  27.655  34.371  1.00  0.00     0.040 A 
ATOM     82  C   UNL A   1      45.325  26.052  35.337  1.00  0.00     0.040 A 
ATOM     83  F   UNL A   1      43.011  26.309  35.062  1.00  0.00    -0.206 F 
ATOM     84  C   UNL A   1      46.628  26.491  35.108  1.00  0.00     0.006 A 
ENDBRANCH  60  77
ENDBRANCH  34  35
ENDBRANCH  26  29
ENDBRANCH  24  25
ENDBRANCH  23  24
ENDBRANCH  22  23
ENDBRANCH   1  22
TORSDOF 16
ENDMDL
MODEL 3
REMARK VINA RESULT:     -10.7      4.480      8.903
REMARK SMILES CC[C@H]1CCCC[C@@H]1Sc1csc(C(=O)NCCCCCCNC(=O)c2ccc(-c3c4nc(c(-c5c(F)cccc5F)c5ccc([nH]5)c(-c5c(F)cccc5F)c5nc(c(-c6c(F)cccc6F)c6ccc3[nH]6)C=C5)C=C4)cc2)c1
REMARK SMILES IDX 19 1 18 2 17 3 16 4 14 5 15 6 13 8 10 9 11 10 80 11 12 12
REMARK SMILES IDX 9 13 8 14 3 15 4 16 5 17 7 18 6 19 2 20 1 21 20 22 21 23
REMARK SMILES IDX 22 24 23 25 24 26 25 28 26 29 27 30 79 31 28 32 78 33 29 34
REMARK SMILES IDX 30 35 31 36 72 37 32 38 77 39 71 40 73 41 33 42 76 43 70 44
REMARK SMILES IDX 69 45 34 47 60 48 43 49 59 50 44 51 47 52 58 53 74 54 45 55
REMARK SMILES IDX 46 56 57 58 75 59 48 60 35 61 36 62 41 63 37 64 38 65 40 66
REMARK SMILES IDX 42 67 39 68 61 69 62 70 67 71 63 72 64 73 66 74 68 75 65 76
REMARK SMILES IDX 49 77 50 78 55 79 51 80 52 81 54 82 56 83 53 84
REMARK H PARENT 16 7 23 27 73 46 47 57
REMARK Flexibility Score: inf
ROOT
ATOM      1  C   UNL A   1      38.104  23.535  25.684  1.00  0.00     0.002 C 
ENDROOT
BRANCH   1   2
ATOM      2  C   UNL A   1      36.576  23.379  25.696  1.00  0.00     0.021 C 
BRANCH   2   3
ATOM      3  C   UNL A   1      36.018  22.821  24.386  1.00  0.00     0.116 C 
BRANCH   3   4
ATOM      4  N   UNL A   1      35.459  21.498  24.596  1.00  0.00    -0.351 N 
ATOM      5  C   UNL A   1      34.159  21.050  24.661  1.00  0.00     0.261 C 
ATOM      6  O   UNL A   1      34.021  19.833  24.800  1.00  0.00    -0.268 OA
ATOM      7  H   UNL A   1      36.134  20.791  24.714  1.00  0.00     0.163 HD
BRANCH   5   8
ATOM      8  C   UNL A   1      33.046  21.976  24.521  1.00  0.00     0.093 A 
ATOM      9  C   UNL A   1      31.532  23.735  24.800  1.00  0.00     0.019 A 
ATOM     10  C   UNL A   1      31.284  23.390  23.495  1.00  0.00     0.080 A 
ATOM     11  C   UNL A   1      32.462  22.851  25.417  1.00  0.00     0.040 A 
ATOM     12  S   UNL A   1      32.231  22.050  23.005  1.00  0.00    -0.137 S 
BRANCH   9  13
ATOM     13  S   UNL A   1      30.919  25.113  25.692  1.00  0.00    -0.122 SA
BRANCH  13  14
ATOM     14  C   UNL A   1      31.540  26.589  24.795  1.00  0.00     0.055 C 
ATOM     15  C   UNL A   1      33.073  26.425  24.595  1.00  0.00     0.002 C 
ATOM     16  C   UNL A   1      33.835  26.575  25.932  1.00  0.00     0.005 C 
ATOM     17  C   UNL A   1      33.476  27.852  26.690  1.00  0.00     0.000 C 
ATOM     18  C   UNL A   1      31.215  27.886  25.552  1.00  0.00     0.015 C 
ATOM     19  C   UNL A   1      31.971  28.019  26.873  1.00  0.00     0.001 C 
BRANCH  15  20
ATOM     20  C   UNL A   1      33.662  27.399  23.546  1.00  0.00     0.001 C 
ATOM     21  C   UNL A   1      33.447  26.957  22.105  1.00  0.00     0.004 C 
ENDBRANCH  15  20
ENDBRANCH  13  14
ENDBRANCH   9  13
ENDBRANCH   5   8
ENDBRANCH   3   4
ENDBRANCH   2   3
ENDBRANCH   1   2
BRANCH   1  22
ATOM     22  C   UNL A   1      38.875  22.405  26.379  1.00  0.00     0.002 C 
BRANCH  22  23
ATOM     23  C   UNL A   1      39.123  21.163  25.518  1.00  0.00     0.021 C 
BRANCH  23  24
ATOM     24  C   UNL A   1      39.383  19.887  26.314  1.00  0.00     0.116 C 
BRANCH  24  25
ATOM     25  N   UNL A   1      40.607  19.226  25.891  1.00  0.00    -0.352 N 
ATOM     26  C   UNL A   1      41.881  19.728  25.800  1.00  0.00     0.251 C 
ATOM     27  H   UNL A   1      40.507  18.281  25.633  1.00  0.00     0.163 HD
ATOM     28  O   UNL A   1      42.756  19.093  25.220  1.00  0.00    -0.269 OA
BRANCH  26  29
ATOM     29  C   UNL A   1      42.197  21.045  26.392  1.00  0.00     0.039 A 
ATOM     30  C   UNL A   1      42.569  22.094  25.548  1.00  0.00     0.014 A 
ATOM     31  C   UNL A   1      42.145  21.236  27.775  1.00  0.00     0.014 A 
ATOM     32  C   UNL A   1      42.839  23.353  26.088  1.00  0.00     0.010 A 
ATOM     33  C   UNL A   1      42.348  22.507  28.305  1.00  0.00     0.010 A 
ATOM     34  C   UNL A   1      42.703  23.575  27.468  1.00  0.00    -0.014 A 
BRANCH  34  35
ATOM     35  C   UNL A   1      42.931  24.918  28.056  1.00  0.00     0.031 A 
ATOM     36  C   UNL A   1      44.303  25.314  28.525  1.00  0.00     0.074 A 
ATOM     37  C   UNL A   1      41.890  25.753  28.230  1.00  0.00     0.049 A 
ATOM     38  N   UNL A   1      44.689  26.415  29.119  1.00  0.00    -0.248 NA
ATOM     39  C   UNL A   1      45.378  24.329  28.324  1.00  0.00     0.031 C 
ATOM     40  C   UNL A   1      40.505  25.468  27.855  1.00  0.00     0.029 A 
ATOM     41  N   UNL A   1      41.838  27.011  28.774  1.00  0.00    -0.354 N 
ATOM     42  C   UNL A   1      46.043  26.248  29.378  1.00  0.00     0.074 A 
ATOM     43  C   UNL A   1      46.399  24.921  28.924  1.00  0.00     0.031 C 
ATOM     44  C   UNL A   1      39.743  26.531  28.155  1.00  0.00     0.029 A 
ATOM     45  C   UNL A   1      40.577  27.556  28.774  1.00  0.00     0.049 A 
ATOM     46  H   UNL A   1      42.627  27.480  29.130  1.00  0.00     0.167 HD
ATOM     47  C   UNL A   1      46.915  27.129  29.924  1.00  0.00     0.037 A 
ATOM     48  C   UNL A   1      40.144  28.749  29.223  1.00  0.00     0.037 A 
ATOM     49  C   UNL A   1      46.561  28.457  30.354  1.00  0.00     0.049 A 
ATOM     50  C   UNL A   1      41.126  29.706  29.835  1.00  0.00     0.074 A 
ATOM     51  C   UNL A   1      47.384  29.450  30.855  1.00  0.00     0.029 A 
ATOM     52  N   UNL A   1      45.275  28.974  30.336  1.00  0.00    -0.354 N 
ATOM     53  N   UNL A   1      42.417  29.565  30.013  1.00  0.00    -0.248 NA
ATOM     54  C   UNL A   1      40.591  30.990  30.308  1.00  0.00     0.031 C 
ATOM     55  C   UNL A   1      46.587  30.553  31.184  1.00  0.00     0.029 A 
ATOM     56  C   UNL A   1      45.275  30.263  30.843  1.00  0.00     0.049 A 
ATOM     57  H   UNL A   1      44.478  28.495  30.011  1.00  0.00     0.167 HD
ATOM     58  C   UNL A   1      42.854  30.748  30.593  1.00  0.00     0.074 A 
ATOM     59  C   UNL A   1      41.690  31.600  30.728  1.00  0.00     0.031 C 
ATOM     60  C   UNL A   1      44.107  31.098  30.973  1.00  0.00     0.037 A 
BRANCH  47  61
ATOM     61  C   UNL A   1      48.336  26.673  30.090  1.00  0.00     0.057 A 
ATOM     62  C   UNL A   1      48.761  25.968  31.225  1.00  0.00     0.134 A 
ATOM     63  C   UNL A   1      49.294  26.941  29.103  1.00  0.00     0.134 A 
ATOM     64  F   UNL A   1      47.898  25.689  32.213  1.00  0.00    -0.206 F 
ATOM     65  C   UNL A   1      50.092  25.582  31.390  1.00  0.00     0.040 A 
ATOM     66  C   UNL A   1      50.621  26.534  29.244  1.00  0.00     0.040 A 
ATOM     67  F   UNL A   1      48.956  27.607  27.988  1.00  0.00    -0.206 F 
ATOM     68  C   UNL A   1      51.026  25.862  30.395  1.00  0.00     0.006 A 
ENDBRANCH  47  61
BRANCH  48  69
ATOM     69  C   UNL A   1      38.715  29.118  29.069  1.00  0.00     0.057 A 
ATOM     70  C   UNL A   1      37.836  29.046  30.155  1.00  0.00     0.134 A 
ATOM     71  C   UNL A   1      38.201  29.570  27.848  1.00  0.00     0.134 A 
ATOM     72  F   UNL A   1      38.269  28.603  31.345  1.00  0.00    -0.206 F 
ATOM     73  C   UNL A   1      36.493  29.402  30.033  1.00  0.00     0.040 A 
ATOM     74  C   UNL A   1      36.864  29.950  27.717  1.00  0.00     0.040 A 
ATOM     75  F   UNL A   1      38.995  29.669  26.773  1.00  0.00    -0.206 F 
ATOM     76  C   UNL A   1      36.004  29.863  28.811  1.00  0.00     0.006 A 
ENDBRANCH  48  69
BRANCH  60  77
ATOM     77  C   UNL A   1      44.288  32.472  31.550  1.00  0.00     0.057 A 
ATOM     78  C   UNL A   1      44.216  32.711  32.928  1.00  0.00     0.134 A 
ATOM     79  C   UNL A   1      44.574  33.562  30.717  1.00  0.00     0.134 A 
ATOM     80  F   UNL A   1      43.931  31.712  33.776  1.00  0.00    -0.206 F 
ATOM     81  C   UNL A   1      44.401  33.989  33.456  1.00  0.00     0.040 A 
ATOM     82  C   UNL A   1      44.786  34.839  31.235  1.00  0.00     0.040 A 
ATOM     83  F   UNL A   1      44.664  33.399  29.388  1.00  0.00    -0.206 F 
ATOM     84  C   UNL A   1      44.695  35.057  32.609  1.00  0.00     0.006 A 
ENDBRANCH  60  77
ENDBRANCH  34  35
ENDBRANCH  26  29
ENDBRANCH  24  25
ENDBRANCH  23  24
ENDBRANCH  22  23
ENDBRANCH   1  22
TORSDOF 16
ENDMDL
