MODEL 1
REMARK VINA RESULT:     -11.7      0.000      0.000
REMARK SMILES CCn1ccc2cc(S(=O)(=O)N3CCC[C@@H](C(=O)NCCCCCCNC(=O)c4ccc(-c5c6nc(c(-c7c(F)cccc7F)c7ccc([nH]7)c(-c7c(F)cccc7F)c7nc(c(-c8c(F)cccc8F)c8ccc5[nH]8)C=C7)C=C6)cc4)C3)ccc21
REMARK SMILES IDX 22 1 21 2 20 3 19 4 17 5 18 6 16 8 12 9 13 10 83 11 14 12
REMARK SMILES IDX 15 13 9 14 10 15 11 16 8 17 3 18 4 19 86 20 5 21 6 22 85 23
REMARK SMILES IDX 7 24 84 25 2 26 1 27 23 28 24 29 25 30 26 31 27 32 28 34
REMARK SMILES IDX 29 35 30 36 82 37 31 38 81 39 32 40 33 41 34 42 75 43 35 44
REMARK SMILES IDX 80 45 74 46 76 47 36 48 79 49 73 50 72 51 37 53 63 54 46 55
REMARK SMILES IDX 62 56 47 57 50 58 61 59 77 60 48 61 49 62 60 64 78 65 51 66
REMARK SMILES IDX 38 67 39 68 44 69 40 70 41 71 43 72 45 73 42 74 64 75 65 76
REMARK SMILES IDX 70 77 66 78 67 79 69 80 71 81 68 82 52 83 53 84 58 85 54 86
REMARK SMILES IDX 55 87 57 88 59 89 56 90
REMARK H PARENT 19 7 26 33 76 52 50 63
REMARK Flexibility Score: inf
ROOT
ATOM      1  C   UNL A   1      31.627  28.990  26.540  1.00  0.00     0.002 C 
ENDROOT
BRANCH   1   2
ATOM      2  C   UNL A   1      31.589  30.001  25.389  1.00  0.00     0.021 C 
BRANCH   2   3
ATOM      3  C   UNL A   1      31.346  29.384  24.015  1.00  0.00     0.116 C 
BRANCH   3   4
ATOM      4  N   UNL A   1      30.262  28.424  24.060  1.00  0.00    -0.356 N 
ATOM      5  C   UNL A   1      30.267  27.101  23.753  1.00  0.00     0.224 C 
ATOM      6  O   UNL A   1      29.199  26.489  23.788  1.00  0.00    -0.275 OA
ATOM      7  H   UNL A   1      29.395  28.782  24.359  1.00  0.00     0.163 HD
BRANCH   5   8
ATOM      8  C   UNL A   1      31.567  26.439  23.332  1.00  0.00     0.093 C 
ATOM      9  N   UNL A   1      32.763  24.235  23.478  1.00  0.00    -0.197 NA
ATOM     10  C   UNL A   1      33.012  24.230  22.015  1.00  0.00     0.102 C 
ATOM     11  C   UNL A   1      31.664  25.082  24.016  1.00  0.00     0.116 C 
ATOM     12  C   UNL A   1      32.897  25.618  21.399  1.00  0.00     0.018 C 
ATOM     13  C   UNL A   1      31.608  26.311  21.812  1.00  0.00     0.016 C 
BRANCH   9  14
ATOM     14  S   UNL A   1      32.933  22.711  24.255  1.00  0.00     0.243 S 
ATOM     15  O   UNL A   1      32.769  21.692  23.230  1.00  0.00    -0.207 OA
ATOM     16  O   UNL A   1      32.106  22.726  25.435  1.00  0.00    -0.207 OA
BRANCH  14  17
ATOM     17  C   UNL A   1      34.625  22.591  24.814  1.00  0.00     0.083 A 
ATOM     18  N   UNL A   1      38.563  21.888  25.929  1.00  0.00    -0.348 N 
ATOM     19  C   UNL A   1      38.733  20.594  25.488  1.00  0.00     0.087 A 
ATOM     20  C   UNL A   1      37.281  22.307  25.630  1.00  0.00     0.048 A 
ATOM     21  C   UNL A   1      37.563  20.172  24.905  1.00  0.00     0.028 A 
ATOM     22  C   UNL A   1      36.634  21.239  24.990  1.00  0.00     0.001 A 
ATOM     23  C   UNL A   1      36.615  23.517  25.850  1.00  0.00     0.028 A 
ATOM     24  C   UNL A   1      35.294  21.385  24.567  1.00  0.00     0.032 A 
ATOM     25  C   UNL A   1      35.286  23.635  25.452  1.00  0.00     0.024 A 
BRANCH  18  26
ATOM     26  C   UNL A   1      39.653  22.622  26.557  1.00  0.00     0.119 C 
ATOM     27  C   UNL A   1      40.511  21.916  27.596  1.00  0.00     0.027 C 
ENDBRANCH  18  26
ENDBRANCH  14  17
ENDBRANCH   9  14
ENDBRANCH   5   8
ENDBRANCH   3   4
ENDBRANCH   2   3
ENDBRANCH   1   2
BRANCH   1  28
ATOM     28  C   UNL A   1      32.854  29.089  27.456  1.00  0.00     0.002 C 
BRANCH  28  29
ATOM     29  C   UNL A   1      34.201  28.755  26.796  1.00  0.00     0.021 C 
BRANCH  29  30
ATOM     30  C   UNL A   1      35.377  29.590  27.303  1.00  0.00     0.116 C 
BRANCH  30  31
ATOM     31  N   UNL A   1      35.443  29.647  28.747  1.00  0.00    -0.352 N 
ATOM     32  C   UNL A   1      36.405  29.470  29.697  1.00  0.00     0.251 C 
ATOM     33  H   UNL A   1      34.571  29.870  29.146  1.00  0.00     0.163 HD
ATOM     34  O   UNL A   1      36.051  29.702  30.858  1.00  0.00    -0.269 OA
BRANCH  32  35
ATOM     35  C   UNL A   1      37.794  28.983  29.466  1.00  0.00     0.039 A 
ATOM     36  C   UNL A   1      38.478  28.031  30.220  1.00  0.00     0.014 A 
ATOM     37  C   UNL A   1      38.478  29.606  28.400  1.00  0.00     0.014 A 
ATOM     38  C   UNL A   1      39.827  27.776  29.969  1.00  0.00     0.010 A 
ATOM     39  C   UNL A   1      39.819  29.348  28.140  1.00  0.00     0.010 A 
ATOM     40  C   UNL A   1      40.511  28.467  28.959  1.00  0.00    -0.014 A 
BRANCH  40  41
ATOM     41  C   UNL A   1      41.921  28.152  28.719  1.00  0.00     0.031 A 
ATOM     42  C   UNL A   1      42.141  26.884  27.964  1.00  0.00     0.074 A 
ATOM     43  C   UNL A   1      42.956  28.957  29.048  1.00  0.00     0.049 A 
ATOM     44  N   UNL A   1      42.693  25.797  28.392  1.00  0.00    -0.248 NA
ATOM     45  C   UNL A   1      41.552  26.763  26.621  1.00  0.00     0.031 C 
ATOM     46  C   UNL A   1      42.922  30.331  29.556  1.00  0.00     0.029 A 
ATOM     47  N   UNL A   1      44.297  28.719  28.932  1.00  0.00    -0.354 N 
ATOM     48  C   UNL A   1      42.693  24.910  27.317  1.00  0.00     0.074 A 
ATOM     49  C   UNL A   1      41.859  25.504  26.305  1.00  0.00     0.031 C 
ATOM     50  C   UNL A   1      44.163  30.871  29.493  1.00  0.00     0.029 A 
ATOM     51  C   UNL A   1      45.104  29.843  29.086  1.00  0.00     0.049 A 
ATOM     52  H   UNL A   1      44.663  27.823  28.754  1.00  0.00     0.167 HD
ATOM     53  C   UNL A   1      43.555  23.856  27.274  1.00  0.00     0.037 A 
ATOM     54  C   UNL A   1      46.444  29.925  28.873  1.00  0.00     0.037 A 
ATOM     55  C   UNL A   1      44.080  23.560  28.582  1.00  0.00     0.049 A 
ATOM     56  C   UNL A   1      46.993  28.549  28.931  1.00  0.00     0.074 A 
ATOM     57  C   UNL A   1      43.542  23.155  29.788  1.00  0.00     0.029 A 
ATOM     58  N   UNL A   1      45.342  24.012  28.876  1.00  0.00    -0.354 N 
ATOM     59  N   UNL A   1      47.057  27.845  30.025  1.00  0.00    -0.248 NA
ATOM     60  C   UNL A   1      47.038  27.791  27.691  1.00  0.00     0.031 C 
ATOM     61  C   UNL A   1      44.302  23.843  30.780  1.00  0.00     0.029 A 
ATOM     62  C   UNL A   1      45.295  24.571  30.126  1.00  0.00     0.049 A 
ATOM     63  H   UNL A   1      46.135  23.947  28.296  1.00  0.00     0.167 HD
ATOM     64  C   UNL A   1      46.690  26.567  29.635  1.00  0.00     0.074 A 
ATOM     65  C   UNL A   1      46.766  26.577  28.175  1.00  0.00     0.031 C 
ATOM     66  C   UNL A   1      46.088  25.712  30.513  1.00  0.00     0.037 A 
BRANCH  53  67
ATOM     67  C   UNL A   1      44.241  23.363  26.020  1.00  0.00     0.057 A 
ATOM     68  C   UNL A   1      45.157  24.126  25.268  1.00  0.00     0.134 A 
ATOM     69  C   UNL A   1      44.262  21.979  25.756  1.00  0.00     0.134 A 
ATOM     70  F   UNL A   1      45.284  25.449  25.414  1.00  0.00    -0.206 F 
ATOM     71  C   UNL A   1      46.076  23.551  24.386  1.00  0.00     0.040 A 
ATOM     72  C   UNL A   1      45.209  21.389  24.909  1.00  0.00     0.040 A 
ATOM     73  F   UNL A   1      43.426  21.143  26.391  1.00  0.00    -0.206 F 
ATOM     74  C   UNL A   1      46.135  22.175  24.237  1.00  0.00     0.006 A 
ENDBRANCH  53  67
BRANCH  54  75
ATOM     75  C   UNL A   1      47.243  31.052  28.333  1.00  0.00     0.057 A 
ATOM     76  C   UNL A   1      48.065  31.822  29.173  1.00  0.00     0.134 A 
ATOM     77  C   UNL A   1      46.996  31.588  27.058  1.00  0.00     0.134 A 
ATOM     78  F   UNL A   1      48.299  31.446  30.438  1.00  0.00    -0.206 F 
ATOM     79  C   UNL A   1      48.594  33.057  28.780  1.00  0.00     0.040 A 
ATOM     80  C   UNL A   1      47.520  32.825  26.653  1.00  0.00     0.040 A 
ATOM     81  F   UNL A   1      46.184  30.956  26.199  1.00  0.00    -0.206 F 
ATOM     82  C   UNL A   1      48.313  33.569  27.520  1.00  0.00     0.006 A 
ENDBRANCH  54  75
BRANCH  66  83
ATOM     83  C   UNL A   1      46.057  26.108  31.962  1.00  0.00     0.057 A 
ATOM     84  C   UNL A   1      47.144  25.771  32.774  1.00  0.00     0.134 A 
ATOM     85  C   UNL A   1      44.949  26.693  32.598  1.00  0.00     0.134 A 
ATOM     86  F   UNL A   1      48.215  25.156  32.247  1.00  0.00    -0.206 F 
ATOM     87  C   UNL A   1      47.144  26.018  34.149  1.00  0.00     0.040 A 
ATOM     88  C   UNL A   1      44.949  26.976  33.967  1.00  0.00     0.040 A 
ATOM     89  F   UNL A   1      43.822  26.958  31.925  1.00  0.00    -0.206 F 
ATOM     90  C   UNL A   1      46.049  26.634  34.748  1.00  0.00     0.006 A 
ENDBRANCH  66  83
ENDBRANCH  40  41
ENDBRANCH  32  35
ENDBRANCH  30  31
ENDBRANCH  29  30
ENDBRANCH  28  29
ENDBRANCH   1  28
TORSDOF 16
ENDMDL
MODEL 2
REMARK VINA RESULT:     -11.6      2.241      6.223
REMARK SMILES CCn1ccc2cc(S(=O)(=O)N3CCC[C@@H](C(=O)NCCCCCCNC(=O)c4ccc(-c5c6nc(c(-c7c(F)cccc7F)c7ccc([nH]7)c(-c7c(F)cccc7F)c7nc(c(-c8c(F)cccc8F)c8ccc5[nH]8)C=C7)C=C6)cc4)C3)ccc21
REMARK SMILES IDX 22 1 21 2 20 3 19 4 17 5 18 6 16 8 12 9 13 10 83 11 14 12
REMARK SMILES IDX 15 13 9 14 10 15 11 16 8 17 3 18 4 19 86 20 5 21 6 22 85 23
REMARK SMILES IDX 7 24 84 25 2 26 1 27 23 28 24 29 25 30 26 31 27 32 28 34
REMARK SMILES IDX 29 35 30 36 82 37 31 38 81 39 32 40 33 41 34 42 75 43 35 44
REMARK SMILES IDX 80 45 74 46 76 47 36 48 79 49 73 50 72 51 37 53 63 54 46 55
REMARK SMILES IDX 62 56 47 57 50 58 61 59 77 60 48 61 49 62 60 64 78 65 51 66
REMARK SMILES IDX 38 67 39 68 44 69 40 70 41 71 43 72 45 73 42 74 64 75 65 76
REMARK SMILES IDX 70 77 66 78 67 79 69 80 71 81 68 82 52 83 53 84 58 85 54 86
REMARK SMILES IDX 55 87 57 88 59 89 56 90
REMARK H PARENT 19 7 26 33 76 52 50 63
REMARK Flexibility Score: inf
ROOT
ATOM      1  C   UNL A   1      33.212  28.764  26.993  1.00  0.00     0.002 C 
ENDROOT
BRANCH   1   2
ATOM      2  C   UNL A   1      32.140  29.272  26.023  1.00  0.00     0.021 C 
BRANCH   2   3
ATOM      3  C   UNL A   1      32.593  29.356  24.569  1.00  0.00     0.116 C 
BRANCH   3   4
ATOM      4  N   UNL A   1      31.478  29.164  23.664  1.00  0.00    -0.356 N 
ATOM      5  C   UNL A   1      31.192  28.109  22.858  1.00  0.00     0.224 C 
ATOM      6  O   UNL A   1      30.222  28.197  22.105  1.00  0.00    -0.275 OA
ATOM      7  H   UNL A   1      30.832  29.907  23.630  1.00  0.00     0.163 HD
BRANCH   5   8
ATOM      8  C   UNL A   1      32.098  26.891  22.876  1.00  0.00     0.093 C 
ATOM      9  N   UNL A   1      32.381  24.696  24.064  1.00  0.00    -0.197 NA
ATOM     10  C   UNL A   1      32.465  23.966  22.775  1.00  0.00     0.102 C 
ATOM     11  C   UNL A   1      31.742  26.040  24.088  1.00  0.00     0.116 C 
ATOM     12  C   UNL A   1      32.822  24.878  21.610  1.00  0.00     0.018 C 
ATOM     13  C   UNL A   1      31.937  26.114  21.572  1.00  0.00     0.016 C 
BRANCH   9  14
ATOM     14  S   UNL A   1      32.040  23.721  25.438  1.00  0.00     0.243 S 
ATOM     15  O   UNL A   1      30.602  23.502  25.455  1.00  0.00    -0.207 OA
ATOM     16  O   UNL A   1      32.723  24.301  26.567  1.00  0.00    -0.207 OA
BRANCH  14  17
ATOM     17  C   UNL A   1      32.786  22.125  25.150  1.00  0.00     0.083 A 
ATOM     18  N   UNL A   1      34.927  18.614  24.571  1.00  0.00    -0.348 N 
ATOM     19  C   UNL A   1      36.217  19.059  24.760  1.00  0.00     0.087 A 
ATOM     20  C   UNL A   1      34.051  19.669  24.736  1.00  0.00     0.048 A 
ATOM     21  C   UNL A   1      36.179  20.402  25.047  1.00  0.00     0.028 A 
ATOM     22  C   UNL A   1      34.820  20.805  25.031  1.00  0.00     0.001 A 
ATOM     23  C   UNL A   1      32.656  19.750  24.662  1.00  0.00     0.028 A 
ATOM     24  C   UNL A   1      34.181  22.045  25.251  1.00  0.00     0.032 A 
ATOM     25  C   UNL A   1      32.044  20.986  24.854  1.00  0.00     0.024 A 
BRANCH  18  26
ATOM     26  C   UNL A   1      34.645  17.212  24.291  1.00  0.00     0.119 C 
ATOM     27  C   UNL A   1      33.984  16.367  25.369  1.00  0.00     0.027 C 
ENDBRANCH  18  26
ENDBRANCH  14  17
ENDBRANCH   9  14
ENDBRANCH   5   8
ENDBRANCH   3   4
ENDBRANCH   2   3
ENDBRANCH   1   2
BRANCH   1  28
ATOM     28  C   UNL A   1      34.216  29.822  27.469  1.00  0.00     0.002 C 
BRANCH  28  29
ATOM     29  C   UNL A   1      33.712  31.273  27.443  1.00  0.00     0.021 C 
BRANCH  29  30
ATOM     30  C   UNL A   1      34.644  32.277  28.119  1.00  0.00     0.116 C 
BRANCH  30  31
ATOM     31  N   UNL A   1      34.454  32.343  29.552  1.00  0.00    -0.352 N 
ATOM     32  C   UNL A   1      35.184  32.025  30.658  1.00  0.00     0.251 C 
ATOM     33  H   UNL A   1      33.572  32.713  29.788  1.00  0.00     0.163 HD
ATOM     34  O   UNL A   1      34.668  32.328  31.738  1.00  0.00    -0.269 OA
BRANCH  32  35
ATOM     35  C   UNL A   1      36.493  31.313  30.677  1.00  0.00     0.039 A 
ATOM     36  C   UNL A   1      37.754  31.894  30.795  1.00  0.00     0.014 A 
ATOM     37  C   UNL A   1      36.416  29.914  30.504  1.00  0.00     0.014 A 
ATOM     38  C   UNL A   1      38.902  31.111  30.657  1.00  0.00     0.010 A 
ATOM     39  C   UNL A   1      37.557  29.130  30.375  1.00  0.00     0.010 A 
ATOM     40  C   UNL A   1      38.804  29.736  30.401  1.00  0.00    -0.014 A 
BRANCH  40  41
ATOM     41  C   UNL A   1      40.035  28.952  30.282  1.00  0.00     0.031 A 
ATOM     42  C   UNL A   1      40.767  28.771  31.570  1.00  0.00     0.074 A 
ATOM     43  C   UNL A   1      40.457  28.347  29.149  1.00  0.00     0.049 A 
ATOM     44  N   UNL A   1      41.927  29.242  31.891  1.00  0.00    -0.248 NA
ATOM     45  C   UNL A   1      40.067  28.103  32.679  1.00  0.00     0.031 C 
ATOM     46  C   UNL A   1      39.753  28.203  27.872  1.00  0.00     0.029 A 
ATOM     47  N   UNL A   1      41.617  27.662  28.924  1.00  0.00    -0.354 N 
ATOM     48  C   UNL A   1      42.192  28.780  33.179  1.00  0.00     0.074 A 
ATOM     49  C   UNL A   1      40.964  28.206  33.663  1.00  0.00     0.031 C 
ATOM     50  C   UNL A   1      40.397  27.300  27.095  1.00  0.00     0.029 A 
ATOM     51  C   UNL A   1      41.635  26.915  27.749  1.00  0.00     0.049 A 
ATOM     52  H   UNL A   1      42.381  27.694  29.544  1.00  0.00     0.167 HD
ATOM     53  C   UNL A   1      43.466  28.722  33.657  1.00  0.00     0.037 A 
ATOM     54  C   UNL A   1      42.589  26.029  27.356  1.00  0.00     0.037 A 
ATOM     55  C   UNL A   1      44.349  29.561  32.887  1.00  0.00     0.049 A 
ATOM     56  C   UNL A   1      43.827  26.337  28.110  1.00  0.00     0.074 A 
ATOM     57  C   UNL A   1      44.439  30.914  32.628  1.00  0.00     0.029 A 
ATOM     58  N   UNL A   1      45.144  28.953  31.949  1.00  0.00    -0.354 N 
ATOM     59  N   UNL A   1      44.535  27.414  27.922  1.00  0.00    -0.248 NA
ATOM     60  C   UNL A   1      44.015  25.676  29.390  1.00  0.00     0.031 C 
ATOM     61  C   UNL A   1      44.864  31.001  31.268  1.00  0.00     0.029 A 
ATOM     62  C   UNL A   1      45.071  29.703  30.805  1.00  0.00     0.049 A 
ATOM     63  H   UNL A   1      45.669  28.129  32.074  1.00  0.00     0.167 HD
ATOM     64  C   UNL A   1      44.897  27.817  29.198  1.00  0.00     0.074 A 
ATOM     65  C   UNL A   1      44.615  26.666  30.055  1.00  0.00     0.031 C 
ATOM     66  C   UNL A   1      45.121  29.134  29.480  1.00  0.00     0.037 A 
BRANCH  53  67
ATOM     67  C   UNL A   1      44.001  27.612  34.535  1.00  0.00     0.057 A 
ATOM     68  C   UNL A   1      44.177  26.281  34.107  1.00  0.00     0.134 A 
ATOM     69  C   UNL A   1      44.686  27.953  35.718  1.00  0.00     0.134 A 
ATOM     70  F   UNL A   1      43.619  25.803  32.990  1.00  0.00    -0.206 F 
ATOM     71  C   UNL A   1      45.031  25.385  34.756  1.00  0.00     0.040 A 
ATOM     72  C   UNL A   1      45.579  27.077  36.350  1.00  0.00     0.040 A 
ATOM     73  F   UNL A   1      44.586  29.184  36.243  1.00  0.00    -0.206 F 
ATOM     74  C   UNL A   1      45.769  25.794  35.855  1.00  0.00     0.006 A 
ENDBRANCH  53  67
BRANCH  54  75
ATOM     75  C   UNL A   1      42.438  24.759  26.604  1.00  0.00     0.057 A 
ATOM     76  C   UNL A   1      41.817  23.643  27.190  1.00  0.00     0.134 A 
ATOM     77  C   UNL A   1      43.155  24.511  25.422  1.00  0.00     0.134 A 
ATOM     78  F   UNL A   1      41.176  23.749  28.362  1.00  0.00    -0.206 F 
ATOM     79  C   UNL A   1      41.916  22.357  26.647  1.00  0.00     0.040 A 
ATOM     80  C   UNL A   1      43.262  23.226  24.868  1.00  0.00     0.040 A 
ATOM     81  F   UNL A   1      43.826  25.498  24.812  1.00  0.00    -0.206 F 
ATOM     82  C   UNL A   1      42.651  22.142  25.488  1.00  0.00     0.006 A 
ENDBRANCH  54  75
BRANCH  66  83
ATOM     83  C   UNL A   1      45.200  30.091  28.325  1.00  0.00     0.057 A 
ATOM     84  C   UNL A   1      46.459  30.449  27.835  1.00  0.00     0.134 A 
ATOM     85  C   UNL A   1      44.093  30.755  27.772  1.00  0.00     0.134 A 
ATOM     86  F   UNL A   1      47.568  29.900  28.357  1.00  0.00    -0.206 F 
ATOM     87  C   UNL A   1      46.616  31.408  26.831  1.00  0.00     0.040 A 
ATOM     88  C   UNL A   1      44.233  31.692  26.743  1.00  0.00     0.040 A 
ATOM     89  F   UNL A   1      42.856  30.556  28.244  1.00  0.00    -0.206 F 
ATOM     90  C   UNL A   1      45.499  32.023  26.273  1.00  0.00     0.006 A 
ENDBRANCH  66  83
ENDBRANCH  40  41
ENDBRANCH  32  35
ENDBRANCH  30  31
ENDBRANCH  29  30
ENDBRANCH  28  29
ENDBRANCH   1  28
TORSDOF 16
ENDMDL
MODEL 3
REMARK VINA RESULT:     -11.4      3.255      8.523
REMARK SMILES CCn1ccc2cc(S(=O)(=O)N3CCC[C@@H](C(=O)NCCCCCCNC(=O)c4ccc(-c5c6nc(c(-c7c(F)cccc7F)c7ccc([nH]7)c(-c7c(F)cccc7F)c7nc(c(-c8c(F)cccc8F)c8ccc5[nH]8)C=C7)C=C6)cc4)C3)ccc21
REMARK SMILES IDX 22 1 21 2 20 3 19 4 17 5 18 6 16 8 12 9 13 10 83 11 14 12
REMARK SMILES IDX 15 13 9 14 10 15 11 16 8 17 3 18 4 19 86 20 5 21 6 22 85 23
REMARK SMILES IDX 7 24 84 25 2 26 1 27 23 28 24 29 25 30 26 31 27 32 28 34
REMARK SMILES IDX 29 35 30 36 82 37 31 38 81 39 32 40 33 41 34 42 75 43 35 44
REMARK SMILES IDX 80 45 74 46 76 47 36 48 79 49 73 50 72 51 37 53 63 54 46 55
REMARK SMILES IDX 62 56 47 57 50 58 61 59 77 60 48 61 49 62 60 64 78 65 51 66
REMARK SMILES IDX 38 67 39 68 44 69 40 70 41 71 43 72 45 73 42 74 64 75 65 76
REMARK SMILES IDX 70 77 66 78 67 79 69 80 71 81 68 82 52 83 53 84 58 85 54 86
REMARK SMILES IDX 55 87 57 88 59 89 56 90
REMARK H PARENT 19 7 26 33 76 52 50 63
REMARK Flexibility Score: inf
ROOT
ATOM      1  C   UNL A   1      37.969  23.704  26.129  1.00  0.00     0.002 C 
ENDROOT
BRANCH   1   2
ATOM      2  C   UNL A   1      36.576  23.594  25.502  1.00  0.00     0.021 C 
BRANCH   2   3
ATOM      3  C   UNL A   1      35.962  22.199  25.571  1.00  0.00     0.116 C 
BRANCH   3   4
ATOM      4  N   UNL A   1      35.087  22.071  26.718  1.00  0.00    -0.356 N 
ATOM      5  C   UNL A   1      33.749  22.285  26.810  1.00  0.00     0.224 C 
ATOM      6  O   UNL A   1      33.219  22.192  27.918  1.00  0.00    -0.275 OA
ATOM      7  H   UNL A   1      35.526  21.786  27.552  1.00  0.00     0.163 HD
BRANCH   5   8
ATOM      8  C   UNL A   1      32.969  22.677  25.568  1.00  0.00     0.093 C 
ATOM      9  N   UNL A   1      32.921  24.440  23.779  1.00  0.00    -0.197 NA
ATOM     10  C   UNL A   1      32.894  23.409  22.711  1.00  0.00     0.102 C 
ATOM     11  C   UNL A   1      33.423  24.062  25.129  1.00  0.00     0.116 C 
ATOM     12  C   UNL A   1      32.433  22.051  23.223  1.00  0.00     0.018 C 
ATOM     13  C   UNL A   1      33.190  21.636  24.474  1.00  0.00     0.016 C 
BRANCH   9  14
ATOM     14  S   UNL A   1      33.375  26.016  23.265  1.00  0.00     0.243 S 
ATOM     15  O   UNL A   1      33.912  25.884  21.920  1.00  0.00    -0.207 OA
ATOM     16  O   UNL A   1      34.147  26.616  24.324  1.00  0.00    -0.207 OA
BRANCH  14  17
ATOM     17  C   UNL A   1      31.876  26.974  23.115  1.00  0.00     0.083 A 
ATOM     18  N   UNL A   1      28.173  28.848  22.973  1.00  0.00    -0.348 N 
ATOM     19  C   UNL A   1      27.365  27.876  23.521  1.00  0.00     0.087 A 
ATOM     20  C   UNL A   1      29.477  28.396  22.945  1.00  0.00     0.048 A 
ATOM     21  C   UNL A   1      28.145  26.793  23.847  1.00  0.00     0.028 A 
ATOM     22  C   UNL A   1      29.480  27.101  23.486  1.00  0.00     0.001 A 
ATOM     23  C   UNL A   1      30.666  28.988  22.503  1.00  0.00     0.028 A 
ATOM     24  C   UNL A   1      30.694  26.386  23.583  1.00  0.00     0.032 A 
ATOM     25  C   UNL A   1      31.849  28.257  22.580  1.00  0.00     0.024 A 
BRANCH  18  26
ATOM     26  C   UNL A   1      27.632  30.138  22.565  1.00  0.00     0.119 C 
ATOM     27  C   UNL A   1      27.604  31.276  23.574  1.00  0.00     0.027 C 
ENDBRANCH  18  26
ENDBRANCH  14  17
ENDBRANCH   9  14
ENDBRANCH   5   8
ENDBRANCH   3   4
ENDBRANCH   2   3
ENDBRANCH   1   2
BRANCH   1  28
ATOM     28  C   UNL A   1      38.805  22.418  26.095  1.00  0.00     0.002 C 
BRANCH  28  29
ATOM     29  C   UNL A   1      40.048  22.412  26.999  1.00  0.00     0.021 C 
BRANCH  29  30
ATOM     30  C   UNL A   1      41.164  21.480  26.531  1.00  0.00     0.116 C 
BRANCH  30  31
ATOM     31  N   UNL A   1      42.063  22.109  25.588  1.00  0.00    -0.352 N 
ATOM     32  C   UNL A   1      42.570  23.359  25.393  1.00  0.00     0.251 C 
ATOM     33  H   UNL A   1      42.391  21.470  24.913  1.00  0.00     0.163 HD
ATOM     34  O   UNL A   1      43.402  23.457  24.486  1.00  0.00    -0.269 OA
BRANCH  32  35
ATOM     35  C   UNL A   1      42.177  24.594  26.127  1.00  0.00     0.039 A 
ATOM     36  C   UNL A   1      41.246  25.546  25.715  1.00  0.00     0.014 A 
ATOM     37  C   UNL A   1      42.873  24.821  27.334  1.00  0.00     0.014 A 
ATOM     38  C   UNL A   1      41.083  26.727  26.442  1.00  0.00     0.010 A 
ATOM     39  C   UNL A   1      42.706  25.991  28.066  1.00  0.00     0.010 A 
ATOM     40  C   UNL A   1      41.845  26.970  27.593  1.00  0.00    -0.014 A 
BRANCH  40  41
ATOM     41  C   UNL A   1      41.626  28.214  28.334  1.00  0.00     0.031 A 
ATOM     42  C   UNL A   1      42.709  29.225  28.159  1.00  0.00     0.074 A 
ATOM     43  C   UNL A   1      40.513  28.501  29.046  1.00  0.00     0.049 A 
ATOM     44  N   UNL A   1      43.537  29.658  29.053  1.00  0.00    -0.248 NA
ATOM     45  C   UNL A   1      42.995  29.709  26.799  1.00  0.00     0.031 C 
ATOM     46  C   UNL A   1      39.257  27.749  29.123  1.00  0.00     0.029 A 
ATOM     47  N   UNL A   1      40.250  29.593  29.823  1.00  0.00    -0.354 N 
ATOM     48  C   UNL A   1      44.334  30.608  28.417  1.00  0.00     0.074 A 
ATOM     49  C   UNL A   1      44.052  30.497  27.011  1.00  0.00     0.031 C 
ATOM     50  C   UNL A   1      38.306  28.510  29.716  1.00  0.00     0.029 A 
ATOM     51  C   UNL A   1      38.916  29.738  30.195  1.00  0.00     0.049 A 
ATOM     52  H   UNL A   1      40.950  30.228  30.099  1.00  0.00     0.167 HD
ATOM     53  C   UNL A   1      45.006  31.554  29.132  1.00  0.00     0.037 A 
ATOM     54  C   UNL A   1      38.352  30.799  30.830  1.00  0.00     0.037 A 
ATOM     55  C   UNL A   1      45.130  31.169  30.515  1.00  0.00     0.049 A 
ATOM     56  C   UNL A   1      39.440  31.551  31.499  1.00  0.00     0.074 A 
ATOM     57  C   UNL A   1      45.735  30.131  31.195  1.00  0.00     0.029 A 
ATOM     58  N   UNL A   1      44.264  31.741  31.413  1.00  0.00    -0.354 N 
ATOM     59  N   UNL A   1      40.104  31.097  32.524  1.00  0.00    -0.248 NA
ATOM     60  C   UNL A   1      40.096  32.602  30.739  1.00  0.00     0.031 C 
ATOM     61  C   UNL A   1      44.848  29.829  32.271  1.00  0.00     0.029 A 
ATOM     62  C   UNL A   1      43.794  30.741  32.221  1.00  0.00     0.049 A 
ATOM     63  H   UNL A   1      44.024  32.695  31.465  1.00  0.00     0.167 HD
ATOM     64  C   UNL A   1      41.418  31.462  32.273  1.00  0.00     0.074 A 
ATOM     65  C   UNL A   1      41.340  32.452  31.200  1.00  0.00     0.031 C 
ATOM     66  C   UNL A   1      42.456  30.719  32.759  1.00  0.00     0.037 A 
BRANCH  53  67
ATOM     67  C   UNL A   1      45.185  32.990  28.695  1.00  0.00     0.057 A 
ATOM     68  C   UNL A   1      44.134  33.925  28.603  1.00  0.00     0.134 A 
ATOM     69  C   UNL A   1      46.478  33.549  28.709  1.00  0.00     0.134 A 
ATOM     70  F   UNL A   1      42.847  33.564  28.604  1.00  0.00    -0.206 F 
ATOM     71  C   UNL A   1      44.348  35.306  28.607  1.00  0.00     0.040 A 
ATOM     72  C   UNL A   1      46.701  34.931  28.760  1.00  0.00     0.040 A 
ATOM     73  F   UNL A   1      47.567  32.767  28.774  1.00  0.00    -0.206 F 
ATOM     74  C   UNL A   1      45.630  35.814  28.731  1.00  0.00     0.006 A 
ENDBRANCH  53  67
BRANCH  54  75
ATOM     75  C   UNL A   1      36.999  31.383  30.665  1.00  0.00     0.057 A 
ATOM     76  C   UNL A   1      36.673  32.140  29.527  1.00  0.00     0.134 A 
ATOM     77  C   UNL A   1      36.096  31.469  31.737  1.00  0.00     0.134 A 
ATOM     78  F   UNL A   1      37.505  32.197  28.477  1.00  0.00    -0.206 F 
ATOM     79  C   UNL A   1      35.532  32.948  29.463  1.00  0.00     0.040 A 
ATOM     80  C   UNL A   1      34.949  32.276  31.686  1.00  0.00     0.040 A 
ATOM     81  F   UNL A   1      36.340  30.825  32.887  1.00  0.00    -0.206 F 
ATOM     82  C   UNL A   1      34.670  33.028  30.550  1.00  0.00     0.006 A 
ENDBRANCH  54  75
BRANCH  66  83
ATOM     83  C   UNL A   1      42.138  29.649  33.764  1.00  0.00     0.057 A 
ATOM     84  C   UNL A   1      42.335  29.922  35.120  1.00  0.00     0.134 A 
ATOM     85  C   UNL A   1      41.767  28.336  33.430  1.00  0.00     0.134 A 
ATOM     86  F   UNL A   1      42.747  31.140  35.512  1.00  0.00    -0.206 F 
ATOM     87  C   UNL A   1      42.156  28.947  36.104  1.00  0.00     0.040 A 
ATOM     88  C   UNL A   1      41.552  27.359  34.407  1.00  0.00     0.040 A 
ATOM     89  F   UNL A   1      41.653  27.950  32.153  1.00  0.00    -0.206 F 
ATOM     90  C   UNL A   1      41.750  27.664  35.750  1.00  0.00     0.006 A 
ENDBRANCH  66  83
ENDBRANCH  40  41
ENDBRANCH  32  35
ENDBRANCH  30  31
ENDBRANCH  29  30
ENDBRANCH  28  29
ENDBRANCH   1  28
TORSDOF 16
ENDMDL
