MODEL 1
REMARK VINA RESULT:     -10.7      0.000      0.000
REMARK SMILES C[NH2+][C@H](CC(=O)NCCCCCCNC(=O)c1ccc(-c2c3nc(c(-c4c(F)cccc4F)c4ccc([nH]4)c(-c4c(F)cccc4F)c4nc(c(-c5c(F)cccc5F)c5ccc2[nH]5)C=C4)C=C3)cc1)c1cccc(C2CC2)c1
REMARK SMILES IDX 10 1 9 2 8 3 7 4 5 5 6 6 4 8 3 9 2 10 1 11 71 14 72 15 79 16
REMARK SMILES IDX 73 17 75 18 74 19 76 20 77 21 78 22 11 23 12 24 13 25 14 26
REMARK SMILES IDX 15 27 16 29 17 30 18 31 70 32 19 33 69 34 20 35 21 36 22 37
REMARK SMILES IDX 63 38 23 39 68 40 62 41 64 42 24 43 67 44 61 45 60 46 25 48
REMARK SMILES IDX 51 49 34 50 50 51 35 52 38 53 49 54 65 55 36 56 37 57 48 59
REMARK SMILES IDX 66 60 39 61 26 62 27 63 32 64 28 65 29 66 31 67 33 68 30 69
REMARK SMILES IDX 52 70 53 71 58 72 54 73 55 74 57 75 59 76 56 77 40 78 41 79
REMARK SMILES IDX 46 80 42 81 43 82 45 83 47 84 44 85
REMARK H PARENT 7 7 2 12 2 13 14 28 64 47 38 58
REMARK Flexibility Score: inf
ROOT
ATOM      1  C   UNL A   1      32.424  29.566  26.828  1.00  0.00     0.002 C 
ENDROOT
BRANCH   1   2
ATOM      2  C   UNL A   1      31.868  28.280  27.465  1.00  0.00     0.021 C 
BRANCH   2   3
ATOM      3  C   UNL A   1      31.431  27.206  26.461  1.00  0.00     0.116 C 
BRANCH   3   4
ATOM      4  N   UNL A   1      32.529  26.363  26.029  1.00  0.00    -0.356 N 
ATOM      5  C   UNL A   1      33.322  26.395  24.924  1.00  0.00     0.226 C 
ATOM      6  O   UNL A   1      34.202  25.537  24.833  1.00  0.00    -0.275 OA
ATOM      7  H   UNL A   1      32.741  25.630  26.652  1.00  0.00     0.163 HD
BRANCH   5   8
ATOM      8  C   UNL A   1      33.183  27.487  23.887  1.00  0.00     0.170 C 
BRANCH   8   9
ATOM      9  C   UNL A   1      32.254  27.191  22.695  1.00  0.00     0.222 C 
BRANCH   9  10
ATOM     10  N   UNL A   1      32.169  25.740  22.395  1.00  0.00    -0.342 N 
ATOM     11  C   UNL A   1      32.898  25.297  21.219  1.00  0.00     0.331 C 
ATOM     12  H   UNL A   1      32.532  25.230  23.200  1.00  0.00     0.346 HD
ATOM     13  H   UNL A   1      31.184  25.552  22.199  1.00  0.00     0.346 HD
ENDBRANCH   9  10
BRANCH   9  14
ATOM     14  C   UNL A   1      30.848  27.780  22.869  1.00  0.00     0.010 A 
ATOM     15  C   UNL A   1      29.796  26.974  23.318  1.00  0.00     0.010 A 
ATOM     16  C   UNL A   1      30.547  29.123  22.582  1.00  0.00     0.014 A 
ATOM     17  C   UNL A   1      28.511  27.469  23.500  1.00  0.00     0.001 A 
ATOM     18  C   UNL A   1      29.254  29.664  22.749  1.00  0.00    -0.044 A 
ATOM     19  C   UNL A   1      28.249  28.803  23.221  1.00  0.00     0.004 A 
BRANCH  18  20
ATOM     20  C   UNL A   1      28.886  31.091  22.409  1.00  0.00     0.019 C 
ATOM     21  C   UNL A   1      27.661  31.801  22.920  1.00  0.00     0.009 C 
ATOM     22  C   UNL A   1      29.004  32.120  23.509  1.00  0.00     0.009 C 
ENDBRANCH  18  20
ENDBRANCH   9  14
ENDBRANCH   8   9
ENDBRANCH   5   8
ENDBRANCH   3   4
ENDBRANCH   2   3
ENDBRANCH   1   2
BRANCH   1  23
ATOM     23  C   UNL A   1      31.410  30.355  25.997  1.00  0.00     0.002 C 
BRANCH  23  24
ATOM     24  C   UNL A   1      31.220  31.803  26.443  1.00  0.00     0.021 C 
BRANCH  24  25
ATOM     25  C   UNL A   1      32.506  32.492  26.880  1.00  0.00     0.116 C 
BRANCH  25  26
ATOM     26  N   UNL A   1      32.264  33.840  27.369  1.00  0.00    -0.352 N 
ATOM     27  C   UNL A   1      32.935  34.496  28.377  1.00  0.00     0.251 C 
ATOM     28  H   UNL A   1      31.539  34.341  26.929  1.00  0.00     0.163 HD
ATOM     29  O   UNL A   1      32.531  35.553  28.833  1.00  0.00    -0.269 OA
BRANCH  27  30
ATOM     30  C   UNL A   1      34.160  33.866  28.908  1.00  0.00     0.039 A 
ATOM     31  C   UNL A   1      35.407  34.383  28.554  1.00  0.00     0.014 A 
ATOM     32  C   UNL A   1      34.050  32.812  29.818  1.00  0.00     0.014 A 
ATOM     33  C   UNL A   1      36.557  33.868  29.157  1.00  0.00     0.010 A 
ATOM     34  C   UNL A   1      35.187  32.349  30.466  1.00  0.00     0.010 A 
ATOM     35  C   UNL A   1      36.452  32.865  30.134  1.00  0.00    -0.014 A 
BRANCH  35  36
ATOM     36  C   UNL A   1      37.644  32.292  30.805  1.00  0.00     0.031 A 
ATOM     37  C   UNL A   1      38.388  31.171  30.138  1.00  0.00     0.074 A 
ATOM     38  C   UNL A   1      37.987  32.694  32.042  1.00  0.00     0.049 A 
ATOM     39  N   UNL A   1      39.334  30.405  30.614  1.00  0.00    -0.248 NA
ATOM     40  C   UNL A   1      37.979  30.844  28.763  1.00  0.00     0.031 C 
ATOM     41  C   UNL A   1      37.322  33.750  32.807  1.00  0.00     0.029 A 
ATOM     42  N   UNL A   1      38.967  32.235  32.887  1.00  0.00    -0.354 N 
ATOM     43  C   UNL A   1      39.608  29.484  29.611  1.00  0.00     0.074 A 
ATOM     44  C   UNL A   1      38.695  29.757  28.523  1.00  0.00     0.031 C 
ATOM     45  C   UNL A   1      37.913  33.858  34.009  1.00  0.00     0.029 A 
ATOM     46  C   UNL A   1      38.966  32.853  34.114  1.00  0.00     0.049 A 
ATOM     47  H   UNL A   1      39.608  31.531  32.637  1.00  0.00     0.167 HD
ATOM     48  C   UNL A   1      40.546  28.508  29.593  1.00  0.00     0.037 A 
ATOM     49  C   UNL A   1      39.717  32.618  35.208  1.00  0.00     0.037 A 
ATOM     50  C   UNL A   1      41.471  28.264  30.667  1.00  0.00     0.049 A 
ATOM     51  C   UNL A   1      40.759  31.534  35.168  1.00  0.00     0.074 A 
ATOM     52  C   UNL A   1      42.504  27.345  30.724  1.00  0.00     0.029 A 
ATOM     53  N   UNL A   1      41.471  28.945  31.875  1.00  0.00    -0.354 N 
ATOM     54  N   UNL A   1      41.047  30.704  34.195  1.00  0.00    -0.248 NA
ATOM     55  C   UNL A   1      41.583  31.358  36.372  1.00  0.00     0.031 C 
ATOM     56  C   UNL A   1      43.100  27.440  31.984  1.00  0.00     0.029 A 
ATOM     57  C   UNL A   1      42.475  28.453  32.694  1.00  0.00     0.049 A 
ATOM     58  H   UNL A   1      40.851  29.670  32.116  1.00  0.00     0.167 HD
ATOM     59  C   UNL A   1      42.106  29.930  34.654  1.00  0.00     0.074 A 
ATOM     60  C   UNL A   1      42.408  30.389  35.995  1.00  0.00     0.031 C 
ATOM     61  C   UNL A   1      42.772  28.935  34.019  1.00  0.00     0.037 A 
BRANCH  48  62
ATOM     62  C   UNL A   1      40.601  27.632  28.375  1.00  0.00     0.057 A 
ATOM     63  C   UNL A   1      39.923  26.408  28.308  1.00  0.00     0.134 A 
ATOM     64  C   UNL A   1      41.352  28.015  27.255  1.00  0.00     0.134 A 
ATOM     65  F   UNL A   1      39.198  25.975  29.351  1.00  0.00    -0.206 F 
ATOM     66  C   UNL A   1      40.025  25.576  27.192  1.00  0.00     0.040 A 
ATOM     67  C   UNL A   1      41.435  27.206  26.121  1.00  0.00     0.040 A 
ATOM     68  F   UNL A   1      42.021  29.178  27.248  1.00  0.00    -0.206 F 
ATOM     69  C   UNL A   1      40.780  25.976  26.092  1.00  0.00     0.006 A 
ENDBRANCH  48  62
BRANCH  49  70
ATOM     70  C   UNL A   1      39.515  33.443  36.425  1.00  0.00     0.057 A 
ATOM     71  C   UNL A   1      40.157  34.678  36.571  1.00  0.00     0.134 A 
ATOM     72  C   UNL A   1      38.652  33.037  37.449  1.00  0.00     0.134 A 
ATOM     73  F   UNL A   1      41.007  35.112  35.630  1.00  0.00    -0.206 F 
ATOM     74  C   UNL A   1      39.954  35.477  37.698  1.00  0.00     0.040 A 
ATOM     75  C   UNL A   1      38.424  33.836  38.571  1.00  0.00     0.040 A 
ATOM     76  F   UNL A   1      38.000  31.869  37.364  1.00  0.00    -0.206 F 
ATOM     77  C   UNL A   1      39.080  35.060  38.699  1.00  0.00     0.006 A 
ENDBRANCH  49  70
BRANCH  61  78
ATOM     78  C   UNL A   1      43.929  28.303  34.735  1.00  0.00     0.057 A 
ATOM     79  C   UNL A   1      43.785  27.133  35.489  1.00  0.00     0.134 A 
ATOM     80  C   UNL A   1      45.219  28.830  34.593  1.00  0.00     0.134 A 
ATOM     81  F   UNL A   1      42.574  26.585  35.671  1.00  0.00    -0.206 F 
ATOM     82  C   UNL A   1      44.885  26.511  36.083  1.00  0.00     0.040 A 
ATOM     83  C   UNL A   1      46.330  28.205  35.162  1.00  0.00     0.040 A 
ATOM     84  F   UNL A   1      45.424  29.945  33.876  1.00  0.00    -0.206 F 
ATOM     85  C   UNL A   1      46.163  27.042  35.911  1.00  0.00     0.006 A 
ENDBRANCH  61  78
ENDBRANCH  35  36
ENDBRANCH  27  30
ENDBRANCH  25  26
ENDBRANCH  24  25
ENDBRANCH  23  24
ENDBRANCH   1  23
TORSDOF 17
ENDMDL
MODEL 2
REMARK VINA RESULT:     -10.7      5.519     10.536
REMARK SMILES C[NH2+][C@H](CC(=O)NCCCCCCNC(=O)c1ccc(-c2c3nc(c(-c4c(F)cccc4F)c4ccc([nH]4)c(-c4c(F)cccc4F)c4nc(c(-c5c(F)cccc5F)c5ccc2[nH]5)C=C4)C=C3)cc1)c1cccc(C2CC2)c1
REMARK SMILES IDX 10 1 9 2 8 3 7 4 5 5 6 6 4 8 3 9 2 10 1 11 71 14 72 15 79 16
REMARK SMILES IDX 73 17 75 18 74 19 76 20 77 21 78 22 11 23 12 24 13 25 14 26
REMARK SMILES IDX 15 27 16 29 17 30 18 31 70 32 19 33 69 34 20 35 21 36 22 37
REMARK SMILES IDX 63 38 23 39 68 40 62 41 64 42 24 43 67 44 61 45 60 46 25 48
REMARK SMILES IDX 51 49 34 50 50 51 35 52 38 53 49 54 65 55 36 56 37 57 48 59
REMARK SMILES IDX 66 60 39 61 26 62 27 63 32 64 28 65 29 66 31 67 33 68 30 69
REMARK SMILES IDX 52 70 53 71 58 72 54 73 55 74 57 75 59 76 56 77 40 78 41 79
REMARK SMILES IDX 46 80 42 81 43 82 45 83 47 84 44 85
REMARK H PARENT 7 7 2 12 2 13 14 28 64 47 38 58
REMARK Flexibility Score: inf
ROOT
ATOM      1  C   UNL A   1      37.006  21.899  24.265  1.00  0.00     0.002 C 
ENDROOT
BRANCH   1   2
ATOM      2  C   UNL A   1      35.963  23.022  24.398  1.00  0.00     0.021 C 
BRANCH   2   3
ATOM      3  C   UNL A   1      36.006  23.781  25.730  1.00  0.00     0.116 C 
BRANCH   3   4
ATOM      4  N   UNL A   1      35.326  23.075  26.799  1.00  0.00    -0.356 N 
ATOM      5  C   UNL A   1      34.012  22.987  27.141  1.00  0.00     0.226 C 
ATOM      6  O   UNL A   1      33.725  22.286  28.113  1.00  0.00    -0.275 OA
ATOM      7  H   UNL A   1      35.927  22.563  27.388  1.00  0.00     0.163 HD
BRANCH   5   8
ATOM      8  C   UNL A   1      32.937  23.658  26.315  1.00  0.00     0.170 C 
BRANCH   8   9
ATOM      9  C   UNL A   1      31.699  22.810  25.974  1.00  0.00     0.222 C 
BRANCH   9  10
ATOM     10  N   UNL A   1      30.518  23.646  25.644  1.00  0.00    -0.342 N 
ATOM     11  C   UNL A   1      30.777  25.067  25.487  1.00  0.00     0.331 C 
ATOM     12  H   UNL A   1      30.123  23.301  24.769  1.00  0.00     0.346 HD
ATOM     13  H   UNL A   1      29.885  23.564  26.441  1.00  0.00     0.346 HD
ENDBRANCH   9  10
BRANCH   9  14
ATOM     14  C   UNL A   1      31.958  21.791  24.857  1.00  0.00     0.010 A 
ATOM     15  C   UNL A   1      31.816  22.165  23.515  1.00  0.00     0.010 A 
ATOM     16  C   UNL A   1      32.329  20.460  25.113  1.00  0.00     0.014 A 
ATOM     17  C   UNL A   1      32.052  21.279  22.472  1.00  0.00     0.001 A 
ATOM     18  C   UNL A   1      32.572  19.528  24.082  1.00  0.00    -0.044 A 
ATOM     19  C   UNL A   1      32.431  19.975  22.758  1.00  0.00     0.004 A 
BRANCH  18  20
ATOM     20  C   UNL A   1      32.931  18.078  24.323  1.00  0.00     0.019 C 
ATOM     21  C   UNL A   1      33.284  17.095  23.239  1.00  0.00     0.009 C 
ATOM     22  C   UNL A   1      34.369  17.671  24.101  1.00  0.00     0.009 C 
ENDBRANCH  18  20
ENDBRANCH   9  14
ENDBRANCH   8   9
ENDBRANCH   5   8
ENDBRANCH   3   4
ENDBRANCH   2   3
ENDBRANCH   1   2
BRANCH   1  23
ATOM     23  C   UNL A   1      36.562  20.547  24.828  1.00  0.00     0.002 C 
BRANCH  23  24
ATOM     24  C   UNL A   1      37.690  19.532  24.993  1.00  0.00     0.021 C 
BRANCH  24  25
ATOM     25  C   UNL A   1      38.927  20.084  25.690  1.00  0.00     0.116 C 
BRANCH  25  26
ATOM     26  N   UNL A   1      39.996  19.102  25.764  1.00  0.00    -0.352 N 
ATOM     27  C   UNL A   1      41.325  19.333  26.044  1.00  0.00     0.251 C 
ATOM     28  H   UNL A   1      39.743  18.165  25.596  1.00  0.00     0.163 HD
ATOM     29  O   UNL A   1      42.171  18.467  25.898  1.00  0.00    -0.269 OA
BRANCH  27  30
ATOM     30  C   UNL A   1      41.702  20.681  26.514  1.00  0.00     0.039 A 
ATOM     31  C   UNL A   1      41.827  20.922  27.883  1.00  0.00     0.014 A 
ATOM     32  C   UNL A   1      42.003  21.675  25.579  1.00  0.00     0.014 A 
ATOM     33  C   UNL A   1      42.307  22.159  28.319  1.00  0.00     0.010 A 
ATOM     34  C   UNL A   1      42.544  22.877  26.012  1.00  0.00     0.010 A 
ATOM     35  C   UNL A   1      42.691  23.134  27.385  1.00  0.00    -0.014 A 
BRANCH  35  36
ATOM     36  C   UNL A   1      43.211  24.459  27.801  1.00  0.00     0.031 A 
ATOM     37  C   UNL A   1      42.239  25.532  28.200  1.00  0.00     0.074 A 
ATOM     38  C   UNL A   1      44.526  24.732  27.715  1.00  0.00     0.049 A 
ATOM     39  N   UNL A   1      42.451  26.803  28.422  1.00  0.00    -0.248 NA
ATOM     40  C   UNL A   1      40.831  25.124  28.324  1.00  0.00     0.031 C 
ATOM     41  C   UNL A   1      45.565  23.784  27.310  1.00  0.00     0.029 A 
ATOM     42  N   UNL A   1      45.209  25.902  27.937  1.00  0.00    -0.354 N 
ATOM     43  C   UNL A   1      41.200  27.351  28.675  1.00  0.00     0.074 A 
ATOM     44  C   UNL A   1      40.233  26.285  28.532  1.00  0.00     0.031 C 
ATOM     45  C   UNL A   1      46.753  24.411  27.310  1.00  0.00     0.029 A 
ATOM     46  C   UNL A   1      46.554  25.811  27.674  1.00  0.00     0.049 A 
ATOM     47  H   UNL A   1      44.776  26.727  28.253  1.00  0.00     0.167 HD
ATOM     48  C   UNL A   1      40.888  28.624  29.013  1.00  0.00     0.037 A 
ATOM     49  C   UNL A   1      47.514  26.756  27.702  1.00  0.00     0.037 A 
ATOM     50  C   UNL A   1      41.860  29.671  29.183  1.00  0.00     0.049 A 
ATOM     51  C   UNL A   1      47.150  28.164  28.085  1.00  0.00     0.074 A 
ATOM     52  C   UNL A   1      41.658  30.978  29.588  1.00  0.00     0.029 A 
ATOM     53  N   UNL A   1      43.220  29.526  28.957  1.00  0.00    -0.354 N 
ATOM     54  N   UNL A   1      45.972  28.661  28.376  1.00  0.00    -0.248 NA
ATOM     55  C   UNL A   1      48.246  29.141  28.149  1.00  0.00     0.031 C 
ATOM     56  C   UNL A   1      42.891  31.637  29.562  1.00  0.00     0.029 A 
ATOM     57  C   UNL A   1      43.869  30.726  29.194  1.00  0.00     0.049 A 
ATOM     58  H   UNL A   1      43.661  28.694  28.669  1.00  0.00     0.167 HD
ATOM     59  C   UNL A   1      46.188  29.996  28.691  1.00  0.00     0.074 A 
ATOM     60  C   UNL A   1      47.611  30.234  28.552  1.00  0.00     0.031 C 
ATOM     61  C   UNL A   1      45.289  30.938  29.068  1.00  0.00     0.037 A 
BRANCH  48  62
ATOM     62  C   UNL A   1      39.434  28.947  29.204  1.00  0.00     0.057 A 
ATOM     63  C   UNL A   1      38.800  28.815  30.447  1.00  0.00     0.134 A 
ATOM     64  C   UNL A   1      38.655  29.387  28.126  1.00  0.00     0.134 A 
ATOM     65  F   UNL A   1      39.485  28.384  31.517  1.00  0.00    -0.206 F 
ATOM     66  C   UNL A   1      37.436  29.065  30.601  1.00  0.00     0.040 A 
ATOM     67  C   UNL A   1      37.297  29.672  28.276  1.00  0.00     0.040 A 
ATOM     68  F   UNL A   1      39.199  29.543  26.909  1.00  0.00    -0.206 F 
ATOM     69  C   UNL A   1      36.680  29.499  29.514  1.00  0.00     0.006 A 
ENDBRANCH  48  62
BRANCH  49  70
ATOM     70  C   UNL A   1      48.913  26.388  27.372  1.00  0.00     0.057 A 
ATOM     71  C   UNL A   1      49.801  25.971  28.370  1.00  0.00     0.134 A 
ATOM     72  C   UNL A   1      49.384  26.408  26.055  1.00  0.00     0.134 A 
ATOM     73  F   UNL A   1      49.412  25.947  29.653  1.00  0.00    -0.206 F 
ATOM     74  C   UNL A   1      51.112  25.596  28.070  1.00  0.00     0.040 A 
ATOM     75  C   UNL A   1      50.686  26.014  25.738  1.00  0.00     0.040 A 
ATOM     76  F   UNL A   1      48.578  26.787  25.052  1.00  0.00    -0.206 F 
ATOM     77  C   UNL A   1      51.555  25.609  26.750  1.00  0.00     0.006 A 
ENDBRANCH  49  70
BRANCH  61  78
ATOM     78  C   UNL A   1      45.811  32.302  29.411  1.00  0.00     0.057 A 
ATOM     79  C   UNL A   1      45.907  33.322  28.458  1.00  0.00     0.134 A 
ATOM     80  C   UNL A   1      46.141  32.618  30.736  1.00  0.00     0.134 A 
ATOM     81  F   UNL A   1      45.616  33.079  27.171  1.00  0.00    -0.206 F 
ATOM     82  C   UNL A   1      46.319  34.609  28.808  1.00  0.00     0.040 A 
ATOM     83  C   UNL A   1      46.531  33.907  31.103  1.00  0.00     0.040 A 
ATOM     84  F   UNL A   1      46.063  31.687  31.698  1.00  0.00    -0.206 F 
ATOM     85  C   UNL A   1      46.622  34.906  30.137  1.00  0.00     0.006 A 
ENDBRANCH  61  78
ENDBRANCH  35  36
ENDBRANCH  27  30
ENDBRANCH  25  26
ENDBRANCH  24  25
ENDBRANCH  23  24
ENDBRANCH   1  23
TORSDOF 17
ENDMDL
MODEL 3
REMARK VINA RESULT:     -10.5      0.897      6.352
REMARK SMILES C[NH2+][C@H](CC(=O)NCCCCCCNC(=O)c1ccc(-c2c3nc(c(-c4c(F)cccc4F)c4ccc([nH]4)c(-c4c(F)cccc4F)c4nc(c(-c5c(F)cccc5F)c5ccc2[nH]5)C=C4)C=C3)cc1)c1cccc(C2CC2)c1
REMARK SMILES IDX 10 1 9 2 8 3 7 4 5 5 6 6 4 8 3 9 2 10 1 11 71 14 72 15 79 16
REMARK SMILES IDX 73 17 75 18 74 19 76 20 77 21 78 22 11 23 12 24 13 25 14 26
REMARK SMILES IDX 15 27 16 29 17 30 18 31 70 32 19 33 69 34 20 35 21 36 22 37
REMARK SMILES IDX 63 38 23 39 68 40 62 41 64 42 24 43 67 44 61 45 60 46 25 48
REMARK SMILES IDX 51 49 34 50 50 51 35 52 38 53 49 54 65 55 36 56 37 57 48 59
REMARK SMILES IDX 66 60 39 61 26 62 27 63 32 64 28 65 29 66 31 67 33 68 30 69
REMARK SMILES IDX 52 70 53 71 58 72 54 73 55 74 57 75 59 76 56 77 40 78 41 79
REMARK SMILES IDX 46 80 42 81 43 82 45 83 47 84 44 85
REMARK H PARENT 7 7 2 12 2 13 14 28 64 47 38 58
REMARK Flexibility Score: inf
ROOT
ATOM      1  C   UNL A   1      32.130  29.830  25.920  1.00  0.00     0.002 C 
ENDROOT
BRANCH   1   2
ATOM      2  C   UNL A   1      31.748  28.935  27.112  1.00  0.00     0.021 C 
BRANCH   2   3
ATOM      3  C   UNL A   1      31.542  27.456  26.762  1.00  0.00     0.116 C 
BRANCH   3   4
ATOM      4  N   UNL A   1      32.758  26.817  26.295  1.00  0.00    -0.356 N 
ATOM      5  C   UNL A   1      33.070  26.199  25.124  1.00  0.00     0.226 C 
ATOM      6  O   UNL A   1      34.213  25.752  25.007  1.00  0.00    -0.275 OA
ATOM      7  H   UNL A   1      33.496  26.833  26.947  1.00  0.00     0.163 HD
BRANCH   5   8
ATOM      8  C   UNL A   1      32.082  26.131  23.982  1.00  0.00     0.170 C 
BRANCH   8   9
ATOM      9  C   UNL A   1      32.063  27.328  23.014  1.00  0.00     0.222 C 
BRANCH   9  10
ATOM     10  N   UNL A   1      32.557  26.965  21.662  1.00  0.00    -0.342 N 
ATOM     11  C   UNL A   1      32.786  25.548  21.434  1.00  0.00     0.331 C 
ATOM     12  H   UNL A   1      31.871  27.286  20.980  1.00  0.00     0.346 HD
ATOM     13  H   UNL A   1      33.470  27.413  21.568  1.00  0.00     0.346 HD
ENDBRANCH   9  10
BRANCH   9  14
ATOM     14  C   UNL A   1      30.687  27.998  22.914  1.00  0.00     0.010 A 
ATOM     15  C   UNL A   1      29.553  27.360  23.430  1.00  0.00     0.010 A 
ATOM     16  C   UNL A   1      30.494  29.249  22.304  1.00  0.00     0.014 A 
ATOM     17  C   UNL A   1      28.290  27.936  23.372  1.00  0.00     0.001 A 
ATOM     18  C   UNL A   1      29.227  29.866  22.219  1.00  0.00    -0.044 A 
ATOM     19  C   UNL A   1      28.136  29.179  22.774  1.00  0.00     0.004 A 
BRANCH  18  20
ATOM     20  C   UNL A   1      28.978  31.190  21.531  1.00  0.00     0.019 C 
ATOM     21  C   UNL A   1      27.719  32.002  21.675  1.00  0.00     0.009 C 
ATOM     22  C   UNL A   1      28.965  32.430  22.395  1.00  0.00     0.009 C 
ENDBRANCH  18  20
ENDBRANCH   9  14
ENDBRANCH   8   9
ENDBRANCH   5   8
ENDBRANCH   3   4
ENDBRANCH   2   3
ENDBRANCH   1   2
BRANCH   1  23
ATOM     23  C   UNL A   1      31.042  30.815  25.489  1.00  0.00     0.002 C 
BRANCH  23  24
ATOM     24  C   UNL A   1      31.021  32.119  26.284  1.00  0.00     0.021 C 
BRANCH  24  25
ATOM     25  C   UNL A   1      32.354  32.475  26.930  1.00  0.00     0.116 C 
BRANCH  25  26
ATOM     26  N   UNL A   1      32.401  33.866  27.351  1.00  0.00    -0.352 N 
ATOM     27  C   UNL A   1      33.268  34.434  28.257  1.00  0.00     0.251 C 
ATOM     28  H   UNL A   1      31.741  34.470  26.941  1.00  0.00     0.163 HD
ATOM     29  O   UNL A   1      33.103  35.568  28.678  1.00  0.00    -0.269 OA
BRANCH  27  30
ATOM     30  C   UNL A   1      34.405  33.617  28.725  1.00  0.00     0.039 A 
ATOM     31  C   UNL A   1      35.688  34.166  28.736  1.00  0.00     0.014 A 
ATOM     32  C   UNL A   1      34.168  32.333  29.222  1.00  0.00     0.014 A 
ATOM     33  C   UNL A   1      36.739  33.437  29.297  1.00  0.00     0.010 A 
ATOM     34  C   UNL A   1      35.199  31.640  29.839  1.00  0.00     0.010 A 
ATOM     35  C   UNL A   1      36.496  32.181  29.874  1.00  0.00    -0.014 A 
BRANCH  35  36
ATOM     36  C   UNL A   1      37.579  31.373  30.486  1.00  0.00     0.031 A 
ATOM     37  C   UNL A   1      37.946  31.615  31.922  1.00  0.00     0.074 A 
ATOM     38  C   UNL A   1      38.296  30.517  29.736  1.00  0.00     0.049 A 
ATOM     39  N   UNL A   1      38.965  31.163  32.605  1.00  0.00    -0.248 NA
ATOM     40  C   UNL A   1      37.067  32.522  32.676  1.00  0.00     0.031 C 
ATOM     41  C   UNL A   1      38.058  30.220  28.323  1.00  0.00     0.029 A 
ATOM     42  N   UNL A   1      39.396  29.759  30.057  1.00  0.00    -0.354 N 
ATOM     43  C   UNL A   1      38.869  31.760  33.856  1.00  0.00     0.074 A 
ATOM     44  C   UNL A   1      37.722  32.640  33.820  1.00  0.00     0.031 C 
ATOM     45  C   UNL A   1      38.984  29.345  27.897  1.00  0.00     0.029 A 
ATOM     46  C   UNL A   1      39.904  29.053  28.994  1.00  0.00     0.049 A 
ATOM     47  H   UNL A   1      39.783  29.726  30.961  1.00  0.00     0.167 HD
ATOM     48  C   UNL A   1      39.657  31.577  34.942  1.00  0.00     0.037 A 
ATOM     49  C   UNL A   1      41.001  28.276  28.908  1.00  0.00     0.037 A 
ATOM     50  C   UNL A   1      40.778  30.676  34.978  1.00  0.00     0.049 A 
ATOM     51  C   UNL A   1      41.861  28.080  30.126  1.00  0.00     0.074 A 
ATOM     52  C   UNL A   1      41.601  30.366  36.046  1.00  0.00     0.029 A 
ATOM     53  N   UNL A   1      41.231  29.940  33.894  1.00  0.00    -0.354 N 
ATOM     54  N   UNL A   1      41.732  28.605  31.320  1.00  0.00    -0.248 NA
ATOM     55  C   UNL A   1      43.015  27.180  29.988  1.00  0.00     0.031 C 
ATOM     56  C   UNL A   1      42.581  29.477  35.595  1.00  0.00     0.029 A 
ATOM     57  C   UNL A   1      42.336  29.190  34.261  1.00  0.00     0.049 A 
ATOM     58  H   UNL A   1      40.827  29.948  32.996  1.00  0.00     0.167 HD
ATOM     59  C   UNL A   1      42.764  28.076  32.085  1.00  0.00     0.074 A 
ATOM     60  C   UNL A   1      43.513  27.189  31.218  1.00  0.00     0.031 C 
ATOM     61  C   UNL A   1      43.058  28.299  33.389  1.00  0.00     0.037 A 
BRANCH  48  62
ATOM     62  C   UNL A   1      39.334  32.382  36.167  1.00  0.00     0.057 A 
ATOM     63  C   UNL A   1      39.939  33.620  36.425  1.00  0.00     0.134 A 
ATOM     64  C   UNL A   1      38.409  31.908  37.107  1.00  0.00     0.134 A 
ATOM     65  F   UNL A   1      40.843  34.125  35.573  1.00  0.00    -0.206 F 
ATOM     66  C   UNL A   1      39.671  34.334  37.594  1.00  0.00     0.040 A 
ATOM     67  C   UNL A   1      38.109  32.629  38.263  1.00  0.00     0.040 A 
ATOM     68  F   UNL A   1      37.787  30.734  36.920  1.00  0.00    -0.206 F 
ATOM     69  C   UNL A   1      38.751  33.840  38.516  1.00  0.00     0.006 A 
ENDBRANCH  48  62
BRANCH  49  70
ATOM     70  C   UNL A   1      41.330  27.614  27.622  1.00  0.00     0.057 A 
ATOM     71  C   UNL A   1      42.126  28.255  26.665  1.00  0.00     0.134 A 
ATOM     72  C   UNL A   1      40.891  26.317  27.332  1.00  0.00     0.134 A 
ATOM     73  F   UNL A   1      42.563  29.504  26.879  1.00  0.00    -0.206 F 
ATOM     74  C   UNL A   1      42.466  27.633  25.462  1.00  0.00     0.040 A 
ATOM     75  C   UNL A   1      41.241  25.675  26.143  1.00  0.00     0.040 A 
ATOM     76  F   UNL A   1      40.134  25.645  28.212  1.00  0.00    -0.206 F 
ATOM     77  C   UNL A   1      42.030  26.336  25.202  1.00  0.00     0.006 A 
ENDBRANCH  49  70
BRANCH  61  78
ATOM     78  C   UNL A   1      44.206  27.538  33.984  1.00  0.00     0.057 A 
ATOM     79  C   UNL A   1      45.497  28.077  34.054  1.00  0.00     0.134 A 
ATOM     80  C   UNL A   1      43.993  26.284  34.571  1.00  0.00     0.134 A 
ATOM     81  F   UNL A   1      45.767  29.268  33.500  1.00  0.00    -0.206 F 
ATOM     82  C   UNL A   1      46.537  27.391  34.682  1.00  0.00     0.040 A 
ATOM     83  C   UNL A   1      45.019  25.599  35.223  1.00  0.00     0.040 A 
ATOM     84  F   UNL A   1      42.777  25.718  34.544  1.00  0.00    -0.206 F 
ATOM     85  C   UNL A   1      46.297  26.153  35.279  1.00  0.00     0.006 A 
ENDBRANCH  61  78
ENDBRANCH  35  36
ENDBRANCH  27  30
ENDBRANCH  25  26
ENDBRANCH  24  25
ENDBRANCH  23  24
ENDBRANCH   1  23
TORSDOF 17
ENDMDL
