MODEL 1
REMARK VINA RESULT:     -12.6      0.000      0.000
REMARK SMILES COc1ccc(N2C(=O)/C(=C/c3c(C(=O)NCCCCCCNC(=O)c4ccc(-c5c6nc(c(-c7c(F)cccc7F)c7ccc([nH]7)c(-c7c(F)cccc7F)c7nc(c(-c8c(F)cccc8F)c8ccc5[nH]8)C=C7)C=C6)cc4)[nH]c4cc(OC)ccc34)SC2=S)cc1
REMARK SMILES IDX 19 1 18 2 17 3 16 4 14 5 15 6 13 8 12 9 88 10 80 11 81 12
REMARK SMILES IDX 87 13 82 15 86 16 83 17 11 18 7 19 8 20 90 21 9 22 10 23
REMARK SMILES IDX 89 24 91 25 6 26 3 27 4 28 93 29 5 30 92 31 2 32 1 33 84 34
REMARK SMILES IDX 85 35 20 36 21 37 22 38 23 39 24 40 25 42 26 43 27 44 79 45
REMARK SMILES IDX 28 46 78 47 29 48 30 49 31 50 72 51 32 52 77 53 71 54 73 55
REMARK SMILES IDX 33 56 76 57 70 58 69 59 34 61 60 62 43 63 59 64 44 65 47 66
REMARK SMILES IDX 58 67 74 68 45 69 46 70 57 72 75 73 48 74 35 75 36 76 41 77
REMARK SMILES IDX 37 78 38 79 40 80 42 81 39 82 61 83 62 84 67 85 63 86 64 87
REMARK SMILES IDX 66 88 68 89 65 90 49 91 50 92 55 93 51 94 52 95 54 96 56 97
REMARK SMILES IDX 53 98
REMARK H PARENT 16 7 80 14 23 41 73 60 47 71
REMARK Flexibility Score: inf
ROOT
ATOM      1  C   UNL A   1      33.640  30.246  26.823  1.00  0.00     0.002 C 
ENDROOT
BRANCH   1   2
ATOM      2  C   UNL A   1      34.013  28.773  27.055  1.00  0.00     0.021 C 
BRANCH   2   3
ATOM      3  C   UNL A   1      33.732  27.850  25.873  1.00  0.00     0.116 C 
BRANCH   3   4
ATOM      4  N   UNL A   1      34.284  28.351  24.631  1.00  0.00    -0.351 N 
ATOM      5  C   UNL A   1      33.590  28.560  23.464  1.00  0.00     0.268 C 
ATOM      6  O   UNL A   1      34.214  28.613  22.409  1.00  0.00    -0.268 OA
ATOM      7  H   UNL A   1      35.246  28.561  24.622  1.00  0.00     0.163 HD
BRANCH   5   8
ATOM      8  C   UNL A   1      32.148  28.590  23.521  1.00  0.00     0.112 A 
ATOM      9  C   UNL A   1      31.138  27.702  23.143  1.00  0.00     0.014 A 
ATOM     10  C   UNL A   1      29.930  28.496  23.059  1.00  0.00     0.008 A 
ATOM     11  N   UNL A   1      31.524  29.678  24.072  1.00  0.00    -0.350 N 
ATOM     12  C   UNL A   1      30.236  29.739  23.621  1.00  0.00     0.050 A 
ATOM     13  C   UNL A   1      28.619  28.346  22.544  1.00  0.00     0.015 A 
ATOM     14  H   UNL A   1      31.939  30.316  24.696  1.00  0.00     0.167 HD
ATOM     15  C   UNL A   1      29.357  30.822  23.665  1.00  0.00     0.073 A 
ATOM     16  C   UNL A   1      27.720  29.446  22.556  1.00  0.00     0.047 A 
ATOM     17  C   UNL A   1      28.093  30.671  23.104  1.00  0.00     0.120 A 
BRANCH   9  18
ATOM     18  C   UNL A   1      31.399  26.340  22.713  1.00  0.00     0.032 C 
ATOM     19  N   UNL A   1      32.478  23.381  24.433  1.00  0.00    -0.261 N 
ATOM     20  C   UNL A   1      32.115  23.971  23.213  1.00  0.00     0.270 C 
ATOM     21  C   UNL A   1      31.870  23.899  25.570  1.00  0.00     0.152 C 
ATOM     22  O   UNL A   1      32.443  23.628  22.085  1.00  0.00    -0.268 OA
ATOM     23  C   UNL A   1      31.354  25.237  23.498  1.00  0.00     0.081 C 
ATOM     24  S   UNL A   1      30.710  25.131  25.094  1.00  0.00    -0.054 SA
ATOM     25  S   UNL A   1      32.054  23.469  27.176  1.00  0.00    -0.051 S 
BRANCH  19  26
ATOM     26  C   UNL A   1      33.459  22.345  24.502  1.00  0.00     0.051 A 
ATOM     27  C   UNL A   1      35.419  20.335  24.815  1.00  0.00     0.119 A 
ATOM     28  C   UNL A   1      35.793  21.671  24.696  1.00  0.00     0.048 A 
ATOM     29  C   UNL A   1      34.064  20.002  24.778  1.00  0.00     0.048 A 
ATOM     30  C   UNL A   1      34.824  22.669  24.550  1.00  0.00     0.030 A 
ATOM     31  C   UNL A   1      33.088  20.999  24.597  1.00  0.00     0.030 A 
BRANCH  27  32
ATOM     32  O   UNL A   1      36.458  19.469  25.003  1.00  0.00    -0.497 OA
ATOM     33  C   UNL A   1      37.766  20.023  24.998  1.00  0.00     0.278 C 
ENDBRANCH  27  32
ENDBRANCH  19  26
ENDBRANCH   9  18
BRANCH  17  34
ATOM     34  O   UNL A   1      27.366  31.829  23.109  1.00  0.00    -0.497 OA
ATOM     35  C   UNL A   1      28.023  33.014  22.693  1.00  0.00     0.278 C 
ENDBRANCH  17  34
ENDBRANCH   5   8
ENDBRANCH   3   4
ENDBRANCH   2   3
ENDBRANCH   1   2
BRANCH   1  36
ATOM     36  C   UNL A   1      32.157  30.488  27.109  1.00  0.00     0.002 C 
BRANCH  36  37
ATOM     37  C   UNL A   1      31.634  31.918  27.069  1.00  0.00     0.021 C 
BRANCH  37  38
ATOM     38  C   UNL A   1      32.646  32.972  26.668  1.00  0.00     0.116 C 
BRANCH  38  39
ATOM     39  N   UNL A   1      32.509  34.186  27.465  1.00  0.00    -0.352 N 
ATOM     40  C   UNL A   1      33.176  34.533  28.619  1.00  0.00     0.251 C 
ATOM     41  H   UNL A   1      31.854  34.844  27.135  1.00  0.00     0.163 HD
ATOM     42  O   UNL A   1      32.826  35.494  29.295  1.00  0.00    -0.269 OA
BRANCH  40  43
ATOM     43  C   UNL A   1      34.329  33.711  29.041  1.00  0.00     0.039 A 
ATOM     44  C   UNL A   1      35.631  34.194  28.893  1.00  0.00     0.014 A 
ATOM     45  C   UNL A   1      34.098  32.477  29.649  1.00  0.00     0.014 A 
ATOM     46  C   UNL A   1      36.699  33.464  29.421  1.00  0.00     0.010 A 
ATOM     47  C   UNL A   1      35.138  31.827  30.287  1.00  0.00     0.010 A 
ATOM     48  C   UNL A   1      36.456  32.291  30.152  1.00  0.00    -0.014 A 
BRANCH  48  49
ATOM     49  C   UNL A   1      37.538  31.451  30.725  1.00  0.00     0.031 A 
ATOM     50  C   UNL A   1      37.913  31.660  32.170  1.00  0.00     0.074 A 
ATOM     51  C   UNL A   1      38.259  30.623  29.947  1.00  0.00     0.049 A 
ATOM     52  N   UNL A   1      38.976  31.266  32.822  1.00  0.00    -0.248 NA
ATOM     53  C   UNL A   1      36.996  32.493  32.968  1.00  0.00     0.031 C 
ATOM     54  C   UNL A   1      38.029  30.371  28.523  1.00  0.00     0.029 A 
ATOM     55  N   UNL A   1      39.354  29.854  30.247  1.00  0.00    -0.354 N 
ATOM     56  C   UNL A   1      38.886  31.862  34.074  1.00  0.00     0.074 A 
ATOM     57  C   UNL A   1      37.701  32.689  34.071  1.00  0.00     0.031 C 
ATOM     58  C   UNL A   1      38.944  29.492  28.079  1.00  0.00     0.029 A 
ATOM     59  C   UNL A   1      39.850  29.156  29.173  1.00  0.00     0.049 A 
ATOM     60  H   UNL A   1      39.749  29.807  31.149  1.00  0.00     0.167 HD
ATOM     61  C   UNL A   1      39.703  31.712  35.142  1.00  0.00     0.037 A 
ATOM     62  C   UNL A   1      40.924  28.348  29.085  1.00  0.00     0.037 A 
ATOM     63  C   UNL A   1      40.824  30.813  35.162  1.00  0.00     0.049 A 
ATOM     64  C   UNL A   1      41.772  28.128  30.308  1.00  0.00     0.074 A 
ATOM     65  C   UNL A   1      41.667  30.506  36.214  1.00  0.00     0.029 A 
ATOM     66  N   UNL A   1      41.239  30.055  34.077  1.00  0.00    -0.354 N 
ATOM     67  N   UNL A   1      41.660  28.668  31.498  1.00  0.00    -0.248 NA
ATOM     68  C   UNL A   1      42.890  27.184  30.179  1.00  0.00     0.031 C 
ATOM     69  C   UNL A   1      42.606  29.574  35.759  1.00  0.00     0.029 A 
ATOM     70  C   UNL A   1      42.324  29.276  34.434  1.00  0.00     0.049 A 
ATOM     71  H   UNL A   1      40.821  30.068  33.185  1.00  0.00     0.167 HD
ATOM     72  C   UNL A   1      42.674  28.111  32.267  1.00  0.00     0.074 A 
ATOM     73  C   UNL A   1      43.383  27.181  31.410  1.00  0.00     0.031 C 
ATOM     74  C   UNL A   1      42.996  28.347  33.562  1.00  0.00     0.037 A 
BRANCH  61  75
ATOM     75  C   UNL A   1      39.395  32.520  36.371  1.00  0.00     0.057 A 
ATOM     76  C   UNL A   1      40.044  33.732  36.645  1.00  0.00     0.134 A 
ATOM     77  C   UNL A   1      38.437  32.081  37.293  1.00  0.00     0.134 A 
ATOM     78  F   UNL A   1      40.985  34.203  35.812  1.00  0.00    -0.206 F 
ATOM     79  C   UNL A   1      39.783  34.455  37.811  1.00  0.00     0.040 A 
ATOM     80  C   UNL A   1      38.142  32.813  38.445  1.00  0.00     0.040 A 
ATOM     81  F   UNL A   1      37.773  30.933  37.093  1.00  0.00    -0.206 F 
ATOM     82  C   UNL A   1      38.825  33.999  38.712  1.00  0.00     0.006 A 
ENDBRANCH  61  75
BRANCH  62  83
ATOM     83  C   UNL A   1      41.234  27.658  27.807  1.00  0.00     0.057 A 
ATOM     84  C   UNL A   1      40.694  26.398  27.525  1.00  0.00     0.134 A 
ATOM     85  C   UNL A   1      42.064  28.233  26.838  1.00  0.00     0.134 A 
ATOM     86  F   UNL A   1      39.905  25.786  28.422  1.00  0.00    -0.206 F 
ATOM     87  C   UNL A   1      40.980  25.726  26.335  1.00  0.00     0.040 A 
ATOM     88  C   UNL A   1      42.340  27.583  25.633  1.00  0.00     0.040 A 
ATOM     89  F   UNL A   1      42.607  29.443  27.042  1.00  0.00    -0.206 F 
ATOM     90  C   UNL A   1      41.802  26.322  25.381  1.00  0.00     0.006 A 
ENDBRANCH  62  83
BRANCH  74  91
ATOM     91  C   UNL A   1      44.132  27.559  34.139  1.00  0.00     0.057 A 
ATOM     92  C   UNL A   1      43.938  26.294  34.708  1.00  0.00     0.134 A 
ATOM     93  C   UNL A   1      45.441  28.052  34.077  1.00  0.00     0.134 A 
ATOM     94  F   UNL A   1      42.704  25.775  34.806  1.00  0.00    -0.206 F 
ATOM     95  C   UNL A   1      45.006  25.554  35.213  1.00  0.00     0.040 A 
ATOM     96  C   UNL A   1      46.521  27.311  34.557  1.00  0.00     0.040 A 
ATOM     97  F   UNL A   1      45.692  29.253  33.534  1.00  0.00    -0.206 F 
ATOM     98  C   UNL A   1      46.303  26.060  35.132  1.00  0.00     0.006 A 
ENDBRANCH  74  91
ENDBRANCH  48  49
ENDBRANCH  40  43
ENDBRANCH  38  39
ENDBRANCH  37  38
ENDBRANCH  36  37
ENDBRANCH   1  36
TORSDOF 17
ENDMDL
MODEL 2
REMARK VINA RESULT:     -12.5      1.848      2.601
REMARK SMILES COc1ccc(N2C(=O)/C(=C/c3c(C(=O)NCCCCCCNC(=O)c4ccc(-c5c6nc(c(-c7c(F)cccc7F)c7ccc([nH]7)c(-c7c(F)cccc7F)c7nc(c(-c8c(F)cccc8F)c8ccc5[nH]8)C=C7)C=C6)cc4)[nH]c4cc(OC)ccc34)SC2=S)cc1
REMARK SMILES IDX 19 1 18 2 17 3 16 4 14 5 15 6 13 8 12 9 88 10 80 11 81 12
REMARK SMILES IDX 87 13 82 15 86 16 83 17 11 18 7 19 8 20 90 21 9 22 10 23
REMARK SMILES IDX 89 24 91 25 6 26 3 27 4 28 93 29 5 30 92 31 2 32 1 33 84 34
REMARK SMILES IDX 85 35 20 36 21 37 22 38 23 39 24 40 25 42 26 43 27 44 79 45
REMARK SMILES IDX 28 46 78 47 29 48 30 49 31 50 72 51 32 52 77 53 71 54 73 55
REMARK SMILES IDX 33 56 76 57 70 58 69 59 34 61 60 62 43 63 59 64 44 65 47 66
REMARK SMILES IDX 58 67 74 68 45 69 46 70 57 72 75 73 48 74 35 75 36 76 41 77
REMARK SMILES IDX 37 78 38 79 40 80 42 81 39 82 61 83 62 84 67 85 63 86 64 87
REMARK SMILES IDX 66 88 68 89 65 90 49 91 50 92 55 93 51 94 52 95 54 96 56 97
REMARK SMILES IDX 53 98
REMARK H PARENT 16 7 80 14 23 41 73 60 47 71
REMARK Flexibility Score: inf
ROOT
ATOM      1  C   UNL A   1      33.743  30.469  26.962  1.00  0.00     0.002 C 
ENDROOT
BRANCH   1   2
ATOM      2  C   UNL A   1      34.122  28.995  27.179  1.00  0.00     0.021 C 
BRANCH   2   3
ATOM      3  C   UNL A   1      33.787  28.072  26.012  1.00  0.00     0.116 C 
BRANCH   3   4
ATOM      4  N   UNL A   1      34.358  28.526  24.760  1.00  0.00    -0.351 N 
ATOM      5  C   UNL A   1      33.684  28.679  23.572  1.00  0.00     0.268 C 
ATOM      6  O   UNL A   1      34.328  28.695  22.528  1.00  0.00    -0.268 OA
ATOM      7  H   UNL A   1      35.318  28.747  24.761  1.00  0.00     0.163 HD
BRANCH   5   8
ATOM      8  C   UNL A   1      32.242  28.695  23.601  1.00  0.00     0.112 A 
ATOM      9  C   UNL A   1      31.247  27.809  23.177  1.00  0.00     0.014 A 
ATOM     10  C   UNL A   1      30.034  28.595  23.092  1.00  0.00     0.008 A 
ATOM     11  N   UNL A   1      31.596  29.760  24.171  1.00  0.00    -0.350 N 
ATOM     12  C   UNL A   1      30.317  29.824  23.696  1.00  0.00     0.050 A 
ATOM     13  C   UNL A   1      28.735  28.450  22.545  1.00  0.00     0.015 A 
ATOM     14  H   UNL A   1      31.993  30.383  24.822  1.00  0.00     0.167 HD
ATOM     15  C   UNL A   1      29.427  30.897  23.753  1.00  0.00     0.073 A 
ATOM     16  C   UNL A   1      27.825  29.541  22.572  1.00  0.00     0.047 A 
ATOM     17  C   UNL A   1      28.177  30.753  23.163  1.00  0.00     0.120 A 
BRANCH   9  18
ATOM     18  C   UNL A   1      31.529  26.463  22.712  1.00  0.00     0.032 C 
ATOM     19  N   UNL A   1      32.514  23.441  24.379  1.00  0.00    -0.261 N 
ATOM     20  C   UNL A   1      32.216  24.076  23.163  1.00  0.00     0.270 C 
ATOM     21  C   UNL A   1      31.847  23.920  25.500  1.00  0.00     0.152 C 
ATOM     22  O   UNL A   1      32.602  23.772  22.043  1.00  0.00    -0.268 OA
ATOM     23  C   UNL A   1      31.442  25.333  23.453  1.00  0.00     0.081 C 
ATOM     24  S   UNL A   1      30.715  25.171  25.008  1.00  0.00    -0.054 SA
ATOM     25  S   UNL A   1      31.945  23.432  27.097  1.00  0.00    -0.051 S 
BRANCH  19  26
ATOM     26  C   UNL A   1      33.489  22.401  24.461  1.00  0.00     0.051 A 
ATOM     27  C   UNL A   1      35.432  20.380  24.803  1.00  0.00     0.119 A 
ATOM     28  C   UNL A   1      35.814  21.716  24.707  1.00  0.00     0.048 A 
ATOM     29  C   UNL A   1      34.077  20.053  24.730  1.00  0.00     0.048 A 
ATOM     30  C   UNL A   1      34.854  22.719  24.546  1.00  0.00     0.030 A 
ATOM     31  C   UNL A   1      33.110  21.056  24.534  1.00  0.00     0.030 A 
BRANCH  27  32
ATOM     32  O   UNL A   1      36.463  19.508  25.008  1.00  0.00    -0.497 OA
ATOM     33  C   UNL A   1      37.780  20.027  24.880  1.00  0.00     0.278 C 
ENDBRANCH  27  32
ENDBRANCH  19  26
ENDBRANCH   9  18
BRANCH  17  34
ATOM     34  O   UNL A   1      27.439  31.904  23.187  1.00  0.00    -0.497 OA
ATOM     35  C   UNL A   1      28.026  33.067  22.629  1.00  0.00     0.278 C 
ENDBRANCH  17  34
ENDBRANCH   5   8
ENDBRANCH   3   4
ENDBRANCH   2   3
ENDBRANCH   1   2
BRANCH   1  36
ATOM     36  C   UNL A   1      32.269  30.711  27.293  1.00  0.00     0.002 C 
BRANCH  36  37
ATOM     37  C   UNL A   1      31.666  32.072  26.970  1.00  0.00     0.021 C 
BRANCH  37  38
ATOM     38  C   UNL A   1      32.658  33.210  26.843  1.00  0.00     0.116 C 
BRANCH  38  39
ATOM     39  N   UNL A   1      32.427  34.244  27.847  1.00  0.00    -0.352 N 
ATOM     40  C   UNL A   1      33.120  34.475  29.015  1.00  0.00     0.251 C 
ATOM     41  H   UNL A   1      31.677  34.858  27.666  1.00  0.00     0.163 HD
ATOM     42  O   UNL A   1      32.702  35.254  29.863  1.00  0.00    -0.269 OA
BRANCH  40  43
ATOM     43  C   UNL A   1      34.388  33.750  29.236  1.00  0.00     0.039 A 
ATOM     44  C   UNL A   1      35.549  34.139  28.563  1.00  0.00     0.014 A 
ATOM     45  C   UNL A   1      34.427  32.717  30.172  1.00  0.00     0.014 A 
ATOM     46  C   UNL A   1      36.767  33.532  28.885  1.00  0.00     0.010 A 
ATOM     47  C   UNL A   1      35.648  32.216  30.584  1.00  0.00     0.010 A 
ATOM     48  C   UNL A   1      36.829  32.590  29.923  1.00  0.00    -0.014 A 
BRANCH  48  49
ATOM     49  C   UNL A   1      38.079  31.888  30.309  1.00  0.00     0.031 A 
ATOM     50  C   UNL A   1      39.035  32.593  31.238  1.00  0.00     0.074 A 
ATOM     51  C   UNL A   1      38.420  30.715  29.743  1.00  0.00     0.049 A 
ATOM     52  N   UNL A   1      40.287  32.328  31.504  1.00  0.00    -0.248 NA
ATOM     53  C   UNL A   1      38.526  33.809  31.898  1.00  0.00     0.031 C 
ATOM     54  C   UNL A   1      37.606  29.957  28.791  1.00  0.00     0.029 A 
ATOM     55  N   UNL A   1      39.562  29.967  29.872  1.00  0.00    -0.354 N 
ATOM     56  C   UNL A   1      40.728  33.380  32.299  1.00  0.00     0.074 A 
ATOM     57  C   UNL A   1      39.632  34.313  32.421  1.00  0.00     0.031 C 
ATOM     58  C   UNL A   1      38.267  28.842  28.438  1.00  0.00     0.029 A 
ATOM     59  C   UNL A   1      39.568  28.830  29.101  1.00  0.00     0.049 A 
ATOM     60  H   UNL A   1      40.309  30.221  30.462  1.00  0.00     0.167 HD
ATOM     61  C   UNL A   1      41.931  33.540  32.899  1.00  0.00     0.037 A 
ATOM     62  C   UNL A   1      40.524  27.895  28.942  1.00  0.00     0.037 A 
ATOM     63  C   UNL A   1      42.979  32.559  32.846  1.00  0.00     0.049 A 
ATOM     64  C   UNL A   1      41.823  28.049  29.684  1.00  0.00     0.074 A 
ATOM     65  C   UNL A   1      44.203  32.567  33.488  1.00  0.00     0.029 A 
ATOM     66  N   UNL A   1      42.909  31.376  32.125  1.00  0.00    -0.354 N 
ATOM     67  N   UNL A   1      42.220  29.029  30.461  1.00  0.00    -0.248 NA
ATOM     68  C   UNL A   1      42.807  26.969  29.532  1.00  0.00     0.031 C 
ATOM     69  C   UNL A   1      44.883  31.395  33.139  1.00  0.00     0.029 A 
ATOM     70  C   UNL A   1      44.066  30.643  32.308  1.00  0.00     0.049 A 
ATOM     71  H   UNL A   1      42.146  31.099  31.566  1.00  0.00     0.167 HD
ATOM     72  C   UNL A   1      43.484  28.672  30.912  1.00  0.00     0.074 A 
ATOM     73  C   UNL A   1      43.783  27.378  30.330  1.00  0.00     0.031 C 
ATOM     74  C   UNL A   1      44.325  29.350  31.729  1.00  0.00     0.037 A 
BRANCH  61  75
ATOM     75  C   UNL A   1      42.158  34.809  33.672  1.00  0.00     0.057 A 
ATOM     76  C   UNL A   1      41.767  34.942  35.012  1.00  0.00     0.134 A 
ATOM     77  C   UNL A   1      42.774  35.912  33.069  1.00  0.00     0.134 A 
ATOM     78  F   UNL A   1      41.156  33.930  35.646  1.00  0.00    -0.206 F 
ATOM     79  C   UNL A   1      41.943  36.139  35.709  1.00  0.00     0.040 A 
ATOM     80  C   UNL A   1      42.986  37.102  33.766  1.00  0.00     0.040 A 
ATOM     81  F   UNL A   1      43.178  35.854  31.790  1.00  0.00    -0.206 F 
ATOM     82  C   UNL A   1      42.559  37.222  35.088  1.00  0.00     0.006 A 
ENDBRANCH  61  75
BRANCH  62  83
ATOM     83  C   UNL A   1      40.274  26.714  28.077  1.00  0.00     0.057 A 
ATOM     84  C   UNL A   1      40.871  26.612  26.815  1.00  0.00     0.134 A 
ATOM     85  C   UNL A   1      39.446  25.662  28.483  1.00  0.00     0.134 A 
ATOM     86  F   UNL A   1      41.661  27.598  26.362  1.00  0.00    -0.206 F 
ATOM     87  C   UNL A   1      40.641  25.517  25.980  1.00  0.00     0.040 A 
ATOM     88  C   UNL A   1      39.226  24.549  27.669  1.00  0.00     0.040 A 
ATOM     89  F   UNL A   1      38.850  25.693  29.685  1.00  0.00    -0.206 F 
ATOM     90  C   UNL A   1      39.820  24.477  26.410  1.00  0.00     0.006 A 
ENDBRANCH  62  83
BRANCH  74  91
ATOM     91  C   UNL A   1      45.624  28.688  32.075  1.00  0.00     0.057 A 
ATOM     92  C   UNL A   1      46.784  28.902  31.321  1.00  0.00     0.134 A 
ATOM     93  C   UNL A   1      45.724  27.867  33.206  1.00  0.00     0.134 A 
ATOM     94  F   UNL A   1      46.748  29.668  30.220  1.00  0.00    -0.206 F 
ATOM     95  C   UNL A   1      47.997  28.307  31.670  1.00  0.00     0.040 A 
ATOM     96  C   UNL A   1      46.936  27.287  33.578  1.00  0.00     0.040 A 
ATOM     97  F   UNL A   1      44.649  27.633  33.974  1.00  0.00    -0.206 F 
ATOM     98  C   UNL A   1      48.076  27.502  32.805  1.00  0.00     0.006 A 
ENDBRANCH  74  91
ENDBRANCH  48  49
ENDBRANCH  40  43
ENDBRANCH  38  39
ENDBRANCH  37  38
ENDBRANCH  36  37
ENDBRANCH   1  36
TORSDOF 17
ENDMDL
MODEL 3
REMARK VINA RESULT:     -12.5      1.193      5.866
REMARK SMILES COc1ccc(N2C(=O)/C(=C/c3c(C(=O)NCCCCCCNC(=O)c4ccc(-c5c6nc(c(-c7c(F)cccc7F)c7ccc([nH]7)c(-c7c(F)cccc7F)c7nc(c(-c8c(F)cccc8F)c8ccc5[nH]8)C=C7)C=C6)cc4)[nH]c4cc(OC)ccc34)SC2=S)cc1
REMARK SMILES IDX 19 1 18 2 17 3 16 4 14 5 15 6 13 8 12 9 88 10 80 11 81 12
REMARK SMILES IDX 87 13 82 15 86 16 83 17 11 18 7 19 8 20 90 21 9 22 10 23
REMARK SMILES IDX 89 24 91 25 6 26 3 27 4 28 93 29 5 30 92 31 2 32 1 33 84 34
REMARK SMILES IDX 85 35 20 36 21 37 22 38 23 39 24 40 25 42 26 43 27 44 79 45
REMARK SMILES IDX 28 46 78 47 29 48 30 49 31 50 72 51 32 52 77 53 71 54 73 55
REMARK SMILES IDX 33 56 76 57 70 58 69 59 34 61 60 62 43 63 59 64 44 65 47 66
REMARK SMILES IDX 58 67 74 68 45 69 46 70 57 72 75 73 48 74 35 75 36 76 41 77
REMARK SMILES IDX 37 78 38 79 40 80 42 81 39 82 61 83 62 84 67 85 63 86 64 87
REMARK SMILES IDX 66 88 68 89 65 90 49 91 50 92 55 93 51 94 52 95 54 96 56 97
REMARK SMILES IDX 53 98
REMARK H PARENT 16 7 80 14 23 41 73 60 47 71
REMARK Flexibility Score: inf
ROOT
ATOM      1  C   UNL A   1      33.659  29.481  26.466  1.00  0.00     0.002 C 
ENDROOT
BRANCH   1   2
ATOM      2  C   UNL A   1      34.059  28.010  26.663  1.00  0.00     0.021 C 
BRANCH   2   3
ATOM      3  C   UNL A   1      33.550  27.060  25.584  1.00  0.00     0.116 C 
BRANCH   3   4
ATOM      4  N   UNL A   1      34.006  27.427  24.258  1.00  0.00    -0.351 N 
ATOM      5  C   UNL A   1      33.206  27.733  23.184  1.00  0.00     0.268 C 
ATOM      6  O   UNL A   1      33.679  27.650  22.055  1.00  0.00    -0.268 OA
ATOM      7  H   UNL A   1      34.979  27.460  24.114  1.00  0.00     0.163 HD
BRANCH   5   8
ATOM      8  C   UNL A   1      31.813  28.023  23.428  1.00  0.00     0.112 A 
ATOM      9  C   UNL A   1      30.631  27.285  23.327  1.00  0.00     0.014 A 
ATOM     10  C   UNL A   1      29.563  28.263  23.287  1.00  0.00     0.008 A 
ATOM     11  N   UNL A   1      31.460  29.263  23.888  1.00  0.00    -0.350 N 
ATOM     12  C   UNL A   1      30.143  29.493  23.610  1.00  0.00     0.050 A 
ATOM     13  C   UNL A   1      28.179  28.283  22.980  1.00  0.00     0.015 A 
ATOM     14  H   UNL A   1      32.062  29.892  24.349  1.00  0.00     0.167 HD
ATOM     15  C   UNL A   1      29.460  30.710  23.607  1.00  0.00     0.073 A 
ATOM     16  C   UNL A   1      27.476  29.516  22.947  1.00  0.00     0.047 A 
ATOM     17  C   UNL A   1      28.116  30.715  23.250  1.00  0.00     0.120 A 
BRANCH   9  18
ATOM     18  C   UNL A   1      30.606  25.856  23.076  1.00  0.00     0.032 C 
ATOM     19  N   UNL A   1      31.807  23.014  24.908  1.00  0.00    -0.261 N 
ATOM     20  C   UNL A   1      31.174  23.490  23.751  1.00  0.00     0.270 C 
ATOM     21  C   UNL A   1      31.615  23.761  26.064  1.00  0.00     0.152 C 
ATOM     22  O   UNL A   1      31.121  22.959  22.650  1.00  0.00    -0.268 OA
ATOM     23  C   UNL A   1      30.670  24.883  24.016  1.00  0.00     0.081 C 
ATOM     24  S   UNL A   1      30.508  25.082  25.720  1.00  0.00    -0.054 SA
ATOM     25  S   UNL A   1      32.208  23.519  27.609  1.00  0.00    -0.051 S 
BRANCH  19  26
ATOM     26  C   UNL A   1      32.647  21.859  24.881  1.00  0.00     0.051 A 
ATOM     27  C   UNL A   1      34.255  19.548  24.653  1.00  0.00     0.119 A 
ATOM     28  C   UNL A   1      32.883  19.434  24.866  1.00  0.00     0.048 A 
ATOM     29  C   UNL A   1      34.824  20.818  24.553  1.00  0.00     0.048 A 
ATOM     30  C   UNL A   1      32.083  20.576  24.971  1.00  0.00     0.030 A 
ATOM     31  C   UNL A   1      34.029  21.970  24.691  1.00  0.00     0.030 A 
BRANCH  27  32
ATOM     32  O   UNL A   1      34.910  18.357  24.519  1.00  0.00    -0.497 OA
ATOM     33  C   UNL A   1      34.261  17.348  23.757  1.00  0.00     0.278 C 
ENDBRANCH  27  32
ENDBRANCH  19  26
ENDBRANCH   9  18
BRANCH  17  34
ATOM     34  O   UNL A   1      27.588  31.975  23.178  1.00  0.00    -0.497 OA
ATOM     35  C   UNL A   1      28.447  33.019  22.753  1.00  0.00     0.278 C 
ENDBRANCH  17  34
ENDBRANCH   5   8
ENDBRANCH   3   4
ENDBRANCH   2   3
ENDBRANCH   1   2
BRANCH   1  36
ATOM     36  C   UNL A   1      32.308  29.775  27.120  1.00  0.00     0.002 C 
BRANCH  36  37
ATOM     37  C   UNL A   1      31.755  31.192  27.041  1.00  0.00     0.021 C 
BRANCH  37  38
ATOM     38  C   UNL A   1      32.769  32.269  26.715  1.00  0.00     0.116 C 
BRANCH  38  39
ATOM     39  N   UNL A   1      32.390  33.559  27.281  1.00  0.00    -0.352 N 
ATOM     40  C   UNL A   1      32.969  34.237  28.332  1.00  0.00     0.251 C 
ATOM     41  H   UNL A   1      31.620  34.004  26.858  1.00  0.00     0.163 HD
ATOM     42  O   UNL A   1      32.433  35.219  28.832  1.00  0.00    -0.269 OA
BRANCH  40  43
ATOM     43  C   UNL A   1      34.259  33.748  28.860  1.00  0.00     0.039 A 
ATOM     44  C   UNL A   1      35.457  34.344  28.458  1.00  0.00     0.014 A 
ATOM     45  C   UNL A   1      34.262  32.730  29.813  1.00  0.00     0.014 A 
ATOM     46  C   UNL A   1      36.655  33.962  29.069  1.00  0.00     0.010 A 
ATOM     47  C   UNL A   1      35.424  32.452  30.509  1.00  0.00     0.010 A 
ATOM     48  C   UNL A   1      36.641  33.037  30.124  1.00  0.00    -0.014 A 
BRANCH  48  49
ATOM     49  C   UNL A   1      37.872  32.565  30.807  1.00  0.00     0.031 A 
ATOM     50  C   UNL A   1      38.615  31.398  30.210  1.00  0.00     0.074 A 
ATOM     51  C   UNL A   1      38.243  33.072  31.997  1.00  0.00     0.049 A 
ATOM     52  N   UNL A   1      39.534  30.634  30.741  1.00  0.00    -0.248 NA
ATOM     53  C   UNL A   1      38.209  30.990  28.853  1.00  0.00     0.031 C 
ATOM     54  C   UNL A   1      37.578  34.168  32.705  1.00  0.00     0.029 A 
ATOM     55  N   UNL A   1      39.265  32.708  32.837  1.00  0.00    -0.354 N 
ATOM     56  C   UNL A   1      39.758  29.623  29.814  1.00  0.00     0.074 A 
ATOM     57  C   UNL A   1      38.840  29.835  28.719  1.00  0.00     0.031 C 
ATOM     58  C   UNL A   1      38.222  34.400  33.861  1.00  0.00     0.029 A 
ATOM     59  C   UNL A   1      39.313  33.440  33.998  1.00  0.00     0.049 A 
ATOM     60  H   UNL A   1      39.904  31.989  32.626  1.00  0.00     0.167 HD
ATOM     61  C   UNL A   1      40.669  28.623  29.858  1.00  0.00     0.037 A 
ATOM     62  C   UNL A   1      40.140  33.335  35.056  1.00  0.00     0.037 A 
ATOM     63  C   UNL A   1      41.640  28.480  30.908  1.00  0.00     0.049 A 
ATOM     64  C   UNL A   1      41.201  32.268  35.047  1.00  0.00     0.074 A 
ATOM     65  C   UNL A   1      42.670  27.564  31.014  1.00  0.00     0.029 A 
ATOM     66  N   UNL A   1      41.712  29.300  32.024  1.00  0.00    -0.354 N 
ATOM     67  N   UNL A   1      41.428  31.337  34.151  1.00  0.00    -0.248 NA
ATOM     68  C   UNL A   1      42.121  32.238  36.191  1.00  0.00     0.031 C 
ATOM     69  C   UNL A   1      43.355  27.820  32.207  1.00  0.00     0.029 A 
ATOM     70  C   UNL A   1      42.771  28.916  32.824  1.00  0.00     0.049 A 
ATOM     71  H   UNL A   1      41.098  30.047  32.218  1.00  0.00     0.167 HD
ATOM     72  C   UNL A   1      42.533  30.629  34.608  1.00  0.00     0.074 A 
ATOM     73  C   UNL A   1      42.936  31.247  35.856  1.00  0.00     0.031 C 
ATOM     74  C   UNL A   1      43.157  29.563  34.052  1.00  0.00     0.037 A 
BRANCH  61  75
ATOM     75  C   UNL A   1      40.663  27.629  28.730  1.00  0.00     0.057 A 
ATOM     76  C   UNL A   1      41.491  27.774  27.608  1.00  0.00     0.134 A 
ATOM     77  C   UNL A   1      39.819  26.513  28.766  1.00  0.00     0.134 A 
ATOM     78  F   UNL A   1      42.313  28.829  27.501  1.00  0.00    -0.206 F 
ATOM     79  C   UNL A   1      41.448  26.869  26.546  1.00  0.00     0.040 A 
ATOM     80  C   UNL A   1      39.792  25.583  27.726  1.00  0.00     0.040 A 
ATOM     81  F   UNL A   1      39.003  26.308  29.812  1.00  0.00    -0.206 F 
ATOM     82  C   UNL A   1      40.601  25.766  26.606  1.00  0.00     0.006 A 
ENDBRANCH  61  75
BRANCH  62  83
ATOM     83  C   UNL A   1      40.024  34.287  36.190  1.00  0.00     0.057 A 
ATOM     84  C   UNL A   1      40.698  35.514  36.164  1.00  0.00     0.134 A 
ATOM     85  C   UNL A   1      39.242  34.006  37.314  1.00  0.00     0.134 A 
ATOM     86  F   UNL A   1      41.478  35.833  35.120  1.00  0.00    -0.206 F 
ATOM     87  C   UNL A   1      40.613  36.421  37.223  1.00  0.00     0.040 A 
ATOM     88  C   UNL A   1      39.128  34.913  38.370  1.00  0.00     0.040 A 
ATOM     89  F   UNL A   1      38.564  32.852  37.397  1.00  0.00    -0.206 F 
ATOM     90  C   UNL A   1      39.820  36.122  38.329  1.00  0.00     0.006 A 
ENDBRANCH  62  83
BRANCH  74  91
ATOM     91  C   UNL A   1      44.362  29.028  34.764  1.00  0.00     0.057 A 
ATOM     92  C   UNL A   1      44.263  28.000  35.709  1.00  0.00     0.134 A 
ATOM     93  C   UNL A   1      45.640  29.514  34.460  1.00  0.00     0.134 A 
ATOM     94  F   UNL A   1      43.065  27.502  36.050  1.00  0.00    -0.206 F 
ATOM     95  C   UNL A   1      45.394  27.486  36.343  1.00  0.00     0.040 A 
ATOM     96  C   UNL A   1      46.780  28.992  35.069  1.00  0.00     0.040 A 
ATOM     97  F   UNL A   1      45.800  30.491  33.555  1.00  0.00    -0.206 F 
ATOM     98  C   UNL A   1      46.658  27.978  36.018  1.00  0.00     0.006 A 
ENDBRANCH  74  91
ENDBRANCH  48  49
ENDBRANCH  40  43
ENDBRANCH  38  39
ENDBRANCH  37  38
ENDBRANCH  36  37
ENDBRANCH   1  36
TORSDOF 17
ENDMDL
