MODEL 1
REMARK VINA RESULT:     -11.5      0.000      0.000
REMARK SMILES CCc1ccc(N(C)C(=O)N2CC[C@@H](C(=O)NCCCCCCNC(=O)c3ccc(-c4c5nc(c(-c6c(F)cccc6F)c6ccc([nH]6)c(-c6c(F)cccc6F)c6nc(c(-c7c(F)cccc7F)c7ccc4[nH]7)C=C6)C=C5)cc3)[C@@H]2C)cc1
REMARK SMILES IDX 19 1 18 2 17 3 15 4 16 5 14 7 11 8 12 9 81 10 13 11 82 12
REMARK SMILES IDX 9 13 10 14 7 15 8 16 6 17 3 18 4 19 84 20 5 21 83 22 2 23
REMARK SMILES IDX 1 24 20 25 21 26 22 27 23 28 24 29 25 30 26 32 27 33 28 34
REMARK SMILES IDX 80 35 29 36 79 37 30 38 31 39 32 40 73 41 33 42 78 43 72 44
REMARK SMILES IDX 74 45 34 46 77 47 71 48 70 49 35 51 61 52 44 53 60 54 45 55
REMARK SMILES IDX 48 56 59 57 75 58 46 59 47 60 58 62 76 63 49 64 36 65 37 66
REMARK SMILES IDX 42 67 38 68 39 69 41 70 43 71 40 72 62 73 63 74 68 75 64 76
REMARK SMILES IDX 65 77 67 78 69 79 66 80 50 81 51 82 56 83 52 84 53 85 55 86
REMARK SMILES IDX 57 87 54 88
REMARK H PARENT 17 6 24 31 74 50 48 61
REMARK Flexibility Score: inf
ROOT
ATOM      1  C   UNL A   1      36.256  22.846  23.502  1.00  0.00     0.021 C 
ENDROOT
BRANCH   1   2
ATOM      2  C   UNL A   1      35.011  23.674  23.829  1.00  0.00     0.116 C 
BRANCH   2   3
ATOM      3  N   UNL A   1      34.675  24.581  22.745  1.00  0.00    -0.356 N 
ATOM      4  C   UNL A   1      33.724  25.547  22.625  1.00  0.00     0.225 C 
ATOM      5  O   UNL A   1      33.673  26.142  21.544  1.00  0.00    -0.275 OA
ATOM      6  H   UNL A   1      35.241  24.477  21.946  1.00  0.00     0.163 HD
BRANCH   4   7
ATOM      7  C   UNL A   1      32.733  25.913  23.728  1.00  0.00     0.102 C 
ATOM      8  N   UNL A   1      32.024  24.553  25.573  1.00  0.00    -0.321 N 
ATOM      9  C   UNL A   1      32.547  25.797  26.125  1.00  0.00     0.122 C 
ATOM     10  C   UNL A   1      31.798  24.751  24.126  1.00  0.00     0.096 C 
ATOM     11  C   UNL A   1      33.383  26.410  25.017  1.00  0.00     0.037 C 
ATOM     12  C   UNL A   1      30.332  25.098  23.853  1.00  0.00     0.032 C 
BRANCH   8  13
ATOM     13  C   UNL A   1      31.676  23.554  26.484  1.00  0.00     0.324 C 
ATOM     14  O   UNL A   1      30.646  23.735  27.143  1.00  0.00    -0.248 OA
BRANCH  13  15
ATOM     15  N   UNL A   1      32.518  22.446  26.694  1.00  0.00    -0.297 N 
ATOM     16  C   UNL A   1      33.186  22.244  27.963  1.00  0.00     0.155 C 
BRANCH  15  17
ATOM     17  C   UNL A   1      32.630  21.364  25.714  1.00  0.00     0.045 A 
ATOM     18  C   UNL A   1      32.772  19.185  23.843  1.00  0.00    -0.048 A 
ATOM     19  C   UNL A   1      33.260  19.050  25.138  1.00  0.00     0.006 A 
ATOM     20  C   UNL A   1      32.226  20.416  23.480  1.00  0.00     0.006 A 
ATOM     21  C   UNL A   1      33.204  20.120  26.043  1.00  0.00     0.027 A 
ATOM     22  C   UNL A   1      32.170  21.485  24.394  1.00  0.00     0.027 A 
BRANCH  18  23
ATOM     23  C   UNL A   1      32.804  18.003  22.906  1.00  0.00     0.032 C 
ATOM     24  C   UNL A   1      33.789  16.919  23.317  1.00  0.00     0.009 C 
ENDBRANCH  18  23
ENDBRANCH  15  17
ENDBRANCH  13  15
ENDBRANCH   8  13
ENDBRANCH   4   7
ENDBRANCH   2   3
ENDBRANCH   1   2
BRANCH   1  25
ATOM     25  C   UNL A   1      36.858  22.050  24.659  1.00  0.00     0.002 C 
BRANCH  25  26
ATOM     26  C   UNL A   1      36.585  20.544  24.641  1.00  0.00     0.002 C 
BRANCH  26  27
ATOM     27  C   UNL A   1      37.803  19.628  24.806  1.00  0.00     0.021 C 
BRANCH  27  28
ATOM     28  C   UNL A   1      38.871  20.103  25.789  1.00  0.00     0.116 C 
BRANCH  28  29
ATOM     29  N   UNL A   1      40.050  19.254  25.790  1.00  0.00    -0.352 N 
ATOM     30  C   UNL A   1      41.360  19.558  26.064  1.00  0.00     0.251 C 
ATOM     31  H   UNL A   1      39.882  18.314  25.555  1.00  0.00     0.163 HD
ATOM     32  O   UNL A   1      42.236  18.725  25.849  1.00  0.00    -0.269 OA
BRANCH  30  33
ATOM     33  C   UNL A   1      41.734  20.887  26.599  1.00  0.00     0.039 A 
ATOM     34  C   UNL A   1      42.182  21.864  25.706  1.00  0.00     0.014 A 
ATOM     35  C   UNL A   1      41.691  21.160  27.969  1.00  0.00     0.014 A 
ATOM     36  C   UNL A   1      42.528  23.134  26.177  1.00  0.00     0.010 A 
ATOM     37  C   UNL A   1      41.983  22.444  28.432  1.00  0.00     0.010 A 
ATOM     38  C   UNL A   1      42.403  23.444  27.540  1.00  0.00    -0.014 A 
BRANCH  38  39
ATOM     39  C   UNL A   1      42.707  24.805  28.049  1.00  0.00     0.031 A 
ATOM     40  C   UNL A   1      44.113  25.175  28.436  1.00  0.00     0.074 A 
ATOM     41  C   UNL A   1      41.711  25.698  28.208  1.00  0.00     0.049 A 
ATOM     42  N   UNL A   1      44.560  26.280  28.975  1.00  0.00    -0.248 NA
ATOM     43  C   UNL A   1      45.151  24.159  28.200  1.00  0.00     0.031 C 
ATOM     44  C   UNL A   1      40.302  25.459  27.892  1.00  0.00     0.029 A 
ATOM     45  N   UNL A   1      41.730  26.985  28.685  1.00  0.00    -0.354 N 
ATOM     46  C   UNL A   1      45.926  26.094  29.148  1.00  0.00     0.074 A 
ATOM     47  C   UNL A   1      46.228  24.751  28.700  1.00  0.00     0.031 C 
ATOM     48  C   UNL A   1      39.595  26.567  28.169  1.00  0.00     0.029 A 
ATOM     49  C   UNL A   1      40.492  27.580  28.716  1.00  0.00     0.049 A 
ATOM     50  H   UNL A   1      42.553  27.438  28.979  1.00  0.00     0.167 HD
ATOM     51  C   UNL A   1      46.848  26.969  29.616  1.00  0.00     0.037 A 
ATOM     52  C   UNL A   1      40.120  28.801  29.145  1.00  0.00     0.037 A 
ATOM     53  C   UNL A   1      46.554  28.310  30.047  1.00  0.00     0.049 A 
ATOM     54  C   UNL A   1      41.161  29.738  29.692  1.00  0.00     0.074 A 
ATOM     55  C   UNL A   1      47.426  29.276  30.519  1.00  0.00     0.029 A 
ATOM     56  N   UNL A   1      45.288  28.876  30.056  1.00  0.00    -0.354 N 
ATOM     57  N   UNL A   1      42.453  29.559  29.818  1.00  0.00    -0.248 NA
ATOM     58  C   UNL A   1      40.690  31.052  30.156  1.00  0.00     0.031 C 
ATOM     59  C   UNL A   1      46.685  30.419  30.836  1.00  0.00     0.029 A 
ATOM     60  C   UNL A   1      45.356  30.175  30.530  1.00  0.00     0.049 A 
ATOM     61  H   UNL A   1      44.464  28.422  29.766  1.00  0.00     0.167 HD
ATOM     62  C   UNL A   1      42.952  30.744  30.343  1.00  0.00     0.074 A 
ATOM     63  C   UNL A   1      41.826  31.639  30.503  1.00  0.00     0.031 C 
ATOM     64  C   UNL A   1      44.230  31.061  30.665  1.00  0.00     0.037 A 
BRANCH  51  65
ATOM     65  C   UNL A   1      48.273  26.504  29.674  1.00  0.00     0.057 A 
ATOM     66  C   UNL A   1      49.175  26.779  28.637  1.00  0.00     0.134 A 
ATOM     67  C   UNL A   1      48.763  25.820  30.793  1.00  0.00     0.134 A 
ATOM     68  F   UNL A   1      48.764  27.420  27.532  1.00  0.00    -0.206 F 
ATOM     69  C   UNL A   1      50.508  26.373  28.703  1.00  0.00     0.040 A 
ATOM     70  C   UNL A   1      50.101  25.430  30.882  1.00  0.00     0.040 A 
ATOM     71  F   UNL A   1      47.955  25.532  31.823  1.00  0.00    -0.206 F 
ATOM     72  C   UNL A   1      50.977  25.703  29.831  1.00  0.00     0.006 A 
ENDBRANCH  51  65
BRANCH  52  73
ATOM     73  C   UNL A   1      38.700  29.222  29.068  1.00  0.00     0.057 A 
ATOM     74  C   UNL A   1      37.865  29.145  30.188  1.00  0.00     0.134 A 
ATOM     75  C   UNL A   1      38.134  29.677  27.871  1.00  0.00     0.134 A 
ATOM     76  F   UNL A   1      38.345  28.695  31.358  1.00  0.00    -0.206 F 
ATOM     77  C   UNL A   1      36.512  29.483  30.118  1.00  0.00     0.040 A 
ATOM     78  C   UNL A   1      36.790  30.043  27.792  1.00  0.00     0.040 A 
ATOM     79  F   UNL A   1      38.883  29.777  26.763  1.00  0.00    -0.206 F 
ATOM     80  C   UNL A   1      35.972  29.936  28.916  1.00  0.00     0.006 A 
ENDBRANCH  52  73
BRANCH  64  81
ATOM     81  C   UNL A   1      44.483  32.447  31.176  1.00  0.00     0.057 A 
ATOM     82  C   UNL A   1      44.472  32.743  32.545  1.00  0.00     0.134 A 
ATOM     83  C   UNL A   1      44.772  33.490  30.289  1.00  0.00     0.134 A 
ATOM     84  F   UNL A   1      44.187  31.789  33.444  1.00  0.00    -0.206 F 
ATOM     85  C   UNL A   1      44.722  34.034  33.012  1.00  0.00     0.040 A 
ATOM     86  C   UNL A   1      45.046  34.781  30.745  1.00  0.00     0.040 A 
ATOM     87  F   UNL A   1      44.804  33.271  28.965  1.00  0.00    -0.206 F 
ATOM     88  C   UNL A   1      45.016  35.056  32.111  1.00  0.00     0.006 A 
ENDBRANCH  64  81
ENDBRANCH  38  39
ENDBRANCH  30  33
ENDBRANCH  28  29
ENDBRANCH  27  28
ENDBRANCH  26  27
ENDBRANCH  25  26
ENDBRANCH   1  25
TORSDOF 17
ENDMDL
MODEL 2
REMARK VINA RESULT:     -11.5      0.333      6.122
REMARK SMILES CCc1ccc(N(C)C(=O)N2CC[C@@H](C(=O)NCCCCCCNC(=O)c3ccc(-c4c5nc(c(-c6c(F)cccc6F)c6ccc([nH]6)c(-c6c(F)cccc6F)c6nc(c(-c7c(F)cccc7F)c7ccc4[nH]7)C=C6)C=C5)cc3)[C@@H]2C)cc1
REMARK SMILES IDX 19 1 18 2 17 3 15 4 16 5 14 7 11 8 12 9 81 10 13 11 82 12
REMARK SMILES IDX 9 13 10 14 7 15 8 16 6 17 3 18 4 19 84 20 5 21 83 22 2 23
REMARK SMILES IDX 1 24 20 25 21 26 22 27 23 28 24 29 25 30 26 32 27 33 28 34
REMARK SMILES IDX 80 35 29 36 79 37 30 38 31 39 32 40 73 41 33 42 78 43 72 44
REMARK SMILES IDX 74 45 34 46 77 47 71 48 70 49 35 51 61 52 44 53 60 54 45 55
REMARK SMILES IDX 48 56 59 57 75 58 46 59 47 60 58 62 76 63 49 64 36 65 37 66
REMARK SMILES IDX 42 67 38 68 39 69 41 70 43 71 40 72 62 73 63 74 68 75 64 76
REMARK SMILES IDX 65 77 67 78 69 79 66 80 50 81 51 82 56 83 52 84 53 85 55 86
REMARK SMILES IDX 57 87 54 88
REMARK H PARENT 17 6 24 31 74 50 48 61
REMARK Flexibility Score: inf
ROOT
ATOM      1  C   UNL A   1      35.849  23.578  24.365  1.00  0.00     0.021 C 
ENDROOT
BRANCH   1   2
ATOM      2  C   UNL A   1      34.628  23.359  23.469  1.00  0.00     0.116 C 
BRANCH   2   3
ATOM      3  N   UNL A   1      34.439  24.466  22.546  1.00  0.00    -0.356 N 
ATOM      4  C   UNL A   1      33.670  25.586  22.611  1.00  0.00     0.225 C 
ATOM      5  O   UNL A   1      33.708  26.339  21.632  1.00  0.00    -0.275 OA
ATOM      6  H   UNL A   1      34.966  24.390  21.718  1.00  0.00     0.163 HD
BRANCH   4   7
ATOM      7  C   UNL A   1      32.776  25.943  23.795  1.00  0.00     0.102 C 
ATOM      8  N   UNL A   1      32.096  24.517  25.601  1.00  0.00    -0.321 N 
ATOM      9  C   UNL A   1      32.733  25.690  26.189  1.00  0.00     0.122 C 
ATOM     10  C   UNL A   1      31.794  24.819  24.186  1.00  0.00     0.096 C 
ATOM     11  C   UNL A   1      33.536  26.318  25.066  1.00  0.00     0.037 C 
ATOM     12  C   UNL A   1      30.339  25.271  24.032  1.00  0.00     0.032 C 
BRANCH   8  13
ATOM     13  C   UNL A   1      31.741  23.487  26.474  1.00  0.00     0.324 C 
ATOM     14  O   UNL A   1      30.688  23.629  27.105  1.00  0.00    -0.248 OA
BRANCH  13  15
ATOM     15  N   UNL A   1      32.599  22.391  26.681  1.00  0.00    -0.297 N 
ATOM     16  C   UNL A   1      33.322  22.231  27.925  1.00  0.00     0.155 C 
BRANCH  15  17
ATOM     17  C   UNL A   1      32.676  21.280  25.729  1.00  0.00     0.045 A 
ATOM     18  C   UNL A   1      32.746  19.048  23.917  1.00  0.00    -0.048 A 
ATOM     19  C   UNL A   1      33.227  18.932  25.216  1.00  0.00     0.006 A 
ATOM     20  C   UNL A   1      32.243  20.287  23.520  1.00  0.00     0.006 A 
ATOM     21  C   UNL A   1      33.207  20.026  26.092  1.00  0.00     0.027 A 
ATOM     22  C   UNL A   1      32.222  21.382  24.406  1.00  0.00     0.027 A 
BRANCH  18  23
ATOM     23  C   UNL A   1      32.740  17.841  23.011  1.00  0.00     0.032 C 
ATOM     24  C   UNL A   1      34.001  16.996  23.106  1.00  0.00     0.009 C 
ENDBRANCH  18  23
ENDBRANCH  15  17
ENDBRANCH  13  15
ENDBRANCH   8  13
ENDBRANCH   4   7
ENDBRANCH   2   3
ENDBRANCH   1   2
BRANCH   1  25
ATOM     25  C   UNL A   1      36.326  22.365  25.162  1.00  0.00     0.002 C 
BRANCH  25  26
ATOM     26  C   UNL A   1      36.271  21.025  24.424  1.00  0.00     0.002 C 
BRANCH  26  27
ATOM     27  C   UNL A   1      37.278  19.959  24.871  1.00  0.00     0.021 C 
BRANCH  27  28
ATOM     28  C   UNL A   1      38.479  20.464  25.670  1.00  0.00     0.116 C 
BRANCH  28  29
ATOM     29  N   UNL A   1      39.576  19.513  25.695  1.00  0.00    -0.352 N 
ATOM     30  C   UNL A   1      40.895  19.691  26.029  1.00  0.00     0.251 C 
ATOM     31  H   UNL A   1      39.335  18.596  25.430  1.00  0.00     0.163 HD
ATOM     32  O   UNL A   1      41.702  18.787  25.828  1.00  0.00    -0.269 OA
BRANCH  30  33
ATOM     33  C   UNL A   1      41.363  20.968  26.614  1.00  0.00     0.039 A 
ATOM     34  C   UNL A   1      41.896  21.938  25.759  1.00  0.00     0.014 A 
ATOM     35  C   UNL A   1      41.324  21.198  27.992  1.00  0.00     0.014 A 
ATOM     36  C   UNL A   1      42.332  23.160  26.278  1.00  0.00     0.010 A 
ATOM     37  C   UNL A   1      41.708  22.439  28.502  1.00  0.00     0.010 A 
ATOM     38  C   UNL A   1      42.214  23.432  27.649  1.00  0.00    -0.014 A 
BRANCH  38  39
ATOM     39  C   UNL A   1      42.616  24.748  28.208  1.00  0.00     0.031 A 
ATOM     40  C   UNL A   1      41.592  25.830  28.416  1.00  0.00     0.074 A 
ATOM     41  C   UNL A   1      43.912  24.989  28.487  1.00  0.00     0.049 A 
ATOM     42  N   UNL A   1      41.762  27.066  28.812  1.00  0.00    -0.248 NA
ATOM     43  C   UNL A   1      40.193  25.480  28.121  1.00  0.00     0.031 C 
ATOM     44  C   UNL A   1      45.007  24.033  28.312  1.00  0.00     0.029 A 
ATOM     45  N   UNL A   1      44.529  26.116  28.970  1.00  0.00    -0.354 N 
ATOM     46  C   UNL A   1      40.497  27.642  28.811  1.00  0.00     0.074 A 
ATOM     47  C   UNL A   1      39.576  26.636  28.329  1.00  0.00     0.031 C 
ATOM     48  C   UNL A   1      46.158  24.609  28.696  1.00  0.00     0.029 A 
ATOM     49  C   UNL A   1      45.890  25.983  29.108  1.00  0.00     0.049 A 
ATOM     50  H   UNL A   1      44.044  26.941  29.195  1.00  0.00     0.167 HD
ATOM     51  C   UNL A   1      40.134  28.889  29.198  1.00  0.00     0.037 A 
ATOM     52  C   UNL A   1      46.817  26.871  29.513  1.00  0.00     0.037 A 
ATOM     53  C   UNL A   1      41.045  29.886  29.693  1.00  0.00     0.049 A 
ATOM     54  C   UNL A   1      46.389  28.258  29.903  1.00  0.00     0.074 A 
ATOM     55  C   UNL A   1      40.766  31.171  30.127  1.00  0.00     0.029 A 
ATOM     56  N   UNL A   1      42.414  29.709  29.824  1.00  0.00    -0.354 N 
ATOM     57  N   UNL A   1      45.185  28.777  29.928  1.00  0.00    -0.248 NA
ATOM     58  C   UNL A   1      47.451  29.185  30.323  1.00  0.00     0.031 C 
ATOM     59  C   UNL A   1      41.970  31.780  30.496  1.00  0.00     0.029 A 
ATOM     60  C   UNL A   1      42.993  30.863  30.325  1.00  0.00     0.049 A 
ATOM     61  H   UNL A   1      42.901  28.885  29.595  1.00  0.00     0.167 HD
ATOM     62  C   UNL A   1      45.341  30.076  30.396  1.00  0.00     0.074 A 
ATOM     63  C   UNL A   1      46.754  30.263  30.652  1.00  0.00     0.031 C 
ATOM     64  C   UNL A   1      44.397  31.027  30.594  1.00  0.00     0.037 A 
BRANCH  51  65
ATOM     65  C   UNL A   1      38.679  29.241  29.112  1.00  0.00     0.057 A 
ATOM     66  C   UNL A   1      37.844  29.179  30.237  1.00  0.00     0.134 A 
ATOM     67  C   UNL A   1      38.115  29.691  27.913  1.00  0.00     0.134 A 
ATOM     68  F   UNL A   1      38.321  28.744  31.413  1.00  0.00    -0.206 F 
ATOM     69  C   UNL A   1      36.497  29.535  30.166  1.00  0.00     0.040 A 
ATOM     70  C   UNL A   1      36.775  30.072  27.834  1.00  0.00     0.040 A 
ATOM     71  F   UNL A   1      38.860  29.780  26.801  1.00  0.00    -0.206 F 
ATOM     72  C   UNL A   1      35.960  29.991  28.963  1.00  0.00     0.006 A 
ENDBRANCH  51  65
BRANCH  52  73
ATOM     73  C   UNL A   1      48.247  26.481  29.586  1.00  0.00     0.057 A 
ATOM     74  C   UNL A   1      49.096  26.651  28.486  1.00  0.00     0.134 A 
ATOM     75  C   UNL A   1      48.791  25.900  30.737  1.00  0.00     0.134 A 
ATOM     76  F   UNL A   1      48.626  27.182  27.346  1.00  0.00    -0.206 F 
ATOM     77  C   UNL A   1      50.429  26.237  28.518  1.00  0.00     0.040 A 
ATOM     78  C   UNL A   1      50.128  25.504  30.792  1.00  0.00     0.040 A 
ATOM     79  F   UNL A   1      48.031  25.713  31.826  1.00  0.00    -0.206 F 
ATOM     80  C   UNL A   1      50.949  25.663  29.677  1.00  0.00     0.006 A 
ENDBRANCH  52  73
BRANCH  64  81
ATOM     81  C   UNL A   1      44.856  32.338  31.158  1.00  0.00     0.057 A 
ATOM     82  C   UNL A   1      44.932  32.563  32.538  1.00  0.00     0.134 A 
ATOM     83  C   UNL A   1      45.256  33.377  30.308  1.00  0.00     0.134 A 
ATOM     84  F   UNL A   1      44.550  31.613  33.403  1.00  0.00    -0.206 F 
ATOM     85  C   UNL A   1      45.373  33.783  33.053  1.00  0.00     0.040 A 
ATOM     86  C   UNL A   1      45.721  34.593  30.812  1.00  0.00     0.040 A 
ATOM     87  F   UNL A   1      45.213  33.223  28.976  1.00  0.00    -0.206 F 
ATOM     88  C   UNL A   1      45.775  34.800  32.188  1.00  0.00     0.006 A 
ENDBRANCH  64  81
ENDBRANCH  38  39
ENDBRANCH  30  33
ENDBRANCH  28  29
ENDBRANCH  27  28
ENDBRANCH  26  27
ENDBRANCH  25  26
ENDBRANCH   1  25
TORSDOF 17
ENDMDL
MODEL 3
REMARK VINA RESULT:     -11.4      1.519      3.774
REMARK SMILES CCc1ccc(N(C)C(=O)N2CC[C@@H](C(=O)NCCCCCCNC(=O)c3ccc(-c4c5nc(c(-c6c(F)cccc6F)c6ccc([nH]6)c(-c6c(F)cccc6F)c6nc(c(-c7c(F)cccc7F)c7ccc4[nH]7)C=C6)C=C5)cc3)[C@@H]2C)cc1
REMARK SMILES IDX 19 1 18 2 17 3 15 4 16 5 14 7 11 8 12 9 81 10 13 11 82 12
REMARK SMILES IDX 9 13 10 14 7 15 8 16 6 17 3 18 4 19 84 20 5 21 83 22 2 23
REMARK SMILES IDX 1 24 20 25 21 26 22 27 23 28 24 29 25 30 26 32 27 33 28 34
REMARK SMILES IDX 80 35 29 36 79 37 30 38 31 39 32 40 73 41 33 42 78 43 72 44
REMARK SMILES IDX 74 45 34 46 77 47 71 48 70 49 35 51 61 52 44 53 60 54 45 55
REMARK SMILES IDX 48 56 59 57 75 58 46 59 47 60 58 62 76 63 49 64 36 65 37 66
REMARK SMILES IDX 42 67 38 68 39 69 41 70 43 71 40 72 62 73 63 74 68 75 64 76
REMARK SMILES IDX 65 77 67 78 69 79 66 80 50 81 51 82 56 83 52 84 53 85 55 86
REMARK SMILES IDX 57 87 54 88
REMARK H PARENT 17 6 24 31 74 50 48 61
REMARK Flexibility Score: inf
ROOT
ATOM      1  C   UNL A   1      36.926  23.432  24.809  1.00  0.00     0.021 C 
ENDROOT
BRANCH   1   2
ATOM      2  C   UNL A   1      35.816  23.980  25.708  1.00  0.00     0.116 C 
BRANCH   2   3
ATOM      3  N   UNL A   1      35.335  22.969  26.636  1.00  0.00    -0.356 N 
ATOM      4  C   UNL A   1      34.243  22.158  26.616  1.00  0.00     0.225 C 
ATOM      5  O   UNL A   1      34.094  21.408  27.586  1.00  0.00    -0.275 OA
ATOM      6  H   UNL A   1      35.907  22.850  27.429  1.00  0.00     0.163 HD
BRANCH   4   7
ATOM      7  C   UNL A   1      33.212  22.139  25.490  1.00  0.00     0.102 C 
ATOM      8  N   UNL A   1      32.822  23.828  23.830  1.00  0.00    -0.321 N 
ATOM      9  C   UNL A   1      33.084  22.578  23.127  1.00  0.00     0.122 C 
ATOM     10  C   UNL A   1      32.542  23.508  25.246  1.00  0.00     0.096 C 
ATOM     11  C   UNL A   1      33.761  21.678  24.142  1.00  0.00     0.037 C 
ATOM     12  C   UNL A   1      31.032  23.441  25.494  1.00  0.00     0.032 C 
BRANCH   8  13
ATOM     13  C   UNL A   1      32.699  24.979  23.050  1.00  0.00     0.324 C 
ATOM     14  O   UNL A   1      32.791  24.835  21.826  1.00  0.00    -0.248 OA
BRANCH  13  15
ATOM     15  N   UNL A   1      32.570  26.245  23.651  1.00  0.00    -0.297 N 
ATOM     16  C   UNL A   1      33.643  26.812  24.440  1.00  0.00     0.155 C 
BRANCH  15  17
ATOM     17  C   UNL A   1      31.426  27.117  23.374  1.00  0.00     0.045 A 
ATOM     18  C   UNL A   1      29.191  28.807  22.725  1.00  0.00    -0.048 A 
ATOM     19  C   UNL A   1      30.491  29.181  22.400  1.00  0.00     0.006 A 
ATOM     20  C   UNL A   1      29.012  27.593  23.388  1.00  0.00     0.006 A 
ATOM     21  C   UNL A   1      31.580  28.362  22.733  1.00  0.00     0.027 A 
ATOM     22  C   UNL A   1      30.110  26.774  23.716  1.00  0.00     0.027 A 
BRANCH  18  23
ATOM     23  C   UNL A   1      28.036  29.687  22.314  1.00  0.00     0.032 C 
ATOM     24  C   UNL A   1      27.613  30.684  23.382  1.00  0.00     0.009 C 
ENDBRANCH  18  23
ENDBRANCH  15  17
ENDBRANCH  13  15
ENDBRANCH   8  13
ENDBRANCH   4   7
ENDBRANCH   2   3
ENDBRANCH   1   2
BRANCH   1  25
ATOM     25  C   UNL A   1      37.651  22.188  25.315  1.00  0.00     0.002 C 
BRANCH  25  26
ATOM     26  C   UNL A   1      37.330  20.886  24.576  1.00  0.00     0.002 C 
BRANCH  26  27
ATOM     27  C   UNL A   1      38.215  19.678  24.907  1.00  0.00     0.021 C 
BRANCH  27  28
ATOM     28  C   UNL A   1      39.199  19.864  26.060  1.00  0.00     0.116 C 
BRANCH  28  29
ATOM     29  N   UNL A   1      40.422  19.101  25.882  1.00  0.00    -0.352 N 
ATOM     30  C   UNL A   1      41.733  19.493  25.987  1.00  0.00     0.251 C 
ATOM     31  H   UNL A   1      40.289  18.155  25.648  1.00  0.00     0.163 HD
ATOM     32  O   UNL A   1      42.627  18.728  25.636  1.00  0.00    -0.269 OA
BRANCH  30  33
ATOM     33  C   UNL A   1      42.084  20.835  26.503  1.00  0.00     0.039 A 
ATOM     34  C   UNL A   1      42.387  21.845  25.584  1.00  0.00     0.014 A 
ATOM     35  C   UNL A   1      42.162  21.094  27.874  1.00  0.00     0.014 A 
ATOM     36  C   UNL A   1      42.707  23.128  26.037  1.00  0.00     0.010 A 
ATOM     37  C   UNL A   1      42.426  22.388  28.324  1.00  0.00     0.010 A 
ATOM     38  C   UNL A   1      42.700  23.418  27.410  1.00  0.00    -0.014 A 
BRANCH  38  39
ATOM     39  C   UNL A   1      42.978  24.790  27.907  1.00  0.00     0.031 A 
ATOM     40  C   UNL A   1      44.383  25.203  28.252  1.00  0.00     0.074 A 
ATOM     41  C   UNL A   1      41.960  25.652  28.092  1.00  0.00     0.049 A 
ATOM     42  N   UNL A   1      44.811  26.323  28.775  1.00  0.00    -0.248 NA
ATOM     43  C   UNL A   1      45.444  24.218  27.989  1.00  0.00     0.031 C 
ATOM     44  C   UNL A   1      40.550  25.370  27.817  1.00  0.00     0.029 A 
ATOM     45  N   UNL A   1      41.954  26.941  28.565  1.00  0.00    -0.354 N 
ATOM     46  C   UNL A   1      46.186  26.179  28.909  1.00  0.00     0.074 A 
ATOM     47  C   UNL A   1      46.516  24.844  28.456  1.00  0.00     0.031 C 
ATOM     48  C   UNL A   1      39.818  26.457  28.111  1.00  0.00     0.029 A 
ATOM     49  C   UNL A   1      40.699  27.499  28.629  1.00  0.00     0.049 A 
ATOM     50  H   UNL A   1      42.770  27.420  28.834  1.00  0.00     0.167 HD
ATOM     51  C   UNL A   1      47.095  27.083  29.348  1.00  0.00     0.037 A 
ATOM     52  C   UNL A   1      40.304  28.709  29.065  1.00  0.00     0.037 A 
ATOM     53  C   UNL A   1      46.772  28.416  29.784  1.00  0.00     0.049 A 
ATOM     54  C   UNL A   1      41.330  29.679  29.580  1.00  0.00     0.074 A 
ATOM     55  C   UNL A   1      47.628  29.410  30.227  1.00  0.00     0.029 A 
ATOM     56  N   UNL A   1      45.491  28.944  29.827  1.00  0.00    -0.354 N 
ATOM     57  N   UNL A   1      42.631  29.539  29.669  1.00  0.00    -0.248 NA
ATOM     58  C   UNL A   1      40.833  30.980  30.054  1.00  0.00     0.031 C 
ATOM     59  C   UNL A   1      46.862  30.531  30.563  1.00  0.00     0.029 A 
ATOM     60  C   UNL A   1      45.533  30.246  30.296  1.00  0.00     0.049 A 
ATOM     61  H   UNL A   1      44.673  28.464  29.563  1.00  0.00     0.167 HD
ATOM     62  C   UNL A   1      43.108  30.741  30.176  1.00  0.00     0.074 A 
ATOM     63  C   UNL A   1      41.960  31.603  30.367  1.00  0.00     0.031 C 
ATOM     64  C   UNL A   1      44.384  31.097  30.461  1.00  0.00     0.037 A 
BRANCH  51  65
ATOM     65  C   UNL A   1      48.534  26.662  29.367  1.00  0.00     0.057 A 
ATOM     66  C   UNL A   1      49.089  26.004  30.473  1.00  0.00     0.134 A 
ATOM     67  C   UNL A   1      49.360  26.871  28.256  1.00  0.00     0.134 A 
ATOM     68  F   UNL A   1      48.353  25.785  31.573  1.00  0.00    -0.206 F 
ATOM     69  C   UNL A   1      50.420  25.585  30.480  1.00  0.00     0.040 A 
ATOM     70  C   UNL A   1      50.686  26.435  28.242  1.00  0.00     0.040 A 
ATOM     71  F   UNL A   1      48.890  27.488  27.163  1.00  0.00    -0.206 F 
ATOM     72  C   UNL A   1      51.221  25.793  29.359  1.00  0.00     0.006 A 
ENDBRANCH  51  65
BRANCH  52  73
ATOM     73  C   UNL A   1      38.869  29.087  29.028  1.00  0.00     0.057 A 
ATOM     74  C   UNL A   1      38.063  28.963  30.165  1.00  0.00     0.134 A 
ATOM     75  C   UNL A   1      38.262  29.546  27.853  1.00  0.00     0.134 A 
ATOM     76  F   UNL A   1      38.583  28.507  31.315  1.00  0.00    -0.206 F 
ATOM     77  C   UNL A   1      36.699  29.260  30.131  1.00  0.00     0.040 A 
ATOM     78  C   UNL A   1      36.906  29.870  27.811  1.00  0.00     0.040 A 
ATOM     79  F   UNL A   1      38.982  29.690  26.730  1.00  0.00    -0.206 F 
ATOM     80  C   UNL A   1      36.118  29.718  28.951  1.00  0.00     0.006 A 
ENDBRANCH  52  73
BRANCH  64  81
ATOM     81  C   UNL A   1      44.610  32.492  30.961  1.00  0.00     0.057 A 
ATOM     82  C   UNL A   1      44.608  32.796  32.328  1.00  0.00     0.134 A 
ATOM     83  C   UNL A   1      44.863  33.537  30.064  1.00  0.00     0.134 A 
ATOM     84  F   UNL A   1      44.358  31.842  33.236  1.00  0.00    -0.206 F 
ATOM     85  C   UNL A   1      44.832  34.096  32.785  1.00  0.00     0.040 A 
ATOM     86  C   UNL A   1      45.111  34.837  30.510  1.00  0.00     0.040 A 
ATOM     87  F   UNL A   1      44.885  33.311  28.741  1.00  0.00    -0.206 F 
ATOM     88  C   UNL A   1      45.091  35.120  31.874  1.00  0.00     0.006 A 
ENDBRANCH  64  81
ENDBRANCH  38  39
ENDBRANCH  30  33
ENDBRANCH  28  29
ENDBRANCH  27  28
ENDBRANCH  26  27
ENDBRANCH  25  26
ENDBRANCH   1  25
TORSDOF 17
ENDMDL
