MODEL 1
REMARK VINA RESULT:     -13.1      0.000      0.000
REMARK SMILES O=C(NCCCCCCNC(=O)c1ccc(-c2c3nc(c(-c4c(F)cccc4F)c4ccc([nH]4)c(-c4c(F)cccc4F)c4nc(c(-c5c(F)cccc5F)c5ccc2[nH]5)C=C4)C=C3)cc1)C1=Cc2cc(S(F)(F)(F)(F)F)cc(Br)c2O[C@@H]1C(F)(F)F
REMARK SMILES IDX 7 1 6 2 5 3 4 4 3 5 1 6 2 7 67 9 68 10 83 11 69 12 82 13
REMARK SMILES IDX 70 14 81 15 71 16 79 17 78 18 80 19 84 20 85 21 86 22 87 23
REMARK SMILES IDX 72 24 73 25 74 26 75 27 76 28 77 29 8 30 9 31 10 32 11 33
REMARK SMILES IDX 12 35 13 36 14 37 66 38 15 39 65 40 16 41 17 42 18 43 59 44
REMARK SMILES IDX 19 45 64 46 58 47 60 48 20 49 63 50 57 51 56 52 21 54 47 55
REMARK SMILES IDX 30 56 46 57 31 58 34 59 45 60 61 61 32 62 33 63 44 65 62 66
REMARK SMILES IDX 35 67 22 68 23 69 28 70 24 71 25 72 27 73 29 74 26 75 48 76
REMARK SMILES IDX 49 77 54 78 50 79 51 80 53 81 55 82 52 83 36 84 37 85 42 86
REMARK SMILES IDX 38 87 39 88 41 89 43 90 40 91
REMARK H PARENT 3 8 10 34 60 53 34 64
REMARK Flexibility Score: inf
ROOT
ATOM      1  C   UNL A   1      36.217  20.721  25.245  1.00  0.00     0.002 C 
ENDROOT
BRANCH   1   2
ATOM      2  C   UNL A   1      36.746  22.142  25.347  1.00  0.00     0.002 C 
BRANCH   2   3
ATOM      3  C   UNL A   1      35.772  22.989  26.151  1.00  0.00     0.021 C 
BRANCH   3   4
ATOM      4  C   UNL A   1      34.460  22.239  26.309  1.00  0.00     0.116 C 
BRANCH   4   5
ATOM      5  N   UNL A   1      33.526  23.048  27.106  1.00  0.00    -0.352 N 
ATOM      6  O   UNL A   1      31.377  24.046  27.274  1.00  0.00    -0.270 OA
ATOM      7  C   UNL A   1      32.184  23.347  26.585  1.00  0.00     0.251 C 
ATOM      8  H   UNL A   1      33.799  23.388  27.988  1.00  0.00     0.163 HD
BRANCH   7   9
ATOM      9  C   UNL A   1      31.763  22.821  25.223  1.00  0.00     0.067 C 
ATOM     10  C   UNL A   1      31.322  23.684  24.267  1.00  0.00     0.025 C 
ATOM     11  C   UNL A   1      31.834  21.331  24.928  1.00  0.00     0.314 C 
ATOM     12  C   UNL A   1      31.251  25.173  24.562  1.00  0.00     0.020 A 
ATOM     13  O   UNL A   1      33.264  25.049  25.819  1.00  0.00    -0.474 OA
ATOM     14  C   UNL A   1      30.166  25.869  24.055  1.00  0.00     0.036 A 
ATOM     15  C   UNL A   1      32.249  25.802  25.170  1.00  0.00     0.142 A 
ATOM     16  C   UNL A   1      30.365  27.268  23.983  1.00  0.00     0.109 A 
ATOM     17  C   UNL A   1      32.310  27.174  25.179  1.00  0.00     0.062 A 
ATOM     18  C   UNL A   1      31.301  27.926  24.642  1.00  0.00     0.044 A 
ATOM     19  Br  UNL A   1      33.865  28.068  25.969  1.00  0.00    -0.047 Br
BRANCH  11  20
ATOM     20  C   UNL A   1      32.773  21.091  23.755  1.00  0.00     0.429 C 
ATOM     21  F   UNL A   1      33.467  19.977  23.965  1.00  0.00    -0.167 F 
ATOM     22  F   UNL A   1      32.063  20.968  22.638  1.00  0.00    -0.167 F 
ATOM     23  F   UNL A   1      33.608  22.120  23.639  1.00  0.00    -0.167 F 
ENDBRANCH  11  20
BRANCH  16  24
ATOM     24  S   UNL A   1      29.260  28.222  22.913  1.00  0.00     0.310 S 
ATOM     25  F   UNL A   1      29.455  29.535  23.781  1.00  0.00    -0.094 F 
ATOM     26  F   UNL A   1      28.065  27.849  23.869  1.00  0.00    -0.094 F 
ATOM     27  F   UNL A   1      28.309  29.042  21.997  1.00  0.00    -0.094 F 
ATOM     28  F   UNL A   1      30.492  28.700  22.048  1.00  0.00    -0.094 F 
ATOM     29  F   UNL A   1      30.255  27.486  23.897  1.00  0.00    -0.094 F 
ENDBRANCH  16  24
ENDBRANCH   7   9
ENDBRANCH   4   5
ENDBRANCH   3   4
ENDBRANCH   2   3
ENDBRANCH   1   2
BRANCH   1  30
ATOM     30  C   UNL A   1      37.367  19.771  24.954  1.00  0.00     0.021 C 
BRANCH  30  31
ATOM     31  C   UNL A   1      38.612  20.242  25.690  1.00  0.00     0.116 C 
BRANCH  31  32
ATOM     32  N   UNL A   1      39.651  19.206  25.604  1.00  0.00    -0.352 N 
ATOM     33  C   UNL A   1      41.024  19.506  26.035  1.00  0.00     0.251 C 
ATOM     34  H   UNL A   1      39.428  18.312  25.258  1.00  0.00     0.163 HD
ATOM     35  O   UNL A   1      41.923  18.610  25.961  1.00  0.00    -0.269 OA
BRANCH  33  36
ATOM     36  C   UNL A   1      41.369  20.886  26.569  1.00  0.00     0.039 A 
ATOM     37  C   UNL A   1      41.852  21.849  25.700  1.00  0.00     0.014 A 
ATOM     38  C   UNL A   1      41.200  21.146  27.860  1.00  0.00     0.014 A 
ATOM     39  C   UNL A   1      42.407  22.980  26.347  1.00  0.00     0.010 A 
ATOM     40  C   UNL A   1      41.645  22.328  28.400  1.00  0.00     0.010 A 
ATOM     41  C   UNL A   1      42.188  23.302  27.608  1.00  0.00    -0.014 A 
BRANCH  41  42
ATOM     42  C   UNL A   1      42.521  24.682  28.152  1.00  0.00     0.031 A 
ATOM     43  C   UNL A   1      41.480  25.605  28.275  1.00  0.00     0.074 A 
ATOM     44  C   UNL A   1      43.836  24.947  28.494  1.00  0.00     0.049 A 
ATOM     45  N   UNL A   1      41.548  26.847  28.756  1.00  0.00    -0.248 NA
ATOM     46  C   UNL A   1      40.089  25.337  27.881  1.00  0.00     0.031 C 
ATOM     47  C   UNL A   1      44.888  24.019  28.381  1.00  0.00     0.029 A 
ATOM     48  N   UNL A   1      44.359  26.120  28.991  1.00  0.00    -0.354 N 
ATOM     49  C   UNL A   1      40.341  27.417  28.733  1.00  0.00     0.074 A 
ATOM     50  C   UNL A   1      39.387  26.456  28.163  1.00  0.00     0.031 C 
ATOM     51  C   UNL A   1      46.032  24.626  28.793  1.00  0.00     0.029 A 
ATOM     52  C   UNL A   1      45.714  25.944  29.172  1.00  0.00     0.049 A 
ATOM     53  H   UNL A   1      43.853  26.942  29.185  1.00  0.00     0.167 HD
ATOM     54  C   UNL A   1      39.999  28.699  29.165  1.00  0.00     0.037 A 
ATOM     55  C   UNL A   1      46.635  26.870  29.636  1.00  0.00     0.037 A 
ATOM     56  C   UNL A   1      40.914  29.610  29.671  1.00  0.00     0.049 A 
ATOM     57  C   UNL A   1      46.302  28.173  30.015  1.00  0.00     0.074 A 
ATOM     58  C   UNL A   1      40.584  30.903  30.118  1.00  0.00     0.029 A 
ATOM     59  N   UNL A   1      42.271  29.442  29.828  1.00  0.00    -0.354 N 
ATOM     60  N   UNL A   1      45.089  28.728  30.029  1.00  0.00    -0.248 NA
ATOM     61  C   UNL A   1      47.275  29.171  30.478  1.00  0.00     0.031 C 
ATOM     62  C   UNL A   1      41.729  31.511  30.531  1.00  0.00     0.029 A 
ATOM     63  C   UNL A   1      42.792  30.607  30.346  1.00  0.00     0.049 A 
ATOM     64  H   UNL A   1      42.783  28.629  29.606  1.00  0.00     0.167 HD
ATOM     65  C   UNL A   1      45.165  29.984  30.470  1.00  0.00     0.074 A 
ATOM     66  C   UNL A   1      46.573  30.291  30.759  1.00  0.00     0.031 C 
ATOM     67  C   UNL A   1      44.115  30.887  30.648  1.00  0.00     0.037 A 
BRANCH  54  68
ATOM     68  C   UNL A   1      38.541  29.121  29.077  1.00  0.00     0.057 A 
ATOM     69  C   UNL A   1      38.124  29.732  27.905  1.00  0.00     0.134 A 
ATOM     70  C   UNL A   1      37.712  28.955  30.101  1.00  0.00     0.134 A 
ATOM     71  F   UNL A   1      38.827  29.695  26.778  1.00  0.00    -0.206 F 
ATOM     72  C   UNL A   1      36.881  30.399  28.019  1.00  0.00     0.040 A 
ATOM     73  C   UNL A   1      36.461  29.523  30.086  1.00  0.00     0.040 A 
ATOM     74  F   UNL A   1      38.096  28.234  31.150  1.00  0.00    -0.206 F 
ATOM     75  C   UNL A   1      36.004  30.192  28.985  1.00  0.00     0.006 A 
ENDBRANCH  54  68
BRANCH  55  76
ATOM     76  C   UNL A   1      48.090  26.442  29.740  1.00  0.00     0.057 A 
ATOM     77  C   UNL A   1      48.988  26.667  28.711  1.00  0.00     0.134 A 
ATOM     78  C   UNL A   1      48.475  25.879  30.880  1.00  0.00     0.134 A 
ATOM     79  F   UNL A   1      48.715  27.445  27.666  1.00  0.00    -0.206 F 
ATOM     80  C   UNL A   1      50.222  25.993  28.868  1.00  0.00     0.040 A 
ATOM     81  C   UNL A   1      49.741  25.362  31.011  1.00  0.00     0.040 A 
ATOM     82  F   UNL A   1      47.627  25.815  31.902  1.00  0.00    -0.206 F 
ATOM     83  C   UNL A   1      50.663  25.496  30.010  1.00  0.00     0.006 A 
ENDBRANCH  55  76
BRANCH  67  84
ATOM     84  C   UNL A   1      44.444  32.263  31.206  1.00  0.00     0.057 A 
ATOM     85  C   UNL A   1      44.716  33.303  30.334  1.00  0.00     0.134 A 
ATOM     86  C   UNL A   1      44.466  32.443  32.523  1.00  0.00     0.134 A 
ATOM     87  F   UNL A   1      44.462  33.242  29.030  1.00  0.00    -0.206 F 
ATOM     88  C   UNL A   1      45.287  34.439  30.956  1.00  0.00     0.040 A 
ATOM     89  C   UNL A   1      44.908  33.627  33.059  1.00  0.00     0.040 A 
ATOM     90  F   UNL A   1      44.055  31.468  33.328  1.00  0.00    -0.206 F 
ATOM     91  C   UNL A   1      45.249  34.680  32.255  1.00  0.00     0.006 A 
ENDBRANCH  67  84
ENDBRANCH  41  42
ENDBRANCH  33  36
ENDBRANCH  31  32
ENDBRANCH  30  31
ENDBRANCH   1  30
TORSDOF 15
ENDMDL
MODEL 2
REMARK VINA RESULT:     -13.0      3.707      8.840
REMARK SMILES O=C(NCCCCCCNC(=O)c1ccc(-c2c3nc(c(-c4c(F)cccc4F)c4ccc([nH]4)c(-c4c(F)cccc4F)c4nc(c(-c5c(F)cccc5F)c5ccc2[nH]5)C=C4)C=C3)cc1)C1=Cc2cc(S(F)(F)(F)(F)F)cc(Br)c2O[C@@H]1C(F)(F)F
REMARK SMILES IDX 7 1 6 2 5 3 4 4 3 5 1 6 2 7 67 9 68 10 83 11 69 12 82 13
REMARK SMILES IDX 70 14 81 15 71 16 79 17 78 18 80 19 84 20 85 21 86 22 87 23
REMARK SMILES IDX 72 24 73 25 74 26 75 27 76 28 77 29 8 30 9 31 10 32 11 33
REMARK SMILES IDX 12 35 13 36 14 37 66 38 15 39 65 40 16 41 17 42 18 43 59 44
REMARK SMILES IDX 19 45 64 46 58 47 60 48 20 49 63 50 57 51 56 52 21 54 47 55
REMARK SMILES IDX 30 56 46 57 31 58 34 59 45 60 61 61 32 62 33 63 44 65 62 66
REMARK SMILES IDX 35 67 22 68 23 69 28 70 24 71 25 72 27 73 29 74 26 75 48 76
REMARK SMILES IDX 49 77 54 78 50 79 51 80 53 81 55 82 52 83 36 84 37 85 42 86
REMARK SMILES IDX 38 87 39 88 41 89 43 90 40 91
REMARK H PARENT 3 8 10 34 60 53 34 64
REMARK Flexibility Score: inf
ROOT
ATOM      1  C   UNL A   1      32.266  30.679  26.872  1.00  0.00     0.002 C 
ENDROOT
BRANCH   1   2
ATOM      2  C   UNL A   1      33.731  30.781  27.266  1.00  0.00     0.002 C 
BRANCH   2   3
ATOM      3  C   UNL A   1      34.268  29.394  27.585  1.00  0.00     0.021 C 
BRANCH   3   4
ATOM      4  C   UNL A   1      33.666  28.385  26.623  1.00  0.00     0.116 C 
BRANCH   4   5
ATOM      5  N   UNL A   1      32.511  27.732  27.256  1.00  0.00    -0.352 N 
ATOM      6  O   UNL A   1      30.409  26.660  26.976  1.00  0.00    -0.270 OA
ATOM      7  C   UNL A   1      31.408  27.225  26.428  1.00  0.00     0.251 C 
ATOM      8  H   UNL A   1      32.477  27.634  28.235  1.00  0.00     0.163 HD
BRANCH   7   9
ATOM      9  C   UNL A   1      31.460  27.376  24.916  1.00  0.00     0.067 C 
ATOM     10  C   UNL A   1      32.231  26.535  24.175  1.00  0.00     0.025 C 
ATOM     11  C   UNL A   1      30.652  28.467  24.233  1.00  0.00     0.314 C 
ATOM     12  C   UNL A   1      33.040  25.444  24.858  1.00  0.00     0.020 A 
ATOM     13  O   UNL A   1      31.278  25.072  26.410  1.00  0.00    -0.474 OA
ATOM     14  C   UNL A   1      34.306  25.185  24.359  1.00  0.00     0.036 A 
ATOM     15  C   UNL A   1      32.507  24.687  25.809  1.00  0.00     0.142 A 
ATOM     16  C   UNL A   1      34.819  23.920  24.728  1.00  0.00     0.109 A 
ATOM     17  C   UNL A   1      33.131  23.533  26.217  1.00  0.00     0.062 A 
ATOM     18  C   UNL A   1      34.357  23.185  25.722  1.00  0.00     0.044 A 
ATOM     19  Br  UNL A   1      32.252  22.369  27.527  1.00  0.00    -0.047 Br
BRANCH  11  20
ATOM     20  C   UNL A   1      29.671  27.835  23.257  1.00  0.00     0.429 C 
ATOM     21  F   UNL A   1      29.127  26.756  23.812  1.00  0.00    -0.167 F 
ATOM     22  F   UNL A   1      28.717  28.711  22.959  1.00  0.00    -0.167 F 
ATOM     23  F   UNL A   1      30.316  27.486  22.147  1.00  0.00    -0.167 F 
ENDBRANCH  11  20
BRANCH  16  24
ATOM     24  S   UNL A   1      36.208  23.263  23.770  1.00  0.00     0.310 S 
ATOM     25  F   UNL A   1      36.196  21.897  24.575  1.00  0.00    -0.094 F 
ATOM     26  F   UNL A   1      37.189  23.824  24.868  1.00  0.00    -0.094 F 
ATOM     27  F   UNL A   1      37.403  22.699  22.950  1.00  0.00    -0.094 F 
ATOM     28  F   UNL A   1      35.204  22.589  22.754  1.00  0.00    -0.094 F 
ATOM     29  F   UNL A   1      34.981  23.733  24.650  1.00  0.00    -0.094 F 
ENDBRANCH  16  24
ENDBRANCH   7   9
ENDBRANCH   4   5
ENDBRANCH   3   4
ENDBRANCH   2   3
ENDBRANCH   1   2
BRANCH   1  30
ATOM     30  C   UNL A   1      31.637  32.062  26.897  1.00  0.00     0.021 C 
BRANCH  30  31
ATOM     31  C   UNL A   1      32.732  33.116  26.948  1.00  0.00     0.116 C 
BRANCH  31  32
ATOM     32  N   UNL A   1      32.224  34.316  27.626  1.00  0.00    -0.352 N 
ATOM     33  C   UNL A   1      32.966  34.891  28.757  1.00  0.00     0.251 C 
ATOM     34  H   UNL A   1      31.386  34.736  27.323  1.00  0.00     0.163 HD
ATOM     35  O   UNL A   1      32.527  35.930  29.344  1.00  0.00    -0.269 OA
BRANCH  33  36
ATOM     36  C   UNL A   1      34.259  34.244  29.225  1.00  0.00     0.039 A 
ATOM     37  C   UNL A   1      35.450  34.577  28.599  1.00  0.00     0.014 A 
ATOM     38  C   UNL A   1      34.227  33.371  30.224  1.00  0.00     0.014 A 
ATOM     39  C   UNL A   1      36.524  33.711  28.914  1.00  0.00     0.010 A 
ATOM     40  C   UNL A   1      35.349  32.657  30.567  1.00  0.00     0.010 A 
ATOM     41  C   UNL A   1      36.547  32.892  29.949  1.00  0.00    -0.014 A 
BRANCH  41  42
ATOM     42  C   UNL A   1      37.836  32.246  30.431  1.00  0.00     0.031 A 
ATOM     43  C   UNL A   1      38.238  31.056  29.822  1.00  0.00     0.074 A 
ATOM     44  C   UNL A   1      38.538  32.872  31.446  1.00  0.00     0.049 A 
ATOM     45  N   UNL A   1      39.343  30.349  30.069  1.00  0.00    -0.248 NA
ATOM     46  C   UNL A   1      37.477  30.370  28.768  1.00  0.00     0.031 C 
ATOM     47  C   UNL A   1      38.143  34.077  32.059  1.00  0.00     0.029 A 
ATOM     48  N   UNL A   1      39.713  32.464  32.038  1.00  0.00    -0.354 N 
ATOM     49  C   UNL A   1      39.393  29.279  29.273  1.00  0.00     0.074 A 
ATOM     50  C   UNL A   1      38.190  29.274  28.430  1.00  0.00     0.031 C 
ATOM     51  C   UNL A   1      39.059  34.385  33.014  1.00  0.00     0.029 A 
ATOM     52  C   UNL A   1      40.044  33.378  33.014  1.00  0.00     0.049 A 
ATOM     53  H   UNL A   1      40.227  31.658  31.804  1.00  0.00     0.167 HD
ATOM     54  C   UNL A   1      40.394  28.308  29.217  1.00  0.00     0.037 A 
ATOM     55  C   UNL A   1      41.136  33.351  33.867  1.00  0.00     0.037 A 
ATOM     56  C   UNL A   1      41.509  28.305  30.041  1.00  0.00     0.049 A 
ATOM     57  C   UNL A   1      42.108  32.348  33.850  1.00  0.00     0.074 A 
ATOM     58  C   UNL A   1      42.531  27.339  29.991  1.00  0.00     0.029 A 
ATOM     59  N   UNL A   1      41.827  29.206  31.032  1.00  0.00    -0.354 N 
ATOM     60  N   UNL A   1      42.178  31.300  33.028  1.00  0.00    -0.248 NA
ATOM     61  C   UNL A   1      43.252  32.293  34.770  1.00  0.00     0.031 C 
ATOM     62  C   UNL A   1      43.448  27.647  30.947  1.00  0.00     0.029 A 
ATOM     63  C   UNL A   1      43.013  28.810  31.610  1.00  0.00     0.049 A 
ATOM     64  H   UNL A   1      41.296  29.996  31.287  1.00  0.00     0.167 HD
ATOM     65  C   UNL A   1      43.261  30.572  33.303  1.00  0.00     0.074 A 
ATOM     66  C   UNL A   1      43.964  31.195  34.433  1.00  0.00     0.031 C 
ATOM     67  C   UNL A   1      43.694  29.414  32.655  1.00  0.00     0.037 A 
BRANCH  54  68
ATOM     68  C   UNL A   1      40.255  27.192  28.195  1.00  0.00     0.057 A 
ATOM     69  C   UNL A   1      39.632  26.024  28.607  1.00  0.00     0.134 A 
ATOM     70  C   UNL A   1      40.753  27.312  26.970  1.00  0.00     0.134 A 
ATOM     71  F   UNL A   1      38.904  25.943  29.715  1.00  0.00    -0.206 F 
ATOM     72  C   UNL A   1      39.844  24.926  27.739  1.00  0.00     0.040 A 
ATOM     73  C   UNL A   1      40.804  26.228  26.127  1.00  0.00     0.040 A 
ATOM     74  F   UNL A   1      41.208  28.490  26.556  1.00  0.00    -0.206 F 
ATOM     75  C   UNL A   1      40.262  25.027  26.491  1.00  0.00     0.006 A 
ENDBRANCH  54  68
BRANCH  55  76
ATOM     76  C   UNL A   1      41.284  34.477  34.878  1.00  0.00     0.057 A 
ATOM     77  C   UNL A   1      41.945  35.652  34.564  1.00  0.00     0.134 A 
ATOM     78  C   UNL A   1      40.715  34.301  36.065  1.00  0.00     0.134 A 
ATOM     79  F   UNL A   1      42.305  35.974  33.325  1.00  0.00    -0.206 F 
ATOM     80  C   UNL A   1      42.205  36.480  35.682  1.00  0.00     0.040 A 
ATOM     81  C   UNL A   1      40.900  35.220  37.071  1.00  0.00     0.040 A 
ATOM     82  F   UNL A   1      39.961  33.228  36.283  1.00  0.00    -0.206 F 
ATOM     83  C   UNL A   1      41.594  36.377  36.848  1.00  0.00     0.006 A 
ENDBRANCH  55  76
BRANCH  67  84
ATOM     84  C   UNL A   1      44.991  28.775  33.125  1.00  0.00     0.057 A 
ATOM     85  C   UNL A   1      44.950  27.790  34.098  1.00  0.00     0.134 A 
ATOM     86  C   UNL A   1      46.142  29.174  32.595  1.00  0.00     0.134 A 
ATOM     87  F   UNL A   1      43.826  27.185  34.471  1.00  0.00    -0.206 F 
ATOM     88  C   UNL A   1      46.213  27.485  34.658  1.00  0.00     0.040 A 
ATOM     89  C   UNL A   1      47.337  28.729  33.106  1.00  0.00     0.040 A 
ATOM     90  F   UNL A   1      46.137  30.010  31.562  1.00  0.00    -0.206 F 
ATOM     91  C   UNL A   1      47.373  27.799  34.108  1.00  0.00     0.006 A 
ENDBRANCH  67  84
ENDBRANCH  41  42
ENDBRANCH  33  36
ENDBRANCH  31  32
ENDBRANCH  30  31
ENDBRANCH   1  30
TORSDOF 15
ENDMDL
MODEL 3
REMARK VINA RESULT:     -13.0      0.115      5.812
REMARK SMILES O=C(NCCCCCCNC(=O)c1ccc(-c2c3nc(c(-c4c(F)cccc4F)c4ccc([nH]4)c(-c4c(F)cccc4F)c4nc(c(-c5c(F)cccc5F)c5ccc2[nH]5)C=C4)C=C3)cc1)C1=Cc2cc(S(F)(F)(F)(F)F)cc(Br)c2O[C@@H]1C(F)(F)F
REMARK SMILES IDX 7 1 6 2 5 3 4 4 3 5 1 6 2 7 67 9 68 10 83 11 69 12 82 13
REMARK SMILES IDX 70 14 81 15 71 16 79 17 78 18 80 19 84 20 85 21 86 22 87 23
REMARK SMILES IDX 72 24 73 25 74 26 75 27 76 28 77 29 8 30 9 31 10 32 11 33
REMARK SMILES IDX 12 35 13 36 14 37 66 38 15 39 65 40 16 41 17 42 18 43 59 44
REMARK SMILES IDX 19 45 64 46 58 47 60 48 20 49 63 50 57 51 56 52 21 54 47 55
REMARK SMILES IDX 30 56 46 57 31 58 34 59 45 60 61 61 32 62 33 63 44 65 62 66
REMARK SMILES IDX 35 67 22 68 23 69 28 70 24 71 25 72 27 73 29 74 26 75 48 76
REMARK SMILES IDX 49 77 54 78 50 79 51 80 53 81 55 82 52 83 36 84 37 85 42 86
REMARK SMILES IDX 38 87 39 88 41 89 43 90 40 91
REMARK H PARENT 3 8 10 34 60 53 34 64
REMARK Flexibility Score: inf
ROOT
ATOM      1  C   UNL A   1      36.288  20.944  25.090  1.00  0.00     0.002 C 
ENDROOT
BRANCH   1   2
ATOM      2  C   UNL A   1      36.891  22.219  25.659  1.00  0.00     0.002 C 
BRANCH   2   3
ATOM      3  C   UNL A   1      35.778  23.134  26.144  1.00  0.00     0.021 C 
BRANCH   3   4
ATOM      4  C   UNL A   1      34.488  22.340  26.267  1.00  0.00     0.116 C 
BRANCH   4   5
ATOM      5  N   UNL A   1      33.524  23.095  27.081  1.00  0.00    -0.352 N 
ATOM      6  O   UNL A   1      31.337  24.002  27.272  1.00  0.00    -0.270 OA
ATOM      7  C   UNL A   1      32.170  23.350  26.568  1.00  0.00     0.251 C 
ATOM      8  H   UNL A   1      33.785  23.428  27.970  1.00  0.00     0.163 HD
BRANCH   7   9
ATOM      9  C   UNL A   1      31.768  22.836  25.196  1.00  0.00     0.067 C 
ATOM     10  C   UNL A   1      31.341  23.706  24.241  1.00  0.00     0.025 C 
ATOM     11  C   UNL A   1      31.841  21.348  24.890  1.00  0.00     0.314 C 
ATOM     12  C   UNL A   1      31.267  25.193  24.547  1.00  0.00     0.020 A 
ATOM     13  O   UNL A   1      33.263  25.057  25.831  1.00  0.00    -0.474 OA
ATOM     14  C   UNL A   1      30.190  25.895  24.030  1.00  0.00     0.036 A 
ATOM     15  C   UNL A   1      32.257  25.816  25.174  1.00  0.00     0.142 A 
ATOM     16  C   UNL A   1      30.393  27.294  23.972  1.00  0.00     0.109 A 
ATOM     17  C   UNL A   1      32.321  27.188  25.194  1.00  0.00     0.062 A 
ATOM     18  C   UNL A   1      31.320  27.945  24.649  1.00  0.00     0.044 A 
ATOM     19  Br  UNL A   1      33.865  28.074  26.013  1.00  0.00    -0.047 Br
BRANCH  11  20
ATOM     20  C   UNL A   1      32.796  21.116  23.730  1.00  0.00     0.429 C 
ATOM     21  F   UNL A   1      33.520  20.026  23.963  1.00  0.00    -0.167 F 
ATOM     22  F   UNL A   1      32.099  20.955  22.609  1.00  0.00    -0.167 F 
ATOM     23  F   UNL A   1      33.603  22.166  23.603  1.00  0.00    -0.167 F 
ENDBRANCH  11  20
BRANCH  16  24
ATOM     24  S   UNL A   1      29.304  28.258  22.893  1.00  0.00     0.310 S 
ATOM     25  F   UNL A   1      29.487  29.563  23.775  1.00  0.00    -0.094 F 
ATOM     26  F   UNL A   1      28.095  27.878  23.829  1.00  0.00    -0.094 F 
ATOM     27  F   UNL A   1      28.367  29.086  21.970  1.00  0.00    -0.094 F 
ATOM     28  F   UNL A   1      30.548  28.741  22.049  1.00  0.00    -0.094 F 
ATOM     29  F   UNL A   1      30.284  27.513  23.886  1.00  0.00    -0.094 F 
ENDBRANCH  16  24
ENDBRANCH   7   9
ENDBRANCH   4   5
ENDBRANCH   3   4
ENDBRANCH   2   3
ENDBRANCH   1   2
BRANCH   1  30
ATOM     30  C   UNL A   1      37.374  19.891  24.943  1.00  0.00     0.021 C 
BRANCH  30  31
ATOM     31  C   UNL A   1      38.631  20.355  25.662  1.00  0.00     0.116 C 
BRANCH  31  32
ATOM     32  N   UNL A   1      39.648  19.295  25.601  1.00  0.00    -0.352 N 
ATOM     33  C   UNL A   1      41.017  19.563  26.064  1.00  0.00     0.251 C 
ATOM     34  H   UNL A   1      39.412  18.406  25.250  1.00  0.00     0.163 HD
ATOM     35  O   UNL A   1      41.896  18.646  26.011  1.00  0.00    -0.269 OA
BRANCH  33  36
ATOM     36  C   UNL A   1      41.381  20.935  26.605  1.00  0.00     0.039 A 
ATOM     37  C   UNL A   1      41.851  21.906  25.735  1.00  0.00     0.014 A 
ATOM     38  C   UNL A   1      41.242  21.182  27.902  1.00  0.00     0.014 A 
ATOM     39  C   UNL A   1      42.426  23.026  26.382  1.00  0.00     0.010 A 
ATOM     40  C   UNL A   1      41.706  22.356  28.444  1.00  0.00     0.010 A 
ATOM     41  C   UNL A   1      42.237  23.336  27.651  1.00  0.00    -0.014 A 
BRANCH  41  42
ATOM     42  C   UNL A   1      42.589  24.708  28.202  1.00  0.00     0.031 A 
ATOM     43  C   UNL A   1      43.916  24.946  28.566  1.00  0.00     0.074 A 
ATOM     44  C   UNL A   1      41.576  25.645  28.311  1.00  0.00     0.049 A 
ATOM     45  N   UNL A   1      44.439  26.080  29.034  1.00  0.00    -0.248 NA
ATOM     46  C   UNL A   1      44.987  23.943  28.482  1.00  0.00     0.031 C 
ATOM     47  C   UNL A   1      40.238  25.415  27.938  1.00  0.00     0.029 A 
ATOM     48  N   UNL A   1      41.665  26.934  28.788  1.00  0.00    -0.354 N 
ATOM     49  C   UNL A   1      45.748  25.929  29.252  1.00  0.00     0.074 A 
ATOM     50  C   UNL A   1      46.117  24.549  28.905  1.00  0.00     0.031 C 
ATOM     51  C   UNL A   1      39.528  26.545  28.196  1.00  0.00     0.029 A 
ATOM     52  C   UNL A   1      40.411  27.501  28.734  1.00  0.00     0.049 A 
ATOM     53  H   UNL A   1      42.485  27.375  29.110  1.00  0.00     0.167 HD
ATOM     54  C   UNL A   1      46.647  26.886  29.723  1.00  0.00     0.037 A 
ATOM     55  C   UNL A   1      40.038  28.776  29.130  1.00  0.00     0.037 A 
ATOM     56  C   UNL A   1      46.281  28.176  30.077  1.00  0.00     0.049 A 
ATOM     57  C   UNL A   1      40.927  29.716  29.656  1.00  0.00     0.074 A 
ATOM     58  C   UNL A   1      47.177  29.155  30.546  1.00  0.00     0.029 A 
ATOM     59  N   UNL A   1      45.023  28.734  30.046  1.00  0.00    -0.354 N 
ATOM     60  N   UNL A   1      42.242  29.577  29.835  1.00  0.00    -0.248 NA
ATOM     61  C   UNL A   1      40.537  31.058  30.107  1.00  0.00     0.031 C 
ATOM     62  C   UNL A   1      46.466  30.286  30.804  1.00  0.00     0.029 A 
ATOM     63  C   UNL A   1      45.116  30.030  30.501  1.00  0.00     0.049 A 
ATOM     64  H   UNL A   1      44.198  28.283  29.751  1.00  0.00     0.167 HD
ATOM     65  C   UNL A   1      42.757  30.697  30.342  1.00  0.00     0.074 A 
ATOM     66  C   UNL A   1      41.667  31.664  30.533  1.00  0.00     0.031 C 
ATOM     67  C   UNL A   1      44.094  30.954  30.652  1.00  0.00     0.037 A 
BRANCH  54  68
ATOM     68  C   UNL A   1      48.110  26.494  29.854  1.00  0.00     0.057 A 
ATOM     69  C   UNL A   1      48.928  26.710  28.758  1.00  0.00     0.134 A 
ATOM     70  C   UNL A   1      48.574  25.921  30.959  1.00  0.00     0.134 A 
ATOM     71  F   UNL A   1      48.587  27.495  27.741  1.00  0.00    -0.206 F 
ATOM     72  C   UNL A   1      50.161  26.018  28.819  1.00  0.00     0.040 A 
ATOM     73  C   UNL A   1      49.839  25.386  30.990  1.00  0.00     0.040 A 
ATOM     74  F   UNL A   1      47.807  25.864  32.044  1.00  0.00    -0.206 F 
ATOM     75  C   UNL A   1      50.682  25.510  29.921  1.00  0.00     0.006 A 
ENDBRANCH  54  68
BRANCH  55  76
ATOM     76  C   UNL A   1      38.578  29.174  28.982  1.00  0.00     0.057 A 
ATOM     77  C   UNL A   1      38.086  29.706  27.802  1.00  0.00     0.134 A 
ATOM     78  C   UNL A   1      37.783  28.950  30.022  1.00  0.00     0.134 A 
ATOM     79  F   UNL A   1      38.777  29.712  26.665  1.00  0.00    -0.206 F 
ATOM     80  C   UNL A   1      36.783  30.246  27.916  1.00  0.00     0.040 A 
ATOM     81  C   UNL A   1      36.479  29.385  30.010  1.00  0.00     0.040 A 
ATOM     82  F   UNL A   1      38.252  28.301  31.083  1.00  0.00    -0.206 F 
ATOM     83  C   UNL A   1      35.944  29.974  28.898  1.00  0.00     0.006 A 
ENDBRANCH  55  76
BRANCH  67  84
ATOM     84  C   UNL A   1      44.450  32.332  31.188  1.00  0.00     0.057 A 
ATOM     85  C   UNL A   1      44.750  33.350  30.299  1.00  0.00     0.134 A 
ATOM     86  C   UNL A   1      44.469  32.534  32.501  1.00  0.00     0.134 A 
ATOM     87  F   UNL A   1      44.503  33.272  28.995  1.00  0.00    -0.206 F 
ATOM     88  C   UNL A   1      45.343  34.484  30.905  1.00  0.00     0.040 A 
ATOM     89  C   UNL A   1      44.934  33.718  33.019  1.00  0.00     0.040 A 
ATOM     90  F   UNL A   1      44.032  31.583  33.320  1.00  0.00    -0.206 F 
ATOM     91  C   UNL A   1      45.304  34.748  32.199  1.00  0.00     0.006 A 
ENDBRANCH  67  84
ENDBRANCH  41  42
ENDBRANCH  33  36
ENDBRANCH  31  32
ENDBRANCH  30  31
ENDBRANCH   1  30
TORSDOF 15
ENDMDL
