MODEL 1
REMARK VINA RESULT:     -12.6      0.000      0.000
REMARK SMILES O=C(NCCCCCCNC(=O)c1cc(N2CCN(c3ccc(F)cc3)CC2)ccc1NC(=O)C1CCCC1)c1ccc(-c2c3nc(c(-c4c(F)cccc4F)c4ccc([nH]4)c(-c4c(F)cccc4F)c4nc(c(-c5c(F)cccc5F)c5ccc2[nH]5)C=C4)C=C3)cc1
REMARK SMILES IDX 6 1 5 2 4 3 3 4 1 5 2 6 40 8 41 9 93 10 42 11 92 12 43 13
REMARK SMILES IDX 44 14 45 15 86 16 46 17 91 18 85 19 87 20 47 21 90 22 84 23
REMARK SMILES IDX 83 24 48 26 74 27 57 28 73 29 58 30 61 31 72 32 88 33 59 34
REMARK SMILES IDX 60 35 71 37 89 38 62 39 49 40 50 41 55 42 51 43 52 44 54 45
REMARK SMILES IDX 56 46 53 47 75 48 76 49 81 50 77 51 78 52 80 53 82 54 79 55
REMARK SMILES IDX 63 56 64 57 69 58 65 59 66 60 68 61 70 62 67 63 7 64 8 65
REMARK SMILES IDX 9 66 10 67 11 68 12 70 13 71 14 72 31 73 15 74 30 75 29 76
REMARK SMILES IDX 32 77 33 78 34 80 35 81 36 82 39 83 37 84 38 85 16 86 17 87
REMARK SMILES IDX 28 88 18 89 27 90 19 91 20 92 21 93 26 94 22 95 25 96 23 97
REMARK SMILES IDX 24 98
REMARK H PARENT 3 7 87 25 61 36 10 69 32 79
REMARK Flexibility Score: inf
ROOT
ATOM      1  C   UNL A   1      38.045  21.369  24.987  1.00  0.00     0.002 C 
ENDROOT
BRANCH   1   2
ATOM      2  C   UNL A   1      38.515  19.963  25.358  1.00  0.00     0.021 C 
BRANCH   2   3
ATOM      3  C   UNL A   1      39.620  19.900  26.402  1.00  0.00     0.116 C 
BRANCH   3   4
ATOM      4  N   UNL A   1      40.775  19.129  25.972  1.00  0.00    -0.352 N 
ATOM      5  O   UNL A   1      42.935  18.761  25.426  1.00  0.00    -0.269 OA
ATOM      6  C   UNL A   1      42.099  19.503  25.922  1.00  0.00     0.251 C 
ATOM      7  H   UNL A   1      40.584  18.210  25.677  1.00  0.00     0.163 HD
BRANCH   6   8
ATOM      8  C   UNL A   1      42.502  20.830  26.442  1.00  0.00     0.039 A 
ATOM      9  C   UNL A   1      42.572  21.066  27.816  1.00  0.00     0.014 A 
ATOM     10  C   UNL A   1      42.796  21.854  25.539  1.00  0.00     0.014 A 
ATOM     11  C   UNL A   1      42.777  22.359  28.283  1.00  0.00     0.010 A 
ATOM     12  C   UNL A   1      43.096  23.135  26.013  1.00  0.00     0.010 A 
ATOM     13  C   UNL A   1      43.052  23.406  27.389  1.00  0.00    -0.014 A 
BRANCH  13  14
ATOM     14  C   UNL A   1      43.338  24.761  27.928  1.00  0.00     0.031 A 
ATOM     15  C   UNL A   1      44.748  25.232  28.153  1.00  0.00     0.074 A 
ATOM     16  C   UNL A   1      42.303  25.585  28.179  1.00  0.00     0.049 A 
ATOM     17  N   UNL A   1      45.168  26.400  28.575  1.00  0.00    -0.248 NA
ATOM     18  C   UNL A   1      45.828  24.271  27.878  1.00  0.00     0.031 C 
ATOM     19  C   UNL A   1      40.890  25.236  28.010  1.00  0.00     0.029 A 
ATOM     20  N   UNL A   1      42.274  26.889  28.602  1.00  0.00    -0.354 N 
ATOM     21  C   UNL A   1      46.553  26.307  28.638  1.00  0.00     0.074 A 
ATOM     22  C   UNL A   1      46.903  24.963  28.235  1.00  0.00     0.031 C 
ATOM     23  C   UNL A   1      40.137  26.314  28.267  1.00  0.00     0.029 A 
ATOM     24  C   UNL A   1      41.006  27.410  28.682  1.00  0.00     0.049 A 
ATOM     25  H   UNL A   1      43.084  27.402  28.827  1.00  0.00     0.167 HD
ATOM     26  C   UNL A   1      47.450  27.261  28.993  1.00  0.00     0.037 A 
ATOM     27  C   UNL A   1      40.585  28.631  29.056  1.00  0.00     0.037 A 
ATOM     28  C   UNL A   1      47.097  28.605  29.378  1.00  0.00     0.049 A 
ATOM     29  C   UNL A   1      41.598  29.658  29.466  1.00  0.00     0.074 A 
ATOM     30  C   UNL A   1      47.935  29.656  29.711  1.00  0.00     0.029 A 
ATOM     31  N   UNL A   1      45.799  29.083  29.486  1.00  0.00    -0.354 N 
ATOM     32  N   UNL A   1      42.905  29.569  29.480  1.00  0.00    -0.248 NA
ATOM     33  C   UNL A   1      41.076  30.954  29.917  1.00  0.00     0.031 C 
ATOM     34  C   UNL A   1      47.143  30.753  30.068  1.00  0.00     0.029 A 
ATOM     35  C   UNL A   1      45.812  30.404  29.907  1.00  0.00     0.049 A 
ATOM     36  H   UNL A   1      44.987  28.559  29.293  1.00  0.00     0.167 HD
ATOM     37  C   UNL A   1      43.365  30.802  29.921  1.00  0.00     0.074 A 
ATOM     38  C   UNL A   1      42.194  31.627  30.144  1.00  0.00     0.031 C 
ATOM     39  C   UNL A   1      44.640  31.213  30.124  1.00  0.00     0.037 A 
BRANCH  26  40
ATOM     40  C   UNL A   1      48.903  26.879  29.007  1.00  0.00     0.057 A 
ATOM     41  C   UNL A   1      49.736  27.078  27.899  1.00  0.00     0.134 A 
ATOM     42  C   UNL A   1      49.485  26.337  30.161  1.00  0.00     0.134 A 
ATOM     43  F   UNL A   1      49.241  27.585  26.759  1.00  0.00    -0.206 F 
ATOM     44  C   UNL A   1      51.088  26.729  27.929  1.00  0.00     0.040 A 
ATOM     45  C   UNL A   1      50.841  26.009  30.211  1.00  0.00     0.040 A 
ATOM     46  F   UNL A   1      48.749  26.128  31.261  1.00  0.00    -0.206 F 
ATOM     47  C   UNL A   1      51.646  26.198  29.089  1.00  0.00     0.006 A 
ENDBRANCH  26  40
BRANCH  27  48
ATOM     48  C   UNL A   1      39.135  28.946  29.050  1.00  0.00     0.057 A 
ATOM     49  C   UNL A   1      38.356  28.782  30.201  1.00  0.00     0.134 A 
ATOM     50  C   UNL A   1      38.496  29.425  27.900  1.00  0.00     0.134 A 
ATOM     51  F   UNL A   1      38.909  28.311  31.329  1.00  0.00    -0.206 F 
ATOM     52  C   UNL A   1      36.992  29.073  30.207  1.00  0.00     0.040 A 
ATOM     53  C   UNL A   1      37.138  29.747  27.899  1.00  0.00     0.040 A 
ATOM     54  F   UNL A   1      39.190  29.611  26.768  1.00  0.00    -0.206 F 
ATOM     55  C   UNL A   1      36.381  29.563  29.054  1.00  0.00     0.006 A 
ENDBRANCH  27  48
BRANCH  39  56
ATOM     56  C   UNL A   1      44.831  32.629  30.579  1.00  0.00     0.057 A 
ATOM     57  C   UNL A   1      44.891  33.697  29.675  1.00  0.00     0.134 A 
ATOM     58  C   UNL A   1      44.948  32.929  31.943  1.00  0.00     0.134 A 
ATOM     59  F   UNL A   1      44.803  33.475  28.355  1.00  0.00    -0.206 F 
ATOM     60  C   UNL A   1      45.089  35.010  30.108  1.00  0.00     0.040 A 
ATOM     61  C   UNL A   1      45.119  34.239  32.389  1.00  0.00     0.040 A 
ATOM     62  F   UNL A   1      44.894  31.953  32.862  1.00  0.00    -0.206 F 
ATOM     63  C   UNL A   1      45.197  35.283  31.469  1.00  0.00     0.006 A 
ENDBRANCH  39  56
ENDBRANCH  13  14
ENDBRANCH   6   8
ENDBRANCH   3   4
ENDBRANCH   2   3
ENDBRANCH   1   2
BRANCH   1  64
ATOM     64  C   UNL A   1      36.607  21.477  24.472  1.00  0.00     0.002 C 
BRANCH  64  65
ATOM     65  C   UNL A   1      36.012  22.891  24.401  1.00  0.00     0.021 C 
BRANCH  65  66
ATOM     66  C   UNL A   1      36.149  23.729  25.671  1.00  0.00     0.116 C 
BRANCH  66  67
ATOM     67  N   UNL A   1      35.562  23.071  26.825  1.00  0.00    -0.352 N 
ATOM     68  C   UNL A   1      34.250  22.830  27.139  1.00  0.00     0.253 C 
ATOM     69  H   UNL A   1      36.211  22.746  27.489  1.00  0.00     0.163 HD
ATOM     70  O   UNL A   1      33.975  22.441  28.272  1.00  0.00    -0.269 OA
BRANCH  68  71
ATOM     71  C   UNL A   1      33.159  22.995  26.148  1.00  0.00     0.065 A 
ATOM     72  C   UNL A   1      32.898  24.326  25.740  1.00  0.00     0.042 A 
ATOM     73  C   UNL A   1      32.310  21.939  25.752  1.00  0.00     0.054 A 
ATOM     74  C   UNL A   1      31.782  24.643  24.963  1.00  0.00     0.038 A 
ATOM     75  C   UNL A   1      31.217  22.279  24.974  1.00  0.00     0.029 A 
ATOM     76  C   UNL A   1      30.967  23.588  24.570  1.00  0.00     0.028 A 
BRANCH  73  77
ATOM     77  N   UNL A   1      32.535  20.622  26.195  1.00  0.00    -0.325 N 
ATOM     78  C   UNL A   1      32.932  19.444  25.642  1.00  0.00     0.227 C 
ATOM     79  H   UNL A   1      32.358  20.526  27.159  1.00  0.00     0.169 HD
ATOM     80  O   UNL A   1      33.014  18.494  26.437  1.00  0.00    -0.274 OA
BRANCH  78  81
ATOM     81  C   UNL A   1      33.305  19.180  24.182  1.00  0.00     0.079 C 
ATOM     82  C   UNL A   1      34.066  17.878  23.969  1.00  0.00     0.013 C 
ATOM     83  C   UNL A   1      32.193  19.264  23.140  1.00  0.00     0.013 C 
ATOM     84  C   UNL A   1      33.656  17.355  22.598  1.00  0.00     0.001 C 
ATOM     85  C   UNL A   1      32.392  18.095  22.178  1.00  0.00     0.001 C 
ENDBRANCH  78  81
ENDBRANCH  73  77
BRANCH  74  86
ATOM     86  N   UNL A   1      31.432  25.952  24.706  1.00  0.00    -0.368 N 
ATOM     87  C   UNL A   1      31.938  26.657  23.512  1.00  0.00     0.138 C 
ATOM     88  C   UNL A   1      30.163  26.473  25.250  1.00  0.00     0.138 C 
ATOM     89  C   UNL A   1      30.837  26.806  22.420  1.00  0.00     0.138 C 
ATOM     90  C   UNL A   1      29.077  26.557  24.159  1.00  0.00     0.138 C 
ATOM     91  N   UNL A   1      29.566  27.303  22.992  1.00  0.00    -0.368 N 
BRANCH  91  92
ATOM     92  C   UNL A   1      29.144  28.598  22.763  1.00  0.00     0.037 A 
ATOM     93  C   UNL A   1      29.931  29.474  22.002  1.00  0.00     0.029 A 
ATOM     94  C   UNL A   1      27.905  29.072  23.226  1.00  0.00     0.029 A 
ATOM     95  C   UNL A   1      29.487  30.764  21.691  1.00  0.00     0.041 A 
ATOM     96  C   UNL A   1      27.463  30.364  22.936  1.00  0.00     0.041 A 
ATOM     97  C   UNL A   1      28.256  31.196  22.163  1.00  0.00     0.123 A 
ATOM     98  F   UNL A   1      27.825  32.429  21.864  1.00  0.00    -0.207 F 
ENDBRANCH  91  92
ENDBRANCH  74  86
ENDBRANCH  68  71
ENDBRANCH  66  67
ENDBRANCH  65  66
ENDBRANCH  64  65
ENDBRANCH   1  64
TORSDOF 17
ENDMDL
MODEL 2
REMARK VINA RESULT:     -12.4      1.416      5.965
REMARK SMILES O=C(NCCCCCCNC(=O)c1cc(N2CCN(c3ccc(F)cc3)CC2)ccc1NC(=O)C1CCCC1)c1ccc(-c2c3nc(c(-c4c(F)cccc4F)c4ccc([nH]4)c(-c4c(F)cccc4F)c4nc(c(-c5c(F)cccc5F)c5ccc2[nH]5)C=C4)C=C3)cc1
REMARK SMILES IDX 6 1 5 2 4 3 3 4 1 5 2 6 40 8 41 9 93 10 42 11 92 12 43 13
REMARK SMILES IDX 44 14 45 15 86 16 46 17 91 18 85 19 87 20 47 21 90 22 84 23
REMARK SMILES IDX 83 24 48 26 74 27 57 28 73 29 58 30 61 31 72 32 88 33 59 34
REMARK SMILES IDX 60 35 71 37 89 38 62 39 49 40 50 41 55 42 51 43 52 44 54 45
REMARK SMILES IDX 56 46 53 47 75 48 76 49 81 50 77 51 78 52 80 53 82 54 79 55
REMARK SMILES IDX 63 56 64 57 69 58 65 59 66 60 68 61 70 62 67 63 7 64 8 65
REMARK SMILES IDX 9 66 10 67 11 68 12 70 13 71 14 72 31 73 15 74 30 75 29 76
REMARK SMILES IDX 32 77 33 78 34 80 35 81 36 82 39 83 37 84 38 85 16 86 17 87
REMARK SMILES IDX 28 88 18 89 27 90 19 91 20 92 21 93 26 94 22 95 25 96 23 97
REMARK SMILES IDX 24 98
REMARK H PARENT 3 7 87 25 61 36 10 69 32 79
REMARK Flexibility Score: inf
ROOT
ATOM      1  C   UNL A   1      39.566  22.692  26.138  1.00  0.00     0.002 C 
ENDROOT
BRANCH   1   2
ATOM      2  C   UNL A   1      39.553  21.276  26.710  1.00  0.00     0.021 C 
BRANCH   2   3
ATOM      3  C   UNL A   1      39.607  20.157  25.680  1.00  0.00     0.116 C 
BRANCH   3   4
ATOM      4  N   UNL A   1      40.566  19.115  26.009  1.00  0.00    -0.352 N 
ATOM      5  O   UNL A   1      42.586  18.243  26.518  1.00  0.00    -0.269 OA
ATOM      6  C   UNL A   1      41.885  19.236  26.383  1.00  0.00     0.251 C 
ATOM      7  H   UNL A   1      40.223  18.194  25.960  1.00  0.00     0.163 HD
BRANCH   6   8
ATOM      8  C   UNL A   1      42.464  20.583  26.586  1.00  0.00     0.039 A 
ATOM      9  C   UNL A   1      42.554  21.136  27.865  1.00  0.00     0.014 A 
ATOM     10  C   UNL A   1      42.908  21.308  25.477  1.00  0.00     0.014 A 
ATOM     11  C   UNL A   1      42.933  22.464  28.017  1.00  0.00     0.010 A 
ATOM     12  C   UNL A   1      43.379  22.614  25.643  1.00  0.00     0.010 A 
ATOM     13  C   UNL A   1      43.361  23.216  26.910  1.00  0.00    -0.014 A 
BRANCH  13  14
ATOM     14  C   UNL A   1      43.828  24.611  27.121  1.00  0.00     0.031 A 
ATOM     15  C   UNL A   1      42.889  25.690  27.584  1.00  0.00     0.074 A 
ATOM     16  C   UNL A   1      45.131  24.888  26.926  1.00  0.00     0.049 A 
ATOM     17  N   UNL A   1      43.148  26.945  27.858  1.00  0.00    -0.248 NA
ATOM     18  C   UNL A   1      41.476  25.320  27.755  1.00  0.00     0.031 C 
ATOM     19  C   UNL A   1      46.137  23.926  26.466  1.00  0.00     0.029 A 
ATOM     20  N   UNL A   1      45.842  26.047  27.112  1.00  0.00    -0.354 N 
ATOM     21  C   UNL A   1      41.933  27.518  28.210  1.00  0.00     0.074 A 
ATOM     22  C   UNL A   1      40.931  26.481  28.092  1.00  0.00     0.031 C 
ATOM     23  C   UNL A   1      47.341  24.516  26.465  1.00  0.00     0.029 A 
ATOM     24  C   UNL A   1      47.185  25.911  26.858  1.00  0.00     0.049 A 
ATOM     25  H   UNL A   1      45.429  26.892  27.400  1.00  0.00     0.167 HD
ATOM     26  C   UNL A   1      41.679  28.792  28.603  1.00  0.00     0.037 A 
ATOM     27  C   UNL A   1      48.181  26.812  26.925  1.00  0.00     0.037 A 
ATOM     28  C   UNL A   1      42.684  29.816  28.735  1.00  0.00     0.049 A 
ATOM     29  C   UNL A   1      47.867  28.218  27.340  1.00  0.00     0.074 A 
ATOM     30  C   UNL A   1      42.534  31.122  29.168  1.00  0.00     0.029 A 
ATOM     31  N   UNL A   1      44.028  29.651  28.429  1.00  0.00    -0.354 N 
ATOM     32  N   UNL A   1      46.721  28.734  27.710  1.00  0.00    -0.248 NA
ATOM     33  C   UNL A   1      48.986  29.169  27.341  1.00  0.00     0.031 C 
ATOM     34  C   UNL A   1      43.776  31.761  29.078  1.00  0.00     0.029 A 
ATOM     35  C   UNL A   1      44.712  30.839  28.638  1.00  0.00     0.049 A 
ATOM     36  H   UNL A   1      44.436  28.813  28.109  1.00  0.00     0.167 HD
ATOM     37  C   UNL A   1      46.982  30.064  28.008  1.00  0.00     0.074 A 
ATOM     38  C   UNL A   1      48.401  30.268  27.794  1.00  0.00     0.031 C 
ATOM     39  C   UNL A   1      46.124  31.028  28.421  1.00  0.00     0.037 A 
BRANCH  26  40
ATOM     40  C   UNL A   1      40.252  29.157  28.896  1.00  0.00     0.057 A 
ATOM     41  C   UNL A   1      39.744  29.191  30.201  1.00  0.00     0.134 A 
ATOM     42  C   UNL A   1      39.382  29.518  27.857  1.00  0.00     0.134 A 
ATOM     43  F   UNL A   1      40.520  28.849  31.241  1.00  0.00    -0.206 F 
ATOM     44  C   UNL A   1      38.418  29.545  30.460  1.00  0.00     0.040 A 
ATOM     45  C   UNL A   1      38.063  29.899  28.107  1.00  0.00     0.040 A 
ATOM     46  F   UNL A   1      39.805  29.517  26.585  1.00  0.00    -0.206 F 
ATOM     47  C   UNL A   1      37.575  29.906  29.412  1.00  0.00     0.006 A 
ENDBRANCH  26  40
BRANCH  27  48
ATOM     48  C   UNL A   1      49.569  26.402  26.598  1.00  0.00     0.057 A 
ATOM     49  C   UNL A   1      50.065  26.510  25.294  1.00  0.00     0.134 A 
ATOM     50  C   UNL A   1      50.434  25.902  27.580  1.00  0.00     0.134 A 
ATOM     51  F   UNL A   1      49.278  26.967  24.309  1.00  0.00    -0.206 F 
ATOM     52  C   UNL A   1      51.368  26.126  24.974  1.00  0.00     0.040 A 
ATOM     53  C   UNL A   1      51.748  25.540  27.280  1.00  0.00     0.040 A 
ATOM     54  F   UNL A   1      50.020  25.782  28.849  1.00  0.00    -0.206 F 
ATOM     55  C   UNL A   1      52.215  25.646  25.971  1.00  0.00     0.006 A 
ENDBRANCH  27  48
BRANCH  39  56
ATOM     56  C   UNL A   1      46.708  32.381  28.699  1.00  0.00     0.057 A 
ATOM     57  C   UNL A   1      46.777  33.375  27.715  1.00  0.00     0.134 A 
ATOM     58  C   UNL A   1      47.201  32.696  29.972  1.00  0.00     0.134 A 
ATOM     59  F   UNL A   1      46.339  33.131  26.470  1.00  0.00    -0.206 F 
ATOM     60  C   UNL A   1      47.340  34.625  27.978  1.00  0.00     0.040 A 
ATOM     61  C   UNL A   1      47.740  33.951  30.255  1.00  0.00     0.040 A 
ATOM     62  F   UNL A   1      47.159  31.792  30.962  1.00  0.00    -0.206 F 
ATOM     63  C   UNL A   1      47.819  34.917  29.254  1.00  0.00     0.006 A 
ENDBRANCH  39  56
ENDBRANCH  13  14
ENDBRANCH   6   8
ENDBRANCH   3   4
ENDBRANCH   2   3
ENDBRANCH   1   2
BRANCH   1  64
ATOM     64  C   UNL A   1      38.334  23.547  26.449  1.00  0.00     0.002 C 
BRANCH  64  65
ATOM     65  C   UNL A   1      37.224  23.556  25.388  1.00  0.00     0.021 C 
BRANCH  65  66
ATOM     66  C   UNL A   1      36.223  22.405  25.472  1.00  0.00     0.116 C 
BRANCH  66  67
ATOM     67  N   UNL A   1      35.582  22.333  26.773  1.00  0.00    -0.352 N 
ATOM     68  C   UNL A   1      34.292  22.606  27.145  1.00  0.00     0.253 C 
ATOM     69  H   UNL A   1      36.170  22.042  27.506  1.00  0.00     0.163 HD
ATOM     70  O   UNL A   1      34.024  22.677  28.343  1.00  0.00    -0.269 OA
BRANCH  68  71
ATOM     71  C   UNL A   1      33.206  22.788  26.152  1.00  0.00     0.065 A 
ATOM     72  C   UNL A   1      32.966  24.123  25.745  1.00  0.00     0.042 A 
ATOM     73  C   UNL A   1      32.343  21.745  25.752  1.00  0.00     0.054 A 
ATOM     74  C   UNL A   1      31.857  24.458  24.965  1.00  0.00     0.038 A 
ATOM     75  C   UNL A   1      31.258  22.102  24.971  1.00  0.00     0.029 A 
ATOM     76  C   UNL A   1      31.027  23.415  24.568  1.00  0.00     0.028 A 
BRANCH  73  77
ATOM     77  N   UNL A   1      32.548  20.424  26.194  1.00  0.00    -0.325 N 
ATOM     78  C   UNL A   1      32.942  19.245  25.643  1.00  0.00     0.227 C 
ATOM     79  H   UNL A   1      32.353  20.327  27.154  1.00  0.00     0.169 HD
ATOM     80  O   UNL A   1      33.001  18.291  26.436  1.00  0.00    -0.274 OA
BRANCH  78  81
ATOM     81  C   UNL A   1      33.336  18.982  24.189  1.00  0.00     0.079 C 
ATOM     82  C   UNL A   1      34.176  17.725  23.998  1.00  0.00     0.013 C 
ATOM     83  C   UNL A   1      32.225  18.982  23.142  1.00  0.00     0.013 C 
ATOM     84  C   UNL A   1      33.804  17.158  22.634  1.00  0.00     0.001 C 
ATOM     85  C   UNL A   1      32.498  17.813  22.199  1.00  0.00     0.001 C 
ENDBRANCH  78  81
ENDBRANCH  73  77
BRANCH  74  86
ATOM     86  N   UNL A   1      31.527  25.772  24.709  1.00  0.00    -0.368 N 
ATOM     87  C   UNL A   1      31.995  26.452  23.485  1.00  0.00     0.138 C 
ATOM     88  C   UNL A   1      30.296  26.329  25.302  1.00  0.00     0.138 C 
ATOM     89  C   UNL A   1      30.851  26.615  22.441  1.00  0.00     0.138 C 
ATOM     90  C   UNL A   1      29.165  26.427  24.259  1.00  0.00     0.138 C 
ATOM     91  N   UNL A   1      29.619  27.149  23.063  1.00  0.00    -0.368 N 
BRANCH  91  92
ATOM     92  C   UNL A   1      29.217  28.451  22.838  1.00  0.00     0.037 A 
ATOM     93  C   UNL A   1      30.084  29.361  22.215  1.00  0.00     0.029 A 
ATOM     94  C   UNL A   1      27.928  28.903  23.167  1.00  0.00     0.029 A 
ATOM     95  C   UNL A   1      29.671  30.662  21.907  1.00  0.00     0.041 A 
ATOM     96  C   UNL A   1      27.514  30.205  22.879  1.00  0.00     0.041 A 
ATOM     97  C   UNL A   1      28.389  31.070  22.243  1.00  0.00     0.123 A 
ATOM     98  F   UNL A   1      27.988  32.313  21.945  1.00  0.00    -0.207 F 
ENDBRANCH  91  92
ENDBRANCH  74  86
ENDBRANCH  68  71
ENDBRANCH  66  67
ENDBRANCH  65  66
ENDBRANCH  64  65
ENDBRANCH   1  64
TORSDOF 17
ENDMDL
MODEL 3
REMARK VINA RESULT:     -12.4      1.523      2.221
REMARK SMILES O=C(NCCCCCCNC(=O)c1cc(N2CCN(c3ccc(F)cc3)CC2)ccc1NC(=O)C1CCCC1)c1ccc(-c2c3nc(c(-c4c(F)cccc4F)c4ccc([nH]4)c(-c4c(F)cccc4F)c4nc(c(-c5c(F)cccc5F)c5ccc2[nH]5)C=C4)C=C3)cc1
REMARK SMILES IDX 6 1 5 2 4 3 3 4 1 5 2 6 40 8 41 9 93 10 42 11 92 12 43 13
REMARK SMILES IDX 44 14 45 15 86 16 46 17 91 18 85 19 87 20 47 21 90 22 84 23
REMARK SMILES IDX 83 24 48 26 74 27 57 28 73 29 58 30 61 31 72 32 88 33 59 34
REMARK SMILES IDX 60 35 71 37 89 38 62 39 49 40 50 41 55 42 51 43 52 44 54 45
REMARK SMILES IDX 56 46 53 47 75 48 76 49 81 50 77 51 78 52 80 53 82 54 79 55
REMARK SMILES IDX 63 56 64 57 69 58 65 59 66 60 68 61 70 62 67 63 7 64 8 65
REMARK SMILES IDX 9 66 10 67 11 68 12 70 13 71 14 72 31 73 15 74 30 75 29 76
REMARK SMILES IDX 32 77 33 78 34 80 35 81 36 82 39 83 37 84 38 85 16 86 17 87
REMARK SMILES IDX 28 88 18 89 27 90 19 91 20 92 21 93 26 94 22 95 25 96 23 97
REMARK SMILES IDX 24 98
REMARK H PARENT 3 7 87 25 61 36 10 69 32 79
REMARK Flexibility Score: inf
ROOT
ATOM      1  C   UNL A   1      39.655  22.149  26.931  1.00  0.00     0.002 C 
ENDROOT
BRANCH   1   2
ATOM      2  C   UNL A   1      39.932  20.938  26.043  1.00  0.00     0.021 C 
BRANCH   2   3
ATOM      3  C   UNL A   1      40.768  19.839  26.682  1.00  0.00     0.116 C 
BRANCH   3   4
ATOM      4  N   UNL A   1      41.973  19.522  25.933  1.00  0.00    -0.352 N 
ATOM      5  O   UNL A   1      43.937  19.932  24.895  1.00  0.00    -0.269 OA
ATOM      6  C   UNL A   1      43.048  20.329  25.636  1.00  0.00     0.251 C 
ATOM      7  H   UNL A   1      42.029  18.601  25.591  1.00  0.00     0.163 HD
BRANCH   6   8
ATOM      8  C   UNL A   1      43.106  21.700  26.193  1.00  0.00     0.039 A 
ATOM      9  C   UNL A   1      43.048  22.814  25.354  1.00  0.00     0.014 A 
ATOM     10  C   UNL A   1      43.236  21.869  27.574  1.00  0.00     0.014 A 
ATOM     11  C   UNL A   1      43.281  24.082  25.874  1.00  0.00     0.010 A 
ATOM     12  C   UNL A   1      43.377  23.153  28.108  1.00  0.00     0.010 A 
ATOM     13  C   UNL A   1      43.438  24.268  27.258  1.00  0.00    -0.014 A 
BRANCH  13  14
ATOM     14  C   UNL A   1      43.613  25.646  27.786  1.00  0.00     0.031 A 
ATOM     15  C   UNL A   1      44.975  26.273  27.901  1.00  0.00     0.074 A 
ATOM     16  C   UNL A   1      42.516  26.347  28.129  1.00  0.00     0.049 A 
ATOM     17  N   UNL A   1      45.294  27.480  28.299  1.00  0.00    -0.248 NA
ATOM     18  C   UNL A   1      46.129  25.440  27.530  1.00  0.00     0.031 C 
ATOM     19  C   UNL A   1      41.141  25.841  28.072  1.00  0.00     0.029 A 
ATOM     20  N   UNL A   1      42.375  27.639  28.567  1.00  0.00    -0.354 N 
ATOM     21  C   UNL A   1      46.681  27.545  28.249  1.00  0.00     0.074 A 
ATOM     22  C   UNL A   1      47.145  26.248  27.805  1.00  0.00     0.031 C 
ATOM     23  C   UNL A   1      40.296  26.827  28.400  1.00  0.00     0.029 A 
ATOM     24  C   UNL A   1      41.067  28.013  28.755  1.00  0.00     0.049 A 
ATOM     25  H   UNL A   1      43.137  28.240  28.730  1.00  0.00     0.167 HD
ATOM     26  C   UNL A   1      47.491  28.593  28.540  1.00  0.00     0.037 A 
ATOM     27  C   UNL A   1      40.543  29.179  29.174  1.00  0.00     0.037 A 
ATOM     28  C   UNL A   1      47.021  29.888  28.965  1.00  0.00     0.049 A 
ATOM     29  C   UNL A   1      41.464  30.313  29.511  1.00  0.00     0.074 A 
ATOM     30  C   UNL A   1      47.760  31.026  29.240  1.00  0.00     0.029 A 
ATOM     31  N   UNL A   1      45.691  30.216  29.184  1.00  0.00    -0.354 N 
ATOM     32  N   UNL A   1      42.770  30.372  29.418  1.00  0.00    -0.248 NA
ATOM     33  C   UNL A   1      40.838  31.541  30.016  1.00  0.00     0.031 C 
ATOM     34  C   UNL A   1      46.882  32.027  29.671  1.00  0.00     0.029 A 
ATOM     35  C   UNL A   1      45.590  31.530  29.616  1.00  0.00     0.049 A 
ATOM     36  H   UNL A   1      44.930  29.604  29.052  1.00  0.00     0.167 HD
ATOM     37  C   UNL A   1      43.123  31.649  29.833  1.00  0.00     0.074 A 
ATOM     38  C   UNL A   1      41.889  32.337  30.159  1.00  0.00     0.031 C 
ATOM     39  C   UNL A   1      44.356  32.201  29.935  1.00  0.00     0.037 A 
BRANCH  26  40
ATOM     40  C   UNL A   1      48.973  28.377  28.431  1.00  0.00     0.057 A 
ATOM     41  C   UNL A   1      49.671  28.586  27.235  1.00  0.00     0.134 A 
ATOM     42  C   UNL A   1      49.720  27.991  29.553  1.00  0.00     0.134 A 
ATOM     43  F   UNL A   1      49.017  28.948  26.121  1.00  0.00    -0.206 F 
ATOM     44  C   UNL A   1      51.052  28.393  27.151  1.00  0.00     0.040 A 
ATOM     45  C   UNL A   1      51.104  27.821  29.488  1.00  0.00     0.040 A 
ATOM     46  F   UNL A   1      49.118  27.783  30.733  1.00  0.00    -0.206 F 
ATOM     47  C   UNL A   1      51.773  28.015  28.281  1.00  0.00     0.006 A 
ENDBRANCH  26  40
BRANCH  27  48
ATOM     48  C   UNL A   1      39.072  29.328  29.289  1.00  0.00     0.057 A 
ATOM     49  C   UNL A   1      38.281  29.573  28.161  1.00  0.00     0.134 A 
ATOM     50  C   UNL A   1      38.420  29.218  30.524  1.00  0.00     0.134 A 
ATOM     51  F   UNL A   1      38.850  29.704  26.953  1.00  0.00    -0.206 F 
ATOM     52  C   UNL A   1      36.896  29.715  28.257  1.00  0.00     0.040 A 
ATOM     53  C   UNL A   1      37.034  29.331  30.631  1.00  0.00     0.040 A 
ATOM     54  F   UNL A   1      39.122  28.975  31.640  1.00  0.00    -0.206 F 
ATOM     55  C   UNL A   1      36.268  29.588  29.495  1.00  0.00     0.006 A 
ENDBRANCH  27  48
BRANCH  39  56
ATOM     56  C   UNL A   1      44.423  33.630  30.388  1.00  0.00     0.057 A 
ATOM     57  C   UNL A   1      44.570  33.973  31.738  1.00  0.00     0.134 A 
ATOM     58  C   UNL A   1      44.350  34.675  29.458  1.00  0.00     0.134 A 
ATOM     59  F   UNL A   1      44.628  33.019  32.680  1.00  0.00    -0.206 F 
ATOM     60  C   UNL A   1      44.612  35.306  32.151  1.00  0.00     0.040 A 
ATOM     61  C   UNL A   1      44.419  36.010  29.856  1.00  0.00     0.040 A 
ATOM     62  F   UNL A   1      44.215  34.415  28.149  1.00  0.00    -0.206 F 
ATOM     63  C   UNL A   1      44.542  36.328  31.207  1.00  0.00     0.006 A 
ENDBRANCH  39  56
ENDBRANCH  13  14
ENDBRANCH   6   8
ENDBRANCH   3   4
ENDBRANCH   2   3
ENDBRANCH   1   2
BRANCH   1  64
ATOM     64  C   UNL A   1      39.466  23.482  26.201  1.00  0.00     0.002 C 
BRANCH  64  65
ATOM     65  C   UNL A   1      38.203  24.281  26.555  1.00  0.00     0.021 C 
BRANCH  65  66
ATOM     66  C   UNL A   1      36.891  23.712  26.019  1.00  0.00     0.116 C 
BRANCH  66  67
ATOM     67  N   UNL A   1      36.887  23.622  24.570  1.00  0.00    -0.352 N 
ATOM     68  C   UNL A   1      35.943  23.122  23.712  1.00  0.00     0.253 C 
ATOM     69  H   UNL A   1      37.695  23.976  24.133  1.00  0.00     0.163 HD
ATOM     70  O   UNL A   1      36.245  22.958  22.531  1.00  0.00    -0.269 OA
BRANCH  68  71
ATOM     71  C   UNL A   1      34.565  22.802  24.155  1.00  0.00     0.065 A 
ATOM     72  C   UNL A   1      33.641  23.875  24.104  1.00  0.00     0.042 A 
ATOM     73  C   UNL A   1      34.212  21.573  24.752  1.00  0.00     0.054 A 
ATOM     74  C   UNL A   1      32.368  23.765  24.667  1.00  0.00     0.038 A 
ATOM     75  C   UNL A   1      32.941  21.487  25.292  1.00  0.00     0.029 A 
ATOM     76  C   UNL A   1      32.033  22.542  25.236  1.00  0.00     0.028 A 
BRANCH  73  77
ATOM     77  N   UNL A   1      35.142  20.520  24.851  1.00  0.00    -0.325 N 
ATOM     78  C   UNL A   1      35.122  19.166  24.729  1.00  0.00     0.227 C 
ATOM     79  H   UNL A   1      36.044  20.851  25.065  1.00  0.00     0.169 HD
ATOM     80  O   UNL A   1      36.221  18.610  24.887  1.00  0.00    -0.274 OA
BRANCH  78  81
ATOM     81  C   UNL A   1      33.922  18.278  24.398  1.00  0.00     0.079 C 
ATOM     82  C   UNL A   1      34.300  16.941  23.774  1.00  0.00     0.013 C 
ATOM     83  C   UNL A   1      32.903  18.022  25.504  1.00  0.00     0.013 C 
ATOM     84  C   UNL A   1      33.261  15.932  24.248  1.00  0.00     0.001 C 
ATOM     85  C   UNL A   1      32.526  16.544  25.434  1.00  0.00     0.001 C 
ENDBRANCH  78  81
ENDBRANCH  73  77
BRANCH  74  86
ATOM     86  N   UNL A   1      31.529  24.855  24.769  1.00  0.00    -0.368 N 
ATOM     87  C   UNL A   1      31.943  26.071  25.496  1.00  0.00     0.138 C 
ATOM     88  C   UNL A   1      30.501  25.065  23.731  1.00  0.00     0.138 C 
ATOM     89  C   UNL A   1      32.307  27.231  24.521  1.00  0.00     0.138 C 
ATOM     90  C   UNL A   1      30.913  26.180  22.750  1.00  0.00     0.138 C 
ATOM     91  N   UNL A   1      31.276  27.406  23.474  1.00  0.00    -0.368 N 
BRANCH  91  92
ATOM     92  C   UNL A   1      30.411  28.483  23.503  1.00  0.00     0.037 A 
ATOM     93  C   UNL A   1      30.728  29.624  24.254  1.00  0.00     0.029 A 
ATOM     94  C   UNL A   1      29.224  28.507  22.752  1.00  0.00     0.029 A 
ATOM     95  C   UNL A   1      29.906  30.756  24.234  1.00  0.00     0.041 A 
ATOM     96  C   UNL A   1      28.390  29.626  22.741  1.00  0.00     0.041 A 
ATOM     97  C   UNL A   1      28.743  30.745  23.477  1.00  0.00     0.123 A 
ATOM     98  F   UNL A   1      27.956  31.828  23.452  1.00  0.00    -0.207 F 
ENDBRANCH  91  92
ENDBRANCH  74  86
ENDBRANCH  68  71
ENDBRANCH  66  67
ENDBRANCH  65  66
ENDBRANCH  64  65
ENDBRANCH   1  64
TORSDOF 17
ENDMDL
