MODEL 1
REMARK VINA RESULT:     -11.8      0.000      0.000
REMARK SMILES O=C(NCCCCCCNC(=O)[C@H]1CCC(=O)N(C2CCCCC2)[C@H]1c1ccccc1)c1ccc(-c2c3nc(c(-c4c(F)cccc4F)c4ccc([nH]4)c(-c4c(F)cccc4F)c4nc(c(-c5c(F)cccc5F)c5ccc2[nH]5)C=C4)C=C3)cc1
REMARK SMILES IDX 6 1 5 2 4 3 3 4 1 5 2 6 32 8 33 9 85 10 34 11 84 12 35 13
REMARK SMILES IDX 36 14 37 15 78 16 38 17 83 18 77 19 79 20 39 21 82 22 76 23
REMARK SMILES IDX 75 24 40 26 66 27 49 28 65 29 50 30 53 31 64 32 80 33 51 34
REMARK SMILES IDX 52 35 63 37 81 38 54 39 41 40 42 41 47 42 43 43 44 44 46 45
REMARK SMILES IDX 48 46 45 47 67 48 68 49 73 50 69 51 70 52 72 53 74 54 71 55
REMARK SMILES IDX 55 56 56 57 61 58 57 59 58 60 60 61 62 62 59 63 7 64 8 65
REMARK SMILES IDX 9 66 10 67 11 68 12 70 13 71 14 72 25 73 15 74 18 75 16 76
REMARK SMILES IDX 17 77 26 78 27 79 31 80 28 81 30 82 29 83 19 84 20 85 24 86
REMARK SMILES IDX 21 87 23 88 22 89
REMARK H PARENT 3 7 79 25 53 36 10 69
REMARK Flexibility Score: inf
ROOT
ATOM      1  C   UNL A   1      36.451  19.245  24.984  1.00  0.00     0.002 C 
ENDROOT
BRANCH   1   2
ATOM      2  C   UNL A   1      37.754  19.942  24.599  1.00  0.00     0.021 C 
BRANCH   2   3
ATOM      3  C   UNL A   1      38.727  20.164  25.747  1.00  0.00     0.116 C 
BRANCH   3   4
ATOM      4  N   UNL A   1      39.845  19.241  25.725  1.00  0.00    -0.352 N 
ATOM      5  O   UNL A   1      42.017  18.631  25.840  1.00  0.00    -0.269 OA
ATOM      6  C   UNL A   1      41.163  19.482  26.036  1.00  0.00     0.251 C 
ATOM      7  H   UNL A   1      39.634  18.319  25.450  1.00  0.00     0.163 HD
BRANCH   6   8
ATOM      8  C   UNL A   1      41.540  20.803  26.586  1.00  0.00     0.039 A 
ATOM      9  C   UNL A   1      41.430  21.062  27.954  1.00  0.00     0.014 A 
ATOM     10  C   UNL A   1      41.999  21.793  25.714  1.00  0.00     0.014 A 
ATOM     11  C   UNL A   1      41.655  22.348  28.432  1.00  0.00     0.010 A 
ATOM     12  C   UNL A   1      42.305  23.063  26.209  1.00  0.00     0.010 A 
ATOM     13  C   UNL A   1      42.112  23.356  27.568  1.00  0.00    -0.014 A 
BRANCH  13  14
ATOM     14  C   UNL A   1      42.456  24.687  28.123  1.00  0.00     0.031 A 
ATOM     15  C   UNL A   1      43.866  25.037  28.502  1.00  0.00     0.074 A 
ATOM     16  C   UNL A   1      41.470  25.593  28.269  1.00  0.00     0.049 A 
ATOM     17  N   UNL A   1      44.332  26.158  28.992  1.00  0.00    -0.248 NA
ATOM     18  C   UNL A   1      44.885  23.993  28.316  1.00  0.00     0.031 C 
ATOM     19  C   UNL A   1      40.061  25.360  27.946  1.00  0.00     0.029 A 
ATOM     20  N   UNL A   1      41.500  26.890  28.709  1.00  0.00    -0.354 N 
ATOM     21  C   UNL A   1      45.692  25.952  29.192  1.00  0.00     0.074 A 
ATOM     22  C   UNL A   1      45.971  24.589  28.792  1.00  0.00     0.031 C 
ATOM     23  C   UNL A   1      39.369  26.488  28.154  1.00  0.00     0.029 A 
ATOM     24  C   UNL A   1      40.272  27.503  28.683  1.00  0.00     0.049 A 
ATOM     25  H   UNL A   1      42.321  27.338  29.014  1.00  0.00     0.167 HD
ATOM     26  C   UNL A   1      46.617  26.823  29.659  1.00  0.00     0.037 A 
ATOM     27  C   UNL A   1      39.907  28.742  29.059  1.00  0.00     0.037 A 
ATOM     28  C   UNL A   1      46.331  28.181  30.048  1.00  0.00     0.049 A 
ATOM     29  C   UNL A   1      40.947  29.676  29.599  1.00  0.00     0.074 A 
ATOM     30  C   UNL A   1      47.208  29.155  30.495  1.00  0.00     0.029 A 
ATOM     31  N   UNL A   1      45.068  28.756  30.041  1.00  0.00    -0.354 N 
ATOM     32  N   UNL A   1      42.234  29.478  29.748  1.00  0.00    -0.248 NA
ATOM     33  C   UNL A   1      40.484  31.001  30.029  1.00  0.00     0.031 C 
ATOM     34  C   UNL A   1      46.469  30.304  30.801  1.00  0.00     0.029 A 
ATOM     35  C   UNL A   1      45.138  30.062  30.500  1.00  0.00     0.049 A 
ATOM     36  H   UNL A   1      44.243  28.304  29.751  1.00  0.00     0.167 HD
ATOM     37  C   UNL A   1      42.739  30.657  30.277  1.00  0.00     0.074 A 
ATOM     38  C   UNL A   1      41.621  31.571  30.403  1.00  0.00     0.031 C 
ATOM     39  C   UNL A   1      44.014  30.956  30.627  1.00  0.00     0.037 A 
BRANCH  26  40
ATOM     40  C   UNL A   1      48.028  26.326  29.800  1.00  0.00     0.057 A 
ATOM     41  C   UNL A   1      48.494  25.739  30.984  1.00  0.00     0.134 A 
ATOM     42  C   UNL A   1      48.921  26.404  28.723  1.00  0.00     0.134 A 
ATOM     43  F   UNL A   1      47.693  25.643  32.056  1.00  0.00    -0.206 F 
ATOM     44  C   UNL A   1      49.805  25.271  31.100  1.00  0.00     0.040 A 
ATOM     45  C   UNL A   1      50.227  25.919  28.821  1.00  0.00     0.040 A 
ATOM     46  F   UNL A   1      48.539  26.947  27.558  1.00  0.00    -0.206 F 
ATOM     47  C   UNL A   1      50.674  25.355  30.015  1.00  0.00     0.006 A 
ENDBRANCH  26  40
BRANCH  27  48
ATOM     48  C   UNL A   1      38.489  29.157  28.930  1.00  0.00     0.057 A 
ATOM     49  C   UNL A   1      37.620  29.106  30.025  1.00  0.00     0.134 A 
ATOM     50  C   UNL A   1      37.981  29.647  27.720  1.00  0.00     0.134 A 
ATOM     51  F   UNL A   1      38.048  28.634  31.205  1.00  0.00    -0.206 F 
ATOM     52  C   UNL A   1      36.293  29.522  29.921  1.00  0.00     0.040 A 
ATOM     53  C   UNL A   1      36.662  30.089  27.609  1.00  0.00     0.040 A 
ATOM     54  F   UNL A   1      38.768  29.729  26.638  1.00  0.00    -0.206 F 
ATOM     55  C   UNL A   1      35.813  30.023  28.711  1.00  0.00     0.006 A 
ENDBRANCH  27  48
BRANCH  39  56
ATOM     56  C   UNL A   1      44.265  32.333  31.163  1.00  0.00     0.057 A 
ATOM     57  C   UNL A   1      44.557  33.411  30.318  1.00  0.00     0.134 A 
ATOM     58  C   UNL A   1      44.195  32.587  32.539  1.00  0.00     0.134 A 
ATOM     59  F   UNL A   1      44.656  33.229  28.992  1.00  0.00    -0.206 F 
ATOM     60  C   UNL A   1      44.794  34.690  30.825  1.00  0.00     0.040 A 
ATOM     61  C   UNL A   1      44.404  33.866  33.054  1.00  0.00     0.040 A 
ATOM     62  F   UNL A   1      43.913  31.598  33.401  1.00  0.00    -0.206 F 
ATOM     63  C   UNL A   1      44.711  34.921  32.197  1.00  0.00     0.006 A 
ENDBRANCH  39  56
ENDBRANCH  13  14
ENDBRANCH   6   8
ENDBRANCH   3   4
ENDBRANCH   2   3
ENDBRANCH   1   2
BRANCH   1  64
ATOM     64  C   UNL A   1      35.196  20.118  24.923  1.00  0.00     0.002 C 
BRANCH  64  65
ATOM     65  C   UNL A   1      33.960  19.567  25.647  1.00  0.00     0.021 C 
BRANCH  65  66
ATOM     66  C   UNL A   1      32.629  19.799  24.936  1.00  0.00     0.116 C 
BRANCH  66  67
ATOM     67  N   UNL A   1      32.825  20.509  23.692  1.00  0.00    -0.356 N 
ATOM     68  C   UNL A   1      32.265  21.675  23.286  1.00  0.00     0.225 C 
ATOM     69  H   UNL A   1      33.449  20.090  23.055  1.00  0.00     0.163 HD
ATOM     70  O   UNL A   1      31.997  21.750  22.086  1.00  0.00    -0.275 OA
BRANCH  68  71
ATOM     71  C   UNL A   1      31.862  22.751  24.285  1.00  0.00     0.106 C 
ATOM     72  C   UNL A   1      31.846  22.360  25.760  1.00  0.00     0.026 C 
ATOM     73  C   UNL A   1      32.737  24.032  24.167  1.00  0.00     0.128 C 
ATOM     74  C   UNL A   1      31.114  23.441  26.532  1.00  0.00     0.101 C 
ATOM     75  N   UNL A   1      32.130  25.125  24.976  1.00  0.00    -0.332 N 
ATOM     76  C   UNL A   1      31.420  24.880  26.148  1.00  0.00     0.223 C 
ATOM     77  O   UNL A   1      30.964  25.775  26.861  1.00  0.00    -0.275 OA
BRANCH  73  78
ATOM     78  C   UNL A   1      34.228  23.831  24.507  1.00  0.00    -0.025 A 
ATOM     79  C   UNL A   1      34.711  23.825  25.827  1.00  0.00     0.006 A 
ATOM     80  C   UNL A   1      35.168  23.623  23.482  1.00  0.00     0.006 A 
ATOM     81  C   UNL A   1      36.064  23.607  26.106  1.00  0.00     0.000 A 
ATOM     82  C   UNL A   1      36.512  23.360  23.760  1.00  0.00     0.000 A 
ATOM     83  C   UNL A   1      36.962  23.357  25.074  1.00  0.00     0.000 A 
ENDBRANCH  73  78
BRANCH  75  84
ATOM     84  C   UNL A   1      32.375  26.520  24.535  1.00  0.00     0.085 C 
ATOM     85  C   UNL A   1      33.525  27.165  25.330  1.00  0.00     0.025 C 
ATOM     86  C   UNL A   1      32.566  26.648  23.010  1.00  0.00     0.025 C 
ATOM     87  C   UNL A   1      33.842  28.579  24.853  1.00  0.00     0.002 C 
ATOM     88  C   UNL A   1      32.909  28.071  22.579  1.00  0.00     0.002 C 
ATOM     89  C   UNL A   1      34.104  28.614  23.352  1.00  0.00     0.000 C 
ENDBRANCH  75  84
ENDBRANCH  68  71
ENDBRANCH  66  67
ENDBRANCH  65  66
ENDBRANCH  64  65
ENDBRANCH   1  64
TORSDOF 15
ENDMDL
MODEL 2
REMARK VINA RESULT:     -11.7      0.236      6.025
REMARK SMILES O=C(NCCCCCCNC(=O)[C@H]1CCC(=O)N(C2CCCCC2)[C@H]1c1ccccc1)c1ccc(-c2c3nc(c(-c4c(F)cccc4F)c4ccc([nH]4)c(-c4c(F)cccc4F)c4nc(c(-c5c(F)cccc5F)c5ccc2[nH]5)C=C4)C=C3)cc1
REMARK SMILES IDX 6 1 5 2 4 3 3 4 1 5 2 6 32 8 33 9 85 10 34 11 84 12 35 13
REMARK SMILES IDX 36 14 37 15 78 16 38 17 83 18 77 19 79 20 39 21 82 22 76 23
REMARK SMILES IDX 75 24 40 26 66 27 49 28 65 29 50 30 53 31 64 32 80 33 51 34
REMARK SMILES IDX 52 35 63 37 81 38 54 39 41 40 42 41 47 42 43 43 44 44 46 45
REMARK SMILES IDX 48 46 45 47 67 48 68 49 73 50 69 51 70 52 72 53 74 54 71 55
REMARK SMILES IDX 55 56 56 57 61 58 57 59 58 60 60 61 62 62 59 63 7 64 8 65
REMARK SMILES IDX 9 66 10 67 11 68 12 70 13 71 14 72 25 73 15 74 18 75 16 76
REMARK SMILES IDX 17 77 26 78 27 79 31 80 28 81 30 82 29 83 19 84 20 85 24 86
REMARK SMILES IDX 21 87 23 88 22 89
REMARK H PARENT 3 7 79 25 53 36 10 69
REMARK Flexibility Score: inf
ROOT
ATOM      1  C   UNL A   1      36.515  19.177  24.946  1.00  0.00     0.002 C 
ENDROOT
BRANCH   1   2
ATOM      2  C   UNL A   1      37.762  19.991  24.605  1.00  0.00     0.021 C 
BRANCH   2   3
ATOM      3  C   UNL A   1      38.726  20.204  25.762  1.00  0.00     0.116 C 
BRANCH   3   4
ATOM      4  N   UNL A   1      39.835  19.269  25.752  1.00  0.00    -0.352 N 
ATOM      5  O   UNL A   1      42.000  18.639  25.875  1.00  0.00    -0.269 OA
ATOM      6  C   UNL A   1      41.155  19.501  26.059  1.00  0.00     0.251 C 
ATOM      7  H   UNL A   1      39.614  18.346  25.491  1.00  0.00     0.163 HD
BRANCH   6   8
ATOM      8  C   UNL A   1      41.547  20.826  26.590  1.00  0.00     0.039 A 
ATOM      9  C   UNL A   1      41.471  21.095  27.958  1.00  0.00     0.014 A 
ATOM     10  C   UNL A   1      41.984  21.810  25.699  1.00  0.00     0.014 A 
ATOM     11  C   UNL A   1      41.708  22.384  28.421  1.00  0.00     0.010 A 
ATOM     12  C   UNL A   1      42.303  23.082  26.178  1.00  0.00     0.010 A 
ATOM     13  C   UNL A   1      42.144  23.385  27.539  1.00  0.00    -0.014 A 
BRANCH  13  14
ATOM     14  C   UNL A   1      42.502  24.721  28.076  1.00  0.00     0.031 A 
ATOM     15  C   UNL A   1      41.462  25.781  28.295  1.00  0.00     0.074 A 
ATOM     16  C   UNL A   1      43.792  24.962  28.381  1.00  0.00     0.049 A 
ATOM     17  N   UNL A   1      41.611  26.994  28.763  1.00  0.00    -0.248 NA
ATOM     18  C   UNL A   1      40.077  25.441  27.935  1.00  0.00     0.031 C 
ATOM     19  C   UNL A   1      44.890  24.010  28.199  1.00  0.00     0.029 A 
ATOM     20  N   UNL A   1      44.395  26.067  28.920  1.00  0.00    -0.354 N 
ATOM     21  C   UNL A   1      40.347  27.571  28.738  1.00  0.00     0.074 A 
ATOM     22  C   UNL A   1      39.446  26.582  28.184  1.00  0.00     0.031 C 
ATOM     23  C   UNL A   1      46.024  24.555  28.660  1.00  0.00     0.029 A 
ATOM     24  C   UNL A   1      45.745  25.912  29.113  1.00  0.00     0.049 A 
ATOM     25  H   UNL A   1      43.909  26.892  29.147  1.00  0.00     0.167 HD
ATOM     26  C   UNL A   1      39.976  28.809  29.144  1.00  0.00     0.037 A 
ATOM     27  C   UNL A   1      46.664  26.773  29.586  1.00  0.00     0.037 A 
ATOM     28  C   UNL A   1      40.878  29.785  29.702  1.00  0.00     0.049 A 
ATOM     29  C   UNL A   1      46.230  28.146  30.002  1.00  0.00     0.074 A 
ATOM     30  C   UNL A   1      40.592  31.052  30.181  1.00  0.00     0.029 A 
ATOM     31  N   UNL A   1      42.247  29.604  29.848  1.00  0.00    -0.354 N 
ATOM     32  N   UNL A   1      45.026  28.664  30.005  1.00  0.00    -0.248 NA
ATOM     33  C   UNL A   1      47.282  29.055  30.474  1.00  0.00     0.031 C 
ATOM     34  C   UNL A   1      41.792  31.654  30.576  1.00  0.00     0.029 A 
ATOM     35  C   UNL A   1      42.821  30.745  30.386  1.00  0.00     0.049 A 
ATOM     36  H   UNL A   1      42.737  28.785  29.606  1.00  0.00     0.167 HD
ATOM     37  C   UNL A   1      45.172  29.955  30.491  1.00  0.00     0.074 A 
ATOM     38  C   UNL A   1      46.578  30.133  30.790  1.00  0.00     0.031 C 
ATOM     39  C   UNL A   1      44.225  30.908  30.671  1.00  0.00     0.037 A 
BRANCH  26  40
ATOM     40  C   UNL A   1      38.532  29.188  28.978  1.00  0.00     0.057 A 
ATOM     41  C   UNL A   1      37.629  29.158  30.049  1.00  0.00     0.134 A 
ATOM     42  C   UNL A   1      38.047  29.623  27.737  1.00  0.00     0.134 A 
ATOM     43  F   UNL A   1      38.025  28.743  31.261  1.00  0.00    -0.206 F 
ATOM     44  C   UNL A   1      36.290  29.523  29.885  1.00  0.00     0.040 A 
ATOM     45  C   UNL A   1      36.717  30.011  27.567  1.00  0.00     0.040 A 
ATOM     46  F   UNL A   1      38.859  29.683  26.672  1.00  0.00    -0.206 F 
ATOM     47  C   UNL A   1      35.832  29.956  28.643  1.00  0.00     0.006 A 
ENDBRANCH  26  40
BRANCH  27  48
ATOM     48  C   UNL A   1      48.081  26.347  29.687  1.00  0.00     0.057 A 
ATOM     49  C   UNL A   1      48.575  25.758  30.856  1.00  0.00     0.134 A 
ATOM     50  C   UNL A   1      48.963  26.488  28.609  1.00  0.00     0.134 A 
ATOM     51  F   UNL A   1      47.780  25.610  31.925  1.00  0.00    -0.206 F 
ATOM     52  C   UNL A   1      49.899  25.328  30.951  1.00  0.00     0.040 A 
ATOM     53  C   UNL A   1      50.282  26.039  28.682  1.00  0.00     0.040 A 
ATOM     54  F   UNL A   1      48.545  27.036  27.458  1.00  0.00    -0.206 F 
ATOM     55  C   UNL A   1      50.754  25.461  29.858  1.00  0.00     0.006 A 
ENDBRANCH  27  48
BRANCH  39  56
ATOM     56  C   UNL A   1      44.683  32.220  31.235  1.00  0.00     0.057 A 
ATOM     57  C   UNL A   1      44.712  32.460  32.614  1.00  0.00     0.134 A 
ATOM     58  C   UNL A   1      45.115  33.248  30.387  1.00  0.00     0.134 A 
ATOM     59  F   UNL A   1      44.295  31.521  33.477  1.00  0.00    -0.206 F 
ATOM     60  C   UNL A   1      45.136  33.685  33.131  1.00  0.00     0.040 A 
ATOM     61  C   UNL A   1      45.564  34.468  30.894  1.00  0.00     0.040 A 
ATOM     62  F   UNL A   1      45.115  33.080  29.056  1.00  0.00    -0.206 F 
ATOM     63  C   UNL A   1      45.569  34.692  32.269  1.00  0.00     0.006 A 
ENDBRANCH  39  56
ENDBRANCH  13  14
ENDBRANCH   6   8
ENDBRANCH   3   4
ENDBRANCH   2   3
ENDBRANCH   1   2
BRANCH   1  64
ATOM     64  C   UNL A   1      35.194  19.945  24.881  1.00  0.00     0.002 C 
BRANCH  64  65
ATOM     65  C   UNL A   1      33.953  19.183  25.367  1.00  0.00     0.021 C 
BRANCH  65  66
ATOM     66  C   UNL A   1      32.619  19.693  24.826  1.00  0.00     0.116 C 
BRANCH  66  67
ATOM     67  N   UNL A   1      32.810  20.438  23.601  1.00  0.00    -0.356 N 
ATOM     68  C   UNL A   1      32.261  21.622  23.237  1.00  0.00     0.225 C 
ATOM     69  H   UNL A   1      33.420  20.030  22.944  1.00  0.00     0.163 HD
ATOM     70  O   UNL A   1      31.980  21.737  22.043  1.00  0.00    -0.275 OA
BRANCH  68  71
ATOM     71  C   UNL A   1      31.885  22.674  24.273  1.00  0.00     0.106 C 
ATOM     72  C   UNL A   1      31.925  22.251  25.739  1.00  0.00     0.026 C 
ATOM     73  C   UNL A   1      32.743  23.965  24.151  1.00  0.00     0.128 C 
ATOM     74  C   UNL A   1      31.212  23.309  26.560  1.00  0.00     0.101 C 
ATOM     75  N   UNL A   1      32.157  25.035  25.005  1.00  0.00    -0.332 N 
ATOM     76  C   UNL A   1      31.491  24.758  26.196  1.00  0.00     0.223 C 
ATOM     77  O   UNL A   1      31.053  25.634  26.944  1.00  0.00    -0.275 OA
BRANCH  73  78
ATOM     78  C   UNL A   1      34.247  23.772  24.433  1.00  0.00    -0.025 A 
ATOM     79  C   UNL A   1      34.785  23.793  25.732  1.00  0.00     0.006 A 
ATOM     80  C   UNL A   1      35.145  23.542  23.375  1.00  0.00     0.006 A 
ATOM     81  C   UNL A   1      36.148  23.581  25.960  1.00  0.00     0.000 A 
ATOM     82  C   UNL A   1      36.499  23.285  23.603  1.00  0.00     0.000 A 
ATOM     83  C   UNL A   1      37.003  23.309  24.897  1.00  0.00     0.000 A 
ENDBRANCH  73  78
BRANCH  75  84
ATOM     84  C   UNL A   1      32.373  26.441  24.585  1.00  0.00     0.085 C 
ATOM     85  C   UNL A   1      33.570  27.068  25.324  1.00  0.00     0.025 C 
ATOM     86  C   UNL A   1      32.468  26.609  23.055  1.00  0.00     0.025 C 
ATOM     87  C   UNL A   1      33.856  28.495  24.864  1.00  0.00     0.002 C 
ATOM     88  C   UNL A   1      32.784  28.043  22.640  1.00  0.00     0.002 C 
ATOM     89  C   UNL A   1      34.024  28.568  23.350  1.00  0.00     0.000 C 
ENDBRANCH  75  84
ENDBRANCH  68  71
ENDBRANCH  66  67
ENDBRANCH  65  66
ENDBRANCH  64  65
ENDBRANCH   1  64
TORSDOF 15
ENDMDL
MODEL 3
REMARK VINA RESULT:     -11.7      0.193      1.383
REMARK SMILES O=C(NCCCCCCNC(=O)[C@H]1CCC(=O)N(C2CCCCC2)[C@H]1c1ccccc1)c1ccc(-c2c3nc(c(-c4c(F)cccc4F)c4ccc([nH]4)c(-c4c(F)cccc4F)c4nc(c(-c5c(F)cccc5F)c5ccc2[nH]5)C=C4)C=C3)cc1
REMARK SMILES IDX 6 1 5 2 4 3 3 4 1 5 2 6 32 8 33 9 85 10 34 11 84 12 35 13
REMARK SMILES IDX 36 14 37 15 78 16 38 17 83 18 77 19 79 20 39 21 82 22 76 23
REMARK SMILES IDX 75 24 40 26 66 27 49 28 65 29 50 30 53 31 64 32 80 33 51 34
REMARK SMILES IDX 52 35 63 37 81 38 54 39 41 40 42 41 47 42 43 43 44 44 46 45
REMARK SMILES IDX 48 46 45 47 67 48 68 49 73 50 69 51 70 52 72 53 74 54 71 55
REMARK SMILES IDX 55 56 56 57 61 58 57 59 58 60 60 61 62 62 59 63 7 64 8 65
REMARK SMILES IDX 9 66 10 67 11 68 12 70 13 71 14 72 25 73 15 74 18 75 16 76
REMARK SMILES IDX 17 77 26 78 27 79 31 80 28 81 30 82 29 83 19 84 20 85 24 86
REMARK SMILES IDX 21 87 23 88 22 89
REMARK H PARENT 3 7 79 25 53 36 10 69
REMARK Flexibility Score: inf
ROOT
ATOM      1  C   UNL A   1      36.658  19.100  24.979  1.00  0.00     0.002 C 
ENDROOT
BRANCH   1   2
ATOM      2  C   UNL A   1      37.878  19.945  24.617  1.00  0.00     0.021 C 
BRANCH   2   3
ATOM      3  C   UNL A   1      38.852  20.189  25.760  1.00  0.00     0.116 C 
BRANCH   3   4
ATOM      4  N   UNL A   1      39.968  19.262  25.758  1.00  0.00    -0.352 N 
ATOM      5  O   UNL A   1      42.136  18.647  25.901  1.00  0.00    -0.269 OA
ATOM      6  C   UNL A   1      41.283  19.502  26.080  1.00  0.00     0.251 C 
ATOM      7  H   UNL A   1      39.756  18.338  25.490  1.00  0.00     0.163 HD
BRANCH   6   8
ATOM      8  C   UNL A   1      41.659  20.827  26.621  1.00  0.00     0.039 A 
ATOM      9  C   UNL A   1      41.564  21.090  27.989  1.00  0.00     0.014 A 
ATOM     10  C   UNL A   1      42.101  21.817  25.740  1.00  0.00     0.014 A 
ATOM     11  C   UNL A   1      41.787  22.379  28.460  1.00  0.00     0.010 A 
ATOM     12  C   UNL A   1      42.406  23.090  26.227  1.00  0.00     0.010 A 
ATOM     13  C   UNL A   1      42.228  23.386  27.588  1.00  0.00    -0.014 A 
BRANCH  13  14
ATOM     14  C   UNL A   1      42.570  24.722  28.135  1.00  0.00     0.031 A 
ATOM     15  C   UNL A   1      43.981  25.078  28.504  1.00  0.00     0.074 A 
ATOM     16  C   UNL A   1      41.581  25.625  28.281  1.00  0.00     0.049 A 
ATOM     17  N   UNL A   1      44.446  26.203  28.986  1.00  0.00    -0.248 NA
ATOM     18  C   UNL A   1      45.002  24.036  28.318  1.00  0.00     0.031 C 
ATOM     19  C   UNL A   1      40.171  25.386  27.966  1.00  0.00     0.029 A 
ATOM     20  N   UNL A   1      41.610  26.924  28.714  1.00  0.00    -0.354 N 
ATOM     21  C   UNL A   1      45.807  26.002  29.179  1.00  0.00     0.074 A 
ATOM     22  C   UNL A   1      46.089  24.638  28.785  1.00  0.00     0.031 C 
ATOM     23  C   UNL A   1      39.478  26.513  28.173  1.00  0.00     0.029 A 
ATOM     24  C   UNL A   1      40.380  27.533  28.692  1.00  0.00     0.049 A 
ATOM     25  H   UNL A   1      42.431  27.377  29.013  1.00  0.00     0.167 HD
ATOM     26  C   UNL A   1      46.732  26.878  29.638  1.00  0.00     0.037 A 
ATOM     27  C   UNL A   1      40.013  28.773  29.063  1.00  0.00     0.037 A 
ATOM     28  C   UNL A   1      46.444  28.238  30.021  1.00  0.00     0.049 A 
ATOM     29  C   UNL A   1      41.053  29.713  29.594  1.00  0.00     0.074 A 
ATOM     30  C   UNL A   1      47.320  29.216  30.459  1.00  0.00     0.029 A 
ATOM     31  N   UNL A   1      45.179  28.809  30.018  1.00  0.00    -0.354 N 
ATOM     32  N   UNL A   1      42.342  29.520  29.736  1.00  0.00    -0.248 NA
ATOM     33  C   UNL A   1      40.588  31.039  30.019  1.00  0.00     0.031 C 
ATOM     34  C   UNL A   1      46.579  30.364  30.763  1.00  0.00     0.029 A 
ATOM     35  C   UNL A   1      45.247  30.117  30.470  1.00  0.00     0.049 A 
ATOM     36  H   UNL A   1      44.354  28.352  29.735  1.00  0.00     0.167 HD
ATOM     37  C   UNL A   1      42.845  30.703  30.256  1.00  0.00     0.074 A 
ATOM     38  C   UNL A   1      41.725  31.614  30.385  1.00  0.00     0.031 C 
ATOM     39  C   UNL A   1      44.121  31.007  30.599  1.00  0.00     0.037 A 
BRANCH  26  40
ATOM     40  C   UNL A   1      48.145  26.386  29.774  1.00  0.00     0.057 A 
ATOM     41  C   UNL A   1      48.604  25.758  30.938  1.00  0.00     0.134 A 
ATOM     42  C   UNL A   1      49.049  26.512  28.709  1.00  0.00     0.134 A 
ATOM     43  F   UNL A   1      47.794  25.615  31.998  1.00  0.00    -0.206 F 
ATOM     44  C   UNL A   1      49.918  25.295  31.050  1.00  0.00     0.040 A 
ATOM     45  C   UNL A   1      50.357  26.033  28.801  1.00  0.00     0.040 A 
ATOM     46  F   UNL A   1      48.673  27.096  27.562  1.00  0.00    -0.206 F 
ATOM     47  C   UNL A   1      50.797  25.427  29.977  1.00  0.00     0.006 A 
ENDBRANCH  26  40
BRANCH  27  48
ATOM     48  C   UNL A   1      38.593  29.183  28.940  1.00  0.00     0.057 A 
ATOM     49  C   UNL A   1      38.076  29.633  27.721  1.00  0.00     0.134 A 
ATOM     50  C   UNL A   1      37.714  29.101  30.026  1.00  0.00     0.134 A 
ATOM     51  F   UNL A   1      38.875  29.745  26.649  1.00  0.00    -0.206 F 
ATOM     52  C   UNL A   1      36.735  29.994  27.586  1.00  0.00     0.040 A 
ATOM     53  C   UNL A   1      36.365  29.434  29.900  1.00  0.00     0.040 A 
ATOM     54  F   UNL A   1      38.148  28.666  31.219  1.00  0.00    -0.206 F 
ATOM     55  C   UNL A   1      35.874  29.886  28.678  1.00  0.00     0.006 A 
ENDBRANCH  27  48
BRANCH  39  56
ATOM     56  C   UNL A   1      44.370  32.389  31.126  1.00  0.00     0.057 A 
ATOM     57  C   UNL A   1      44.369  32.665  32.499  1.00  0.00     0.134 A 
ATOM     58  C   UNL A   1      44.631  33.450  30.250  1.00  0.00     0.134 A 
ATOM     59  F   UNL A   1      44.109  31.694  33.388  1.00  0.00    -0.206 F 
ATOM     60  C   UNL A   1      44.597  33.954  32.982  1.00  0.00     0.040 A 
ATOM     61  C   UNL A   1      44.885  34.737  30.723  1.00  0.00     0.040 A 
ATOM     62  F   UNL A   1      44.651  33.250  28.924  1.00  0.00    -0.206 F 
ATOM     63  C   UNL A   1      44.862  34.994  32.092  1.00  0.00     0.006 A 
ENDBRANCH  39  56
ENDBRANCH  13  14
ENDBRANCH   6   8
ENDBRANCH   3   4
ENDBRANCH   2   3
ENDBRANCH   1   2
BRANCH   1  64
ATOM     64  C   UNL A   1      35.318  19.837  24.947  1.00  0.00     0.002 C 
BRANCH  64  65
ATOM     65  C   UNL A   1      34.065  18.950  24.990  1.00  0.00     0.021 C 
BRANCH  65  66
ATOM     66  C   UNL A   1      32.743  19.674  24.744  1.00  0.00     0.116 C 
BRANCH  66  67
ATOM     67  N   UNL A   1      32.781  20.408  23.499  1.00  0.00    -0.356 N 
ATOM     68  C   UNL A   1      32.126  21.548  23.168  1.00  0.00     0.225 C 
ATOM     69  H   UNL A   1      33.359  20.028  22.797  1.00  0.00     0.163 HD
ATOM     70  O   UNL A   1      31.739  21.623  22.001  1.00  0.00    -0.275 OA
BRANCH  68  71
ATOM     71  C   UNL A   1      31.771  22.591  24.220  1.00  0.00     0.106 C 
ATOM     72  C   UNL A   1      31.794  22.144  25.679  1.00  0.00     0.026 C 
ATOM     73  C   UNL A   1      32.659  23.863  24.122  1.00  0.00     0.128 C 
ATOM     74  C   UNL A   1      31.103  23.205  26.514  1.00  0.00     0.101 C 
ATOM     75  N   UNL A   1      32.095  24.932  24.991  1.00  0.00    -0.332 N 
ATOM     76  C   UNL A   1      31.418  24.653  26.174  1.00  0.00     0.223 C 
ATOM     77  O   UNL A   1      30.997  25.526  26.935  1.00  0.00    -0.275 OA
BRANCH  73  78
ATOM     78  C   UNL A   1      34.157  23.630  24.407  1.00  0.00    -0.025 A 
ATOM     79  C   UNL A   1      35.107  23.458  23.385  1.00  0.00     0.006 A 
ATOM     80  C   UNL A   1      34.633  23.601  25.730  1.00  0.00     0.006 A 
ATOM     81  C   UNL A   1      36.464  23.281  23.673  1.00  0.00     0.000 A 
ATOM     82  C   UNL A   1      35.993  23.470  26.019  1.00  0.00     0.000 A 
ATOM     83  C   UNL A   1      36.910  23.305  24.989  1.00  0.00     0.000 A 
ENDBRANCH  73  78
BRANCH  75  84
ATOM     84  C   UNL A   1      32.346  26.340  24.595  1.00  0.00     0.085 C 
ATOM     85  C   UNL A   1      33.596  26.904  25.296  1.00  0.00     0.025 C 
ATOM     86  C   UNL A   1      32.384  26.542  23.067  1.00  0.00     0.025 C 
ATOM     87  C   UNL A   1      33.916  28.330  24.858  1.00  0.00     0.002 C 
ATOM     88  C   UNL A   1      32.735  27.973  22.672  1.00  0.00     0.002 C 
ATOM     89  C   UNL A   1      34.023  28.435  23.341  1.00  0.00     0.000 C 
ENDBRANCH  75  84
ENDBRANCH  68  71
ENDBRANCH  66  67
ENDBRANCH  65  66
ENDBRANCH  64  65
ENDBRANCH   1  64
TORSDOF 15
ENDMDL
