MODEL 1
REMARK VINA RESULT:     -12.0      0.000      0.000
REMARK SMILES C[C@@H](NC(=O)/C(=C/c1ccc(Cl)cc1)NC(=O)c1ccc(C(C)(C)C)cc1)C(=O)NCCCCCCNC(=O)c1ccc(-c2c3nc(c(-c4c(F)cccc4F)c4ccc([nH]4)c(-c4c(F)cccc4F)c4nc(c(-c5c(F)cccc5F)c5ccc2[nH]5)C=C4)C=C3)cc1
REMARK SMILES IDX 32 1 31 2 30 3 28 4 29 5 2 7 1 8 3 9 4 10 5 12 6 13 7 14
REMARK SMILES IDX 15 15 16 16 17 18 18 19 19 20 27 21 20 22 26 23 21 24 22 25
REMARK SMILES IDX 23 26 24 27 25 28 8 29 9 30 14 31 10 32 13 33 11 34 12 35
REMARK SMILES IDX 33 36 34 37 35 38 36 39 37 40 38 41 39 43 40 44 41 45 93 46
REMARK SMILES IDX 42 47 92 48 43 49 44 50 45 51 86 52 46 53 91 54 85 55 87 56
REMARK SMILES IDX 47 57 90 58 84 59 83 60 48 62 74 63 57 64 73 65 58 66 61 67
REMARK SMILES IDX 72 68 88 69 59 70 60 71 71 73 89 74 62 75 49 76 50 77 55 78
REMARK SMILES IDX 51 79 52 80 54 81 56 82 53 83 75 84 76 85 81 86 77 87 78 88
REMARK SMILES IDX 80 89 82 90 79 91 63 92 64 93 69 94 65 95 66 96 68 97 70 98
REMARK SMILES IDX 67 99
REMARK H PARENT 30 6 3 11 15 17 37 42 87 61 61 72
REMARK Flexibility Score: inf
ROOT
ATOM      1  C   UNL A   1      37.048  23.074  24.871  1.00  0.00     0.021 C 
ENDROOT
BRANCH   1   2
ATOM      2  C   UNL A   1      35.722  22.716  25.530  1.00  0.00     0.116 C 
BRANCH   2   3
ATOM      3  N   UNL A   1      35.159  21.540  24.907  1.00  0.00    -0.354 N 
ATOM      4  C   UNL A   1      33.997  20.895  25.181  1.00  0.00     0.242 C 
ATOM      5  O   UNL A   1      33.770  19.839  24.585  1.00  0.00    -0.273 OA
ATOM      6  H   UNL A   1      35.695  21.150  24.179  1.00  0.00     0.163 HD
BRANCH   4   7
ATOM      7  C   UNL A   1      33.044  21.387  26.285  1.00  0.00     0.168 C 
ATOM      8  C   UNL A   1      33.875  22.223  27.265  1.00  0.00     0.041 C 
BRANCH   7   9
ATOM      9  N   UNL A   1      31.816  22.102  25.890  1.00  0.00    -0.339 N 
ATOM     10  C   UNL A   1      31.709  22.934  24.792  1.00  0.00     0.268 C 
ATOM     11  H   UNL A   1      31.015  21.978  26.448  1.00  0.00     0.164 HD
ATOM     12  O   UNL A   1      30.953  22.632  23.873  1.00  0.00    -0.268 OA
BRANCH  10  13
ATOM     13  C   UNL A   1      32.373  24.284  24.848  1.00  0.00     0.107 C 
ATOM     14  C   UNL A   1      32.253  24.962  26.005  1.00  0.00     0.040 C 
BRANCH  13  15
ATOM     15  N   UNL A   1      33.146  24.765  23.809  1.00  0.00    -0.317 N 
ATOM     16  C   UNL A   1      33.056  25.811  22.924  1.00  0.00     0.255 C 
ATOM     17  H   UNL A   1      33.960  24.228  23.670  1.00  0.00     0.170 HD
ATOM     18  O   UNL A   1      33.909  25.921  22.042  1.00  0.00    -0.269 OA
BRANCH  16  19
ATOM     19  C   UNL A   1      31.979  26.802  22.970  1.00  0.00     0.040 A 
ATOM     20  C   UNL A   1      32.330  28.150  22.974  1.00  0.00     0.014 A 
ATOM     21  C   UNL A   1      30.644  26.418  23.064  1.00  0.00     0.014 A 
ATOM     22  C   UNL A   1      31.329  29.120  22.955  1.00  0.00     0.005 A 
ATOM     23  C   UNL A   1      29.646  27.397  23.037  1.00  0.00     0.005 A 
ATOM     24  C   UNL A   1      29.966  28.764  22.933  1.00  0.00    -0.043 A 
BRANCH  24  25
ATOM     25  C   UNL A   1      28.897  29.859  22.777  1.00  0.00    -0.013 C 
ATOM     26  C   UNL A   1      27.500  29.253  23.010  1.00  0.00     0.016 C 
ATOM     27  C   UNL A   1      29.143  30.985  23.810  1.00  0.00     0.016 C 
ATOM     28  C   UNL A   1      28.901  30.528  21.384  1.00  0.00     0.016 C 
ENDBRANCH  24  25
ENDBRANCH  16  19
ENDBRANCH  13  15
BRANCH  14  29
ATOM     29  C   UNL A   1      32.575  26.371  26.331  1.00  0.00    -0.023 A 
ATOM     30  C   UNL A   1      33.855  26.930  26.190  1.00  0.00     0.010 A 
ATOM     31  C   UNL A   1      31.515  27.239  26.633  1.00  0.00     0.010 A 
ATOM     32  C   UNL A   1      34.082  28.295  26.397  1.00  0.00     0.021 A 
ATOM     33  C   UNL A   1      31.733  28.608  26.823  1.00  0.00     0.021 A 
ATOM     34  C   UNL A   1      33.018  29.130  26.711  1.00  0.00     0.041 A 
ATOM     35  Cl  UNL A   1      33.287  30.812  26.931  1.00  0.00    -0.084 Cl
ENDBRANCH  14  29
ENDBRANCH  10  13
ENDBRANCH   7   9
ENDBRANCH   4   7
ENDBRANCH   2   3
ENDBRANCH   1   2
BRANCH   1  36
ATOM     36  C   UNL A   1      38.069  23.651  25.858  1.00  0.00     0.002 C 
BRANCH  36  37
ATOM     37  C   UNL A   1      38.954  22.601  26.538  1.00  0.00     0.002 C 
BRANCH  37  38
ATOM     38  C   UNL A   1      39.274  21.371  25.691  1.00  0.00     0.021 C 
BRANCH  38  39
ATOM     39  C   UNL A   1      39.557  20.108  26.491  1.00  0.00     0.116 C 
BRANCH  39  40
ATOM     40  N   UNL A   1      40.687  19.360  25.969  1.00  0.00    -0.352 N 
ATOM     41  C   UNL A   1      41.995  19.765  25.839  1.00  0.00     0.251 C 
ATOM     42  H   UNL A   1      40.491  18.444  25.668  1.00  0.00     0.163 HD
ATOM     43  O   UNL A   1      42.808  19.080  25.242  1.00  0.00    -0.269 OA
BRANCH  41  44
ATOM     44  C   UNL A   1      42.392  21.066  26.416  1.00  0.00     0.039 A 
ATOM     45  C   UNL A   1      42.768  22.098  25.555  1.00  0.00     0.014 A 
ATOM     46  C   UNL A   1      42.348  21.272  27.798  1.00  0.00     0.014 A 
ATOM     47  C   UNL A   1      43.047  23.360  26.080  1.00  0.00     0.010 A 
ATOM     48  C   UNL A   1      42.546  22.549  28.309  1.00  0.00     0.010 A 
ATOM     49  C   UNL A   1      42.905  23.604  27.455  1.00  0.00    -0.014 A 
BRANCH  49  50
ATOM     50  C   UNL A   1      43.138  24.953  28.025  1.00  0.00     0.031 A 
ATOM     51  C   UNL A   1      44.524  25.366  28.434  1.00  0.00     0.074 A 
ATOM     52  C   UNL A   1      42.095  25.780  28.229  1.00  0.00     0.049 A 
ATOM     53  N   UNL A   1      44.924  26.475  29.002  1.00  0.00    -0.248 NA
ATOM     54  C   UNL A   1      45.601  24.390  28.200  1.00  0.00     0.031 C 
ATOM     55  C   UNL A   1      40.697  25.476  27.919  1.00  0.00     0.029 A 
ATOM     56  N   UNL A   1      42.050  27.047  28.755  1.00  0.00    -0.354 N 
ATOM     57  C   UNL A   1      46.290  26.324  29.204  1.00  0.00     0.074 A 
ATOM     58  C   UNL A   1      46.640  24.994  28.755  1.00  0.00     0.031 C 
ATOM     59  C   UNL A   1      39.937  26.537  28.230  1.00  0.00     0.029 A 
ATOM     60  C   UNL A   1      40.784  27.580  28.799  1.00  0.00     0.049 A 
ATOM     61  H   UNL A   1      42.849  27.529  29.070  1.00  0.00     0.167 HD
ATOM     62  C   UNL A   1      47.177  27.222  29.693  1.00  0.00     0.037 A 
ATOM     63  C   UNL A   1      40.358  28.774  29.250  1.00  0.00     0.037 A 
ATOM     64  C   UNL A   1      46.827  28.552  30.115  1.00  0.00     0.049 A 
ATOM     65  C   UNL A   1      41.361  29.749  29.804  1.00  0.00     0.074 A 
ATOM     66  C   UNL A   1      47.659  29.559  30.570  1.00  0.00     0.029 A 
ATOM     67  N   UNL A   1      45.535  29.058  30.137  1.00  0.00    -0.354 N 
ATOM     68  N   UNL A   1      42.660  29.621  29.923  1.00  0.00    -0.248 NA
ATOM     69  C   UNL A   1      40.838  31.037  30.280  1.00  0.00     0.031 C 
ATOM     70  C   UNL A   1      46.865  30.659  30.914  1.00  0.00     0.029 A 
ATOM     71  C   UNL A   1      45.545  30.356  30.623  1.00  0.00     0.049 A 
ATOM     72  H   UNL A   1      44.731  28.569  29.851  1.00  0.00     0.167 HD
ATOM     73  C   UNL A   1      43.113  30.820  30.457  1.00  0.00     0.074 A 
ATOM     74  C   UNL A   1      41.951  31.667  30.627  1.00  0.00     0.031 C 
ATOM     75  C   UNL A   1      44.379  31.188  30.777  1.00  0.00     0.037 A 
BRANCH  62  76
ATOM     76  C   UNL A   1      48.611  26.790  29.796  1.00  0.00     0.057 A 
ATOM     77  C   UNL A   1      49.524  26.999  28.752  1.00  0.00     0.134 A 
ATOM     78  C   UNL A   1      49.093  26.177  30.959  1.00  0.00     0.134 A 
ATOM     79  F   UNL A   1      49.126  27.569  27.605  1.00  0.00    -0.206 F 
ATOM     80  C   UNL A   1      50.854  26.584  28.850  1.00  0.00     0.040 A 
ATOM     81  C   UNL A   1      50.428  25.786  31.080  1.00  0.00     0.040 A 
ATOM     82  F   UNL A   1      48.275  25.950  31.999  1.00  0.00    -0.206 F 
ATOM     83  C   UNL A   1      51.309  25.982  30.020  1.00  0.00     0.006 A 
ENDBRANCH  62  76
BRANCH  63  84
ATOM     84  C   UNL A   1      38.918  29.129  29.175  1.00  0.00     0.057 A 
ATOM     85  C   UNL A   1      38.088  29.016  30.298  1.00  0.00     0.134 A 
ATOM     86  C   UNL A   1      38.334  29.577  27.984  1.00  0.00     0.134 A 
ATOM     87  F   UNL A   1      38.587  28.575  31.462  1.00  0.00    -0.206 F 
ATOM     88  C   UNL A   1      36.727  29.315  30.235  1.00  0.00     0.040 A 
ATOM     89  C   UNL A   1      36.978  29.904  27.914  1.00  0.00     0.040 A 
ATOM     90  F   UNL A   1      39.074  29.713  26.876  1.00  0.00    -0.206 F 
ATOM     91  C   UNL A   1      36.169  29.765  29.040  1.00  0.00     0.006 A 
ENDBRANCH  63  84
BRANCH  75  92
ATOM     92  C   UNL A   1      44.576  32.579  31.307  1.00  0.00     0.057 A 
ATOM     93  C   UNL A   1      44.571  32.858  32.679  1.00  0.00     0.134 A 
ATOM     94  C   UNL A   1      44.812  33.646  30.430  1.00  0.00     0.134 A 
ATOM     95  F   UNL A   1      44.338  31.883  33.571  1.00  0.00    -0.206 F 
ATOM     96  C   UNL A   1      44.770  34.153  33.159  1.00  0.00     0.040 A 
ATOM     97  C   UNL A   1      45.042  34.940  30.900  1.00  0.00     0.040 A 
ATOM     98  F   UNL A   1      44.839  33.445  29.104  1.00  0.00    -0.206 F 
ATOM     99  C   UNL A   1      45.014  35.196  32.269  1.00  0.00     0.006 A 
ENDBRANCH  75  92
ENDBRANCH  49  50
ENDBRANCH  41  44
ENDBRANCH  39  40
ENDBRANCH  38  39
ENDBRANCH  37  38
ENDBRANCH  36  37
ENDBRANCH   1  36
TORSDOF 19
ENDMDL
MODEL 2
REMARK VINA RESULT:     -11.5      3.051      4.970
REMARK SMILES C[C@@H](NC(=O)/C(=C/c1ccc(Cl)cc1)NC(=O)c1ccc(C(C)(C)C)cc1)C(=O)NCCCCCCNC(=O)c1ccc(-c2c3nc(c(-c4c(F)cccc4F)c4ccc([nH]4)c(-c4c(F)cccc4F)c4nc(c(-c5c(F)cccc5F)c5ccc2[nH]5)C=C4)C=C3)cc1
REMARK SMILES IDX 32 1 31 2 30 3 28 4 29 5 2 7 1 8 3 9 4 10 5 12 6 13 7 14
REMARK SMILES IDX 15 15 16 16 17 18 18 19 19 20 27 21 20 22 26 23 21 24 22 25
REMARK SMILES IDX 23 26 24 27 25 28 8 29 9 30 14 31 10 32 13 33 11 34 12 35
REMARK SMILES IDX 33 36 34 37 35 38 36 39 37 40 38 41 39 43 40 44 41 45 93 46
REMARK SMILES IDX 42 47 92 48 43 49 44 50 45 51 86 52 46 53 91 54 85 55 87 56
REMARK SMILES IDX 47 57 90 58 84 59 83 60 48 62 74 63 57 64 73 65 58 66 61 67
REMARK SMILES IDX 72 68 88 69 59 70 60 71 71 73 89 74 62 75 49 76 50 77 55 78
REMARK SMILES IDX 51 79 52 80 54 81 56 82 53 83 75 84 76 85 81 86 77 87 78 88
REMARK SMILES IDX 80 89 82 90 79 91 63 92 64 93 69 94 65 95 66 96 68 97 70 98
REMARK SMILES IDX 67 99
REMARK H PARENT 30 6 3 11 15 17 37 42 87 61 61 72
REMARK Flexibility Score: inf
ROOT
ATOM      1  C   UNL A   1      41.443  21.707  26.112  1.00  0.00     0.021 C 
ENDROOT
BRANCH   1   2
ATOM      2  C   UNL A   1      39.995  21.867  26.556  1.00  0.00     0.116 C 
BRANCH   2   3
ATOM      3  N   UNL A   1      39.701  23.261  26.801  1.00  0.00    -0.354 N 
ATOM      4  C   UNL A   1      38.551  23.948  26.580  1.00  0.00     0.242 C 
ATOM      5  O   UNL A   1      38.565  25.168  26.769  1.00  0.00    -0.273 OA
ATOM      6  H   UNL A   1      40.439  23.787  27.184  1.00  0.00     0.163 HD
BRANCH   4   7
ATOM      7  C   UNL A   1      37.304  23.265  25.995  1.00  0.00     0.168 C 
ATOM      8  C   UNL A   1      36.100  24.159  26.317  1.00  0.00     0.041 C 
BRANCH   7   9
ATOM      9  N   UNL A   1      37.311  22.883  24.570  1.00  0.00    -0.339 N 
ATOM     10  C   UNL A   1      36.214  22.946  23.733  1.00  0.00     0.268 C 
ATOM     11  H   UNL A   1      38.160  22.562  24.187  1.00  0.00     0.164 HD
ATOM     12  O   UNL A   1      36.226  23.711  22.773  1.00  0.00    -0.268 OA
BRANCH  10  13
ATOM     13  C   UNL A   1      35.119  21.928  23.909  1.00  0.00     0.107 C 
ATOM     14  C   UNL A   1      35.380  20.909  24.750  1.00  0.00     0.040 C 
BRANCH  13  15
ATOM     15  N   UNL A   1      33.878  22.075  23.321  1.00  0.00    -0.317 N 
ATOM     16  C   UNL A   1      32.868  23.004  23.383  1.00  0.00     0.255 C 
ATOM     17  H   UNL A   1      33.666  21.334  22.708  1.00  0.00     0.170 HD
ATOM     18  O   UNL A   1      31.824  22.792  22.765  1.00  0.00    -0.269 OA
BRANCH  16  19
ATOM     19  C   UNL A   1      32.970  24.238  24.163  1.00  0.00     0.040 A 
ATOM     20  C   UNL A   1      33.486  25.370  23.535  1.00  0.00     0.014 A 
ATOM     21  C   UNL A   1      32.616  24.276  25.510  1.00  0.00     0.014 A 
ATOM     22  C   UNL A   1      33.538  26.577  24.230  1.00  0.00     0.005 A 
ATOM     23  C   UNL A   1      32.665  25.493  26.197  1.00  0.00     0.005 A 
ATOM     24  C   UNL A   1      33.081  26.676  25.559  1.00  0.00    -0.043 A 
BRANCH  24  25
ATOM     25  C   UNL A   1      33.031  28.053  26.245  1.00  0.00    -0.013 C 
ATOM     26  C   UNL A   1      31.931  28.052  27.322  1.00  0.00     0.016 C 
ATOM     27  C   UNL A   1      34.395  28.359  26.908  1.00  0.00     0.016 C 
ATOM     28  C   UNL A   1      32.743  29.215  25.269  1.00  0.00     0.016 C 
ENDBRANCH  24  25
ENDBRANCH  16  19
ENDBRANCH  13  15
BRANCH  14  29
ATOM     29  C   UNL A   1      34.644  19.644  24.985  1.00  0.00    -0.023 A 
ATOM     30  C   UNL A   1      33.325  19.588  25.463  1.00  0.00     0.010 A 
ATOM     31  C   UNL A   1      35.229  18.448  24.546  1.00  0.00     0.010 A 
ATOM     32  C   UNL A   1      32.633  18.375  25.554  1.00  0.00     0.021 A 
ATOM     33  C   UNL A   1      34.536  17.234  24.616  1.00  0.00     0.021 A 
ATOM     34  C   UNL A   1      33.242  17.202  25.128  1.00  0.00     0.041 A 
ATOM     35  Cl  UNL A   1      32.382  15.716  25.205  1.00  0.00    -0.084 Cl
ENDBRANCH  14  29
ENDBRANCH  10  13
ENDBRANCH   7   9
ENDBRANCH   4   7
ENDBRANCH   2   3
ENDBRANCH   1   2
BRANCH   1  36
ATOM     36  C   UNL A   1      42.285  20.893  27.100  1.00  0.00     0.002 C 
BRANCH  36  37
ATOM     37  C   UNL A   1      41.905  19.410  27.182  1.00  0.00     0.002 C 
BRANCH  37  38
ATOM     38  C   UNL A   1      42.522  18.518  26.108  1.00  0.00     0.021 C 
BRANCH  38  39
ATOM     39  C   UNL A   1      44.043  18.544  26.060  1.00  0.00     0.116 C 
BRANCH  39  40
ATOM     40  N   UNL A   1      44.557  18.510  24.703  1.00  0.00    -0.352 N 
ATOM     41  C   UNL A   1      44.909  19.565  23.894  1.00  0.00     0.251 C 
ATOM     42  H   UNL A   1      44.669  17.614  24.310  1.00  0.00     0.163 HD
ATOM     43  O   UNL A   1      45.186  19.390  22.719  1.00  0.00    -0.269 OA
BRANCH  41  44
ATOM     44  C   UNL A   1      44.920  20.924  24.471  1.00  0.00     0.039 A 
ATOM     45  C   UNL A   1      45.585  21.139  25.680  1.00  0.00     0.014 A 
ATOM     46  C   UNL A   1      44.313  21.986  23.794  1.00  0.00     0.014 A 
ATOM     47  C   UNL A   1      45.689  22.435  26.183  1.00  0.00     0.010 A 
ATOM     48  C   UNL A   1      44.489  23.286  24.255  1.00  0.00     0.010 A 
ATOM     49  C   UNL A   1      45.172  23.521  25.458  1.00  0.00    -0.014 A 
BRANCH  49  50
ATOM     50  C   UNL A   1      45.325  24.914  25.947  1.00  0.00     0.031 A 
ATOM     51  C   UNL A   1      46.673  25.576  25.917  1.00  0.00     0.074 A 
ATOM     52  C   UNL A   1      44.264  25.557  26.471  1.00  0.00     0.049 A 
ATOM     53  N   UNL A   1      47.023  26.761  26.350  1.00  0.00    -0.248 NA
ATOM     54  C   UNL A   1      47.783  24.792  25.352  1.00  0.00     0.031 C 
ATOM     55  C   UNL A   1      42.915  25.003  26.599  1.00  0.00     0.029 A 
ATOM     56  N   UNL A   1      44.157  26.817  27.002  1.00  0.00    -0.354 N 
ATOM     57  C   UNL A   1      48.390  26.856  26.122  1.00  0.00     0.074 A 
ATOM     58  C   UNL A   1      48.818  25.588  25.571  1.00  0.00     0.031 C 
ATOM     59  C   UNL A   1      42.109  25.929  27.142  1.00  0.00     0.029 A 
ATOM     60  C   UNL A   1      42.891  27.125  27.438  1.00  0.00     0.049 A 
ATOM     61  H   UNL A   1      44.915  27.442  27.064  1.00  0.00     0.167 HD
ATOM     62  C   UNL A   1      49.210  27.913  26.328  1.00  0.00     0.037 A 
ATOM     63  C   UNL A   1      42.417  28.246  28.014  1.00  0.00     0.037 A 
ATOM     64  C   UNL A   1      48.776  29.179  26.855  1.00  0.00     0.049 A 
ATOM     65  C   UNL A   1      43.352  29.402  28.246  1.00  0.00     0.074 A 
ATOM     66  C   UNL A   1      49.514  30.333  27.046  1.00  0.00     0.029 A 
ATOM     67  N   UNL A   1      47.483  29.456  27.278  1.00  0.00    -0.354 N 
ATOM     68  N   UNL A   1      44.627  29.505  27.961  1.00  0.00    -0.248 NA
ATOM     69  C   UNL A   1      42.778  30.599  28.877  1.00  0.00     0.031 C 
ATOM     70  C   UNL A   1      48.681  31.293  27.631  1.00  0.00     0.029 A 
ATOM     71  C   UNL A   1      47.411  30.755  27.754  1.00  0.00     0.049 A 
ATOM     72  H   UNL A   1      46.730  28.823  27.245  1.00  0.00     0.167 HD
ATOM     73  C   UNL A   1      45.001  30.785  28.346  1.00  0.00     0.074 A 
ATOM     74  C   UNL A   1      43.814  31.426  28.875  1.00  0.00     0.031 C 
ATOM     75  C   UNL A   1      46.218  31.379  28.269  1.00  0.00     0.037 A 
BRANCH  62  76
ATOM     76  C   UNL A   1      50.661  27.739  25.981  1.00  0.00     0.057 A 
ATOM     77  C   UNL A   1      51.616  27.393  26.947  1.00  0.00     0.134 A 
ATOM     78  C   UNL A   1      51.107  27.898  24.663  1.00  0.00     0.134 A 
ATOM     79  F   UNL A   1      51.260  27.238  28.231  1.00  0.00    -0.206 F 
ATOM     80  C   UNL A   1      52.966  27.244  26.621  1.00  0.00     0.040 A 
ATOM     81  C   UNL A   1      52.449  27.722  24.319  1.00  0.00     0.040 A 
ATOM     82  F   UNL A   1      50.246  28.225  23.687  1.00  0.00    -0.206 F 
ATOM     83  C   UNL A   1      53.383  27.402  25.301  1.00  0.00     0.006 A 
ENDBRANCH  62  76
BRANCH  63  84
ATOM     84  C   UNL A   1      40.983  28.343  28.387  1.00  0.00     0.057 A 
ATOM     85  C   UNL A   1      40.041  28.873  27.497  1.00  0.00     0.134 A 
ATOM     86  C   UNL A   1      40.520  27.923  29.640  1.00  0.00     0.134 A 
ATOM     87  F   UNL A   1      40.428  29.310  26.288  1.00  0.00    -0.206 F 
ATOM     88  C   UNL A   1      38.696  29.001  27.844  1.00  0.00     0.040 A 
ATOM     89  C   UNL A   1      39.173  28.021  29.991  1.00  0.00     0.040 A 
ATOM     90  F   UNL A   1      41.369  27.400  30.535  1.00  0.00    -0.206 F 
ATOM     91  C   UNL A   1      38.257  28.570  29.094  1.00  0.00     0.006 A 
ENDBRANCH  63  84
BRANCH  75  92
ATOM     92  C   UNL A   1      46.317  32.804  28.731  1.00  0.00     0.057 A 
ATOM     93  C   UNL A   1      46.688  33.135  30.040  1.00  0.00     0.134 A 
ATOM     94  C   UNL A   1      46.074  33.858  27.840  1.00  0.00     0.134 A 
ATOM     95  F   UNL A   1      46.922  32.173  30.945  1.00  0.00    -0.206 F 
ATOM     96  C   UNL A   1      46.791  34.464  30.453  1.00  0.00     0.040 A 
ATOM     97  C   UNL A   1      46.202  35.191  28.234  1.00  0.00     0.040 A 
ATOM     98  F   UNL A   1      45.724  33.609  26.569  1.00  0.00    -0.206 F 
ATOM     99  C   UNL A   1      46.555  35.496  29.546  1.00  0.00     0.006 A 
ENDBRANCH  75  92
ENDBRANCH  49  50
ENDBRANCH  41  44
ENDBRANCH  39  40
ENDBRANCH  38  39
ENDBRANCH  37  38
ENDBRANCH  36  37
ENDBRANCH   1  36
TORSDOF 19
ENDMDL
MODEL 3
REMARK VINA RESULT:     -11.2      4.803      9.362
REMARK SMILES C[C@@H](NC(=O)/C(=C/c1ccc(Cl)cc1)NC(=O)c1ccc(C(C)(C)C)cc1)C(=O)NCCCCCCNC(=O)c1ccc(-c2c3nc(c(-c4c(F)cccc4F)c4ccc([nH]4)c(-c4c(F)cccc4F)c4nc(c(-c5c(F)cccc5F)c5ccc2[nH]5)C=C4)C=C3)cc1
REMARK SMILES IDX 32 1 31 2 30 3 28 4 29 5 2 7 1 8 3 9 4 10 5 12 6 13 7 14
REMARK SMILES IDX 15 15 16 16 17 18 18 19 19 20 27 21 20 22 26 23 21 24 22 25
REMARK SMILES IDX 23 26 24 27 25 28 8 29 9 30 14 31 10 32 13 33 11 34 12 35
REMARK SMILES IDX 33 36 34 37 35 38 36 39 37 40 38 41 39 43 40 44 41 45 93 46
REMARK SMILES IDX 42 47 92 48 43 49 44 50 45 51 86 52 46 53 91 54 85 55 87 56
REMARK SMILES IDX 47 57 90 58 84 59 83 60 48 62 74 63 57 64 73 65 58 66 61 67
REMARK SMILES IDX 72 68 88 69 59 70 60 71 71 73 89 74 62 75 49 76 50 77 55 78
REMARK SMILES IDX 51 79 52 80 54 81 56 82 53 83 75 84 76 85 81 86 77 87 78 88
REMARK SMILES IDX 80 89 82 90 79 91 63 92 64 93 69 94 65 95 66 96 68 97 70 98
REMARK SMILES IDX 67 99
REMARK H PARENT 30 6 3 11 15 17 37 42 87 61 61 72
REMARK Flexibility Score: inf
ROOT
ATOM      1  C   UNL A   1      40.416  29.105  28.502  1.00  0.00     0.021 C 
ENDROOT
BRANCH   1   2
ATOM      2  C   UNL A   1      40.265  29.043  30.017  1.00  0.00     0.116 C 
BRANCH   2   3
ATOM      3  N   UNL A   1      40.304  30.376  30.575  1.00  0.00    -0.354 N 
ATOM      4  C   UNL A   1      39.878  30.813  31.787  1.00  0.00     0.242 C 
ATOM      5  O   UNL A   1      39.916  32.026  32.007  1.00  0.00    -0.273 OA
ATOM      6  H   UNL A   1      40.698  31.066  29.994  1.00  0.00     0.163 HD
BRANCH   4   7
ATOM      7  C   UNL A   1      39.249  29.854  32.813  1.00  0.00     0.168 C 
ATOM      8  C   UNL A   1      39.682  30.328  34.205  1.00  0.00     0.041 C 
BRANCH   7   9
ATOM      9  N   UNL A   1      37.792  29.625  32.763  1.00  0.00    -0.339 N 
ATOM     10  C   UNL A   1      36.967  30.026  31.730  1.00  0.00     0.268 C 
ATOM     11  H   UNL A   1      37.378  29.151  33.521  1.00  0.00     0.164 HD
ATOM     12  O   UNL A   1      36.385  29.181  31.056  1.00  0.00    -0.268 OA
BRANCH  10  13
ATOM     13  C   UNL A   1      36.653  31.491  31.591  1.00  0.00     0.107 C 
ATOM     14  C   UNL A   1      35.892  32.035  32.561  1.00  0.00     0.040 C 
BRANCH  13  15
ATOM     15  N   UNL A   1      37.191  32.265  30.581  1.00  0.00    -0.317 N 
ATOM     16  C   UNL A   1      37.026  32.354  29.221  1.00  0.00     0.255 C 
ATOM     17  H   UNL A   1      37.856  32.909  30.919  1.00  0.00     0.170 HD
ATOM     18  O   UNL A   1      37.739  33.129  28.582  1.00  0.00    -0.269 OA
BRANCH  16  19
ATOM     19  C   UNL A   1      36.042  31.557  28.486  1.00  0.00     0.040 A 
ATOM     20  C   UNL A   1      36.455  30.340  27.949  1.00  0.00     0.014 A 
ATOM     21  C   UNL A   1      34.745  32.020  28.275  1.00  0.00     0.014 A 
ATOM     22  C   UNL A   1      35.529  29.527  27.297  1.00  0.00     0.005 A 
ATOM     23  C   UNL A   1      33.821  31.195  27.626  1.00  0.00     0.005 A 
ATOM     24  C   UNL A   1      34.180  29.914  27.167  1.00  0.00    -0.043 A 
BRANCH  24  25
ATOM     25  C   UNL A   1      33.162  28.932  26.560  1.00  0.00    -0.013 C 
ATOM     26  C   UNL A   1      32.474  29.587  25.348  1.00  0.00     0.016 C 
ATOM     27  C   UNL A   1      33.885  27.643  26.103  1.00  0.00     0.016 C 
ATOM     28  C   UNL A   1      32.063  28.494  27.554  1.00  0.00     0.016 C 
ENDBRANCH  24  25
ENDBRANCH  16  19
ENDBRANCH  13  15
BRANCH  14  29
ATOM     29  C   UNL A   1      35.220  33.353  32.629  1.00  0.00    -0.023 A 
ATOM     30  C   UNL A   1      35.379  34.255  33.693  1.00  0.00     0.010 A 
ATOM     31  C   UNL A   1      34.523  33.799  31.496  1.00  0.00     0.010 A 
ATOM     32  C   UNL A   1      34.818  35.535  33.654  1.00  0.00     0.021 A 
ATOM     33  C   UNL A   1      33.976  35.086  31.443  1.00  0.00     0.021 A 
ATOM     34  C   UNL A   1      34.119  35.947  32.527  1.00  0.00     0.041 A 
ATOM     35  Cl  UNL A   1      33.458  37.532  32.462  1.00  0.00    -0.084 Cl
ENDBRANCH  14  29
ENDBRANCH  10  13
ENDBRANCH   7   9
ENDBRANCH   4   7
ENDBRANCH   2   3
ENDBRANCH   1   2
BRANCH   1  36
ATOM     36  C   UNL A   1      40.341  27.726  27.837  1.00  0.00     0.002 C 
BRANCH  36  37
ATOM     37  C   UNL A   1      39.850  26.605  28.760  1.00  0.00     0.002 C 
BRANCH  37  38
ATOM     38  C   UNL A   1      39.224  25.405  28.052  1.00  0.00     0.021 C 
BRANCH  38  39
ATOM     39  C   UNL A   1      39.747  25.156  26.646  1.00  0.00     0.116 C 
BRANCH  39  40
ATOM     40  N   UNL A   1      40.431  23.880  26.525  1.00  0.00    -0.352 N 
ATOM     41  C   UNL A   1      41.771  23.642  26.329  1.00  0.00     0.251 C 
ATOM     42  H   UNL A   1      39.860  23.081  26.591  1.00  0.00     0.163 HD
ATOM     43  O   UNL A   1      42.181  22.518  26.096  1.00  0.00    -0.269 OA
BRANCH  41  44
ATOM     44  C   UNL A   1      42.706  24.785  26.379  1.00  0.00     0.039 A 
ATOM     45  C   UNL A   1      43.275  25.137  27.604  1.00  0.00     0.014 A 
ATOM     46  C   UNL A   1      43.048  25.472  25.211  1.00  0.00     0.014 A 
ATOM     47  C   UNL A   1      44.236  26.147  27.648  1.00  0.00     0.010 A 
ATOM     48  C   UNL A   1      44.064  26.421  25.245  1.00  0.00     0.010 A 
ATOM     49  C   UNL A   1      44.662  26.772  26.465  1.00  0.00    -0.014 A 
BRANCH  49  50
ATOM     50  C   UNL A   1      45.725  27.807  26.482  1.00  0.00     0.031 A 
ATOM     51  C   UNL A   1      45.359  29.256  26.639  1.00  0.00     0.074 A 
ATOM     52  C   UNL A   1      47.009  27.446  26.296  1.00  0.00     0.049 A 
ATOM     53  N   UNL A   1      46.133  30.311  26.621  1.00  0.00    -0.248 NA
ATOM     54  C   UNL A   1      43.930  29.563  26.810  1.00  0.00     0.031 C 
ATOM     55  C   UNL A   1      47.484  26.078  26.085  1.00  0.00     0.029 A 
ATOM     56  N   UNL A   1      48.151  28.206  26.248  1.00  0.00    -0.354 N 
ATOM     57  C   UNL A   1      45.286  31.402  26.765  1.00  0.00     0.074 A 
ATOM     58  C   UNL A   1      43.934  30.887  26.806  1.00  0.00     0.031 C 
ATOM     59  C   UNL A   1      48.821  26.091  25.961  1.00  0.00     0.029 A 
ATOM     60  C   UNL A   1      49.293  27.469  26.043  1.00  0.00     0.049 A 
ATOM     61  H   UNL A   1      48.153  29.185  26.351  1.00  0.00     0.167 HD
ATOM     62  C   UNL A   1      45.606  32.712  26.879  1.00  0.00     0.037 A 
ATOM     63  C   UNL A   1      50.575  27.864  25.931  1.00  0.00     0.037 A 
ATOM     64  C   UNL A   1      46.953  33.217  26.861  1.00  0.00     0.049 A 
ATOM     65  C   UNL A   1      50.904  29.328  26.047  1.00  0.00     0.074 A 
ATOM     66  C   UNL A   1      47.388  34.520  27.029  1.00  0.00     0.029 A 
ATOM     67  N   UNL A   1      48.084  32.440  26.660  1.00  0.00    -0.354 N 
ATOM     68  N   UNL A   1      50.100  30.342  26.253  1.00  0.00    -0.248 NA
ATOM     69  C   UNL A   1      52.320  29.699  25.918  1.00  0.00     0.031 C 
ATOM     70  C   UNL A   1      48.779  34.538  26.880  1.00  0.00     0.029 A 
ATOM     71  C   UNL A   1      49.215  33.240  26.673  1.00  0.00     0.049 A 
ATOM     72  H   UNL A   1      48.083  31.465  26.527  1.00  0.00     0.167 HD
ATOM     73  C   UNL A   1      50.913  31.466  26.312  1.00  0.00     0.074 A 
ATOM     74  C   UNL A   1      52.274  31.007  26.130  1.00  0.00     0.031 C 
ATOM     75  C   UNL A   1      50.564  32.764  26.500  1.00  0.00     0.037 A 
BRANCH  62  76
ATOM     76  C   UNL A   1      44.475  33.688  27.033  1.00  0.00     0.057 A 
ATOM     77  C   UNL A   1      43.882  34.314  25.928  1.00  0.00     0.134 A 
ATOM     78  C   UNL A   1      43.957  33.991  28.299  1.00  0.00     0.134 A 
ATOM     79  F   UNL A   1      44.337  34.080  24.688  1.00  0.00    -0.206 F 
ATOM     80  C   UNL A   1      42.838  35.230  26.079  1.00  0.00     0.040 A 
ATOM     81  C   UNL A   1      42.893  34.881  28.459  1.00  0.00     0.040 A 
ATOM     82  F   UNL A   1      44.473  33.424  29.400  1.00  0.00    -0.206 F 
ATOM     83  C   UNL A   1      42.337  35.509  27.348  1.00  0.00     0.006 A 
ENDBRANCH  62  76
BRANCH  63  84
ATOM     84  C   UNL A   1      51.649  26.860  25.724  1.00  0.00     0.057 A 
ATOM     85  C   UNL A   1      52.251  26.214  26.812  1.00  0.00     0.134 A 
ATOM     86  C   UNL A   1      52.108  26.529  24.444  1.00  0.00     0.134 A 
ATOM     87  F   UNL A   1      51.866  26.503  28.064  1.00  0.00    -0.206 F 
ATOM     88  C   UNL A   1      53.283  25.292  26.636  1.00  0.00     0.040 A 
ATOM     89  C   UNL A   1      53.122  25.589  24.252  1.00  0.00     0.040 A 
ATOM     90  F   UNL A   1      51.569  27.106  23.361  1.00  0.00    -0.206 F 
ATOM     91  C   UNL A   1      53.719  24.973  25.352  1.00  0.00     0.006 A 
ENDBRANCH  63  84
BRANCH  75  92
ATOM     92  C   UNL A   1      51.675  33.771  26.557  1.00  0.00     0.057 A 
ATOM     93  C   UNL A   1      52.335  34.081  27.754  1.00  0.00     0.134 A 
ATOM     94  C   UNL A   1      52.115  34.412  25.391  1.00  0.00     0.134 A 
ATOM     95  F   UNL A   1      51.954  33.512  28.907  1.00  0.00    -0.206 F 
ATOM     96  C   UNL A   1      53.376  35.009  27.792  1.00  0.00     0.040 A 
ATOM     97  C   UNL A   1      53.175  35.320  25.412  1.00  0.00     0.040 A 
ATOM     98  F   UNL A   1      51.532  34.154  24.211  1.00  0.00    -0.206 F 
ATOM     99  C   UNL A   1      53.804  35.625  26.617  1.00  0.00     0.006 A 
ENDBRANCH  75  92
ENDBRANCH  49  50
ENDBRANCH  41  44
ENDBRANCH  39  40
ENDBRANCH  38  39
ENDBRANCH  37  38
ENDBRANCH  36  37
ENDBRANCH   1  36
TORSDOF 19
ENDMDL
