MODEL 1
REMARK VINA RESULT:     -13.1      0.000      0.000
REMARK SMILES Cc1c(CC(=O)N[C@H](CO)C(=O)NCCCCCCNC(=O)c2ccc(-c3c4nc(c(-c5c(F)cccc5F)c5ccc([nH]5)c(-c5c(F)cccc5F)c5nc(c(-c6c(F)cccc6F)c6ccc3[nH]6)C=C5)C=C4)cc2)cc(-c2ccc(S(C)(=O)=O)cc2)n1-c1cccc(F)c1
REMARK SMILES IDX 15 1 14 2 13 3 11 4 12 5 8 7 7 8 5 9 6 10 4 12 3 13 1 14
REMARK SMILES IDX 2 15 89 16 77 17 78 18 90 19 91 20 96 21 92 22 94 23 93 24
REMARK SMILES IDX 95 25 79 26 80 27 88 28 81 29 87 30 82 31 83 32 84 33 85 34
REMARK SMILES IDX 86 35 9 36 10 37 16 39 17 40 18 41 19 42 20 43 21 44 22 46
REMARK SMILES IDX 23 47 24 48 76 49 25 50 75 51 26 52 27 53 28 54 69 55 29 56
REMARK SMILES IDX 74 57 68 58 70 59 30 60 73 61 67 62 66 63 31 65 57 66 40 67
REMARK SMILES IDX 56 68 41 69 44 70 55 71 71 72 42 73 43 74 54 76 72 77 45 78
REMARK SMILES IDX 32 79 33 80 38 81 34 82 35 83 37 84 39 85 36 86 58 87 59 88
REMARK SMILES IDX 64 89 60 90 61 91 63 92 65 93 62 94 46 95 47 96 52 97 48 98
REMARK SMILES IDX 49 99 51 100 53 101 50 102
REMARK H PARENT 13 6 7 11 10 38 20 45 70 64 44 75
REMARK Flexibility Score: inf
ROOT
ATOM      1  C   UNL A   1      36.659  21.534  24.603  1.00  0.00     0.021 C 
ENDROOT
BRANCH   1   2
ATOM      2  C   UNL A   1      35.435  20.854  25.196  1.00  0.00     0.116 C 
BRANCH   2   3
ATOM      3  N   UNL A   1      35.540  19.415  25.182  1.00  0.00    -0.354 N 
ATOM      4  C   UNL A   1      34.765  18.489  24.547  1.00  0.00     0.244 C 
ATOM      5  O   UNL A   1      35.100  17.305  24.639  1.00  0.00    -0.273 OA
ATOM      6  H   UNL A   1      36.284  19.046  25.709  1.00  0.00     0.163 HD
BRANCH   4   7
ATOM      7  C   UNL A   1      33.505  18.897  23.756  1.00  0.00     0.197 C 
BRANCH   7   8
ATOM      8  N   UNL A   1      32.599  19.692  24.614  1.00  0.00    -0.342 N 
ATOM      9  C   UNL A   1      32.088  20.950  24.644  1.00  0.00     0.225 C 
ATOM     10  O   UNL A   1      31.190  21.150  25.470  1.00  0.00    -0.275 OA
ATOM     11  H   UNL A   1      32.277  19.161  25.379  1.00  0.00     0.164 HD
BRANCH   9  12
ATOM     12  C   UNL A   1      32.519  22.074  23.712  1.00  0.00     0.137 C 
BRANCH  12  13
ATOM     13  C   UNL A   1      32.091  23.427  24.188  1.00  0.00    -0.017 A 
ATOM     14  C   UNL A   1      33.744  23.810  26.147  1.00  0.00     0.065 C 
ATOM     15  C   UNL A   1      32.686  24.208  25.168  1.00  0.00     0.024 A 
ATOM     16  N   UNL A   1      32.079  25.460  25.149  1.00  0.00    -0.313 N 
ATOM     17  C   UNL A   1      30.968  24.156  23.712  1.00  0.00     0.033 A 
ATOM     18  C   UNL A   1      31.094  25.461  24.156  1.00  0.00     0.053 A 
BRANCH  16  19
ATOM     19  C   UNL A   1      32.398  26.563  25.984  1.00  0.00     0.049 A 
ATOM     20  C   UNL A   1      31.412  27.083  26.837  1.00  0.00     0.027 A 
ATOM     21  C   UNL A   1      33.661  27.158  25.921  1.00  0.00     0.065 A 
ATOM     22  C   UNL A   1      31.694  28.191  27.634  1.00  0.00     0.005 A 
ATOM     23  C   UNL A   1      33.920  28.269  26.714  1.00  0.00     0.125 A 
ATOM     24  C   UNL A   1      32.953  28.787  27.571  1.00  0.00     0.039 A 
ATOM     25  F   UNL A   1      35.117  28.864  26.637  1.00  0.00    -0.207 F 
ENDBRANCH  16  19
BRANCH  18  26
ATOM     26  C   UNL A   1      30.456  26.665  23.595  1.00  0.00    -0.001 A 
ATOM     27  C   UNL A   1      31.211  27.597  22.858  1.00  0.00     0.011 A 
ATOM     28  C   UNL A   1      29.081  26.885  23.747  1.00  0.00     0.011 A 
ATOM     29  C   UNL A   1      30.629  28.762  22.356  1.00  0.00     0.021 A 
ATOM     30  C   UNL A   1      28.488  28.046  23.241  1.00  0.00     0.021 A 
ATOM     31  C   UNL A   1      29.270  28.991  22.574  1.00  0.00     0.067 A 
BRANCH  31  32
ATOM     32  S   UNL A   1      28.544  30.494  21.959  1.00  0.00     0.175 S 
ATOM     33  C   UNL A   1      27.360  30.941  23.203  1.00  0.00     0.163 C 
ATOM     34  O   UNL A   1      29.583  31.489  21.930  1.00  0.00    -0.224 OA
ATOM     35  O   UNL A   1      27.794  30.151  20.753  1.00  0.00    -0.224 OA
ENDBRANCH  31  32
ENDBRANCH  18  26
ENDBRANCH  12  13
ENDBRANCH   9  12
ENDBRANCH   7   8
BRANCH   7  36
ATOM     36  C   UNL A   1      32.960  17.718  22.958  1.00  0.00     0.191 C 
BRANCH  36  37
ATOM     37  O   UNL A   1      31.723  18.012  22.315  1.00  0.00    -0.394 OA
ATOM     38  H   UNL A   1      31.289  18.750  22.772  1.00  0.00     0.210 HD
ENDBRANCH  36  37
ENDBRANCH   7  36
ENDBRANCH   4   7
ENDBRANCH   2   3
ENDBRANCH   1   2
BRANCH   1  39
ATOM     39  C   UNL A   1      37.994  20.901  24.998  1.00  0.00     0.002 C 
BRANCH  39  40
ATOM     40  C   UNL A   1      38.945  21.783  25.818  1.00  0.00     0.002 C 
BRANCH  40  41
ATOM     41  C   UNL A   1      40.148  21.094  26.485  1.00  0.00     0.021 C 
BRANCH  41  42
ATOM     42  C   UNL A   1      41.300  21.984  26.982  1.00  0.00     0.116 C 
BRANCH  42  43
ATOM     43  N   UNL A   1      41.993  22.727  25.960  1.00  0.00    -0.352 N 
ATOM     44  C   UNL A   1      42.209  24.095  25.940  1.00  0.00     0.251 C 
ATOM     45  H   UNL A   1      42.349  22.211  25.200  1.00  0.00     0.163 HD
ATOM     46  O   UNL A   1      42.883  24.577  25.033  1.00  0.00    -0.269 OA
BRANCH  44  47
ATOM     47  C   UNL A   1      41.571  24.999  26.966  1.00  0.00     0.039 A 
ATOM     48  C   UNL A   1      40.311  25.514  26.701  1.00  0.00     0.014 A 
ATOM     49  C   UNL A   1      42.240  25.512  28.091  1.00  0.00     0.014 A 
ATOM     50  C   UNL A   1      39.725  26.481  27.568  1.00  0.00     0.010 A 
ATOM     51  C   UNL A   1      41.671  26.558  28.925  1.00  0.00     0.010 A 
ATOM     52  C   UNL A   1      40.389  27.096  28.690  1.00  0.00    -0.014 A 
BRANCH  52  53
ATOM     53  C   UNL A   1      39.903  28.583  29.057  1.00  0.00     0.031 A 
ATOM     54  C   UNL A   1      41.208  29.272  29.300  1.00  0.00     0.074 A 
ATOM     55  C   UNL A   1      38.763  29.347  29.311  1.00  0.00     0.049 A 
ATOM     56  N   UNL A   1      42.024  28.807  30.209  1.00  0.00    -0.248 NA
ATOM     57  C   UNL A   1      41.834  30.153  28.313  1.00  0.00     0.031 C 
ATOM     58  C   UNL A   1      37.368  28.883  29.397  1.00  0.00     0.029 A 
ATOM     59  N   UNL A   1      38.561  30.745  29.557  1.00  0.00    -0.354 N 
ATOM     60  C   UNL A   1      43.168  29.557  30.114  1.00  0.00     0.074 A 
ATOM     61  C   UNL A   1      43.086  30.159  28.788  1.00  0.00     0.031 C 
ATOM     62  C   UNL A   1      36.490  29.924  29.517  1.00  0.00     0.029 A 
ATOM     63  C   UNL A   1      37.189  31.206  29.584  1.00  0.00     0.049 A 
ATOM     64  H   UNL A   1      39.316  31.360  29.700  1.00  0.00     0.167 HD
ATOM     65  C   UNL A   1      43.565  30.162  31.272  1.00  0.00     0.037 A 
ATOM     66  C   UNL A   1      36.642  32.485  29.719  1.00  0.00     0.037 A 
ATOM     67  C   UNL A   1      43.152  31.538  31.323  1.00  0.00     0.049 A 
ATOM     68  C   UNL A   1      37.669  33.312  30.355  1.00  0.00     0.074 A 
ATOM     69  C   UNL A   1      43.163  32.563  30.397  1.00  0.00     0.029 A 
ATOM     70  N   UNL A   1      42.196  31.864  32.260  1.00  0.00    -0.354 N 
ATOM     71  N   UNL A   1      37.891  33.264  31.631  1.00  0.00    -0.248 NA
ATOM     72  C   UNL A   1      38.453  34.288  29.608  1.00  0.00     0.031 C 
ATOM     73  C   UNL A   1      41.876  33.134  30.494  1.00  0.00     0.029 A 
ATOM     74  C   UNL A   1      41.318  32.772  31.712  1.00  0.00     0.049 A 
ATOM     75  H   UNL A   1      42.149  31.507  33.176  1.00  0.00     0.167 HD
ATOM     76  C   UNL A   1      39.150  33.760  31.726  1.00  0.00     0.074 A 
ATOM     77  C   UNL A   1      39.327  34.608  30.562  1.00  0.00     0.031 C 
ATOM     78  C   UNL A   1      40.048  32.969  32.356  1.00  0.00     0.037 A 
BRANCH  65  79
ATOM     79  C   UNL A   1      43.597  29.260  32.474  1.00  0.00     0.057 A 
ATOM     80  C   UNL A   1      44.831  28.870  32.994  1.00  0.00     0.134 A 
ATOM     81  C   UNL A   1      42.450  28.715  33.082  1.00  0.00     0.134 A 
ATOM     82  F   UNL A   1      45.967  29.403  32.518  1.00  0.00    -0.206 F 
ATOM     83  C   UNL A   1      44.924  27.926  34.022  1.00  0.00     0.040 A 
ATOM     84  C   UNL A   1      42.531  27.726  34.061  1.00  0.00     0.040 A 
ATOM     85  F   UNL A   1      41.220  29.153  32.768  1.00  0.00    -0.206 F 
ATOM     86  C   UNL A   1      43.775  27.323  34.531  1.00  0.00     0.006 A 
ENDBRANCH  65  79
BRANCH  66  87
ATOM     87  C   UNL A   1      35.342  33.328  29.599  1.00  0.00     0.057 A 
ATOM     88  C   UNL A   1      34.625  33.770  30.765  1.00  0.00     0.134 A 
ATOM     89  C   UNL A   1      35.015  34.059  28.452  1.00  0.00     0.134 A 
ATOM     90  F   UNL A   1      34.776  33.170  31.954  1.00  0.00    -0.206 F 
ATOM     91  C   UNL A   1      33.770  34.890  30.807  1.00  0.00     0.040 A 
ATOM     92  C   UNL A   1      34.127  35.171  28.476  1.00  0.00     0.040 A 
ATOM     93  F   UNL A   1      35.612  33.783  27.287  1.00  0.00    -0.206 F 
ATOM     94  C   UNL A   1      33.530  35.613  29.657  1.00  0.00     0.006 A 
ENDBRANCH  66  87
BRANCH  78  95
ATOM     95  C   UNL A   1      39.574  32.241  33.597  1.00  0.00     0.057 A 
ATOM     96  C   UNL A   1      38.843  31.037  33.655  1.00  0.00     0.134 A 
ATOM     97  C   UNL A   1      39.835  32.855  34.828  1.00  0.00     0.134 A 
ATOM     98  F   UNL A   1      38.600  30.293  32.566  1.00  0.00    -0.206 F 
ATOM     99  C   UNL A   1      38.341  30.527  34.861  1.00  0.00     0.040 A 
ATOM    100  C   UNL A   1      39.384  32.330  36.042  1.00  0.00     0.040 A 
ATOM    101  F   UNL A   1      40.556  33.986  34.875  1.00  0.00    -0.206 F 
ATOM    102  C   UNL A   1      38.613  31.173  36.060  1.00  0.00     0.006 A 
ENDBRANCH  78  95
ENDBRANCH  52  53
ENDBRANCH  44  47
ENDBRANCH  42  43
ENDBRANCH  41  42
ENDBRANCH  40  41
ENDBRANCH  39  40
ENDBRANCH   1  39
TORSDOF 21
ENDMDL
MODEL 2
REMARK VINA RESULT:     -12.7      1.748      2.447
REMARK SMILES Cc1c(CC(=O)N[C@H](CO)C(=O)NCCCCCCNC(=O)c2ccc(-c3c4nc(c(-c5c(F)cccc5F)c5ccc([nH]5)c(-c5c(F)cccc5F)c5nc(c(-c6c(F)cccc6F)c6ccc3[nH]6)C=C5)C=C4)cc2)cc(-c2ccc(S(C)(=O)=O)cc2)n1-c1cccc(F)c1
REMARK SMILES IDX 15 1 14 2 13 3 11 4 12 5 8 7 7 8 5 9 6 10 4 12 3 13 1 14
REMARK SMILES IDX 2 15 89 16 77 17 78 18 90 19 91 20 96 21 92 22 94 23 93 24
REMARK SMILES IDX 95 25 79 26 80 27 88 28 81 29 87 30 82 31 83 32 84 33 85 34
REMARK SMILES IDX 86 35 9 36 10 37 16 39 17 40 18 41 19 42 20 43 21 44 22 46
REMARK SMILES IDX 23 47 24 48 76 49 25 50 75 51 26 52 27 53 28 54 69 55 29 56
REMARK SMILES IDX 74 57 68 58 70 59 30 60 73 61 67 62 66 63 31 65 57 66 40 67
REMARK SMILES IDX 56 68 41 69 44 70 55 71 71 72 42 73 43 74 54 76 72 77 45 78
REMARK SMILES IDX 32 79 33 80 38 81 34 82 35 83 37 84 39 85 36 86 58 87 59 88
REMARK SMILES IDX 64 89 60 90 61 91 63 92 65 93 62 94 46 95 47 96 52 97 48 98
REMARK SMILES IDX 49 99 51 100 53 101 50 102
REMARK H PARENT 13 6 7 11 10 38 20 45 70 64 44 75
REMARK Flexibility Score: inf
ROOT
ATOM      1  C   UNL A   1      36.816  21.532  25.450  1.00  0.00     0.021 C 
ENDROOT
BRANCH   1   2
ATOM      2  C   UNL A   1      35.665  20.828  24.748  1.00  0.00     0.116 C 
BRANCH   2   3
ATOM      3  N   UNL A   1      35.645  19.409  25.007  1.00  0.00    -0.354 N 
ATOM      4  C   UNL A   1      34.738  18.465  24.624  1.00  0.00     0.244 C 
ATOM      5  O   UNL A   1      34.978  17.290  24.920  1.00  0.00    -0.273 OA
ATOM      6  H   UNL A   1      36.400  19.071  25.540  1.00  0.00     0.163 HD
BRANCH   4   7
ATOM      7  C   UNL A   1      33.451  18.842  23.863  1.00  0.00     0.197 C 
BRANCH   7   8
ATOM      8  N   UNL A   1      32.561  19.642  24.734  1.00  0.00    -0.342 N 
ATOM      9  C   UNL A   1      32.007  20.882  24.740  1.00  0.00     0.225 C 
ATOM     10  O   UNL A   1      31.144  21.086  25.602  1.00  0.00    -0.275 OA
ATOM     11  H   UNL A   1      32.295  19.133  25.534  1.00  0.00     0.164 HD
BRANCH   9  12
ATOM     12  C   UNL A   1      32.352  21.981  23.744  1.00  0.00     0.137 C 
BRANCH  12  13
ATOM     13  C   UNL A   1      31.942  23.343  24.208  1.00  0.00    -0.017 A 
ATOM     14  C   UNL A   1      33.771  23.835  25.978  1.00  0.00     0.065 C 
ATOM     15  C   UNL A   1      32.613  24.174  25.094  1.00  0.00     0.024 A 
ATOM     16  N   UNL A   1      31.979  25.412  25.088  1.00  0.00    -0.313 N 
ATOM     17  C   UNL A   1      30.762  24.032  23.819  1.00  0.00     0.033 A 
ATOM     18  C   UNL A   1      30.901  25.355  24.199  1.00  0.00     0.053 A 
BRANCH  16  19
ATOM     19  C   UNL A   1      32.354  26.554  25.845  1.00  0.00     0.049 A 
ATOM     20  C   UNL A   1      33.659  27.056  25.723  1.00  0.00     0.027 A 
ATOM     21  C   UNL A   1      31.455  27.138  26.741  1.00  0.00     0.065 A 
ATOM     22  C   UNL A   1      34.058  28.150  26.489  1.00  0.00     0.005 A 
ATOM     23  C   UNL A   1      31.875  28.219  27.505  1.00  0.00     0.125 A 
ATOM     24  C   UNL A   1      33.163  28.733  27.385  1.00  0.00     0.039 A 
ATOM     25  F   UNL A   1      31.029  28.766  28.388  1.00  0.00    -0.207 F 
ENDBRANCH  16  19
BRANCH  18  26
ATOM     26  C   UNL A   1      30.184  26.524  23.659  1.00  0.00    -0.001 A 
ATOM     27  C   UNL A   1      30.849  27.455  22.839  1.00  0.00     0.011 A 
ATOM     28  C   UNL A   1      28.820  26.709  23.915  1.00  0.00     0.011 A 
ATOM     29  C   UNL A   1      30.193  28.588  22.354  1.00  0.00     0.021 A 
ATOM     30  C   UNL A   1      28.152  27.838  23.428  1.00  0.00     0.021 A 
ATOM     31  C   UNL A   1      28.850  28.785  22.675  1.00  0.00     0.067 A 
BRANCH  31  32
ATOM     32  S   UNL A   1      28.031  30.248  22.080  1.00  0.00     0.175 S 
ATOM     33  C   UNL A   1      29.218  31.542  22.342  1.00  0.00     0.163 C 
ATOM     34  O   UNL A   1      27.833  30.080  20.665  1.00  0.00    -0.224 OA
ATOM     35  O   UNL A   1      26.905  30.508  22.974  1.00  0.00    -0.224 OA
ENDBRANCH  31  32
ENDBRANCH  18  26
ENDBRANCH  12  13
ENDBRANCH   9  12
ENDBRANCH   7   8
BRANCH   7  36
ATOM     36  C   UNL A   1      32.898  17.644  23.102  1.00  0.00     0.191 C 
BRANCH  36  37
ATOM     37  O   UNL A   1      33.903  16.937  22.380  1.00  0.00    -0.394 OA
ATOM     38  H   UNL A   1      34.590  16.636  22.994  1.00  0.00     0.210 HD
ENDBRANCH  36  37
ENDBRANCH   7  36
ENDBRANCH   4   7
ENDBRANCH   2   3
ENDBRANCH   1   2
BRANCH   1  39
ATOM     39  C   UNL A   1      38.207  21.082  25.002  1.00  0.00     0.002 C 
BRANCH  39  40
ATOM     40  C   UNL A   1      39.341  21.279  26.017  1.00  0.00     0.002 C 
BRANCH  40  41
ATOM     41  C   UNL A   1      40.377  20.147  26.146  1.00  0.00     0.021 C 
BRANCH  41  42
ATOM     42  C   UNL A   1      41.830  20.537  26.462  1.00  0.00     0.116 C 
BRANCH  42  43
ATOM     43  N   UNL A   1      42.500  21.308  25.446  1.00  0.00    -0.352 N 
ATOM     44  C   UNL A   1      42.722  22.674  25.461  1.00  0.00     0.251 C 
ATOM     45  H   UNL A   1      42.833  20.814  24.661  1.00  0.00     0.163 HD
ATOM     46  O   UNL A   1      43.375  23.180  24.551  1.00  0.00    -0.269 OA
BRANCH  44  47
ATOM     47  C   UNL A   1      42.116  23.550  26.530  1.00  0.00     0.039 A 
ATOM     48  C   UNL A   1      41.059  24.378  26.185  1.00  0.00     0.014 A 
ATOM     49  C   UNL A   1      42.667  23.727  27.811  1.00  0.00     0.014 A 
ATOM     50  C   UNL A   1      40.544  25.325  27.118  1.00  0.00     0.010 A 
ATOM     51  C   UNL A   1      42.191  24.750  28.728  1.00  0.00     0.010 A 
ATOM     52  C   UNL A   1      41.112  25.603  28.413  1.00  0.00    -0.014 A 
BRANCH  52  53
ATOM     53  C   UNL A   1      40.891  27.096  28.965  1.00  0.00     0.031 A 
ATOM     54  C   UNL A   1      42.246  27.694  28.755  1.00  0.00     0.074 A 
ATOM     55  C   UNL A   1      39.968  27.911  29.620  1.00  0.00     0.049 A 
ATOM     56  N   UNL A   1      43.291  27.139  29.310  1.00  0.00    -0.248 NA
ATOM     57  C   UNL A   1      42.553  28.585  27.635  1.00  0.00     0.031 C 
ATOM     58  C   UNL A   1      38.659  27.525  30.175  1.00  0.00     0.029 A 
ATOM     59  N   UNL A   1      39.964  29.305  29.958  1.00  0.00    -0.354 N 
ATOM     60  C   UNL A   1      44.382  27.825  28.841  1.00  0.00     0.074 A 
ATOM     61  C   UNL A   1      43.888  28.495  27.643  1.00  0.00     0.031 C 
ATOM     62  C   UNL A   1      37.954  28.609  30.621  1.00  0.00     0.029 A 
ATOM     63  C   UNL A   1      38.724  29.843  30.474  1.00  0.00     0.049 A 
ATOM     64  H   UNL A   1      40.764  29.867  29.844  1.00  0.00     0.167 HD
ATOM     65  C   UNL A   1      45.197  28.348  29.803  1.00  0.00     0.037 A 
ATOM     66  C   UNL A   1      38.349  31.143  30.823  1.00  0.00     0.037 A 
ATOM     67  C   UNL A   1      44.927  29.742  30.031  1.00  0.00     0.049 A 
ATOM     68  C   UNL A   1      39.590  31.877  31.082  1.00  0.00     0.074 A 
ATOM     69  C   UNL A   1      44.690  30.809  29.186  1.00  0.00     0.029 A 
ATOM     70  N   UNL A   1      44.381  30.076  31.251  1.00  0.00    -0.354 N 
ATOM     71  N   UNL A   1      40.236  31.753  32.199  1.00  0.00    -0.248 NA
ATOM     72  C   UNL A   1      40.134  32.841  30.134  1.00  0.00     0.031 C 
ATOM     73  C   UNL A   1      43.561  31.448  29.741  1.00  0.00     0.029 A 
ATOM     74  C   UNL A   1      43.434  31.059  31.067  1.00  0.00     0.049 A 
ATOM     75  H   UNL A   1      44.628  29.678  32.116  1.00  0.00     0.167 HD
ATOM     76  C   UNL A   1      41.482  32.170  31.862  1.00  0.00     0.074 A 
ATOM     77  C   UNL A   1      41.305  33.062  30.732  1.00  0.00     0.031 C 
ATOM     78  C   UNL A   1      42.484  31.298  32.118  1.00  0.00     0.037 A 
BRANCH  65  79
ATOM     79  C   UNL A   1      45.579  27.388  30.895  1.00  0.00     0.057 A 
ATOM     80  C   UNL A   1      46.890  26.915  30.952  1.00  0.00     0.134 A 
ATOM     81  C   UNL A   1      44.673  26.868  31.840  1.00  0.00     0.134 A 
ATOM     82  F   UNL A   1      47.828  27.418  30.134  1.00  0.00    -0.206 F 
ATOM     83  C   UNL A   1      47.267  25.918  31.858  1.00  0.00     0.040 A 
ATOM     84  C   UNL A   1      45.021  25.829  32.703  1.00  0.00     0.040 A 
ATOM     85  F   UNL A   1      43.439  27.377  31.976  1.00  0.00    -0.206 F 
ATOM     86  C   UNL A   1      46.323  25.346  32.709  1.00  0.00     0.006 A 
ENDBRANCH  65  79
BRANCH  66  87
ATOM     87  C   UNL A   1      37.152  32.065  31.187  1.00  0.00     0.057 A 
ATOM     88  C   UNL A   1      36.409  32.763  30.172  1.00  0.00     0.134 A 
ATOM     89  C   UNL A   1      36.455  31.961  32.394  1.00  0.00     0.134 A 
ATOM     90  F   UNL A   1      36.924  32.995  28.957  1.00  0.00    -0.206 F 
ATOM     91  C   UNL A   1      35.077  33.203  30.310  1.00  0.00     0.040 A 
ATOM     92  C   UNL A   1      35.121  32.431  32.556  1.00  0.00     0.040 A 
ATOM     93  F   UNL A   1      37.003  31.320  33.434  1.00  0.00    -0.206 F 
ATOM     94  C   UNL A   1      34.415  33.020  31.506  1.00  0.00     0.006 A 
ENDBRANCH  66  87
BRANCH  78  95
ATOM     95  C   UNL A   1      42.418  30.538  33.427  1.00  0.00     0.057 A 
ATOM     96  C   UNL A   1      41.680  29.368  33.701  1.00  0.00     0.134 A 
ATOM     97  C   UNL A   1      43.117  31.085  34.511  1.00  0.00     0.134 A 
ATOM     98  F   UNL A   1      41.038  28.685  32.742  1.00  0.00    -0.206 F 
ATOM     99  C   UNL A   1      41.590  28.830  34.992  1.00  0.00     0.040 A 
ATOM    100  C   UNL A   1      43.076  30.528  35.792  1.00  0.00     0.040 A 
ATOM    101  F   UNL A   1      43.876  32.178  34.337  1.00  0.00    -0.206 F 
ATOM    102  C   UNL A   1      42.291  29.409  36.043  1.00  0.00     0.006 A 
ENDBRANCH  78  95
ENDBRANCH  52  53
ENDBRANCH  44  47
ENDBRANCH  42  43
ENDBRANCH  41  42
ENDBRANCH  40  41
ENDBRANCH  39  40
ENDBRANCH   1  39
TORSDOF 21
ENDMDL
MODEL 3
REMARK VINA RESULT:     -11.2      2.623      4.003
REMARK SMILES Cc1c(CC(=O)N[C@H](CO)C(=O)NCCCCCCNC(=O)c2ccc(-c3c4nc(c(-c5c(F)cccc5F)c5ccc([nH]5)c(-c5c(F)cccc5F)c5nc(c(-c6c(F)cccc6F)c6ccc3[nH]6)C=C5)C=C4)cc2)cc(-c2ccc(S(C)(=O)=O)cc2)n1-c1cccc(F)c1
REMARK SMILES IDX 15 1 14 2 13 3 11 4 12 5 8 7 7 8 5 9 6 10 4 12 3 13 1 14
REMARK SMILES IDX 2 15 89 16 77 17 78 18 90 19 91 20 96 21 92 22 94 23 93 24
REMARK SMILES IDX 95 25 79 26 80 27 88 28 81 29 87 30 82 31 83 32 84 33 85 34
REMARK SMILES IDX 86 35 9 36 10 37 16 39 17 40 18 41 19 42 20 43 21 44 22 46
REMARK SMILES IDX 23 47 24 48 76 49 25 50 75 51 26 52 27 53 28 54 69 55 29 56
REMARK SMILES IDX 74 57 68 58 70 59 30 60 73 61 67 62 66 63 31 65 57 66 40 67
REMARK SMILES IDX 56 68 41 69 44 70 55 71 71 72 42 73 43 74 54 76 72 77 45 78
REMARK SMILES IDX 32 79 33 80 38 81 34 82 35 83 37 84 39 85 36 86 58 87 59 88
REMARK SMILES IDX 64 89 60 90 61 91 63 92 65 93 62 94 46 95 47 96 52 97 48 98
REMARK SMILES IDX 49 99 51 100 53 101 50 102
REMARK H PARENT 13 6 7 11 10 38 20 45 70 64 44 75
REMARK Flexibility Score: inf
ROOT
ATOM      1  C   UNL A   1      35.635  23.009  25.280  1.00  0.00     0.021 C 
ENDROOT
BRANCH   1   2
ATOM      2  C   UNL A   1      35.188  21.644  24.782  1.00  0.00     0.116 C 
BRANCH   2   3
ATOM      3  N   UNL A   1      34.116  21.730  23.820  1.00  0.00    -0.354 N 
ATOM      4  C   UNL A   1      32.814  21.337  23.927  1.00  0.00     0.244 C 
ATOM      5  O   UNL A   1      32.065  21.577  22.975  1.00  0.00    -0.273 OA
ATOM      6  H   UNL A   1      34.360  22.133  22.957  1.00  0.00     0.163 HD
BRANCH   4   7
ATOM      7  C   UNL A   1      32.292  20.602  25.179  1.00  0.00     0.197 C 
BRANCH   7   8
ATOM      8  N   UNL A   1      32.596  21.390  26.394  1.00  0.00    -0.342 N 
ATOM      9  C   UNL A   1      32.070  22.447  27.065  1.00  0.00     0.225 C 
ATOM     10  O   UNL A   1      32.553  22.676  28.180  1.00  0.00    -0.275 OA
ATOM     11  H   UNL A   1      33.405  21.053  26.843  1.00  0.00     0.164 HD
BRANCH   9  12
ATOM     12  C   UNL A   1      30.926  23.309  26.549  1.00  0.00     0.137 C 
BRANCH  12  13
ATOM     13  C   UNL A   1      31.384  24.621  25.992  1.00  0.00    -0.017 A 
ATOM     14  C   UNL A   1      29.950  24.773  23.838  1.00  0.00     0.065 C 
ATOM     15  C   UNL A   1      30.888  25.290  24.882  1.00  0.00     0.024 A 
ATOM     16  N   UNL A   1      31.472  26.552  24.844  1.00  0.00    -0.313 N 
ATOM     17  C   UNL A   1      32.437  25.420  26.512  1.00  0.00     0.033 A 
ATOM     18  C   UNL A   1      32.342  26.673  25.932  1.00  0.00     0.053 A 
BRANCH  16  19
ATOM     19  C   UNL A   1      31.229  27.562  23.875  1.00  0.00     0.049 A 
ATOM     20  C   UNL A   1      32.264  27.935  23.003  1.00  0.00     0.027 A 
ATOM     21  C   UNL A   1      29.995  28.214  23.824  1.00  0.00     0.065 A 
ATOM     22  C   UNL A   1      32.058  28.953  22.074  1.00  0.00     0.005 A 
ATOM     23  C   UNL A   1      29.812  29.234  22.899  1.00  0.00     0.125 A 
ATOM     24  C   UNL A   1      30.827  29.606  22.022  1.00  0.00     0.039 A 
ATOM     25  F   UNL A   1      28.642  29.885  22.863  1.00  0.00    -0.207 F 
ENDBRANCH  16  19
BRANCH  18  26
ATOM     26  C   UNL A   1      32.896  27.941  26.438  1.00  0.00    -0.001 A 
ATOM     27  C   UNL A   1      34.288  28.132  26.517  1.00  0.00     0.011 A 
ATOM     28  C   UNL A   1      32.052  28.995  26.809  1.00  0.00     0.011 A 
ATOM     29  C   UNL A   1      34.827  29.312  27.033  1.00  0.00     0.021 A 
ATOM     30  C   UNL A   1      32.583  30.184  27.320  1.00  0.00     0.021 A 
ATOM     31  C   UNL A   1      33.965  30.324  27.457  1.00  0.00     0.067 A 
BRANCH  31  32
ATOM     32  S   UNL A   1      34.660  31.811  28.143  1.00  0.00     0.175 S 
ATOM     33  C   UNL A   1      36.407  31.626  27.890  1.00  0.00     0.163 C 
ATOM     34  O   UNL A   1      34.191  32.910  27.342  1.00  0.00    -0.224 OA
ATOM     35  O   UNL A   1      34.426  31.773  29.584  1.00  0.00    -0.224 OA
ENDBRANCH  31  32
ENDBRANCH  18  26
ENDBRANCH  12  13
ENDBRANCH   9  12
ENDBRANCH   7   8
BRANCH   7  36
ATOM     36  C   UNL A   1      32.639  19.119  25.124  1.00  0.00     0.191 C 
BRANCH  36  37
ATOM     37  O   UNL A   1      32.956  18.579  26.404  1.00  0.00    -0.394 OA
ATOM     38  H   UNL A   1      33.920  18.542  26.509  1.00  0.00     0.210 HD
ENDBRANCH  36  37
ENDBRANCH   7  36
ENDBRANCH   4   7
ENDBRANCH   2   3
ENDBRANCH   1   2
BRANCH   1  39
ATOM     39  C   UNL A   1      36.860  23.580  24.562  1.00  0.00     0.002 C 
BRANCH  39  40
ATOM     40  C   UNL A   1      38.101  23.822  25.432  1.00  0.00     0.002 C 
BRANCH  40  41
ATOM     41  C   UNL A   1      38.495  22.712  26.424  1.00  0.00     0.021 C 
BRANCH  41  42
ATOM     42  C   UNL A   1      39.948  22.679  26.924  1.00  0.00     0.116 C 
BRANCH  42  43
ATOM     43  N   UNL A   1      40.927  22.255  25.954  1.00  0.00    -0.352 N 
ATOM     44  C   UNL A   1      42.131  22.877  25.673  1.00  0.00     0.251 C 
ATOM     45  H   UNL A   1      40.718  21.440  25.441  1.00  0.00     0.163 HD
ATOM     46  O   UNL A   1      42.897  22.353  24.867  1.00  0.00    -0.269 OA
BRANCH  44  47
ATOM     47  C   UNL A   1      42.477  24.215  26.280  1.00  0.00     0.039 A 
ATOM     48  C   UNL A   1      42.627  24.297  27.656  1.00  0.00     0.014 A 
ATOM     49  C   UNL A   1      42.472  25.429  25.570  1.00  0.00     0.014 A 
ATOM     50  C   UNL A   1      42.814  25.559  28.292  1.00  0.00     0.010 A 
ATOM     51  C   UNL A   1      42.581  26.718  26.233  1.00  0.00     0.010 A 
ATOM     52  C   UNL A   1      42.745  26.837  27.630  1.00  0.00    -0.014 A 
BRANCH  52  53
ATOM     53  C   UNL A   1      42.257  28.068  28.540  1.00  0.00     0.031 A 
ATOM     54  C   UNL A   1      43.548  28.780  28.794  1.00  0.00     0.074 A 
ATOM     55  C   UNL A   1      41.145  28.583  29.207  1.00  0.00     0.049 A 
ATOM     56  N   UNL A   1      44.538  28.141  29.359  1.00  0.00    -0.248 NA
ATOM     57  C   UNL A   1      43.938  29.992  28.072  1.00  0.00     0.031 C 
ATOM     58  C   UNL A   1      39.814  27.967  29.348  1.00  0.00     0.029 A 
ATOM     59  N   UNL A   1      40.919  29.799  29.932  1.00  0.00    -0.354 N 
ATOM     60  C   UNL A   1      45.606  29.002  29.343  1.00  0.00     0.074 A 
ATOM     61  C   UNL A   1      45.253  29.982  28.322  1.00  0.00     0.031 C 
ATOM     62  C   UNL A   1      38.920  28.814  29.942  1.00  0.00     0.029 A 
ATOM     63  C   UNL A   1      39.553  30.076  30.322  1.00  0.00     0.049 A 
ATOM     64  H   UNL A   1      41.655  30.415  30.152  1.00  0.00     0.167 HD
ATOM     65  C   UNL A   1      46.174  29.246  30.560  1.00  0.00     0.037 A 
ATOM     66  C   UNL A   1      38.974  31.178  30.957  1.00  0.00     0.037 A 
ATOM     67  C   UNL A   1      45.707  30.481  31.130  1.00  0.00     0.049 A 
ATOM     68  C   UNL A   1      40.055  31.865  31.665  1.00  0.00     0.074 A 
ATOM     69  C   UNL A   1      45.497  31.742  30.607  1.00  0.00     0.029 A 
ATOM     70  N   UNL A   1      44.922  30.386  32.257  1.00  0.00    -0.354 N 
ATOM     71  N   UNL A   1      40.507  31.438  32.802  1.00  0.00    -0.248 NA
ATOM     72  C   UNL A   1      40.639  33.107  31.173  1.00  0.00     0.031 C 
ATOM     73  C   UNL A   1      44.221  32.109  31.086  1.00  0.00     0.029 A 
ATOM     74  C   UNL A   1      43.913  31.320  32.185  1.00  0.00     0.049 A 
ATOM     75  H   UNL A   1      45.060  29.752  32.998  1.00  0.00     0.167 HD
ATOM     76  C   UNL A   1      41.735  32.011  32.861  1.00  0.00     0.074 A 
ATOM     77  C   UNL A   1      41.654  33.199  32.033  1.00  0.00     0.031 C 
ATOM     78  C   UNL A   1      42.773  31.162  33.045  1.00  0.00     0.037 A 
BRANCH  65  79
ATOM     79  C   UNL A   1      46.471  28.017  31.374  1.00  0.00     0.057 A 
ATOM     80  C   UNL A   1      47.795  27.605  31.518  1.00  0.00     0.134 A 
ATOM     81  C   UNL A   1      45.483  27.198  31.953  1.00  0.00     0.134 A 
ATOM     82  F   UNL A   1      48.798  28.370  31.060  1.00  0.00    -0.206 F 
ATOM     83  C   UNL A   1      48.120  26.397  32.146  1.00  0.00     0.040 A 
ATOM     84  C   UNL A   1      45.787  25.962  32.523  1.00  0.00     0.040 A 
ATOM     85  F   UNL A   1      44.200  27.590  32.015  1.00  0.00    -0.206 F 
ATOM     86  C   UNL A   1      47.113  25.555  32.615  1.00  0.00     0.006 A 
ENDBRANCH  65  79
BRANCH  66  87
ATOM     87  C   UNL A   1      37.632  31.868  31.327  1.00  0.00     0.057 A 
ATOM     88  C   UNL A   1      36.861  31.447  32.465  1.00  0.00     0.134 A 
ATOM     89  C   UNL A   1      37.295  33.154  30.890  1.00  0.00     0.134 A 
ATOM     90  F   UNL A   1      37.013  30.231  33.008  1.00  0.00    -0.206 F 
ATOM     91  C   UNL A   1      35.943  32.260  33.161  1.00  0.00     0.040 A 
ATOM     92  C   UNL A   1      36.345  33.972  31.565  1.00  0.00     0.040 A 
ATOM     93  F   UNL A   1      37.938  33.700  29.850  1.00  0.00    -0.206 F 
ATOM     94  C   UNL A   1      35.693  33.544  32.722  1.00  0.00     0.006 A 
ENDBRANCH  66  87
BRANCH  78  95
ATOM     95  C   UNL A   1      42.570  30.030  34.031  1.00  0.00     0.057 A 
ATOM     96  C   UNL A   1      41.927  28.797  33.797  1.00  0.00     0.134 A 
ATOM     97  C   UNL A   1      43.015  30.246  35.341  1.00  0.00     0.134 A 
ATOM     98  F   UNL A   1      41.532  28.416  32.573  1.00  0.00    -0.206 F 
ATOM     99  C   UNL A   1      41.679  27.879  34.826  1.00  0.00     0.040 A 
ATOM    100  C   UNL A   1      42.819  29.316  36.366  1.00  0.00     0.040 A 
ATOM    101  F   UNL A   1      43.670  31.376  35.650  1.00  0.00    -0.206 F 
ATOM    102  C   UNL A   1      42.127  28.136  36.116  1.00  0.00     0.006 A 
ENDBRANCH  78  95
ENDBRANCH  52  53
ENDBRANCH  44  47
ENDBRANCH  42  43
ENDBRANCH  41  42
ENDBRANCH  40  41
ENDBRANCH  39  40
ENDBRANCH   1  39
TORSDOF 21
ENDMDL
