MODEL 1
REMARK VINA RESULT:     -11.1      0.000      0.000
REMARK SMILES C[C@H]1[C@@H](C(=O)NCCCCCCNC(=O)c2ccc(-c3c4nc(c(-c5c(F)cccc5F)c5ccc([nH]5)c(-c5c(F)cccc5F)c5nc(c(-c6c(F)cccc6F)c6ccc3[nH]6)C=C5)C=C4)cc2)CCN1C(=O)NCC(C1CC1)C1CC1
REMARK SMILES IDX 8 1 7 2 6 3 4 4 5 5 3 7 1 8 2 9 72 10 70 11 71 12 73 13
REMARK SMILES IDX 74 14 75 15 76 17 77 18 78 19 79 20 80 21 81 22 82 23 83 24
REMARK SMILES IDX 9 25 10 26 11 27 12 28 13 29 14 30 15 32 16 33 17 34 69 35
REMARK SMILES IDX 18 36 68 37 19 38 20 39 21 40 62 41 22 42 67 43 61 44 63 45
REMARK SMILES IDX 23 46 66 47 60 48 59 49 24 51 50 52 33 53 49 54 34 55 37 56
REMARK SMILES IDX 48 57 64 58 35 59 36 60 47 62 65 63 38 64 25 65 26 66 31 67
REMARK SMILES IDX 27 68 28 69 30 70 32 71 29 72 51 73 52 74 57 75 53 76 54 77
REMARK SMILES IDX 56 78 58 79 55 80 39 81 40 82 45 83 41 84 42 85 44 86 46 87
REMARK SMILES IDX 43 88
REMARK H PARENT 6 6 75 16 13 31 63 50 37 61
REMARK Flexibility Score: inf
ROOT
ATOM      1  C   UNL A   1      32.673  29.169  24.410  1.00  0.00     0.021 C 
ENDROOT
BRANCH   1   2
ATOM      2  C   UNL A   1      33.972  28.368  24.249  1.00  0.00     0.116 C 
BRANCH   2   3
ATOM      3  N   UNL A   1      33.935  27.589  23.022  1.00  0.00    -0.356 N 
ATOM      4  C   UNL A   1      33.363  26.389  22.710  1.00  0.00     0.225 C 
ATOM      5  O   UNL A   1      33.641  25.925  21.601  1.00  0.00    -0.275 OA
ATOM      6  H   UNL A   1      34.415  28.006  22.270  1.00  0.00     0.163 HD
BRANCH   4   7
ATOM      7  C   UNL A   1      32.337  25.716  23.620  1.00  0.00     0.102 C 
ATOM      8  C   UNL A   1      34.268  24.609  25.004  1.00  0.00     0.032 C 
ATOM      9  C   UNL A   1      32.803  25.023  24.913  1.00  0.00     0.096 C 
ATOM     10  N   UNL A   1      32.002  23.817  25.038  1.00  0.00    -0.321 N 
ATOM     11  C   UNL A   1      31.468  24.654  22.910  1.00  0.00     0.037 C 
ATOM     12  C   UNL A   1      31.646  23.372  23.707  1.00  0.00     0.122 C 
BRANCH  10  13
ATOM     13  C   UNL A   1      31.800  23.004  26.113  1.00  0.00     0.317 C 
ATOM     14  O   UNL A   1      31.503  23.465  27.218  1.00  0.00    -0.249 OA
ATOM     15  N   UNL A   1      31.883  21.657  26.043  1.00  0.00    -0.338 N 
ATOM     16  H   UNL A   1      31.717  21.242  26.919  1.00  0.00     0.165 HD
BRANCH  15  17
ATOM     17  C   UNL A   1      32.154  20.649  25.017  1.00  0.00     0.121 C 
BRANCH  17  18
ATOM     18  C   UNL A   1      33.560  20.024  25.147  1.00  0.00     0.014 C 
BRANCH  18  19
ATOM     19  C   UNL A   1      33.792  18.826  24.240  1.00  0.00    -0.006 C 
ATOM     20  C   UNL A   1      34.058  17.409  24.695  1.00  0.00     0.004 C 
ATOM     21  C   UNL A   1      32.725  17.766  24.099  1.00  0.00     0.004 C 
ENDBRANCH  18  19
BRANCH  18  22
ATOM     22  C   UNL A   1      34.723  20.997  24.962  1.00  0.00    -0.006 C 
ATOM     23  C   UNL A   1      35.612  21.453  26.095  1.00  0.00     0.004 C 
ATOM     24  C   UNL A   1      36.176  20.583  25.003  1.00  0.00     0.004 C 
ENDBRANCH  18  22
ENDBRANCH  17  18
ENDBRANCH  15  17
ENDBRANCH  10  13
ENDBRANCH   4   7
ENDBRANCH   2   3
ENDBRANCH   1   2
BRANCH   1  25
ATOM     25  C   UNL A   1      32.539  29.968  25.704  1.00  0.00     0.002 C 
BRANCH  25  26
ATOM     26  C   UNL A   1      31.321  30.892  25.768  1.00  0.00     0.002 C 
BRANCH  26  27
ATOM     27  C   UNL A   1      31.358  31.979  26.850  1.00  0.00     0.021 C 
BRANCH  27  28
ATOM     28  C   UNL A   1      32.685  32.726  26.997  1.00  0.00     0.116 C 
BRANCH  28  29
ATOM     29  N   UNL A   1      32.505  34.072  27.514  1.00  0.00    -0.352 N 
ATOM     30  C   UNL A   1      33.092  34.689  28.587  1.00  0.00     0.251 C 
ATOM     31  H   UNL A   1      31.861  34.627  27.016  1.00  0.00     0.163 HD
ATOM     32  O   UNL A   1      32.643  35.760  29.001  1.00  0.00    -0.269 OA
BRANCH  30  33
ATOM     33  C   UNL A   1      34.253  34.078  29.265  1.00  0.00     0.039 A 
ATOM     34  C   UNL A   1      34.028  33.164  30.298  1.00  0.00     0.014 A 
ATOM     35  C   UNL A   1      35.560  34.438  28.921  1.00  0.00     0.014 A 
ATOM     36  C   UNL A   1      35.112  32.568  30.948  1.00  0.00     0.010 A 
ATOM     37  C   UNL A   1      36.639  33.796  29.527  1.00  0.00     0.010 A 
ATOM     38  C   UNL A   1      36.427  32.858  30.548  1.00  0.00    -0.014 A 
BRANCH  38  39
ATOM     39  C   UNL A   1      37.588  32.188  31.188  1.00  0.00     0.031 A 
ATOM     40  C   UNL A   1      38.326  31.093  30.469  1.00  0.00     0.074 A 
ATOM     41  C   UNL A   1      37.943  32.529  32.442  1.00  0.00     0.049 A 
ATOM     42  N   UNL A   1      39.322  30.353  30.889  1.00  0.00    -0.248 NA
ATOM     43  C   UNL A   1      37.869  30.770  29.109  1.00  0.00     0.031 C 
ATOM     44  C   UNL A   1      37.282  33.546  33.261  1.00  0.00     0.029 A 
ATOM     45  N   UNL A   1      38.942  32.048  33.252  1.00  0.00    -0.354 N 
ATOM     46  C   UNL A   1      39.602  29.472  29.852  1.00  0.00     0.074 A 
ATOM     47  C   UNL A   1      38.638  29.734  28.804  1.00  0.00     0.031 C 
ATOM     48  C   UNL A   1      37.906  33.628  34.447  1.00  0.00     0.029 A 
ATOM     49  C   UNL A   1      38.986  32.647  34.487  1.00  0.00     0.049 A 
ATOM     50  H   UNL A   1      39.568  31.340  32.973  1.00  0.00     0.167 HD
ATOM     51  C   UNL A   1      40.584  28.543  29.770  1.00  0.00     0.037 A 
ATOM     52  C   UNL A   1      39.800  32.424  35.537  1.00  0.00     0.037 A 
ATOM     53  C   UNL A   1      41.556  28.299  30.804  1.00  0.00     0.049 A 
ATOM     54  C   UNL A   1      40.875  31.380  35.426  1.00  0.00     0.074 A 
ATOM     55  C   UNL A   1      42.626  27.421  30.793  1.00  0.00     0.029 A 
ATOM     56  N   UNL A   1      41.572  28.932  32.039  1.00  0.00    -0.354 N 
ATOM     57  N   UNL A   1      41.169  30.599  34.414  1.00  0.00    -0.248 NA
ATOM     58  C   UNL A   1      41.736  31.189  36.602  1.00  0.00     0.031 C 
ATOM     59  C   UNL A   1      43.265  27.492  32.036  1.00  0.00     0.029 A 
ATOM     60  C   UNL A   1      42.620  28.447  32.805  1.00  0.00     0.049 A 
ATOM     61  H   UNL A   1      40.933  29.623  32.327  1.00  0.00     0.167 HD
ATOM     62  C   UNL A   1      42.261  29.845  34.821  1.00  0.00     0.074 A 
ATOM     63  C   UNL A   1      42.587  30.271  36.166  1.00  0.00     0.031 C 
ATOM     64  C   UNL A   1      42.933  28.883  34.142  1.00  0.00     0.037 A 
BRANCH  51  65
ATOM     65  C   UNL A   1      40.658  27.723  28.515  1.00  0.00     0.057 A 
ATOM     66  C   UNL A   1      39.984  26.500  28.391  1.00  0.00     0.134 A 
ATOM     67  C   UNL A   1      41.385  28.173  27.406  1.00  0.00     0.134 A 
ATOM     68  F   UNL A   1      39.278  26.007  29.419  1.00  0.00    -0.206 F 
ATOM     69  C   UNL A   1      40.055  25.742  27.221  1.00  0.00     0.040 A 
ATOM     70  C   UNL A   1      41.442  27.437  26.221  1.00  0.00     0.040 A 
ATOM     71  F   UNL A   1      42.049  29.339  27.454  1.00  0.00    -0.206 F 
ATOM     72  C   UNL A   1      40.781  26.214  26.129  1.00  0.00     0.006 A 
ENDBRANCH  51  65
BRANCH  52  73
ATOM     73  C   UNL A   1      39.644  33.223  36.779  1.00  0.00     0.057 A 
ATOM     74  C   UNL A   1      40.403  34.380  36.990  1.00  0.00     0.134 A 
ATOM     75  C   UNL A   1      38.740  32.852  37.780  1.00  0.00     0.134 A 
ATOM     76  F   UNL A   1      41.299  34.776  36.074  1.00  0.00    -0.206 F 
ATOM     77  C   UNL A   1      40.282  35.129  38.162  1.00  0.00     0.040 A 
ATOM     78  C   UNL A   1      38.592  33.605  38.946  1.00  0.00     0.040 A 
ATOM     79  F   UNL A   1      37.977  31.758  37.634  1.00  0.00    -0.206 F 
ATOM     80  C   UNL A   1      39.370  34.744  39.142  1.00  0.00     0.006 A 
ENDBRANCH  52  73
BRANCH  64  81
ATOM     81  C   UNL A   1      44.105  28.247  34.831  1.00  0.00     0.057 A 
ATOM     82  C   UNL A   1      43.972  27.071  35.580  1.00  0.00     0.134 A 
ATOM     83  C   UNL A   1      45.386  28.800  34.715  1.00  0.00     0.134 A 
ATOM     84  F   UNL A   1      42.769  26.500  35.741  1.00  0.00    -0.206 F 
ATOM     85  C   UNL A   1      45.070  26.478  36.206  1.00  0.00     0.040 A 
ATOM     86  C   UNL A   1      46.495  28.202  35.315  1.00  0.00     0.040 A 
ATOM     87  F   UNL A   1      45.583  29.922  34.007  1.00  0.00    -0.206 F 
ATOM     88  C   UNL A   1      46.337  27.041  36.069  1.00  0.00     0.006 A 
ENDBRANCH  64  81
ENDBRANCH  38  39
ENDBRANCH  30  33
ENDBRANCH  28  29
ENDBRANCH  27  28
ENDBRANCH  26  27
ENDBRANCH  25  26
ENDBRANCH   1  25
TORSDOF 18
ENDMDL
MODEL 2
REMARK VINA RESULT:     -11.1      1.592      6.194
REMARK SMILES C[C@H]1[C@@H](C(=O)NCCCCCCNC(=O)c2ccc(-c3c4nc(c(-c5c(F)cccc5F)c5ccc([nH]5)c(-c5c(F)cccc5F)c5nc(c(-c6c(F)cccc6F)c6ccc3[nH]6)C=C5)C=C4)cc2)CCN1C(=O)NCC(C1CC1)C1CC1
REMARK SMILES IDX 8 1 7 2 6 3 4 4 5 5 3 7 1 8 2 9 72 10 70 11 71 12 73 13
REMARK SMILES IDX 74 14 75 15 76 17 77 18 78 19 79 20 80 21 81 22 82 23 83 24
REMARK SMILES IDX 9 25 10 26 11 27 12 28 13 29 14 30 15 32 16 33 17 34 69 35
REMARK SMILES IDX 18 36 68 37 19 38 20 39 21 40 62 41 22 42 67 43 61 44 63 45
REMARK SMILES IDX 23 46 66 47 60 48 59 49 24 51 50 52 33 53 49 54 34 55 37 56
REMARK SMILES IDX 48 57 64 58 35 59 36 60 47 62 65 63 38 64 25 65 26 66 31 67
REMARK SMILES IDX 27 68 28 69 30 70 32 71 29 72 51 73 52 74 57 75 53 76 54 77
REMARK SMILES IDX 56 78 58 79 55 80 39 81 40 82 45 83 41 84 42 85 44 86 46 87
REMARK SMILES IDX 43 88
REMARK H PARENT 6 6 75 16 13 31 63 50 37 61
REMARK Flexibility Score: inf
ROOT
ATOM      1  C   UNL A   1      32.550  29.256  24.403  1.00  0.00     0.021 C 
ENDROOT
BRANCH   1   2
ATOM      2  C   UNL A   1      33.842  28.435  24.296  1.00  0.00     0.116 C 
BRANCH   2   3
ATOM      3  N   UNL A   1      33.830  27.631  23.085  1.00  0.00    -0.356 N 
ATOM      4  C   UNL A   1      33.325  26.394  22.806  1.00  0.00     0.225 C 
ATOM      5  O   UNL A   1      33.611  25.925  21.701  1.00  0.00    -0.275 OA
ATOM      6  H   UNL A   1      34.272  28.061  22.317  1.00  0.00     0.163 HD
BRANCH   4   7
ATOM      7  C   UNL A   1      32.356  25.680  23.748  1.00  0.00     0.102 C 
ATOM      8  C   UNL A   1      34.369  24.552  24.990  1.00  0.00     0.032 C 
ATOM      9  C   UNL A   1      32.896  24.952  24.990  1.00  0.00     0.096 C 
ATOM     10  N   UNL A   1      32.115  23.734  25.119  1.00  0.00    -0.321 N 
ATOM     11  C   UNL A   1      31.460  24.631  23.051  1.00  0.00     0.037 C 
ATOM     12  C   UNL A   1      31.693  23.327  23.794  1.00  0.00     0.122 C 
BRANCH  10  13
ATOM     13  C   UNL A   1      31.979  22.884  26.176  1.00  0.00     0.317 C 
ATOM     14  O   UNL A   1      31.738  23.307  27.310  1.00  0.00    -0.249 OA
ATOM     15  N   UNL A   1      32.072  21.542  26.058  1.00  0.00    -0.338 N 
ATOM     16  H   UNL A   1      31.957  21.097  26.928  1.00  0.00     0.165 HD
BRANCH  15  17
ATOM     17  C   UNL A   1      32.298  20.570  24.987  1.00  0.00     0.121 C 
BRANCH  17  18
ATOM     18  C   UNL A   1      33.693  19.911  25.060  1.00  0.00     0.014 C 
BRANCH  18  19
ATOM     19  C   UNL A   1      33.860  18.711  24.140  1.00  0.00    -0.006 C 
ATOM     20  C   UNL A   1      34.437  17.370  24.531  1.00  0.00     0.004 C 
ATOM     21  C   UNL A   1      32.959  17.508  24.295  1.00  0.00     0.004 C 
ENDBRANCH  18  19
BRANCH  18  22
ATOM     22  C   UNL A   1      34.871  20.855  24.833  1.00  0.00    -0.006 C 
ATOM     23  C   UNL A   1      35.672  21.467  25.957  1.00  0.00     0.004 C 
ATOM     24  C   UNL A   1      36.315  20.460  25.041  1.00  0.00     0.004 C 
ENDBRANCH  18  22
ENDBRANCH  17  18
ENDBRANCH  15  17
ENDBRANCH  10  13
ENDBRANCH   4   7
ENDBRANCH   2   3
ENDBRANCH   1   2
BRANCH   1  25
ATOM     25  C   UNL A   1      32.293  29.923  25.752  1.00  0.00     0.002 C 
BRANCH  25  26
ATOM     26  C   UNL A   1      31.150  30.940  25.761  1.00  0.00     0.002 C 
BRANCH  26  27
ATOM     27  C   UNL A   1      31.225  32.026  26.842  1.00  0.00     0.021 C 
BRANCH  27  28
ATOM     28  C   UNL A   1      32.547  32.792  26.924  1.00  0.00     0.116 C 
BRANCH  28  29
ATOM     29  N   UNL A   1      32.397  34.083  27.573  1.00  0.00    -0.352 N 
ATOM     30  C   UNL A   1      33.111  34.641  28.600  1.00  0.00     0.251 C 
ATOM     31  H   UNL A   1      31.670  34.645  27.219  1.00  0.00     0.163 HD
ATOM     32  O   UNL A   1      32.689  35.654  29.162  1.00  0.00    -0.269 OA
BRANCH  30  33
ATOM     33  C   UNL A   1      34.378  34.033  29.055  1.00  0.00     0.039 A 
ATOM     34  C   UNL A   1      34.379  33.269  30.226  1.00  0.00     0.014 A 
ATOM     35  C   UNL A   1      35.572  34.252  28.360  1.00  0.00     0.014 A 
ATOM     36  C   UNL A   1      35.566  32.679  30.669  1.00  0.00     0.010 A 
ATOM     37  C   UNL A   1      36.740  33.610  28.769  1.00  0.00     0.010 A 
ATOM     38  C   UNL A   1      36.750  32.821  29.928  1.00  0.00    -0.014 A 
BRANCH  38  39
ATOM     39  C   UNL A   1      38.006  32.151  30.354  1.00  0.00     0.031 A 
ATOM     40  C   UNL A   1      38.909  32.800  31.366  1.00  0.00     0.074 A 
ATOM     41  C   UNL A   1      38.361  30.983  29.786  1.00  0.00     0.049 A 
ATOM     42  N   UNL A   1      40.072  32.398  31.815  1.00  0.00    -0.248 NA
ATOM     43  C   UNL A   1      38.458  34.081  31.930  1.00  0.00     0.031 C 
ATOM     44  C   UNL A   1      37.592  30.271  28.763  1.00  0.00     0.029 A 
ATOM     45  N   UNL A   1      39.466  30.192  29.980  1.00  0.00    -0.354 N 
ATOM     46  C   UNL A   1      40.495  33.380  32.702  1.00  0.00     0.074 A 
ATOM     47  C   UNL A   1      39.490  34.421  32.689  1.00  0.00     0.031 C 
ATOM     48  C   UNL A   1      38.238  29.140  28.436  1.00  0.00     0.029 A 
ATOM     49  C   UNL A   1      39.481  29.063  29.197  1.00  0.00     0.049 A 
ATOM     50  H   UNL A   1      40.181  30.413  30.621  1.00  0.00     0.167 HD
ATOM     51  C   UNL A   1      41.609  33.403  33.473  1.00  0.00     0.037 A 
ATOM     52  C   UNL A   1      40.397  28.081  29.098  1.00  0.00     0.037 A 
ATOM     53  C   UNL A   1      42.597  32.356  33.501  1.00  0.00     0.049 A 
ATOM     54  C   UNL A   1      41.630  28.135  29.956  1.00  0.00     0.074 A 
ATOM     55  C   UNL A   1      43.729  32.259  34.290  1.00  0.00     0.029 A 
ATOM     56  N   UNL A   1      42.572  31.225  32.698  1.00  0.00    -0.354 N 
ATOM     57  N   UNL A   1      41.985  29.039  30.837  1.00  0.00    -0.248 NA
ATOM     58  C   UNL A   1      42.588  27.031  29.807  1.00  0.00     0.031 C 
ATOM     59  C   UNL A   1      44.412  31.091  33.936  1.00  0.00     0.029 A 
ATOM     60  C   UNL A   1      43.681  30.436  32.958  1.00  0.00     0.049 A 
ATOM     61  H   UNL A   1      41.870  31.014  32.041  1.00  0.00     0.167 HD
ATOM     62  C   UNL A   1      43.192  28.600  31.366  1.00  0.00     0.074 A 
ATOM     63  C   UNL A   1      43.501  27.343  30.717  1.00  0.00     0.031 C 
ATOM     64  C   UNL A   1      43.974  29.186  32.305  1.00  0.00     0.037 A 
BRANCH  51  65
ATOM     65  C   UNL A   1      41.816  34.602  34.354  1.00  0.00     0.057 A 
ATOM     66  C   UNL A   1      42.505  35.737  33.905  1.00  0.00     0.134 A 
ATOM     67  C   UNL A   1      41.293  34.635  35.652  1.00  0.00     0.134 A 
ATOM     68  F   UNL A   1      43.040  35.766  32.675  1.00  0.00    -0.206 F 
ATOM     69  C   UNL A   1      42.693  36.849  34.728  1.00  0.00     0.040 A 
ATOM     70  C   UNL A   1      41.451  35.752  36.475  1.00  0.00     0.040 A 
ATOM     71  F   UNL A   1      40.616  33.585  36.142  1.00  0.00    -0.206 F 
ATOM     72  C   UNL A   1      42.160  36.861  36.015  1.00  0.00     0.006 A 
ENDBRANCH  51  65
BRANCH  52  73
ATOM     73  C   UNL A   1      40.171  26.948  28.165  1.00  0.00     0.057 A 
ATOM     74  C   UNL A   1      39.418  25.835  28.554  1.00  0.00     0.134 A 
ATOM     75  C   UNL A   1      40.702  26.949  26.871  1.00  0.00     0.134 A 
ATOM     76  F   UNL A   1      38.899  25.769  29.789  1.00  0.00    -0.206 F 
ATOM     77  C   UNL A   1      39.215  24.753  27.695  1.00  0.00     0.040 A 
ATOM     78  C   UNL A   1      40.487  25.884  25.993  1.00  0.00     0.040 A 
ATOM     79  F   UNL A   1      41.427  27.990  26.434  1.00  0.00    -0.206 F 
ATOM     80  C   UNL A   1      39.748  24.779  26.408  1.00  0.00     0.006 A 
ENDBRANCH  52  73
BRANCH  64  81
ATOM     81  C   UNL A   1      45.226  28.461  32.706  1.00  0.00     0.057 A 
ATOM     82  C   UNL A   1      45.230  27.510  33.734  1.00  0.00     0.134 A 
ATOM     83  C   UNL A   1      46.431  28.692  32.031  1.00  0.00     0.134 A 
ATOM     84  F   UNL A   1      44.112  27.254  34.429  1.00  0.00    -0.206 F 
ATOM     85  C   UNL A   1      46.396  26.830  34.091  1.00  0.00     0.040 A 
ATOM     86  C   UNL A   1      47.596  27.999  32.361  1.00  0.00     0.040 A 
ATOM     87  F   UNL A   1      46.492  29.584  31.031  1.00  0.00    -0.206 F 
ATOM     88  C   UNL A   1      47.582  27.069  33.399  1.00  0.00     0.006 A 
ENDBRANCH  64  81
ENDBRANCH  38  39
ENDBRANCH  30  33
ENDBRANCH  28  29
ENDBRANCH  27  28
ENDBRANCH  26  27
ENDBRANCH  25  26
ENDBRANCH   1  25
TORSDOF 18
ENDMDL
MODEL 3
REMARK VINA RESULT:     -11.1      4.640      9.195
REMARK SMILES C[C@H]1[C@@H](C(=O)NCCCCCCNC(=O)c2ccc(-c3c4nc(c(-c5c(F)cccc5F)c5ccc([nH]5)c(-c5c(F)cccc5F)c5nc(c(-c6c(F)cccc6F)c6ccc3[nH]6)C=C5)C=C4)cc2)CCN1C(=O)NCC(C1CC1)C1CC1
REMARK SMILES IDX 8 1 7 2 6 3 4 4 5 5 3 7 1 8 2 9 72 10 70 11 71 12 73 13
REMARK SMILES IDX 74 14 75 15 76 17 77 18 78 19 79 20 80 21 81 22 82 23 83 24
REMARK SMILES IDX 9 25 10 26 11 27 12 28 13 29 14 30 15 32 16 33 17 34 69 35
REMARK SMILES IDX 18 36 68 37 19 38 20 39 21 40 62 41 22 42 67 43 61 44 63 45
REMARK SMILES IDX 23 46 66 47 60 48 59 49 24 51 50 52 33 53 49 54 34 55 37 56
REMARK SMILES IDX 48 57 64 58 35 59 36 60 47 62 65 63 38 64 25 65 26 66 31 67
REMARK SMILES IDX 27 68 28 69 30 70 32 71 29 72 51 73 52 74 57 75 53 76 54 77
REMARK SMILES IDX 56 78 58 79 55 80 39 81 40 82 45 83 41 84 42 85 44 86 46 87
REMARK SMILES IDX 43 88
REMARK H PARENT 6 6 75 16 13 31 63 50 37 61
REMARK Flexibility Score: inf
ROOT
ATOM      1  C   UNL A   1      37.355  23.710  25.099  1.00  0.00     0.021 C 
ENDROOT
BRANCH   1   2
ATOM      2  C   UNL A   1      36.609  23.097  23.906  1.00  0.00     0.116 C 
BRANCH   2   3
ATOM      3  N   UNL A   1      36.094  21.783  24.253  1.00  0.00    -0.356 N 
ATOM      4  C   UNL A   1      34.861  21.353  24.652  1.00  0.00     0.225 C 
ATOM      5  O   UNL A   1      34.786  20.177  25.015  1.00  0.00    -0.275 OA
ATOM      6  H   UNL A   1      36.764  21.064  24.190  1.00  0.00     0.163 HD
BRANCH   4   7
ATOM      7  C   UNL A   1      33.617  22.232  24.535  1.00  0.00     0.102 C 
ATOM      8  C   UNL A   1      33.836  22.906  27.057  1.00  0.00     0.032 C 
ATOM      9  C   UNL A   1      33.252  23.195  25.678  1.00  0.00     0.096 C 
ATOM     10  N   UNL A   1      31.805  23.150  25.801  1.00  0.00    -0.321 N 
ATOM     11  C   UNL A   1      32.314  21.444  24.270  1.00  0.00     0.037 C 
ATOM     12  C   UNL A   1      31.357  21.837  25.383  1.00  0.00     0.122 C 
BRANCH  10  13
ATOM     13  C   UNL A   1      30.951  23.997  26.441  1.00  0.00     0.317 C 
ATOM     14  O   UNL A   1      30.222  23.601  27.355  1.00  0.00    -0.249 OA
ATOM     15  N   UNL A   1      30.858  25.312  26.145  1.00  0.00    -0.338 N 
ATOM     16  H   UNL A   1      30.182  25.757  26.703  1.00  0.00     0.165 HD
BRANCH  15  17
ATOM     17  C   UNL A   1      31.491  26.252  25.219  1.00  0.00     0.121 C 
BRANCH  17  18
ATOM     18  C   UNL A   1      30.948  26.132  23.779  1.00  0.00     0.014 C 
BRANCH  18  19
ATOM     19  C   UNL A   1      30.707  27.468  23.094  1.00  0.00    -0.006 C 
ATOM     20  C   UNL A   1      29.410  28.245  23.100  1.00  0.00     0.004 C 
ATOM     21  C   UNL A   1      30.576  28.728  23.918  1.00  0.00     0.004 C 
ENDBRANCH  18  19
BRANCH  18  22
ATOM     22  C   UNL A   1      31.778  25.257  22.842  1.00  0.00    -0.006 C 
ATOM     23  C   UNL A   1      32.293  25.731  21.503  1.00  0.00     0.004 C 
ATOM     24  C   UNL A   1      33.262  25.441  22.619  1.00  0.00     0.004 C 
ENDBRANCH  18  22
ENDBRANCH  17  18
ENDBRANCH  15  17
ENDBRANCH  10  13
ENDBRANCH   4   7
ENDBRANCH   2   3
ENDBRANCH   1   2
BRANCH   1  25
ATOM     25  C   UNL A   1      37.735  22.741  26.216  1.00  0.00     0.002 C 
BRANCH  25  26
ATOM     26  C   UNL A   1      39.160  22.190  26.135  1.00  0.00     0.002 C 
BRANCH  26  27
ATOM     27  C   UNL A   1      39.309  20.803  25.498  1.00  0.00     0.021 C 
BRANCH  27  28
ATOM     28  C   UNL A   1      39.773  19.687  26.435  1.00  0.00     0.116 C 
BRANCH  28  29
ATOM     29  N   UNL A   1      41.013  19.074  25.991  1.00  0.00    -0.352 N 
ATOM     30  C   UNL A   1      42.256  19.624  25.822  1.00  0.00     0.251 C 
ATOM     31  H   UNL A   1      40.951  18.113  25.781  1.00  0.00     0.163 HD
ATOM     32  O   UNL A   1      43.130  18.993  25.222  1.00  0.00    -0.269 OA
BRANCH  30  33
ATOM     33  C   UNL A   1      42.560  20.974  26.338  1.00  0.00     0.039 A 
ATOM     34  C   UNL A   1      42.974  21.963  25.440  1.00  0.00     0.014 A 
ATOM     35  C   UNL A   1      42.486  21.256  27.705  1.00  0.00     0.014 A 
ATOM     36  C   UNL A   1      43.259  23.249  25.906  1.00  0.00     0.010 A 
ATOM     37  C   UNL A   1      42.709  22.555  28.159  1.00  0.00     0.010 A 
ATOM     38  C   UNL A   1      43.101  23.563  27.266  1.00  0.00    -0.014 A 
BRANCH  38  39
ATOM     39  C   UNL A   1      43.343  24.940  27.767  1.00  0.00     0.031 A 
ATOM     40  C   UNL A   1      44.740  25.403  28.076  1.00  0.00     0.074 A 
ATOM     41  C   UNL A   1      42.297  25.756  27.999  1.00  0.00     0.049 A 
ATOM     42  N   UNL A   1      45.141  26.545  28.578  1.00  0.00    -0.248 NA
ATOM     43  C   UNL A   1      45.827  24.449  27.810  1.00  0.00     0.031 C 
ATOM     44  C   UNL A   1      40.891  25.412  27.779  1.00  0.00     0.029 A 
ATOM     45  N   UNL A   1      42.252  27.041  28.481  1.00  0.00    -0.354 N 
ATOM     46  C   UNL A   1      46.521  26.442  28.697  1.00  0.00     0.074 A 
ATOM     47  C   UNL A   1      46.883  25.109  28.264  1.00  0.00     0.031 C 
ATOM     48  C   UNL A   1      40.125  26.465  28.105  1.00  0.00     0.029 A 
ATOM     49  C   UNL A   1      40.979  27.545  28.589  1.00  0.00     0.049 A 
ATOM     50  H   UNL A   1      43.057  27.553  28.726  1.00  0.00     0.167 HD
ATOM     51  C   UNL A   1      47.409  27.378  29.108  1.00  0.00     0.037 A 
ATOM     52  C   UNL A   1      40.548  28.740  29.037  1.00  0.00     0.037 A 
ATOM     53  C   UNL A   1      47.050  28.711  29.517  1.00  0.00     0.049 A 
ATOM     54  C   UNL A   1      41.552  29.758  29.499  1.00  0.00     0.074 A 
ATOM     55  C   UNL A   1      47.880  29.751  29.895  1.00  0.00     0.029 A 
ATOM     56  N   UNL A   1      45.749  29.186  29.606  1.00  0.00    -0.354 N 
ATOM     57  N   UNL A   1      42.860  29.669  29.545  1.00  0.00    -0.248 NA
ATOM     58  C   UNL A   1      41.020  31.046  29.969  1.00  0.00     0.031 C 
ATOM     59  C   UNL A   1      47.082  30.843  30.253  1.00  0.00     0.029 A 
ATOM     60  C   UNL A   1      45.755  30.498  30.055  1.00  0.00     0.049 A 
ATOM     61  H   UNL A   1      44.943  28.669  29.383  1.00  0.00     0.167 HD
ATOM     62  C   UNL A   1      43.307  30.894  30.023  1.00  0.00     0.074 A 
ATOM     63  C   UNL A   1      42.134  31.714  30.238  1.00  0.00     0.031 C 
ATOM     64  C   UNL A   1      44.578  31.302  30.262  1.00  0.00     0.037 A 
BRANCH  51  65
ATOM     65  C   UNL A   1      48.860  26.992  29.134  1.00  0.00     0.057 A 
ATOM     66  C   UNL A   1      49.442  26.380  30.254  1.00  0.00     0.134 A 
ATOM     67  C   UNL A   1      49.678  27.204  28.018  1.00  0.00     0.134 A 
ATOM     68  F   UNL A   1      48.716  26.157  31.360  1.00  0.00    -0.206 F 
ATOM     69  C   UNL A   1      50.791  26.022  30.271  1.00  0.00     0.040 A 
ATOM     70  C   UNL A   1      51.022  26.826  28.014  1.00  0.00     0.040 A 
ATOM     71  F   UNL A   1      49.183  27.779  26.910  1.00  0.00    -0.206 F 
ATOM     72  C   UNL A   1      51.583  26.239  29.146  1.00  0.00     0.006 A 
ENDBRANCH  51  65
BRANCH  52  73
ATOM     73  C   UNL A   1      39.096  29.048  29.047  1.00  0.00     0.057 A 
ATOM     74  C   UNL A   1      38.330  28.866  30.205  1.00  0.00     0.134 A 
ATOM     75  C   UNL A   1      38.440  29.526  27.908  1.00  0.00     0.134 A 
ATOM     76  F   UNL A   1      38.900  28.393  31.324  1.00  0.00    -0.206 F 
ATOM     77  C   UNL A   1      36.960  29.131  30.224  1.00  0.00     0.040 A 
ATOM     78  C   UNL A   1      37.075  29.818  27.920  1.00  0.00     0.040 A 
ATOM     79  F   UNL A   1      39.119  29.730  26.769  1.00  0.00    -0.206 F 
ATOM     80  C   UNL A   1      36.330  29.614  29.079  1.00  0.00     0.006 A 
ENDBRANCH  52  73
BRANCH  64  81
ATOM     81  C   UNL A   1      44.765  32.706  30.758  1.00  0.00     0.057 A 
ATOM     82  C   UNL A   1      44.831  33.004  32.125  1.00  0.00     0.134 A 
ATOM     83  C   UNL A   1      44.917  33.766  29.855  1.00  0.00     0.134 A 
ATOM     84  F   UNL A   1      44.679  32.035  33.040  1.00  0.00    -0.206 F 
ATOM     85  C   UNL A   1      45.021  34.312  32.576  1.00  0.00     0.040 A 
ATOM     86  C   UNL A   1      45.133  35.073  30.295  1.00  0.00     0.040 A 
ATOM     87  F   UNL A   1      44.871  33.547  28.532  1.00  0.00    -0.206 F 
ATOM     88  C   UNL A   1      45.178  35.349  31.660  1.00  0.00     0.006 A 
ENDBRANCH  64  81
ENDBRANCH  38  39
ENDBRANCH  30  33
ENDBRANCH  28  29
ENDBRANCH  27  28
ENDBRANCH  26  27
ENDBRANCH  25  26
ENDBRANCH   1  25
TORSDOF 18
ENDMDL
