MODEL 1
REMARK VINA RESULT:     -12.4      0.000      0.000
REMARK SMILES Cc1ccc(C(=O)N2CCC3(CCC(=O)N(CC(=O)NCCCCCCNC(=O)c4ccc(-c5c6nc(c(-c7c(F)cccc7F)c7ccc([nH]7)c(-c7c(F)cccc7F)c7nc(c(-c8c(F)cccc8F)c8ccc5[nH]8)C=C7)C=C6)cc4)C3)CC2)cc1O
REMARK SMILES IDX 23 1 22 2 21 3 20 4 18 5 19 6 17 8 16 9 6 10 7 11 8 12 9 13
REMARK SMILES IDX 86 14 10 15 85 16 11 17 12 18 84 19 13 20 14 21 15 22 5 23
REMARK SMILES IDX 1 24 2 25 3 26 88 27 4 28 87 29 89 30 24 32 25 33 26 34
REMARK SMILES IDX 27 35 28 36 29 38 30 39 31 40 83 41 32 42 82 43 33 44 34 45
REMARK SMILES IDX 35 46 76 47 36 48 81 49 75 50 77 51 37 52 80 53 74 54 73 55
REMARK SMILES IDX 38 57 64 58 47 59 63 60 48 61 51 62 62 63 78 64 49 65 50 66
REMARK SMILES IDX 61 68 79 69 52 70 39 71 40 72 45 73 41 74 42 75 44 76 46 77
REMARK SMILES IDX 43 78 65 79 66 80 71 81 67 82 68 83 70 84 72 85 69 86 53 87
REMARK SMILES IDX 54 88 59 89 55 90 56 91 58 92 60 93 57 94
REMARK H PARENT 20 7 89 31 27 37 77 56 51 67
REMARK Flexibility Score: inf
ROOT
ATOM      1  C   UNL A   1      41.410  22.059  26.099  1.00  0.00     0.002 C 
ENDROOT
BRANCH   1   2
ATOM      2  C   UNL A   1      40.050  22.659  26.477  1.00  0.00     0.021 C 
BRANCH   2   3
ATOM      3  C   UNL A   1      38.869  21.765  26.114  1.00  0.00     0.116 C 
BRANCH   3   4
ATOM      4  N   UNL A   1      38.129  22.298  24.998  1.00  0.00    -0.355 N 
ATOM      5  C   UNL A   1      36.988  21.830  24.420  1.00  0.00     0.239 C 
ATOM      6  O   UNL A   1      36.438  22.557  23.587  1.00  0.00    -0.273 OA
ATOM      7  H   UNL A   1      38.501  23.117  24.597  1.00  0.00     0.163 HD
BRANCH   5   8
ATOM      8  C   UNL A   1      36.305  20.562  24.948  1.00  0.00     0.219 C 
BRANCH   8   9
ATOM      9  N   UNL A   1      34.890  20.624  25.334  1.00  0.00    -0.333 N 
ATOM     10  C   UNL A   1      32.147  26.325  24.167  1.00  0.00     0.253 C 
ATOM     11  O   UNL A   1      31.919  26.631  22.997  1.00  0.00    -0.269 OA
ATOM     12  N   UNL A   1      32.176  24.995  24.577  1.00  0.00    -0.339 N 
ATOM     13  C   UNL A   1      32.533  23.990  23.590  1.00  0.00     0.120 C 
ATOM     14  C   UNL A   1      31.647  24.479  25.834  1.00  0.00     0.120 C 
ATOM     15  C   UNL A   1      33.612  23.094  24.180  1.00  0.00     0.030 C 
ATOM     16  C   UNL A   1      32.631  23.500  26.486  1.00  0.00     0.030 C 
ATOM     17  C   UNL A   1      33.173  22.421  25.507  1.00  0.00    -0.008 C 
ATOM     18  C   UNL A   1      32.112  21.319  25.310  1.00  0.00     0.019 C 
ATOM     19  C   UNL A   1      34.394  21.733  26.138  1.00  0.00     0.127 C 
ATOM     20  C   UNL A   1      32.621  20.148  24.483  1.00  0.00     0.101 C 
ATOM     21  C   UNL A   1      34.038  19.690  24.771  1.00  0.00     0.223 C 
ATOM     22  O   UNL A   1      34.433  18.600  24.363  1.00  0.00    -0.275 OA
BRANCH  10  23
ATOM     23  C   UNL A   1      32.564  27.409  25.110  1.00  0.00     0.043 A 
ATOM     24  C   UNL A   1      34.025  30.825  27.331  1.00  0.00     0.048 C 
ATOM     25  C   UNL A   1      33.481  29.649  26.576  1.00  0.00    -0.009 A 
ATOM     26  C   UNL A   1      34.186  28.440  26.600  1.00  0.00     0.008 A 
ATOM     27  C   UNL A   1      32.316  29.718  25.805  1.00  0.00     0.119 A 
ATOM     28  C   UNL A   1      33.744  27.342  25.856  1.00  0.00     0.014 A 
ATOM     29  C   UNL A   1      31.852  28.613  25.092  1.00  0.00     0.060 A 
BRANCH  27  30
ATOM     30  O   UNL A   1      31.586  30.866  25.676  1.00  0.00    -0.508 OA
ATOM     31  H   UNL A   1      30.904  30.918  25.035  1.00  0.00     0.293 HD
ENDBRANCH  27  30
ENDBRANCH  10  23
ENDBRANCH   8   9
ENDBRANCH   5   8
ENDBRANCH   3   4
ENDBRANCH   2   3
ENDBRANCH   1   2
BRANCH   1  32
ATOM     32  C   UNL A   1      41.821  20.825  26.912  1.00  0.00     0.002 C 
BRANCH  32  33
ATOM     33  C   UNL A   1      42.034  19.554  26.087  1.00  0.00     0.021 C 
BRANCH  33  34
ATOM     34  C   UNL A   1      43.396  18.900  26.287  1.00  0.00     0.116 C 
BRANCH  34  35
ATOM     35  N   UNL A   1      44.056  18.621  25.021  1.00  0.00    -0.352 N 
ATOM     36  C   UNL A   1      44.671  19.485  24.154  1.00  0.00     0.251 C 
ATOM     37  H   UNL A   1      44.061  17.675  24.749  1.00  0.00     0.163 HD
ATOM     38  O   UNL A   1      44.989  19.112  23.026  1.00  0.00    -0.269 OA
BRANCH  36  39
ATOM     39  C   UNL A   1      44.937  20.877  24.570  1.00  0.00     0.039 A 
ATOM     40  C   UNL A   1      44.559  21.921  23.724  1.00  0.00     0.014 A 
ATOM     41  C   UNL A   1      45.563  21.150  25.790  1.00  0.00     0.014 A 
ATOM     42  C   UNL A   1      44.754  23.243  24.128  1.00  0.00     0.010 A 
ATOM     43  C   UNL A   1      45.687  22.466  26.225  1.00  0.00     0.010 A 
ATOM     44  C   UNL A   1      45.288  23.526  25.397  1.00  0.00    -0.014 A 
BRANCH  44  45
ATOM     45  C   UNL A   1      45.434  24.924  25.874  1.00  0.00     0.031 A 
ATOM     46  C   UNL A   1      46.781  25.594  25.850  1.00  0.00     0.074 A 
ATOM     47  C   UNL A   1      44.367  25.568  26.386  1.00  0.00     0.049 A 
ATOM     48  N   UNL A   1      47.120  26.781  26.287  1.00  0.00    -0.248 NA
ATOM     49  C   UNL A   1      47.897  24.820  25.286  1.00  0.00     0.031 C 
ATOM     50  C   UNL A   1      43.018  25.010  26.504  1.00  0.00     0.029 A 
ATOM     51  N   UNL A   1      44.251  26.830  26.913  1.00  0.00    -0.354 N 
ATOM     52  C   UNL A   1      48.487  26.889  26.060  1.00  0.00     0.074 A 
ATOM     53  C   UNL A   1      48.924  25.628  25.502  1.00  0.00     0.031 C 
ATOM     54  C   UNL A   1      42.207  25.933  27.046  1.00  0.00     0.029 A 
ATOM     55  C   UNL A   1      42.984  27.129  27.352  1.00  0.00     0.049 A 
ATOM     56  H   UNL A   1      45.005  27.460  26.972  1.00  0.00     0.167 HD
ATOM     57  C   UNL A   1      49.299  27.952  26.276  1.00  0.00     0.037 A 
ATOM     58  C   UNL A   1      42.505  28.240  27.945  1.00  0.00     0.037 A 
ATOM     59  C   UNL A   1      48.855  29.212  26.813  1.00  0.00     0.049 A 
ATOM     60  C   UNL A   1      43.432  29.399  28.190  1.00  0.00     0.074 A 
ATOM     61  C   UNL A   1      49.589  30.367  27.016  1.00  0.00     0.029 A 
ATOM     62  N   UNL A   1      47.561  29.479  27.234  1.00  0.00    -0.354 N 
ATOM     63  N   UNL A   1      44.709  29.511  27.909  1.00  0.00    -0.248 NA
ATOM     64  C   UNL A   1      42.851  30.587  28.830  1.00  0.00     0.031 C 
ATOM     65  C   UNL A   1      48.753  31.316  27.611  1.00  0.00     0.029 A 
ATOM     66  C   UNL A   1      47.483  30.774  27.723  1.00  0.00     0.049 A 
ATOM     67  H   UNL A   1      46.810  28.845  27.193  1.00  0.00     0.167 HD
ATOM     68  C   UNL A   1      45.074  30.791  28.307  1.00  0.00     0.074 A 
ATOM     69  C   UNL A   1      43.882  31.420  28.835  1.00  0.00     0.031 C 
ATOM     70  C   UNL A   1      46.288  31.390  28.239  1.00  0.00     0.037 A 
BRANCH  57  71
ATOM     71  C   UNL A   1      50.753  27.797  25.930  1.00  0.00     0.057 A 
ATOM     72  C   UNL A   1      51.225  27.976  24.623  1.00  0.00     0.134 A 
ATOM     73  C   UNL A   1      51.697  27.508  26.923  1.00  0.00     0.134 A 
ATOM     74  F   UNL A   1      50.373  28.244  23.621  1.00  0.00    -0.206 F 
ATOM     75  C   UNL A   1      52.580  27.848  24.312  1.00  0.00     0.040 A 
ATOM     76  C   UNL A   1      53.058  27.407  26.629  1.00  0.00     0.040 A 
ATOM     77  F   UNL A   1      51.315  27.330  28.197  1.00  0.00    -0.206 F 
ATOM     78  C   UNL A   1      53.502  27.571  25.320  1.00  0.00     0.006 A 
ENDBRANCH  57  71
BRANCH  58  79
ATOM     79  C   UNL A   1      41.074  28.318  28.335  1.00  0.00     0.057 A 
ATOM     80  C   UNL A   1      40.106  28.795  27.443  1.00  0.00     0.134 A 
ATOM     81  C   UNL A   1      40.642  27.938  29.612  1.00  0.00     0.134 A 
ATOM     82  F   UNL A   1      40.460  29.192  26.212  1.00  0.00    -0.206 F 
ATOM     83  C   UNL A   1      38.765  28.916  27.813  1.00  0.00     0.040 A 
ATOM     84  C   UNL A   1      39.300  28.027  29.985  1.00  0.00     0.040 A 
ATOM     85  F   UNL A   1      41.516  27.465  30.511  1.00  0.00    -0.206 F 
ATOM     86  C   UNL A   1      38.359  28.526  29.088  1.00  0.00     0.006 A 
ENDBRANCH  58  79
BRANCH  70  87
ATOM     87  C   UNL A   1      46.380  32.812  28.713  1.00  0.00     0.057 A 
ATOM     88  C   UNL A   1      46.156  33.897  27.856  1.00  0.00     0.134 A 
ATOM     89  C   UNL A   1      46.658  33.097  30.056  1.00  0.00     0.134 A 
ATOM     90  F   UNL A   1      45.898  33.694  26.555  1.00  0.00    -0.206 F 
ATOM     91  C   UNL A   1      46.229  35.214  28.313  1.00  0.00     0.040 A 
ATOM     92  C   UNL A   1      46.704  34.408  30.532  1.00  0.00     0.040 A 
ATOM     93  F   UNL A   1      46.874  32.104  30.933  1.00  0.00    -0.206 F 
ATOM     94  C   UNL A   1      46.495  35.472  29.657  1.00  0.00     0.006 A 
ENDBRANCH  70  87
ENDBRANCH  44  45
ENDBRANCH  36  39
ENDBRANCH  34  35
ENDBRANCH  33  34
ENDBRANCH  32  33
ENDBRANCH   1  32
TORSDOF 16
ENDMDL
MODEL 2
REMARK VINA RESULT:     -12.1      0.537      5.973
REMARK SMILES Cc1ccc(C(=O)N2CCC3(CCC(=O)N(CC(=O)NCCCCCCNC(=O)c4ccc(-c5c6nc(c(-c7c(F)cccc7F)c7ccc([nH]7)c(-c7c(F)cccc7F)c7nc(c(-c8c(F)cccc8F)c8ccc5[nH]8)C=C7)C=C6)cc4)C3)CC2)cc1O
REMARK SMILES IDX 23 1 22 2 21 3 20 4 18 5 19 6 17 8 16 9 6 10 7 11 8 12 9 13
REMARK SMILES IDX 86 14 10 15 85 16 11 17 12 18 84 19 13 20 14 21 15 22 5 23
REMARK SMILES IDX 1 24 2 25 3 26 88 27 4 28 87 29 89 30 24 32 25 33 26 34
REMARK SMILES IDX 27 35 28 36 29 38 30 39 31 40 83 41 32 42 82 43 33 44 34 45
REMARK SMILES IDX 35 46 76 47 36 48 81 49 75 50 77 51 37 52 80 53 74 54 73 55
REMARK SMILES IDX 38 57 64 58 47 59 63 60 48 61 51 62 62 63 78 64 49 65 50 66
REMARK SMILES IDX 61 68 79 69 52 70 39 71 40 72 45 73 41 74 42 75 44 76 46 77
REMARK SMILES IDX 43 78 65 79 66 80 71 81 67 82 68 83 70 84 72 85 69 86 53 87
REMARK SMILES IDX 54 88 59 89 55 90 56 91 58 92 60 93 57 94
REMARK H PARENT 20 7 89 31 27 37 77 56 51 67
REMARK Flexibility Score: inf
ROOT
ATOM      1  C   UNL A   1      40.237  22.167  27.236  1.00  0.00     0.002 C 
ENDROOT
BRANCH   1   2
ATOM      2  C   UNL A   1      39.679  23.430  26.567  1.00  0.00     0.021 C 
BRANCH   2   3
ATOM      3  C   UNL A   1      38.164  23.403  26.387  1.00  0.00     0.116 C 
BRANCH   3   4
ATOM      4  N   UNL A   1      37.802  23.220  25.004  1.00  0.00    -0.355 N 
ATOM      5  C   UNL A   1      37.047  22.239  24.435  1.00  0.00     0.239 C 
ATOM      6  O   UNL A   1      36.723  22.390  23.254  1.00  0.00    -0.273 OA
ATOM      7  H   UNL A   1      38.150  23.900  24.383  1.00  0.00     0.163 HD
BRANCH   5   8
ATOM      8  C   UNL A   1      36.445  21.118  25.291  1.00  0.00     0.219 C 
BRANCH   8   9
ATOM      9  N   UNL A   1      35.003  21.128  25.565  1.00  0.00    -0.333 N 
ATOM     10  C   UNL A   1      32.168  26.749  24.242  1.00  0.00     0.253 C 
ATOM     11  O   UNL A   1      32.022  27.062  23.060  1.00  0.00    -0.269 OA
ATOM     12  N   UNL A   1      32.210  25.416  24.639  1.00  0.00    -0.339 N 
ATOM     13  C   UNL A   1      32.677  24.436  23.673  1.00  0.00     0.120 C 
ATOM     14  C   UNL A   1      31.602  24.866  25.845  1.00  0.00     0.120 C 
ATOM     15  C   UNL A   1      33.737  23.569  24.338  1.00  0.00     0.030 C 
ATOM     16  C   UNL A   1      32.564  23.913  26.563  1.00  0.00     0.030 C 
ATOM     17  C   UNL A   1      33.218  22.864  25.620  1.00  0.00    -0.008 C 
ATOM     18  C   UNL A   1      32.213  21.731  25.328  1.00  0.00     0.019 C 
ATOM     19  C   UNL A   1      34.407  22.210  26.338  1.00  0.00     0.127 C 
ATOM     20  C   UNL A   1      32.825  20.588  24.532  1.00  0.00     0.101 C 
ATOM     21  C   UNL A   1      34.231  20.174  24.927  1.00  0.00     0.223 C 
ATOM     22  O   UNL A   1      34.693  19.102  24.540  1.00  0.00    -0.275 OA
BRANCH  10  23
ATOM     23  C   UNL A   1      32.472  27.834  25.225  1.00  0.00     0.043 A 
ATOM     24  C   UNL A   1      33.641  31.266  27.591  1.00  0.00     0.048 C 
ATOM     25  C   UNL A   1      33.197  30.083  26.783  1.00  0.00    -0.009 A 
ATOM     26  C   UNL A   1      33.931  28.893  26.857  1.00  0.00     0.008 A 
ATOM     27  C   UNL A   1      32.100  30.129  25.916  1.00  0.00     0.119 A 
ATOM     28  C   UNL A   1      33.586  27.792  26.069  1.00  0.00     0.014 A 
ATOM     29  C   UNL A   1      31.730  29.018  25.156  1.00  0.00     0.060 A 
BRANCH  27  30
ATOM     30  O   UNL A   1      31.353  31.257  25.733  1.00  0.00    -0.508 OA
ATOM     31  H   UNL A   1      30.876  31.624  26.451  1.00  0.00     0.293 HD
ENDBRANCH  27  30
ENDBRANCH  10  23
ENDBRANCH   8   9
ENDBRANCH   5   8
ENDBRANCH   3   4
ENDBRANCH   2   3
ENDBRANCH   1   2
BRANCH   1  32
ATOM     32  C   UNL A   1      41.558  21.655  26.651  1.00  0.00     0.002 C 
BRANCH  32  33
ATOM     33  C   UNL A   1      41.497  20.241  26.068  1.00  0.00     0.021 C 
BRANCH  33  34
ATOM     34  C   UNL A   1      42.712  19.379  26.390  1.00  0.00     0.116 C 
BRANCH  34  35
ATOM     35  N   UNL A   1      43.455  19.018  25.192  1.00  0.00    -0.352 N 
ATOM     36  C   UNL A   1      44.239  19.804  24.388  1.00  0.00     0.251 C 
ATOM     37  H   UNL A   1      43.385  18.075  24.922  1.00  0.00     0.163 HD
ATOM     38  O   UNL A   1      44.620  19.387  23.295  1.00  0.00    -0.269 OA
BRANCH  36  39
ATOM     39  C   UNL A   1      44.611  21.163  24.827  1.00  0.00     0.039 A 
ATOM     40  C   UNL A   1      44.246  22.255  24.038  1.00  0.00     0.014 A 
ATOM     41  C   UNL A   1      45.325  21.359  26.014  1.00  0.00     0.014 A 
ATOM     42  C   UNL A   1      44.543  23.550  24.468  1.00  0.00     0.010 A 
ATOM     43  C   UNL A   1      45.553  22.651  26.479  1.00  0.00     0.010 A 
ATOM     44  C   UNL A   1      45.169  23.759  25.709  1.00  0.00    -0.014 A 
BRANCH  44  45
ATOM     45  C   UNL A   1      45.427  25.130  26.217  1.00  0.00     0.031 A 
ATOM     46  C   UNL A   1      44.303  25.945  26.796  1.00  0.00     0.074 A 
ATOM     47  C   UNL A   1      46.659  25.662  26.100  1.00  0.00     0.049 A 
ATOM     48  N   UNL A   1      44.317  27.182  27.226  1.00  0.00    -0.248 NA
ATOM     49  C   UNL A   1      42.985  25.296  26.877  1.00  0.00     0.031 C 
ATOM     50  C   UNL A   1      47.821  24.988  25.518  1.00  0.00     0.029 A 
ATOM     51  N   UNL A   1      47.137  26.898  26.457  1.00  0.00    -0.354 N 
ATOM     52  C   UNL A   1      43.013  27.459  27.617  1.00  0.00     0.074 A 
ATOM     53  C   UNL A   1      42.223  26.284  27.320  1.00  0.00     0.031 C 
ATOM     54  C   UNL A   1      48.882  25.809  25.578  1.00  0.00     0.029 A 
ATOM     55  C   UNL A   1      48.467  27.080  26.164  1.00  0.00     0.049 A 
ATOM     56  H   UNL A   1      46.580  27.589  26.883  1.00  0.00     0.167 HD
ATOM     57  C   UNL A   1      42.523  28.583  28.194  1.00  0.00     0.037 A 
ATOM     58  C   UNL A   1      49.261  28.155  26.336  1.00  0.00     0.037 A 
ATOM     59  C   UNL A   1      43.317  29.743  28.506  1.00  0.00     0.049 A 
ATOM     60  C   UNL A   1      48.687  29.396  26.962  1.00  0.00     0.074 A 
ATOM     61  C   UNL A   1      42.926  30.908  29.141  1.00  0.00     0.029 A 
ATOM     62  N   UNL A   1      44.663  29.883  28.203  1.00  0.00    -0.354 N 
ATOM     63  N   UNL A   1      47.467  29.620  27.388  1.00  0.00    -0.248 NA
ATOM     64  C   UNL A   1      49.603  30.533  27.135  1.00  0.00     0.031 C 
ATOM     65  C   UNL A   1      44.021  31.776  29.174  1.00  0.00     0.029 A 
ATOM     66  C   UNL A   1      45.111  31.129  28.614  1.00  0.00     0.049 A 
ATOM     67  H   UNL A   1      45.218  29.201  27.762  1.00  0.00     0.167 HD
ATOM     68  C   UNL A   1      47.477  30.909  27.909  1.00  0.00     0.074 A 
ATOM     69  C   UNL A   1      48.827  31.410  27.757  1.00  0.00     0.031 C 
ATOM     70  C   UNL A   1      46.460  31.612  28.463  1.00  0.00     0.037 A 
BRANCH  57  71
ATOM     71  C   UNL A   1      41.058  28.612  28.525  1.00  0.00     0.057 A 
ATOM     72  C   UNL A   1      40.094  28.990  27.581  1.00  0.00     0.134 A 
ATOM     73  C   UNL A   1      40.603  28.216  29.789  1.00  0.00     0.134 A 
ATOM     74  F   UNL A   1      40.462  29.391  26.354  1.00  0.00    -0.206 F 
ATOM     75  C   UNL A   1      38.733  28.998  27.890  1.00  0.00     0.040 A 
ATOM     76  C   UNL A   1      39.242  28.192  30.100  1.00  0.00     0.040 A 
ATOM     77  F   UNL A   1      41.471  27.837  30.738  1.00  0.00    -0.206 F 
ATOM     78  C   UNL A   1      38.303  28.589  29.151  1.00  0.00     0.006 A 
ENDBRANCH  57  71
BRANCH  58  79
ATOM     79  C   UNL A   1      50.687  28.102  25.926  1.00  0.00     0.057 A 
ATOM     80  C   UNL A   1      51.706  27.926  26.870  1.00  0.00     0.134 A 
ATOM     81  C   UNL A   1      51.069  28.245  24.586  1.00  0.00     0.134 A 
ATOM     82  F   UNL A   1      51.405  27.800  28.171  1.00  0.00    -0.206 F 
ATOM     83  C   UNL A   1      53.052  27.919  26.503  1.00  0.00     0.040 A 
ATOM     84  C   UNL A   1      52.410  28.212  24.201  1.00  0.00     0.040 A 
ATOM     85  F   UNL A   1      50.143  28.408  23.631  1.00  0.00    -0.206 F 
ATOM     86  C   UNL A   1      53.407  28.058  25.162  1.00  0.00     0.006 A 
ENDBRANCH  58  79
BRANCH  70  87
ATOM     87  C   UNL A   1      46.775  32.985  28.983  1.00  0.00     0.057 A 
ATOM     88  C   UNL A   1      47.199  33.201  30.301  1.00  0.00     0.134 A 
ATOM     89  C   UNL A   1      46.692  34.100  28.140  1.00  0.00     0.134 A 
ATOM     90  F   UNL A   1      47.287  32.178  31.163  1.00  0.00    -0.206 F 
ATOM     91  C   UNL A   1      47.505  34.481  30.766  1.00  0.00     0.040 A 
ATOM     92  C   UNL A   1      47.024  35.380  28.585  1.00  0.00     0.040 A 
ATOM     93  F   UNL A   1      46.302  33.962  26.863  1.00  0.00    -0.206 F 
ATOM     94  C   UNL A   1      47.426  35.574  29.905  1.00  0.00     0.006 A 
ENDBRANCH  70  87
ENDBRANCH  44  45
ENDBRANCH  36  39
ENDBRANCH  34  35
ENDBRANCH  33  34
ENDBRANCH  32  33
ENDBRANCH   1  32
TORSDOF 16
ENDMDL
MODEL 3
REMARK VINA RESULT:     -12.1      4.595      6.872
REMARK SMILES Cc1ccc(C(=O)N2CCC3(CCC(=O)N(CC(=O)NCCCCCCNC(=O)c4ccc(-c5c6nc(c(-c7c(F)cccc7F)c7ccc([nH]7)c(-c7c(F)cccc7F)c7nc(c(-c8c(F)cccc8F)c8ccc5[nH]8)C=C7)C=C6)cc4)C3)CC2)cc1O
REMARK SMILES IDX 23 1 22 2 21 3 20 4 18 5 19 6 17 8 16 9 6 10 7 11 8 12 9 13
REMARK SMILES IDX 86 14 10 15 85 16 11 17 12 18 84 19 13 20 14 21 15 22 5 23
REMARK SMILES IDX 1 24 2 25 3 26 88 27 4 28 87 29 89 30 24 32 25 33 26 34
REMARK SMILES IDX 27 35 28 36 29 38 30 39 31 40 83 41 32 42 82 43 33 44 34 45
REMARK SMILES IDX 35 46 76 47 36 48 81 49 75 50 77 51 37 52 80 53 74 54 73 55
REMARK SMILES IDX 38 57 64 58 47 59 63 60 48 61 51 62 62 63 78 64 49 65 50 66
REMARK SMILES IDX 61 68 79 69 52 70 39 71 40 72 45 73 41 74 42 75 44 76 46 77
REMARK SMILES IDX 43 78 65 79 66 80 71 81 67 82 68 83 70 84 72 85 69 86 53 87
REMARK SMILES IDX 54 88 59 89 55 90 56 91 58 92 60 93 57 94
REMARK H PARENT 20 7 89 31 27 37 77 56 51 67
REMARK Flexibility Score: inf
ROOT
ATOM      1  C   UNL A   1      39.982  22.424  27.178  1.00  0.00     0.002 C 
ENDROOT
BRANCH   1   2
ATOM      2  C   UNL A   1      39.414  23.700  26.545  1.00  0.00     0.021 C 
BRANCH   2   3
ATOM      3  C   UNL A   1      37.904  23.652  26.332  1.00  0.00     0.116 C 
BRANCH   3   4
ATOM      4  N   UNL A   1      37.573  23.516  24.936  1.00  0.00    -0.355 N 
ATOM      5  C   UNL A   1      37.011  22.460  24.284  1.00  0.00     0.239 C 
ATOM      6  O   UNL A   1      36.657  22.642  23.116  1.00  0.00    -0.273 OA
ATOM      7  H   UNL A   1      37.784  24.296  24.374  1.00  0.00     0.163 HD
BRANCH   5   8
ATOM      8  C   UNL A   1      36.634  21.181  25.043  1.00  0.00     0.219 C 
BRANCH   8   9
ATOM      9  N   UNL A   1      35.226  20.942  25.378  1.00  0.00    -0.333 N 
ATOM     10  C   UNL A   1      31.316  25.758  23.673  1.00  0.00     0.253 C 
ATOM     11  O   UNL A   1      31.082  25.919  22.475  1.00  0.00    -0.269 OA
ATOM     12  N   UNL A   1      31.627  24.503  24.189  1.00  0.00    -0.339 N 
ATOM     13  C   UNL A   1      32.252  23.540  23.296  1.00  0.00     0.120 C 
ATOM     14  C   UNL A   1      31.169  23.967  25.465  1.00  0.00     0.120 C 
ATOM     15  C   UNL A   1      33.477  22.962  23.990  1.00  0.00     0.030 C 
ATOM     16  C   UNL A   1      32.316  23.291  26.224  1.00  0.00     0.030 C 
ATOM     17  C   UNL A   1      33.137  22.300  25.352  1.00  0.00    -0.008 C 
ATOM     18  C   UNL A   1      32.367  20.972  25.210  1.00  0.00     0.019 C 
ATOM     19  C   UNL A   1      34.450  21.960  26.075  1.00  0.00     0.127 C 
ATOM     20  C   UNL A   1      33.169  19.895  24.496  1.00  0.00     0.101 C 
ATOM     21  C   UNL A   1      34.638  19.799  24.865  1.00  0.00     0.223 C 
ATOM     22  O   UNL A   1      35.291  18.804  24.557  1.00  0.00    -0.275 OA
BRANCH  10  23
ATOM     23  C   UNL A   1      31.427  26.972  24.539  1.00  0.00     0.043 A 
ATOM     24  C   UNL A   1      32.183  30.686  26.630  1.00  0.00     0.048 C 
ATOM     25  C   UNL A   1      31.881  29.409  25.905  1.00  0.00    -0.009 A 
ATOM     26  C   UNL A   1      32.466  28.218  26.351  1.00  0.00     0.008 A 
ATOM     27  C   UNL A   1      31.071  29.360  24.765  1.00  0.00     0.119 A 
ATOM     28  C   UNL A   1      32.260  27.020  25.661  1.00  0.00     0.014 A 
ATOM     29  C   UNL A   1      30.833  28.158  24.096  1.00  0.00     0.060 A 
BRANCH  27  30
ATOM     30  O   UNL A   1      30.498  30.474  24.221  1.00  0.00    -0.508 OA
ATOM     31  H   UNL A   1      29.579  30.625  24.323  1.00  0.00     0.293 HD
ENDBRANCH  27  30
ENDBRANCH  10  23
ENDBRANCH   8   9
ENDBRANCH   5   8
ENDBRANCH   3   4
ENDBRANCH   2   3
ENDBRANCH   1   2
BRANCH   1  32
ATOM     32  C   UNL A   1      40.651  21.457  26.194  1.00  0.00     0.002 C 
BRANCH  32  33
ATOM     33  C   UNL A   1      42.159  21.655  26.023  1.00  0.00     0.021 C 
BRANCH  33  34
ATOM     34  C   UNL A   1      42.542  22.951  25.318  1.00  0.00     0.116 C 
BRANCH  34  35
ATOM     35  N   UNL A   1      43.983  23.155  25.302  1.00  0.00    -0.352 N 
ATOM     36  C   UNL A   1      44.725  24.142  25.897  1.00  0.00     0.251 C 
ATOM     37  H   UNL A   1      44.497  22.490  24.792  1.00  0.00     0.163 HD
ATOM     38  O   UNL A   1      45.911  24.288  25.605  1.00  0.00    -0.269 OA
BRANCH  36  39
ATOM     39  C   UNL A   1      44.093  25.045  26.879  1.00  0.00     0.039 A 
ATOM     40  C   UNL A   1      43.180  24.519  27.795  1.00  0.00     0.014 A 
ATOM     41  C   UNL A   1      44.398  26.410  26.893  1.00  0.00     0.014 A 
ATOM     42  C   UNL A   1      42.616  25.350  28.765  1.00  0.00     0.010 A 
ATOM     43  C   UNL A   1      43.895  27.220  27.906  1.00  0.00     0.010 A 
ATOM     44  C   UNL A   1      42.996  26.700  28.849  1.00  0.00    -0.014 A 
BRANCH  44  45
ATOM     45  C   UNL A   1      42.464  27.582  29.919  1.00  0.00     0.031 A 
ATOM     46  C   UNL A   1      43.106  27.592  31.279  1.00  0.00     0.074 A 
ATOM     47  C   UNL A   1      41.366  28.326  29.683  1.00  0.00     0.049 A 
ATOM     48  N   UNL A   1      42.744  28.239  32.358  1.00  0.00    -0.248 NA
ATOM     49  C   UNL A   1      44.294  26.742  31.459  1.00  0.00     0.031 C 
ATOM     50  C   UNL A   1      40.628  28.370  28.419  1.00  0.00     0.029 A 
ATOM     51  N   UNL A   1      40.673  29.182  30.502  1.00  0.00    -0.354 N 
ATOM     52  C   UNL A   1      43.651  27.867  33.342  1.00  0.00     0.074 A 
ATOM     53  C   UNL A   1      44.543  26.895  32.750  1.00  0.00     0.031 C 
ATOM     54  C   UNL A   1      39.600  29.225  28.540  1.00  0.00     0.029 A 
ATOM     55  C   UNL A   1      39.581  29.758  29.899  1.00  0.00     0.049 A 
ATOM     56  H   UNL A   1      40.933  29.366  31.433  1.00  0.00     0.167 HD
ATOM     57  C   UNL A   1      43.746  28.314  34.618  1.00  0.00     0.037 A 
ATOM     58  C   UNL A   1      38.660  30.611  30.389  1.00  0.00     0.037 A 
ATOM     59  C   UNL A   1      42.868  29.297  35.197  1.00  0.00     0.049 A 
ATOM     60  C   UNL A   1      38.778  31.077  31.814  1.00  0.00     0.074 A 
ATOM     61  C   UNL A   1      42.917  29.857  36.462  1.00  0.00     0.029 A 
ATOM     62  N   UNL A   1      41.781  29.865  34.550  1.00  0.00    -0.354 N 
ATOM     63  N   UNL A   1      39.681  30.767  32.714  1.00  0.00    -0.248 NA
ATOM     64  C   UNL A   1      37.752  32.015  32.291  1.00  0.00     0.031 C 
ATOM     65  C   UNL A   1      41.828  30.722  36.599  1.00  0.00     0.029 A 
ATOM     66  C   UNL A   1      41.134  30.748  35.400  1.00  0.00     0.049 A 
ATOM     67  H   UNL A   1      41.508  29.670  33.624  1.00  0.00     0.167 HD
ATOM     68  C   UNL A   1      39.351  31.496  33.849  1.00  0.00     0.074 A 
ATOM     69  C   UNL A   1      38.174  32.272  33.520  1.00  0.00     0.031 C 
ATOM     70  C   UNL A   1      39.968  31.521  35.056  1.00  0.00     0.037 A 
BRANCH  57  71
ATOM     71  C   UNL A   1      44.839  27.742  35.475  1.00  0.00     0.057 A 
ATOM     72  C   UNL A   1      44.645  26.594  36.254  1.00  0.00     0.134 A 
ATOM     73  C   UNL A   1      46.114  28.322  35.488  1.00  0.00     0.134 A 
ATOM     74  F   UNL A   1      43.445  25.994  36.296  1.00  0.00    -0.206 F 
ATOM     75  C   UNL A   1      45.670  26.057  37.034  1.00  0.00     0.040 A 
ATOM     76  C   UNL A   1      47.156  27.777  36.241  1.00  0.00     0.040 A 
ATOM     77  F   UNL A   1      46.372  29.419  34.762  1.00  0.00    -0.206 F 
ATOM     78  C   UNL A   1      46.934  26.646  37.022  1.00  0.00     0.006 A 
ENDBRANCH  57  71
BRANCH  58  79
ATOM     79  C   UNL A   1      37.554  31.093  29.523  1.00  0.00     0.057 A 
ATOM     80  C   UNL A   1      36.449  30.279  29.240  1.00  0.00     0.134 A 
ATOM     81  C   UNL A   1      37.581  32.366  28.942  1.00  0.00     0.134 A 
ATOM     82  F   UNL A   1      36.374  29.042  29.753  1.00  0.00    -0.206 F 
ATOM     83  C   UNL A   1      35.425  30.704  28.393  1.00  0.00     0.040 A 
ATOM     84  C   UNL A   1      36.549  32.814  28.115  1.00  0.00     0.040 A 
ATOM     85  F   UNL A   1      38.605  33.198  29.179  1.00  0.00    -0.206 F 
ATOM     86  C   UNL A   1      35.472  31.978  27.830  1.00  0.00     0.006 A 
ENDBRANCH  58  79
BRANCH  70  87
ATOM     87  C   UNL A   1      39.407  32.444  36.098  1.00  0.00     0.057 A 
ATOM     88  C   UNL A   1      38.382  32.050  36.967  1.00  0.00     0.134 A 
ATOM     89  C   UNL A   1      39.929  33.735  36.259  1.00  0.00     0.134 A 
ATOM     90  F   UNL A   1      37.829  30.833  36.858  1.00  0.00    -0.206 F 
ATOM     91  C   UNL A   1      37.881  32.914  37.942  1.00  0.00     0.040 A 
ATOM     92  C   UNL A   1      39.457  34.597  37.249  1.00  0.00     0.040 A 
ATOM     93  F   UNL A   1      40.919  34.173  35.466  1.00  0.00    -0.206 F 
ATOM     94  C   UNL A   1      38.424  34.189  38.091  1.00  0.00     0.006 A 
ENDBRANCH  70  87
ENDBRANCH  44  45
ENDBRANCH  36  39
ENDBRANCH  34  35
ENDBRANCH  33  34
ENDBRANCH  32  33
ENDBRANCH   1  32
TORSDOF 16
ENDMDL
