MODEL 1
REMARK VINA RESULT:     -10.1      0.000      0.000
REMARK SMILES CCc1nc(=O)n([C@@H](CC)C(C)C)c(CC)c1CC(=O)NCCCCCCNC(=O)c1ccc(-c2c3nc(c(-c4c(F)cccc4F)c4ccc([nH]4)c(-c4c(F)cccc4F)c4nc(c(-c5c(F)cccc5F)c5ccc2[nH]5)C=C4)C=C3)cc1
REMARK SMILES IDX 24 1 23 2 22 3 21 4 19 5 20 6 18 8 17 9 3 10 4 11 5 12 14 13
REMARK SMILES IDX 6 14 7 15 2 16 1 17 15 18 16 19 8 20 9 21 10 22 11 23 12 24
REMARK SMILES IDX 13 25 25 26 26 27 27 28 28 29 29 30 30 32 31 33 32 34 84 35
REMARK SMILES IDX 33 36 83 37 34 38 35 39 36 40 77 41 37 42 82 43 76 44 78 45
REMARK SMILES IDX 38 46 81 47 75 48 74 49 39 51 65 52 48 53 64 54 49 55 52 56
REMARK SMILES IDX 63 57 79 58 50 59 51 60 62 62 80 63 53 64 40 65 41 66 46 67
REMARK SMILES IDX 42 68 43 69 45 70 47 71 44 72 66 73 67 74 72 75 68 76 69 77
REMARK SMILES IDX 71 78 73 79 70 80 54 81 55 82 60 83 56 84 57 85 59 86 61 87
REMARK SMILES IDX 58 88
REMARK H PARENT 21 7 28 31 78 50 52 61
REMARK Flexibility Score: inf
ROOT
ATOM      1  C   UNL A   1      33.261  29.566  26.649  1.00  0.00     0.002 C 
ENDROOT
BRANCH   1   2
ATOM      2  C   UNL A   1      31.782  29.166  26.656  1.00  0.00     0.021 C 
BRANCH   2   3
ATOM      3  C   UNL A   1      31.465  28.015  27.607  1.00  0.00     0.116 C 
BRANCH   3   4
ATOM      4  N   UNL A   1      30.992  26.845  26.902  1.00  0.00    -0.356 N 
ATOM      5  C   UNL A   1      31.688  25.893  26.225  1.00  0.00     0.224 C 
ATOM      6  O   UNL A   1      31.045  25.003  25.661  1.00  0.00    -0.275 OA
ATOM      7  H   UNL A   1      30.016  26.719  26.912  1.00  0.00     0.163 HD
BRANCH   5   8
ATOM      8  C   UNL A   1      33.215  25.877  26.213  1.00  0.00     0.139 C 
BRANCH   8   9
ATOM      9  C   UNL A   1      33.869  24.924  25.248  1.00  0.00     0.003 A 
ATOM     10  C   UNL A   1      34.045  25.258  23.798  1.00  0.00     0.051 A 
ATOM     11  N   UNL A   1      34.650  24.478  22.969  1.00  0.00    -0.198 NA
ATOM     12  C   UNL A   1      35.191  23.296  23.357  1.00  0.00     0.348 A 
ATOM     13  C   UNL A   1      34.384  23.721  25.629  1.00  0.00     0.028 A 
ATOM     14  O   UNL A   1      35.807  22.632  22.530  1.00  0.00    -0.246 OA
ATOM     15  N   UNL A   1      35.021  22.882  24.687  1.00  0.00    -0.293 N 
BRANCH  10  16
ATOM     16  C   UNL A   1      33.474  26.488  23.046  1.00  0.00     0.053 C 
ATOM     17  C   UNL A   1      33.673  27.935  23.426  1.00  0.00     0.011 C 
ENDBRANCH  10  16
BRANCH  13  18
ATOM     18  C   UNL A   1      34.362  23.290  27.101  1.00  0.00     0.051 C 
ATOM     19  C   UNL A   1      33.096  22.553  27.530  1.00  0.00     0.010 C 
ENDBRANCH  13  18
BRANCH  15  20
ATOM     20  C   UNL A   1      35.556  21.533  25.049  1.00  0.00     0.094 C 
BRANCH  20  21
ATOM     21  C   UNL A   1      34.612  20.385  24.594  1.00  0.00     0.022 C 
ATOM     22  C   UNL A   1      33.156  20.720  24.318  1.00  0.00     0.006 C 
ENDBRANCH  20  21
BRANCH  20  23
ATOM     23  C   UNL A   1      37.075  21.335  24.733  1.00  0.00     0.006 C 
ATOM     24  C   UNL A   1      37.950  22.172  25.679  1.00  0.00     0.009 C 
ATOM     25  C   UNL A   1      37.493  19.864  24.855  1.00  0.00     0.009 C 
ENDBRANCH  20  23
ENDBRANCH  15  20
ENDBRANCH   8   9
ENDBRANCH   5   8
ENDBRANCH   3   4
ENDBRANCH   2   3
ENDBRANCH   1   2
BRANCH   1  26
ATOM     26  C   UNL A   1      33.572  30.904  27.330  1.00  0.00     0.002 C 
BRANCH  26  27
ATOM     27  C   UNL A   1      32.373  31.839  27.497  1.00  0.00     0.021 C 
BRANCH  27  28
ATOM     28  C   UNL A   1      32.552  33.216  26.871  1.00  0.00     0.116 C 
BRANCH  28  29
ATOM     29  N   UNL A   1      32.371  34.293  27.834  1.00  0.00    -0.352 N 
ATOM     30  C   UNL A   1      33.107  34.607  28.949  1.00  0.00     0.251 C 
ATOM     31  H   UNL A   1      31.604  34.884  27.659  1.00  0.00     0.163 HD
ATOM     32  O   UNL A   1      32.696  35.450  29.741  1.00  0.00    -0.269 OA
BRANCH  30  33
ATOM     33  C   UNL A   1      34.385  33.908  29.212  1.00  0.00     0.039 A 
ATOM     34  C   UNL A   1      34.474  32.932  30.204  1.00  0.00     0.014 A 
ATOM     35  C   UNL A   1      35.513  34.241  28.455  1.00  0.00     0.014 A 
ATOM     36  C   UNL A   1      35.716  32.421  30.558  1.00  0.00     0.010 A 
ATOM     37  C   UNL A   1      36.745  33.648  28.747  1.00  0.00     0.010 A 
ATOM     38  C   UNL A   1      36.868  32.770  29.834  1.00  0.00    -0.014 A 
BRANCH  38  39
ATOM     39  C   UNL A   1      38.176  32.192  30.242  1.00  0.00     0.031 A 
ATOM     40  C   UNL A   1      38.974  32.793  31.368  1.00  0.00     0.074 A 
ATOM     41  C   UNL A   1      38.612  31.071  29.633  1.00  0.00     0.049 A 
ATOM     42  N   UNL A   1      40.090  32.369  31.907  1.00  0.00    -0.248 NA
ATOM     43  C   UNL A   1      38.458  34.035  31.965  1.00  0.00     0.031 C 
ATOM     44  C   UNL A   1      37.934  30.395  28.525  1.00  0.00     0.029 A 
ATOM     45  N   UNL A   1      39.706  30.284  29.882  1.00  0.00    -0.354 N 
ATOM     46  C   UNL A   1      40.417  33.295  32.892  1.00  0.00     0.074 A 
ATOM     47  C   UNL A   1      39.401  34.325  32.850  1.00  0.00     0.031 C 
ATOM     48  C   UNL A   1      38.587  29.260  28.238  1.00  0.00     0.029 A 
ATOM     49  C   UNL A   1      39.761  29.159  29.094  1.00  0.00     0.049 A 
ATOM     50  H   UNL A   1      40.387  30.504  30.559  1.00  0.00     0.167 HD
ATOM     51  C   UNL A   1      41.458  33.282  33.759  1.00  0.00     0.037 A 
ATOM     52  C   UNL A   1      40.661  28.160  29.064  1.00  0.00     0.037 A 
ATOM     53  C   UNL A   1      42.465  32.252  33.806  1.00  0.00     0.049 A 
ATOM     54  C   UNL A   1      41.826  28.194  30.010  1.00  0.00     0.074 A 
ATOM     55  C   UNL A   1      43.545  32.136  34.666  1.00  0.00     0.029 A 
ATOM     56  N   UNL A   1      42.519  31.160  32.952  1.00  0.00    -0.354 N 
ATOM     57  N   UNL A   1      42.101  29.059  30.957  1.00  0.00    -0.248 NA
ATOM     58  C   UNL A   1      42.807  27.110  29.879  1.00  0.00     0.031 C 
ATOM     59  C   UNL A   1      44.279  31.002  34.301  1.00  0.00     0.029 A 
ATOM     60  C   UNL A   1      43.628  30.380  33.249  1.00  0.00     0.049 A 
ATOM     61  H   UNL A   1      41.868  30.967  32.240  1.00  0.00     0.167 HD
ATOM     62  C   UNL A   1      43.272  28.610  31.550  1.00  0.00     0.074 A 
ATOM     63  C   UNL A   1      43.639  27.383  30.873  1.00  0.00     0.031 C 
ATOM     64  C   UNL A   1      43.983  29.163  32.563  1.00  0.00     0.037 A 
BRANCH  51  65
ATOM     65  C   UNL A   1      41.573  34.436  34.716  1.00  0.00     0.057 A 
ATOM     66  C   UNL A   1      40.965  34.380  35.978  1.00  0.00     0.134 A 
ATOM     67  C   UNL A   1      42.264  35.610  34.388  1.00  0.00     0.134 A 
ATOM     68  F   UNL A   1      40.281  33.290  36.356  1.00  0.00    -0.206 F 
ATOM     69  C   UNL A   1      41.046  35.445  36.877  1.00  0.00     0.040 A 
ATOM     70  C   UNL A   1      42.375  36.671  35.290  1.00  0.00     0.040 A 
ATOM     71  F   UNL A   1      42.880  35.727  33.202  1.00  0.00    -0.206 F 
ATOM     72  C   UNL A   1      41.760  36.591  36.537  1.00  0.00     0.006 A 
ENDBRANCH  51  65
BRANCH  52  73
ATOM     73  C   UNL A   1      40.499  27.036  28.106  1.00  0.00     0.057 A 
ATOM     74  C   UNL A   1      41.159  27.026  26.873  1.00  0.00     0.134 A 
ATOM     75  C   UNL A   1      39.702  25.929  28.422  1.00  0.00     0.134 A 
ATOM     76  F   UNL A   1      41.933  28.059  26.510  1.00  0.00    -0.206 F 
ATOM     77  C   UNL A   1      41.032  25.958  25.985  1.00  0.00     0.040 A 
ATOM     78  C   UNL A   1      39.588  24.841  27.556  1.00  0.00     0.040 A 
ATOM     79  F   UNL A   1      39.058  25.872  29.598  1.00  0.00    -0.206 F 
ATOM     80  C   UNL A   1      40.253  24.856  26.331  1.00  0.00     0.006 A 
ENDBRANCH  52  73
BRANCH  64  81
ATOM     81  C   UNL A   1      45.206  28.416  33.014  1.00  0.00     0.057 A 
ATOM     82  C   UNL A   1      46.453  28.674  32.433  1.00  0.00     0.134 A 
ATOM     83  C   UNL A   1      45.156  27.459  34.037  1.00  0.00     0.134 A 
ATOM     84  F   UNL A   1      46.572  29.572  31.443  1.00  0.00    -0.206 F 
ATOM     85  C   UNL A   1      47.608  28.020  32.861  1.00  0.00     0.040 A 
ATOM     86  C   UNL A   1      46.310  26.820  34.496  1.00  0.00     0.040 A 
ATOM     87  F   UNL A   1      43.995  27.176  34.647  1.00  0.00    -0.206 F 
ATOM     88  C   UNL A   1      47.540  27.099  33.906  1.00  0.00     0.006 A 
ENDBRANCH  64  81
ENDBRANCH  38  39
ENDBRANCH  30  33
ENDBRANCH  28  29
ENDBRANCH  27  28
ENDBRANCH  26  27
ENDBRANCH   1  26
TORSDOF 19
ENDMDL
MODEL 2
REMARK VINA RESULT:      -9.8      2.720      7.870
REMARK SMILES CCc1nc(=O)n([C@@H](CC)C(C)C)c(CC)c1CC(=O)NCCCCCCNC(=O)c1ccc(-c2c3nc(c(-c4c(F)cccc4F)c4ccc([nH]4)c(-c4c(F)cccc4F)c4nc(c(-c5c(F)cccc5F)c5ccc2[nH]5)C=C4)C=C3)cc1
REMARK SMILES IDX 24 1 23 2 22 3 21 4 19 5 20 6 18 8 17 9 3 10 4 11 5 12 14 13
REMARK SMILES IDX 6 14 7 15 2 16 1 17 15 18 16 19 8 20 9 21 10 22 11 23 12 24
REMARK SMILES IDX 13 25 25 26 26 27 27 28 28 29 29 30 30 32 31 33 32 34 84 35
REMARK SMILES IDX 33 36 83 37 34 38 35 39 36 40 77 41 37 42 82 43 76 44 78 45
REMARK SMILES IDX 38 46 81 47 75 48 74 49 39 51 65 52 48 53 64 54 49 55 52 56
REMARK SMILES IDX 63 57 79 58 50 59 51 60 62 62 80 63 53 64 40 65 41 66 46 67
REMARK SMILES IDX 42 68 43 69 45 70 47 71 44 72 66 73 67 74 72 75 68 76 69 77
REMARK SMILES IDX 71 78 73 79 70 80 54 81 55 82 60 83 56 84 57 85 59 86 61 87
REMARK SMILES IDX 58 88
REMARK H PARENT 21 7 28 31 78 50 52 61
REMARK Flexibility Score: inf
ROOT
ATOM      1  C   UNL A   1      36.050  20.951  25.329  1.00  0.00     0.002 C 
ENDROOT
BRANCH   1   2
ATOM      2  C   UNL A   1      35.039  21.610  26.273  1.00  0.00     0.021 C 
BRANCH   2   3
ATOM      3  C   UNL A   1      33.614  21.626  25.727  1.00  0.00     0.116 C 
BRANCH   3   4
ATOM      4  N   UNL A   1      32.676  22.171  26.682  1.00  0.00    -0.356 N 
ATOM      5  C   UNL A   1      31.552  22.909  26.479  1.00  0.00     0.224 C 
ATOM      6  O   UNL A   1      30.932  23.299  27.473  1.00  0.00    -0.275 OA
ATOM      7  H   UNL A   1      32.883  21.978  27.625  1.00  0.00     0.163 HD
BRANCH   5   8
ATOM      8  C   UNL A   1      31.027  23.193  25.073  1.00  0.00     0.139 C 
BRANCH   8   9
ATOM      9  C   UNL A   1      31.694  24.315  24.322  1.00  0.00     0.003 A 
ATOM     10  C   UNL A   1      32.557  24.065  23.124  1.00  0.00     0.051 A 
ATOM     11  N   UNL A   1      33.093  25.017  22.437  1.00  0.00    -0.198 NA
ATOM     12  C   UNL A   1      32.895  26.323  22.742  1.00  0.00     0.348 A 
ATOM     13  C   UNL A   1      31.524  25.628  24.647  1.00  0.00     0.028 A 
ATOM     14  O   UNL A   1      33.384  27.177  22.010  1.00  0.00    -0.246 OA
ATOM     15  N   UNL A   1      32.145  26.642  23.885  1.00  0.00    -0.293 N 
BRANCH  10  16
ATOM     16  C   UNL A   1      33.027  22.692  22.579  1.00  0.00     0.053 C 
ATOM     17  C   UNL A   1      32.167  21.462  22.405  1.00  0.00     0.011 C 
ENDBRANCH  10  16
BRANCH  13  18
ATOM     18  C   UNL A   1      30.589  26.037  25.792  1.00  0.00     0.051 C 
ATOM     19  C   UNL A   1      29.101  25.917  25.473  1.00  0.00     0.010 C 
ENDBRANCH  13  18
BRANCH  15  20
ATOM     20  C   UNL A   1      32.028  28.092  24.233  1.00  0.00     0.094 C 
BRANCH  20  21
ATOM     21  C   UNL A   1      30.658  28.690  23.807  1.00  0.00     0.022 C 
ATOM     22  C   UNL A   1      30.478  29.111  22.357  1.00  0.00     0.006 C 
ENDBRANCH  20  21
BRANCH  20  23
ATOM     23  C   UNL A   1      32.510  28.450  25.676  1.00  0.00     0.006 C 
ATOM     24  C   UNL A   1      34.044  28.458  25.760  1.00  0.00     0.009 C 
ATOM     25  C   UNL A   1      31.990  29.821  26.126  1.00  0.00     0.009 C 
ENDBRANCH  20  23
ENDBRANCH  15  20
ENDBRANCH   8   9
ENDBRANCH   5   8
ENDBRANCH   3   4
ENDBRANCH   2   3
ENDBRANCH   1   2
BRANCH   1  26
ATOM     26  C   UNL A   1      37.162  21.878  24.823  1.00  0.00     0.002 C 
BRANCH  26  27
ATOM     27  C   UNL A   1      36.907  23.371  25.036  1.00  0.00     0.021 C 
BRANCH  27  28
ATOM     28  C   UNL A   1      37.765  24.012  26.119  1.00  0.00     0.116 C 
BRANCH  28  29
ATOM     29  N   UNL A   1      39.170  23.648  26.003  1.00  0.00    -0.352 N 
ATOM     30  C   UNL A   1      40.285  24.287  26.485  1.00  0.00     0.251 C 
ATOM     31  H   UNL A   1      39.346  22.818  25.504  1.00  0.00     0.163 HD
ATOM     32  O   UNL A   1      41.403  23.921  26.137  1.00  0.00    -0.269 OA
BRANCH  30  33
ATOM     33  C   UNL A   1      40.138  25.437  27.405  1.00  0.00     0.039 A 
ATOM     34  C   UNL A   1      40.829  26.626  27.175  1.00  0.00     0.014 A 
ATOM     35  C   UNL A   1      39.297  25.319  28.517  1.00  0.00     0.014 A 
ATOM     36  C   UNL A   1      40.821  27.625  28.141  1.00  0.00     0.010 A 
ATOM     37  C   UNL A   1      39.213  26.368  29.438  1.00  0.00     0.010 A 
ATOM     38  C   UNL A   1      40.012  27.511  29.284  1.00  0.00    -0.014 A 
BRANCH  38  39
ATOM     39  C   UNL A   1      40.028  28.607  30.289  1.00  0.00     0.031 A 
ATOM     40  C   UNL A   1      39.029  29.731  30.230  1.00  0.00     0.074 A 
ATOM     41  C   UNL A   1      40.910  28.545  31.307  1.00  0.00     0.049 A 
ATOM     42  N   UNL A   1      38.847  30.720  31.069  1.00  0.00    -0.248 NA
ATOM     43  C   UNL A   1      38.118  29.755  29.074  1.00  0.00     0.031 C 
ATOM     44  C   UNL A   1      41.932  27.510  31.475  1.00  0.00     0.029 A 
ATOM     45  N   UNL A   1      41.065  29.346  32.408  1.00  0.00    -0.354 N 
ATOM     46  C   UNL A   1      37.817  31.489  30.540  1.00  0.00     0.074 A 
ATOM     47  C   UNL A   1      37.439  30.874  29.286  1.00  0.00     0.031 C 
ATOM     48  C   UNL A   1      42.560  27.699  32.645  1.00  0.00     0.029 A 
ATOM     49  C   UNL A   1      42.031  28.900  33.278  1.00  0.00     0.049 A 
ATOM     50  H   UNL A   1      40.536  30.163  32.561  1.00  0.00     0.167 HD
ATOM     51  C   UNL A   1      37.231  32.596  31.056  1.00  0.00     0.037 A 
ATOM     52  C   UNL A   1      42.446  29.405  34.453  1.00  0.00     0.037 A 
ATOM     53  C   UNL A   1      37.602  33.203  32.310  1.00  0.00     0.049 A 
ATOM     54  C   UNL A   1      41.804  30.656  34.980  1.00  0.00     0.074 A 
ATOM     55  C   UNL A   1      37.050  34.312  32.930  1.00  0.00     0.029 A 
ATOM     56  N   UNL A   1      38.625  32.757  33.132  1.00  0.00    -0.354 N 
ATOM     57  N   UNL A   1      40.810  31.351  34.484  1.00  0.00    -0.248 NA
ATOM     58  C   UNL A   1      42.349  31.193  36.233  1.00  0.00     0.031 C 
ATOM     59  C   UNL A   1      37.771  34.564  34.103  1.00  0.00     0.029 A 
ATOM     60  C   UNL A   1      38.737  33.581  34.243  1.00  0.00     0.049 A 
ATOM     61  H   UNL A   1      39.189  31.970  32.956  1.00  0.00     0.167 HD
ATOM     62  C   UNL A   1      40.593  32.392  35.376  1.00  0.00     0.074 A 
ATOM     63  C   UNL A   1      41.544  32.220  36.456  1.00  0.00     0.031 C 
ATOM     64  C   UNL A   1      39.691  33.401  35.308  1.00  0.00     0.037 A 
BRANCH  51  65
ATOM     65  C   UNL A   1      36.137  33.238  30.249  1.00  0.00     0.057 A 
ATOM     66  C   UNL A   1      34.793  33.069  30.606  1.00  0.00     0.134 A 
ATOM     67  C   UNL A   1      36.407  34.006  29.108  1.00  0.00     0.134 A 
ATOM     68  F   UNL A   1      34.461  32.340  31.681  1.00  0.00    -0.206 F 
ATOM     69  C   UNL A   1      33.760  33.643  29.862  1.00  0.00     0.040 A 
ATOM     70  C   UNL A   1      35.384  34.608  28.371  1.00  0.00     0.040 A 
ATOM     71  F   UNL A   1      37.672  34.220  28.715  1.00  0.00    -0.206 F 
ATOM     72  C   UNL A   1      34.055  34.423  28.746  1.00  0.00     0.006 A 
ENDBRANCH  51  65
BRANCH  52  73
ATOM     73  C   UNL A   1      43.523  28.728  35.220  1.00  0.00     0.057 A 
ATOM     74  C   UNL A   1      44.872  29.032  35.007  1.00  0.00     0.134 A 
ATOM     75  C   UNL A   1      43.221  27.784  36.208  1.00  0.00     0.134 A 
ATOM     76  F   UNL A   1      45.227  29.925  34.071  1.00  0.00    -0.206 F 
ATOM     77  C   UNL A   1      45.884  28.420  35.746  1.00  0.00     0.040 A 
ATOM     78  C   UNL A   1      44.221  27.185  36.975  1.00  0.00     0.040 A 
ATOM     79  F   UNL A   1      41.945  27.465  36.472  1.00  0.00    -0.206 F 
ATOM     80  C   UNL A   1      45.558  27.501  36.742  1.00  0.00     0.006 A 
ENDBRANCH  52  73
BRANCH  64  81
ATOM     81  C   UNL A   1      39.675  34.369  36.457  1.00  0.00     0.057 A 
ATOM     82  C   UNL A   1      40.354  35.589  36.369  1.00  0.00     0.134 A 
ATOM     83  C   UNL A   1      38.972  34.105  37.640  1.00  0.00     0.134 A 
ATOM     84  F   UNL A   1      41.055  35.903  35.268  1.00  0.00    -0.206 F 
ATOM     85  C   UNL A   1      40.323  36.519  37.409  1.00  0.00     0.040 A 
ATOM     86  C   UNL A   1      38.906  35.040  38.675  1.00  0.00     0.040 A 
ATOM     87  F   UNL A   1      38.286  32.960  37.783  1.00  0.00    -0.206 F 
ATOM     88  C   UNL A   1      39.585  36.251  38.561  1.00  0.00     0.006 A 
ENDBRANCH  64  81
ENDBRANCH  38  39
ENDBRANCH  30  33
ENDBRANCH  28  29
ENDBRANCH  27  28
ENDBRANCH  26  27
ENDBRANCH   1  26
TORSDOF 19
ENDMDL
MODEL 3
REMARK VINA RESULT:      -9.6      2.468      6.908
REMARK SMILES CCc1nc(=O)n([C@@H](CC)C(C)C)c(CC)c1CC(=O)NCCCCCCNC(=O)c1ccc(-c2c3nc(c(-c4c(F)cccc4F)c4ccc([nH]4)c(-c4c(F)cccc4F)c4nc(c(-c5c(F)cccc5F)c5ccc2[nH]5)C=C4)C=C3)cc1
REMARK SMILES IDX 24 1 23 2 22 3 21 4 19 5 20 6 18 8 17 9 3 10 4 11 5 12 14 13
REMARK SMILES IDX 6 14 7 15 2 16 1 17 15 18 16 19 8 20 9 21 10 22 11 23 12 24
REMARK SMILES IDX 13 25 25 26 26 27 27 28 28 29 29 30 30 32 31 33 32 34 84 35
REMARK SMILES IDX 33 36 83 37 34 38 35 39 36 40 77 41 37 42 82 43 76 44 78 45
REMARK SMILES IDX 38 46 81 47 75 48 74 49 39 51 65 52 48 53 64 54 49 55 52 56
REMARK SMILES IDX 63 57 79 58 50 59 51 60 62 62 80 63 53 64 40 65 41 66 46 67
REMARK SMILES IDX 42 68 43 69 45 70 47 71 44 72 66 73 67 74 72 75 68 76 69 77
REMARK SMILES IDX 71 78 73 79 70 80 54 81 55 82 60 83 56 84 57 85 59 86 61 87
REMARK SMILES IDX 58 88
REMARK H PARENT 21 7 28 31 78 50 52 61
REMARK Flexibility Score: inf
ROOT
ATOM      1  C   UNL A   1      34.841  32.018  28.173  1.00  0.00     0.002 C 
ENDROOT
BRANCH   1   2
ATOM      2  C   UNL A   1      35.759  30.793  28.245  1.00  0.00     0.021 C 
BRANCH   2   3
ATOM      3  C   UNL A   1      35.351  29.667  27.299  1.00  0.00     0.116 C 
BRANCH   3   4
ATOM      4  N   UNL A   1      34.068  29.102  27.652  1.00  0.00    -0.356 N 
ATOM      5  C   UNL A   1      33.276  28.237  26.966  1.00  0.00     0.224 C 
ATOM      6  O   UNL A   1      32.190  27.931  27.466  1.00  0.00    -0.275 OA
ATOM      7  H   UNL A   1      33.714  29.389  28.525  1.00  0.00     0.163 HD
BRANCH   5   8
ATOM      8  C   UNL A   1      33.734  27.606  25.652  1.00  0.00     0.139 C 
BRANCH   8   9
ATOM      9  C   UNL A   1      32.786  26.627  25.012  1.00  0.00     0.003 A 
ATOM     10  C   UNL A   1      31.747  27.059  24.022  1.00  0.00     0.051 A 
ATOM     11  N   UNL A   1      30.963  26.228  23.423  1.00  0.00    -0.198 NA
ATOM     12  C   UNL A   1      31.036  24.891  23.635  1.00  0.00     0.348 A 
ATOM     13  C   UNL A   1      32.834  25.286  25.248  1.00  0.00     0.028 A 
ATOM     14  O   UNL A   1      30.301  24.153  22.986  1.00  0.00    -0.246 OA
ATOM     15  N   UNL A   1      31.944  24.408  24.590  1.00  0.00    -0.293 N 
BRANCH  10  16
ATOM     16  C   UNL A   1      31.374  28.512  23.633  1.00  0.00     0.053 C 
ATOM     17  C   UNL A   1      30.799  29.561  24.555  1.00  0.00     0.011 C 
ENDBRANCH  10  16
BRANCH  13  18
ATOM     18  C   UNL A   1      33.910  24.690  26.165  1.00  0.00     0.051 C 
ATOM     19  C   UNL A   1      35.226  24.351  25.468  1.00  0.00     0.010 C 
ENDBRANCH  13  18
BRANCH  15  20
ATOM     20  C   UNL A   1      31.927  22.936  24.855  1.00  0.00     0.094 C 
BRANCH  20  21
ATOM     21  C   UNL A   1      30.682  22.502  25.679  1.00  0.00     0.022 C 
ATOM     22  C   UNL A   1      30.343  23.286  26.935  1.00  0.00     0.006 C 
ENDBRANCH  20  21
BRANCH  20  23
ATOM     23  C   UNL A   1      32.266  22.052  23.612  1.00  0.00     0.006 C 
ATOM     24  C   UNL A   1      33.540  22.549  22.911  1.00  0.00     0.009 C 
ATOM     25  C   UNL A   1      32.464  20.580  23.997  1.00  0.00     0.009 C 
ENDBRANCH  20  23
ENDBRANCH  15  20
ENDBRANCH   8   9
ENDBRANCH   5   8
ENDBRANCH   3   4
ENDBRANCH   2   3
ENDBRANCH   1   2
BRANCH   1  26
ATOM     26  C   UNL A   1      35.564  33.370  28.188  1.00  0.00     0.002 C 
BRANCH  26  27
ATOM     27  C   UNL A   1      34.688  34.568  28.556  1.00  0.00     0.021 C 
BRANCH  27  28
ATOM     28  C   UNL A   1      33.338  34.204  29.159  1.00  0.00     0.116 C 
BRANCH  28  29
ATOM     29  N   UNL A   1      32.834  35.233  30.056  1.00  0.00    -0.352 N 
ATOM     30  C   UNL A   1      33.160  35.496  31.364  1.00  0.00     0.251 C 
ATOM     31  H   UNL A   1      32.157  35.831  29.666  1.00  0.00     0.163 HD
ATOM     32  O   UNL A   1      32.499  36.299  32.014  1.00  0.00    -0.269 OA
BRANCH  30  33
ATOM     33  C   UNL A   1      34.293  34.788  31.999  1.00  0.00     0.039 A 
ATOM     34  C   UNL A   1      35.566  35.357  32.025  1.00  0.00     0.014 A 
ATOM     35  C   UNL A   1      34.077  33.531  32.576  1.00  0.00     0.014 A 
ATOM     36  C   UNL A   1      36.649  34.604  32.460  1.00  0.00     0.010 A 
ATOM     37  C   UNL A   1      35.155  32.816  33.106  1.00  0.00     0.010 A 
ATOM     38  C   UNL A   1      36.458  33.324  33.009  1.00  0.00    -0.014 A 
BRANCH  38  39
ATOM     39  C   UNL A   1      37.644  32.555  33.471  1.00  0.00     0.031 A 
ATOM     40  C   UNL A   1      38.269  31.494  32.605  1.00  0.00     0.074 A 
ATOM     41  C   UNL A   1      38.205  32.870  34.656  1.00  0.00     0.049 A 
ATOM     42  N   UNL A   1      39.352  30.788  32.815  1.00  0.00    -0.248 NA
ATOM     43  C   UNL A   1      37.587  31.177  31.340  1.00  0.00     0.031 C 
ATOM     44  C   UNL A   1      37.692  33.876  35.589  1.00  0.00     0.029 A 
ATOM     45  N   UNL A   1      39.344  32.406  35.260  1.00  0.00    -0.354 N 
ATOM     46  C   UNL A   1      39.473  29.936  31.723  1.00  0.00     0.074 A 
ATOM     47  C   UNL A   1      38.332  30.186  30.869  1.00  0.00     0.031 C 
ATOM     48  C   UNL A   1      38.551  34.002  36.612  1.00  0.00     0.029 A 
ATOM     49  C   UNL A   1      39.636  33.046  36.440  1.00  0.00     0.049 A 
ATOM     50  H   UNL A   1      39.898  31.684  34.885  1.00  0.00     0.167 HD
ATOM     51  C   UNL A   1      40.451  29.039  31.449  1.00  0.00     0.037 A 
ATOM     52  C   UNL A   1      40.664  32.879  37.292  1.00  0.00     0.037 A 
ATOM     53  C   UNL A   1      41.593  28.797  32.295  1.00  0.00     0.049 A 
ATOM     54  C   UNL A   1      41.711  31.848  36.980  1.00  0.00     0.074 A 
ATOM     55  C   UNL A   1      42.651  27.926  32.092  1.00  0.00     0.029 A 
ATOM     56  N   UNL A   1      41.822  29.422  33.511  1.00  0.00    -0.354 N 
ATOM     57  N   UNL A   1      41.829  31.076  35.928  1.00  0.00    -0.248 NA
ATOM     58  C   UNL A   1      42.769  31.667  37.983  1.00  0.00     0.031 C 
ATOM     59  C   UNL A   1      43.494  27.990  33.207  1.00  0.00     0.029 A 
ATOM     60  C   UNL A   1      42.992  28.939  34.081  1.00  0.00     0.049 A 
ATOM     61  H   UNL A   1      41.241  30.107  33.913  1.00  0.00     0.167 HD
ATOM     62  C   UNL A   1      42.985  30.336  36.129  1.00  0.00     0.074 A 
ATOM     63  C   UNL A   1      43.545  30.772  37.392  1.00  0.00     0.031 C 
ATOM     64  C   UNL A   1      43.535  29.379  35.341  1.00  0.00     0.037 A 
BRANCH  51  65
ATOM     65  C   UNL A   1      40.315  28.233  30.187  1.00  0.00     0.057 A 
ATOM     66  C   UNL A   1      41.051  28.568  29.043  1.00  0.00     0.134 A 
ATOM     67  C   UNL A   1      39.443  27.140  30.093  1.00  0.00     0.134 A 
ATOM     68  F   UNL A   1      41.899  29.607  29.059  1.00  0.00    -0.206 F 
ATOM     69  C   UNL A   1      40.929  27.844  27.856  1.00  0.00     0.040 A 
ATOM     70  C   UNL A   1      39.332  26.390  28.919  1.00  0.00     0.040 A 
ATOM     71  F   UNL A   1      38.716  26.756  31.153  1.00  0.00    -0.206 F 
ATOM     72  C   UNL A   1      40.074  26.746  27.795  1.00  0.00     0.006 A 
ENDBRANCH  51  65
BRANCH  52  73
ATOM     73  C   UNL A   1      40.761  33.707  38.521  1.00  0.00     0.057 A 
ATOM     74  C   UNL A   1      40.014  33.406  39.665  1.00  0.00     0.134 A 
ATOM     75  C   UNL A   1      41.632  34.801  38.587  1.00  0.00     0.134 A 
ATOM     76  F   UNL A   1      39.158  32.373  39.663  1.00  0.00    -0.206 F 
ATOM     77  C   UNL A   1      40.125  34.164  40.830  1.00  0.00     0.040 A 
ATOM     78  C   UNL A   1      41.775  35.551  39.755  1.00  0.00     0.040 A 
ATOM     79  F   UNL A   1      42.389  35.128  37.529  1.00  0.00    -0.206 F 
ATOM     80  C   UNL A   1      41.016  35.234  40.880  1.00  0.00     0.006 A 
ENDBRANCH  52  73
BRANCH  64  81
ATOM     81  C   UNL A   1      44.825  28.775  35.817  1.00  0.00     0.057 A 
ATOM     82  C   UNL A   1      46.052  29.347  35.462  1.00  0.00     0.134 A 
ATOM     83  C   UNL A   1      44.856  27.642  36.642  1.00  0.00     0.134 A 
ATOM     84  F   UNL A   1      46.097  30.428  34.668  1.00  0.00    -0.206 F 
ATOM     85  C   UNL A   1      47.262  28.826  35.922  1.00  0.00     0.040 A 
ATOM     86  C   UNL A   1      46.058  27.130  37.135  1.00  0.00     0.040 A 
ATOM     87  F   UNL A   1      43.714  27.054  37.032  1.00  0.00    -0.206 F 
ATOM     88  C   UNL A   1      47.266  27.721  36.773  1.00  0.00     0.006 A 
ENDBRANCH  64  81
ENDBRANCH  38  39
ENDBRANCH  30  33
ENDBRANCH  28  29
ENDBRANCH  27  28
ENDBRANCH  26  27
ENDBRANCH   1  26
TORSDOF 19
ENDMDL
