MODEL 1
REMARK VINA RESULT:     -11.6      0.000      0.000
REMARK SMILES CCc1nn2c(C)c(CCC(=O)NCCCCCCNC(=O)c3ccc(-c4c5nc(c(-c6c(F)cccc6F)c6ccc([nH]6)c(-c6c(F)cccc6F)c6nc(c(-c7c(F)cccc7F)c7ccc4[nH]7)C=C6)C=C5)cc3)c(C)nc2c1-c1ccccc1
REMARK SMILES IDX 16 1 15 2 14 3 13 4 11 5 12 6 10 8 9 9 8 10 3 11 4 12 81 13
REMARK SMILES IDX 5 14 80 15 6 16 79 17 7 18 77 19 78 20 2 21 1 22 82 23 83 24
REMARK SMILES IDX 87 25 84 26 86 27 85 28 17 29 18 30 19 31 20 32 21 33 22 35
REMARK SMILES IDX 23 36 24 37 76 38 25 39 75 40 26 41 27 42 28 43 69 44 29 45
REMARK SMILES IDX 74 46 68 47 70 48 30 49 73 50 67 51 66 52 31 54 57 55 40 56
REMARK SMILES IDX 56 57 41 58 44 59 55 60 71 61 42 62 43 63 54 65 72 66 45 67
REMARK SMILES IDX 32 68 33 69 38 70 34 71 35 72 37 73 39 74 36 75 58 76 59 77
REMARK SMILES IDX 64 78 60 79 61 80 63 81 65 82 62 83 46 84 47 85 52 86 48 87
REMARK SMILES IDX 49 88 51 89 53 90 50 91
REMARK H PARENT 13 7 20 34 70 53 44 64
REMARK Flexibility Score: inf
ROOT
ATOM      1  C   UNL A   1      33.020  28.207  26.955  1.00  0.00     0.002 C 
ENDROOT
BRANCH   1   2
ATOM      2  C   UNL A   1      31.783  29.030  26.572  1.00  0.00     0.021 C 
BRANCH   2   3
ATOM      3  C   UNL A   1      31.860  29.945  25.341  1.00  0.00     0.116 C 
BRANCH   3   4
ATOM      4  N   UNL A   1      30.570  30.078  24.670  1.00  0.00    -0.356 N 
ATOM      5  C   UNL A   1      30.163  29.796  23.400  1.00  0.00     0.220 C 
ATOM      6  O   UNL A   1      29.008  30.102  23.087  1.00  0.00    -0.275 OA
ATOM      7  H   UNL A   1      29.858  30.439  25.246  1.00  0.00     0.163 HD
BRANCH   5   8
ATOM      8  C   UNL A   1      31.068  29.124  22.380  1.00  0.00     0.105 C 
BRANCH   8   9
ATOM      9  C   UNL A   1      30.882  27.598  22.346  1.00  0.00     0.049 C 
BRANCH   9  10
ATOM     10  C   UNL A   1      31.715  26.939  23.404  1.00  0.00    -0.005 A 
ATOM     11  C   UNL A   1      32.619  23.580  26.123  1.00  0.00     0.073 A 
ATOM     12  N   UNL A   1      31.609  24.438  26.016  1.00  0.00    -0.171 NA
ATOM     13  C   UNL A   1      33.759  23.983  25.384  1.00  0.00     0.050 A 
ATOM     14  N   UNL A   1      32.013  25.335  25.107  1.00  0.00    -0.219 N 
ATOM     15  C   UNL A   1      33.344  25.136  24.744  1.00  0.00     0.163 A 
ATOM     16  C   UNL A   1      31.189  26.240  24.433  1.00  0.00     0.046 A 
ATOM     17  N   UNL A   1      33.977  25.993  23.896  1.00  0.00    -0.233 NA
ATOM     18  C   UNL A   1      29.729  26.197  24.808  1.00  0.00     0.067 C 
ATOM     19  C   UNL A   1      33.228  26.872  23.297  1.00  0.00     0.045 A 
ATOM     20  C   UNL A   1      33.986  27.934  22.535  1.00  0.00     0.067 C 
BRANCH  11  21
ATOM     21  C   UNL A   1      32.365  22.415  26.980  1.00  0.00     0.055 C 
ATOM     22  C   UNL A   1      33.456  22.218  28.001  1.00  0.00     0.011 C 
ENDBRANCH  11  21
BRANCH  13  23
ATOM     23  C   UNL A   1      35.113  23.466  25.261  1.00  0.00    -0.013 A 
ATOM     24  C   UNL A   1      35.439  22.427  24.379  1.00  0.00     0.009 A 
ATOM     25  C   UNL A   1      36.140  24.077  25.994  1.00  0.00     0.009 A 
ATOM     26  C   UNL A   1      36.767  21.991  24.260  1.00  0.00     0.001 A 
ATOM     27  C   UNL A   1      37.466  23.654  25.858  1.00  0.00     0.001 A 
ATOM     28  C   UNL A   1      37.778  22.603  25.001  1.00  0.00     0.000 A 
ENDBRANCH  13  23
ENDBRANCH   9  10
ENDBRANCH   8   9
ENDBRANCH   5   8
ENDBRANCH   3   4
ENDBRANCH   2   3
ENDBRANCH   1   2
BRANCH   1  29
ATOM     29  C   UNL A   1      34.400  28.759  26.567  1.00  0.00     0.002 C 
BRANCH  29  30
ATOM     30  C   UNL A   1      35.117  29.702  27.549  1.00  0.00     0.021 C 
BRANCH  30  31
ATOM     31  C   UNL A   1      34.622  31.159  27.626  1.00  0.00     0.116 C 
BRANCH  31  32
ATOM     32  N   UNL A   1      34.414  31.657  28.996  1.00  0.00    -0.352 N 
ATOM     33  C   UNL A   1      35.183  31.680  30.153  1.00  0.00     0.251 C 
ATOM     34  H   UNL A   1      33.528  32.066  29.121  1.00  0.00     0.163 HD
ATOM     35  O   UNL A   1      34.749  32.330  31.109  1.00  0.00    -0.269 OA
BRANCH  33  36
ATOM     36  C   UNL A   1      36.522  31.033  30.298  1.00  0.00     0.039 A 
ATOM     37  C   UNL A   1      37.716  31.725  30.007  1.00  0.00     0.014 A 
ATOM     38  C   UNL A   1      36.653  29.734  30.727  1.00  0.00     0.014 A 
ATOM     39  C   UNL A   1      38.970  31.059  29.963  1.00  0.00     0.010 A 
ATOM     40  C   UNL A   1      37.854  29.055  30.557  1.00  0.00     0.010 A 
ATOM     41  C   UNL A   1      39.033  29.680  30.156  1.00  0.00    -0.014 A 
BRANCH  41  42
ATOM     42  C   UNL A   1      40.274  28.866  30.162  1.00  0.00     0.031 A 
ATOM     43  C   UNL A   1      40.928  28.722  31.507  1.00  0.00     0.074 A 
ATOM     44  C   UNL A   1      40.713  28.007  29.207  1.00  0.00     0.049 A 
ATOM     45  N   UNL A   1      42.039  29.244  31.922  1.00  0.00    -0.248 NA
ATOM     46  C   UNL A   1      40.222  27.966  32.549  1.00  0.00     0.031 C 
ATOM     47  C   UNL A   1      40.111  27.645  27.924  1.00  0.00     0.029 A 
ATOM     48  N   UNL A   1      41.797  27.162  29.264  1.00  0.00    -0.354 N 
ATOM     49  C   UNL A   1      42.217  28.767  33.224  1.00  0.00     0.074 A 
ATOM     50  C   UNL A   1      40.966  28.200  33.624  1.00  0.00     0.031 C 
ATOM     51  C   UNL A   1      40.696  26.520  27.439  1.00  0.00     0.029 A 
ATOM     52  C   UNL A   1      41.842  26.188  28.268  1.00  0.00     0.049 A 
ATOM     53  H   UNL A   1      42.490  27.240  29.958  1.00  0.00     0.167 HD
ATOM     54  C   UNL A   1      43.438  28.637  33.812  1.00  0.00     0.037 A 
ATOM     55  C   UNL A   1      42.764  25.198  28.123  1.00  0.00     0.037 A 
ATOM     56  C   UNL A   1      44.451  29.348  33.083  1.00  0.00     0.049 A 
ATOM     57  C   UNL A   1      43.963  25.606  28.891  1.00  0.00     0.074 A 
ATOM     58  C   UNL A   1      44.599  30.653  32.654  1.00  0.00     0.029 A 
ATOM     59  N   UNL A   1      45.348  28.616  32.346  1.00  0.00    -0.354 N 
ATOM     60  N   UNL A   1      44.754  26.584  28.555  1.00  0.00    -0.248 NA
ATOM     61  C   UNL A   1      44.107  25.120  30.253  1.00  0.00     0.031 C 
ATOM     62  C   UNL A   1      45.172  30.545  31.354  1.00  0.00     0.029 A 
ATOM     63  C   UNL A   1      45.388  29.189  31.102  1.00  0.00     0.049 A 
ATOM     64  H   UNL A   1      45.862  27.833  32.651  1.00  0.00     0.167 HD
ATOM     65  C   UNL A   1      45.174  27.119  29.759  1.00  0.00     0.074 A 
ATOM     66  C   UNL A   1      44.852  26.105  30.758  1.00  0.00     0.031 C 
ATOM     67  C   UNL A   1      45.479  28.444  29.868  1.00  0.00     0.037 A 
BRANCH  54  68
ATOM     68  C   UNL A   1      43.771  27.613  34.873  1.00  0.00     0.057 A 
ATOM     69  C   UNL A   1      43.642  26.246  34.573  1.00  0.00     0.134 A 
ATOM     70  C   UNL A   1      43.983  27.904  36.239  1.00  0.00     0.134 A 
ATOM     71  F   UNL A   1      43.402  25.837  33.319  1.00  0.00    -0.206 F 
ATOM     72  C   UNL A   1      43.682  25.250  35.558  1.00  0.00     0.040 A 
ATOM     73  C   UNL A   1      44.089  26.914  37.221  1.00  0.00     0.040 A 
ATOM     74  F   UNL A   1      44.005  29.154  36.716  1.00  0.00    -0.206 F 
ATOM     75  C   UNL A   1      43.910  25.582  36.887  1.00  0.00     0.006 A 
ENDBRANCH  54  68
BRANCH  55  76
ATOM     76  C   UNL A   1      42.716  23.862  27.478  1.00  0.00     0.057 A 
ATOM     77  C   UNL A   1      42.226  22.735  28.164  1.00  0.00     0.134 A 
ATOM     78  C   UNL A   1      42.860  23.716  26.090  1.00  0.00     0.134 A 
ATOM     79  F   UNL A   1      42.020  22.776  29.488  1.00  0.00    -0.206 F 
ATOM     80  C   UNL A   1      41.863  21.551  27.507  1.00  0.00     0.040 A 
ATOM     81  C   UNL A   1      42.505  22.535  25.420  1.00  0.00     0.040 A 
ATOM     82  F   UNL A   1      43.261  24.744  25.331  1.00  0.00    -0.206 F 
ATOM     83  C   UNL A   1      41.988  21.453  26.126  1.00  0.00     0.006 A 
ENDBRANCH  55  76
BRANCH  67  84
ATOM     84  C   UNL A   1      45.627  29.258  28.610  1.00  0.00     0.057 A 
ATOM     85  C   UNL A   1      44.574  29.946  27.986  1.00  0.00     0.134 A 
ATOM     86  C   UNL A   1      46.917  29.520  28.133  1.00  0.00     0.134 A 
ATOM     87  F   UNL A   1      43.314  29.836  28.420  1.00  0.00    -0.206 F 
ATOM     88  C   UNL A   1      44.795  30.838  26.933  1.00  0.00     0.040 A 
ATOM     89  C   UNL A   1      47.155  30.436  27.106  1.00  0.00     0.040 A 
ATOM     90  F   UNL A   1      47.981  28.934  28.707  1.00  0.00    -0.206 F 
ATOM     91  C   UNL A   1      46.091  31.099  26.500  1.00  0.00     0.006 A 
ENDBRANCH  67  84
ENDBRANCH  41  42
ENDBRANCH  33  36
ENDBRANCH  31  32
ENDBRANCH  30  31
ENDBRANCH  29  30
ENDBRANCH   1  29
TORSDOF 17
ENDMDL
MODEL 2
REMARK VINA RESULT:     -11.4      1.580      2.335
REMARK SMILES CCc1nn2c(C)c(CCC(=O)NCCCCCCNC(=O)c3ccc(-c4c5nc(c(-c6c(F)cccc6F)c6ccc([nH]6)c(-c6c(F)cccc6F)c6nc(c(-c7c(F)cccc7F)c7ccc4[nH]7)C=C6)C=C5)cc3)c(C)nc2c1-c1ccccc1
REMARK SMILES IDX 16 1 15 2 14 3 13 4 11 5 12 6 10 8 9 9 8 10 3 11 4 12 81 13
REMARK SMILES IDX 5 14 80 15 6 16 79 17 7 18 77 19 78 20 2 21 1 22 82 23 83 24
REMARK SMILES IDX 87 25 84 26 86 27 85 28 17 29 18 30 19 31 20 32 21 33 22 35
REMARK SMILES IDX 23 36 24 37 76 38 25 39 75 40 26 41 27 42 28 43 69 44 29 45
REMARK SMILES IDX 74 46 68 47 70 48 30 49 73 50 67 51 66 52 31 54 57 55 40 56
REMARK SMILES IDX 56 57 41 58 44 59 55 60 71 61 42 62 43 63 54 65 72 66 45 67
REMARK SMILES IDX 32 68 33 69 38 70 34 71 35 72 37 73 39 74 36 75 58 76 59 77
REMARK SMILES IDX 64 78 60 79 61 80 63 81 65 82 62 83 46 84 47 85 52 86 48 87
REMARK SMILES IDX 49 88 51 89 53 90 50 91
REMARK H PARENT 13 7 20 34 70 53 44 64
REMARK Flexibility Score: inf
ROOT
ATOM      1  C   UNL A   1      32.403  30.155  27.094  1.00  0.00     0.002 C 
ENDROOT
BRANCH   1   2
ATOM      2  C   UNL A   1      31.623  30.373  25.791  1.00  0.00     0.021 C 
BRANCH   2   3
ATOM      3  C   UNL A   1      32.052  29.596  24.537  1.00  0.00     0.116 C 
BRANCH   3   4
ATOM      4  N   UNL A   1      30.973  29.489  23.558  1.00  0.00    -0.356 N 
ATOM      5  C   UNL A   1      30.532  28.453  22.789  1.00  0.00     0.220 C 
ATOM      6  O   UNL A   1      29.638  28.688  21.971  1.00  0.00    -0.275 OA
ATOM      7  H   UNL A   1      30.468  30.324  23.430  1.00  0.00     0.163 HD
BRANCH   5   8
ATOM      8  C   UNL A   1      31.092  27.045  22.912  1.00  0.00     0.105 C 
BRANCH   8   9
ATOM      9  C   UNL A   1      32.487  26.911  22.281  1.00  0.00     0.049 C 
BRANCH   9  10
ATOM     10  C   UNL A   1      33.179  25.678  22.782  1.00  0.00    -0.005 A 
ATOM     11  C   UNL A   1      34.100  22.741  25.948  1.00  0.00     0.073 A 
ATOM     12  N   UNL A   1      34.330  24.041  25.797  1.00  0.00    -0.171 NA
ATOM     13  C   UNL A   1      33.711  22.111  24.739  1.00  0.00     0.050 A 
ATOM     14  N   UNL A   1      33.967  24.312  24.536  1.00  0.00    -0.219 N 
ATOM     15  C   UNL A   1      33.647  23.153  23.832  1.00  0.00     0.163 A 
ATOM     16  C   UNL A   1      33.730  25.585  24.012  1.00  0.00     0.046 A 
ATOM     17  N   UNL A   1      33.336  23.197  22.508  1.00  0.00    -0.233 NA
ATOM     18  C   UNL A   1      33.940  26.733  24.967  1.00  0.00     0.067 C 
ATOM     19  C   UNL A   1      33.158  24.380  21.996  1.00  0.00     0.045 A 
ATOM     20  C   UNL A   1      33.026  24.404  20.490  1.00  0.00     0.067 C 
BRANCH  11  21
ATOM     21  C   UNL A   1      34.304  22.221  27.306  1.00  0.00     0.055 C 
ATOM     22  C   UNL A   1      33.027  22.218  28.106  1.00  0.00     0.011 C 
ENDBRANCH  11  21
BRANCH  13  23
ATOM     23  C   UNL A   1      33.459  20.730  24.361  1.00  0.00    -0.013 A 
ATOM     24  C   UNL A   1      32.383  20.364  23.542  1.00  0.00     0.009 A 
ATOM     25  C   UNL A   1      34.364  19.740  24.768  1.00  0.00     0.009 A 
ATOM     26  C   UNL A   1      32.204  19.024  23.164  1.00  0.00     0.001 A 
ATOM     27  C   UNL A   1      34.196  18.409  24.374  1.00  0.00     0.001 A 
ATOM     28  C   UNL A   1      33.109  18.048  23.583  1.00  0.00     0.000 A 
ENDBRANCH  13  23
ENDBRANCH   9  10
ENDBRANCH   8   9
ENDBRANCH   5   8
ENDBRANCH   3   4
ENDBRANCH   2   3
ENDBRANCH   1   2
BRANCH   1  29
ATOM     29  C   UNL A   1      33.911  29.878  26.992  1.00  0.00     0.002 C 
BRANCH  29  30
ATOM     30  C   UNL A   1      34.882  30.817  27.728  1.00  0.00     0.021 C 
BRANCH  30  31
ATOM     31  C   UNL A   1      34.353  32.204  28.142  1.00  0.00     0.116 C 
BRANCH  31  32
ATOM     32  N   UNL A   1      34.148  32.367  29.591  1.00  0.00    -0.352 N 
ATOM     33  C   UNL A   1      34.927  32.137  30.719  1.00  0.00     0.251 C 
ATOM     34  H   UNL A   1      33.255  32.718  29.811  1.00  0.00     0.163 HD
ATOM     35  O   UNL A   1      34.489  32.539  31.801  1.00  0.00    -0.269 OA
BRANCH  33  36
ATOM     36  C   UNL A   1      36.279  31.501  30.704  1.00  0.00     0.039 A 
ATOM     37  C   UNL A   1      37.452  32.259  30.508  1.00  0.00     0.014 A 
ATOM     38  C   UNL A   1      36.443  30.149  30.888  1.00  0.00     0.014 A 
ATOM     39  C   UNL A   1      38.713  31.637  30.308  1.00  0.00     0.010 A 
ATOM     40  C   UNL A   1      37.647  29.537  30.562  1.00  0.00     0.010 A 
ATOM     41  C   UNL A   1      38.804  30.248  30.245  1.00  0.00    -0.014 A 
BRANCH  41  42
ATOM     42  C   UNL A   1      40.056  29.471  30.067  1.00  0.00     0.031 A 
ATOM     43  C   UNL A   1      40.810  29.189  31.336  1.00  0.00     0.074 A 
ATOM     44  C   UNL A   1      40.438  28.741  28.989  1.00  0.00     0.049 A 
ATOM     45  N   UNL A   1      41.938  29.688  31.730  1.00  0.00    -0.248 NA
ATOM     46  C   UNL A   1      40.196  28.299  32.330  1.00  0.00     0.031 C 
ATOM     47  C   UNL A   1      39.750  28.515  27.718  1.00  0.00     0.029 A 
ATOM     48  N   UNL A   1      41.538  27.924  28.869  1.00  0.00    -0.354 N 
ATOM     49  C   UNL A   1      42.220  29.068  32.951  1.00  0.00     0.074 A 
ATOM     50  C   UNL A   1      41.012  28.425  33.369  1.00  0.00     0.031 C 
ATOM     51  C   UNL A   1      40.317  27.470  27.064  1.00  0.00     0.029 A 
ATOM     52  C   UNL A   1      41.526  27.074  27.764  1.00  0.00     0.049 A 
ATOM     53  H   UNL A   1      42.279  27.938  29.516  1.00  0.00     0.167 HD
ATOM     54  C   UNL A   1      43.483  28.902  33.430  1.00  0.00     0.037 A 
ATOM     55  C   UNL A   1      42.453  26.132  27.439  1.00  0.00     0.037 A 
ATOM     56  C   UNL A   1      44.428  29.720  32.721  1.00  0.00     0.049 A 
ATOM     57  C   UNL A   1      43.698  26.479  28.162  1.00  0.00     0.074 A 
ATOM     58  C   UNL A   1      44.520  31.069  32.439  1.00  0.00     0.029 A 
ATOM     59  N   UNL A   1      45.281  29.101  31.840  1.00  0.00    -0.354 N 
ATOM     60  N   UNL A   1      44.445  27.509  27.888  1.00  0.00    -0.248 NA
ATOM     61  C   UNL A   1      43.950  25.842  29.444  1.00  0.00     0.031 C 
ATOM     62  C   UNL A   1      44.997  31.128  31.098  1.00  0.00     0.029 A 
ATOM     63  C   UNL A   1      45.219  29.816  30.674  1.00  0.00     0.049 A 
ATOM     64  H   UNL A   1      45.829  28.303  32.014  1.00  0.00     0.167 HD
ATOM     65  C   UNL A   1      44.942  27.912  29.114  1.00  0.00     0.074 A 
ATOM     66  C   UNL A   1      44.713  26.780  30.007  1.00  0.00     0.031 C 
ATOM     67  C   UNL A   1      45.232  29.222  29.356  1.00  0.00     0.037 A 
BRANCH  54  68
ATOM     68  C   UNL A   1      43.912  27.771  34.338  1.00  0.00     0.057 A 
ATOM     69  C   UNL A   1      44.493  28.071  35.582  1.00  0.00     0.134 A 
ATOM     70  C   UNL A   1      43.998  26.415  33.954  1.00  0.00     0.134 A 
ATOM     71  F   UNL A   1      44.510  29.329  36.047  1.00  0.00    -0.206 F 
ATOM     72  C   UNL A   1      45.144  27.108  36.363  1.00  0.00     0.040 A 
ATOM     73  C   UNL A   1      44.588  25.432  34.755  1.00  0.00     0.040 A 
ATOM     74  F   UNL A   1      43.608  25.979  32.750  1.00  0.00    -0.206 F 
ATOM     75  C   UNL A   1      45.190  25.781  35.953  1.00  0.00     0.006 A 
ENDBRANCH  54  68
BRANCH  55  76
ATOM     76  C   UNL A   1      42.381  24.879  26.645  1.00  0.00     0.057 A 
ATOM     77  C   UNL A   1      43.132  24.715  25.466  1.00  0.00     0.134 A 
ATOM     78  C   UNL A   1      41.818  23.709  27.178  1.00  0.00     0.134 A 
ATOM     79  F   UNL A   1      43.740  25.761  24.891  1.00  0.00    -0.206 F 
ATOM     80  C   UNL A   1      43.344  23.460  24.876  1.00  0.00     0.040 A 
ATOM     81  C   UNL A   1      42.019  22.449  26.595  1.00  0.00     0.040 A 
ATOM     82  F   UNL A   1      41.135  23.741  28.330  1.00  0.00    -0.206 F 
ATOM     83  C   UNL A   1      42.799  22.318  25.450  1.00  0.00     0.006 A 
ENDBRANCH  55  76
BRANCH  67  84
ATOM     84  C   UNL A   1      45.272  30.181  28.196  1.00  0.00     0.057 A 
ATOM     85  C   UNL A   1      44.168  30.921  27.744  1.00  0.00     0.134 A 
ATOM     86  C   UNL A   1      46.518  30.518  27.652  1.00  0.00     0.134 A 
ATOM     87  F   UNL A   1      42.948  30.740  28.260  1.00  0.00    -0.206 F 
ATOM     88  C   UNL A   1      44.297  31.934  26.789  1.00  0.00     0.040 A 
ATOM     89  C   UNL A   1      46.666  31.552  26.726  1.00  0.00     0.040 A 
ATOM     90  F   UNL A   1      47.628  29.886  28.067  1.00  0.00    -0.206 F 
ATOM     91  C   UNL A   1      45.552  32.264  26.289  1.00  0.00     0.006 A 
ENDBRANCH  67  84
ENDBRANCH  41  42
ENDBRANCH  33  36
ENDBRANCH  31  32
ENDBRANCH  30  31
ENDBRANCH  29  30
ENDBRANCH   1  29
TORSDOF 17
ENDMDL
MODEL 3
REMARK VINA RESULT:     -11.1      1.550      2.654
REMARK SMILES CCc1nn2c(C)c(CCC(=O)NCCCCCCNC(=O)c3ccc(-c4c5nc(c(-c6c(F)cccc6F)c6ccc([nH]6)c(-c6c(F)cccc6F)c6nc(c(-c7c(F)cccc7F)c7ccc4[nH]7)C=C6)C=C5)cc3)c(C)nc2c1-c1ccccc1
REMARK SMILES IDX 16 1 15 2 14 3 13 4 11 5 12 6 10 8 9 9 8 10 3 11 4 12 81 13
REMARK SMILES IDX 5 14 80 15 6 16 79 17 7 18 77 19 78 20 2 21 1 22 82 23 83 24
REMARK SMILES IDX 87 25 84 26 86 27 85 28 17 29 18 30 19 31 20 32 21 33 22 35
REMARK SMILES IDX 23 36 24 37 76 38 25 39 75 40 26 41 27 42 28 43 69 44 29 45
REMARK SMILES IDX 74 46 68 47 70 48 30 49 73 50 67 51 66 52 31 54 57 55 40 56
REMARK SMILES IDX 56 57 41 58 44 59 55 60 71 61 42 62 43 63 54 65 72 66 45 67
REMARK SMILES IDX 32 68 33 69 38 70 34 71 35 72 37 73 39 74 36 75 58 76 59 77
REMARK SMILES IDX 64 78 60 79 61 80 63 81 65 82 62 83 46 84 47 85 52 86 48 87
REMARK SMILES IDX 49 88 51 89 53 90 50 91
REMARK H PARENT 13 7 20 34 70 53 44 64
REMARK Flexibility Score: inf
ROOT
ATOM      1  C   UNL A   1      36.903  30.931  28.394  1.00  0.00     0.002 C 
ENDROOT
BRANCH   1   2
ATOM      2  C   UNL A   1      35.874  29.797  28.487  1.00  0.00     0.021 C 
BRANCH   2   3
ATOM      3  C   UNL A   1      34.906  29.582  27.314  1.00  0.00     0.116 C 
BRANCH   3   4
ATOM      4  N   UNL A   1      33.706  30.406  27.430  1.00  0.00    -0.356 N 
ATOM      5  C   UNL A   1      32.696  30.682  26.558  1.00  0.00     0.220 C 
ATOM      6  O   UNL A   1      31.842  31.502  26.911  1.00  0.00    -0.275 OA
ATOM      7  H   UNL A   1      33.609  30.846  28.305  1.00  0.00     0.163 HD
BRANCH   5   8
ATOM      8  C   UNL A   1      32.585  30.018  25.194  1.00  0.00     0.105 C 
BRANCH   8   9
ATOM      9  C   UNL A   1      31.179  29.457  24.927  1.00  0.00     0.049 C 
BRANCH   9  10
ATOM     10  C   UNL A   1      31.195  27.957  24.949  1.00  0.00    -0.005 A 
ATOM     11  C   UNL A   1      32.408  24.048  23.293  1.00  0.00     0.073 A 
ATOM     12  N   UNL A   1      31.653  25.047  22.849  1.00  0.00    -0.171 NA
ATOM     13  C   UNL A   1      32.668  24.137  24.684  1.00  0.00     0.050 A 
ATOM     14  N   UNL A   1      31.521  25.873  23.895  1.00  0.00    -0.219 N 
ATOM     15  C   UNL A   1      32.066  25.325  25.055  1.00  0.00     0.163 A 
ATOM     16  C   UNL A   1      31.084  27.198  23.837  1.00  0.00     0.046 A 
ATOM     17  N   UNL A   1      31.960  25.964  26.252  1.00  0.00    -0.233 NA
ATOM     18  C   UNL A   1      30.708  27.702  22.467  1.00  0.00     0.067 C 
ATOM     19  C   UNL A   1      31.509  27.184  26.217  1.00  0.00     0.045 A 
ATOM     20  C   UNL A   1      31.204  27.785  27.570  1.00  0.00     0.067 C 
BRANCH  11  21
ATOM     21  C   UNL A   1      32.805  23.062  22.280  1.00  0.00     0.055 C 
ATOM     22  C   UNL A   1      32.192  21.710  22.541  1.00  0.00     0.011 C 
ENDBRANCH  11  21
BRANCH  13  23
ATOM     23  C   UNL A   1      33.330  23.265  25.642  1.00  0.00    -0.013 A 
ATOM     24  C   UNL A   1      32.636  22.629  26.678  1.00  0.00     0.009 A 
ATOM     25  C   UNL A   1      34.695  22.994  25.478  1.00  0.00     0.009 A 
ATOM     26  C   UNL A   1      33.307  21.759  27.551  1.00  0.00     0.001 A 
ATOM     27  C   UNL A   1      35.359  22.112  26.337  1.00  0.00     0.001 A 
ATOM     28  C   UNL A   1      34.668  21.504  27.381  1.00  0.00     0.000 A 
ENDBRANCH  13  23
ENDBRANCH   9  10
ENDBRANCH   8   9
ENDBRANCH   5   8
ENDBRANCH   3   4
ENDBRANCH   2   3
ENDBRANCH   1   2
BRANCH   1  29
ATOM     29  C   UNL A   1      36.384  32.353  28.131  1.00  0.00     0.002 C 
BRANCH  29  30
ATOM     30  C   UNL A   1      35.793  33.149  29.307  1.00  0.00     0.021 C 
BRANCH  30  31
ATOM     31  C   UNL A   1      34.548  32.566  30.006  1.00  0.00     0.116 C 
BRANCH  31  32
ATOM     32  N   UNL A   1      34.570  32.676  31.474  1.00  0.00    -0.352 N 
ATOM     33  C   UNL A   1      35.473  32.315  32.466  1.00  0.00     0.251 C 
ATOM     34  H   UNL A   1      33.760  33.103  31.834  1.00  0.00     0.163 HD
ATOM     35  O   UNL A   1      35.239  32.705  33.614  1.00  0.00    -0.269 OA
BRANCH  33  36
ATOM     36  C   UNL A   1      36.735  31.551  32.232  1.00  0.00     0.039 A 
ATOM     37  C   UNL A   1      37.954  32.200  31.949  1.00  0.00     0.014 A 
ATOM     38  C   UNL A   1      36.767  30.178  32.286  1.00  0.00     0.014 A 
ATOM     39  C   UNL A   1      39.106  31.475  31.543  1.00  0.00     0.010 A 
ATOM     40  C   UNL A   1      37.850  29.479  31.764  1.00  0.00     0.010 A 
ATOM     41  C   UNL A   1      39.033  30.096  31.361  1.00  0.00    -0.014 A 
BRANCH  41  42
ATOM     42  C   UNL A   1      40.161  29.216  30.966  1.00  0.00     0.031 A 
ATOM     43  C   UNL A   1      41.082  28.827  32.088  1.00  0.00     0.074 A 
ATOM     44  C   UNL A   1      40.293  28.488  29.828  1.00  0.00     0.049 A 
ATOM     45  N   UNL A   1      42.301  29.210  32.300  1.00  0.00    -0.248 NA
ATOM     46  C   UNL A   1      40.557  27.964  33.155  1.00  0.00     0.031 C 
ATOM     47  C   UNL A   1      39.390  28.366  28.684  1.00  0.00     0.029 A 
ATOM     48  N   UNL A   1      41.277  27.581  29.515  1.00  0.00    -0.354 N 
ATOM     49  C   UNL A   1      42.718  28.529  33.446  1.00  0.00     0.074 A 
ATOM     50  C   UNL A   1      41.540  27.984  34.047  1.00  0.00     0.031 C 
ATOM     51  C   UNL A   1      39.742  27.295  27.928  1.00  0.00     0.029 A 
ATOM     52  C   UNL A   1      41.007  26.770  28.412  1.00  0.00     0.049 A 
ATOM     53  H   UNL A   1      42.112  27.508  30.031  1.00  0.00     0.167 HD
ATOM     54  C   UNL A   1      44.021  28.235  33.709  1.00  0.00     0.037 A 
ATOM     55  C   UNL A   1      41.776  25.760  27.923  1.00  0.00     0.037 A 
ATOM     56  C   UNL A   1      44.910  28.987  32.867  1.00  0.00     0.049 A 
ATOM     57  C   UNL A   1      43.149  25.971  28.437  1.00  0.00     0.074 A 
ATOM     58  C   UNL A   1      45.082  30.331  32.596  1.00  0.00     0.029 A 
ATOM     59  N   UNL A   1      45.547  28.323  31.848  1.00  0.00    -0.354 N 
ATOM     60  N   UNL A   1      43.934  26.939  28.061  1.00  0.00    -0.248 NA
ATOM     61  C   UNL A   1      43.545  25.274  29.649  1.00  0.00     0.031 C 
ATOM     62  C   UNL A   1      45.337  30.389  31.195  1.00  0.00     0.029 A 
ATOM     63  C   UNL A   1      45.363  29.077  30.719  1.00  0.00     0.049 A 
ATOM     64  H   UNL A   1      46.040  27.474  31.915  1.00  0.00     0.167 HD
ATOM     65  C   UNL A   1      44.660  27.256  29.195  1.00  0.00     0.074 A 
ATOM     66  C   UNL A   1      44.474  26.122  30.095  1.00  0.00     0.031 C 
ATOM     67  C   UNL A   1      45.106  28.527  29.408  1.00  0.00     0.037 A 
BRANCH  54  68
ATOM     68  C   UNL A   1      44.484  27.042  34.514  1.00  0.00     0.057 A 
ATOM     69  C   UNL A   1      45.307  27.248  35.635  1.00  0.00     0.134 A 
ATOM     70  C   UNL A   1      44.358  25.695  34.109  1.00  0.00     0.134 A 
ATOM     71  F   UNL A   1      45.538  28.484  36.100  1.00  0.00    -0.206 F 
ATOM     72  C   UNL A   1      45.982  26.202  36.278  1.00  0.00     0.040 A 
ATOM     73  C   UNL A   1      44.975  24.636  34.783  1.00  0.00     0.040 A 
ATOM     74  F   UNL A   1      43.715  25.334  32.992  1.00  0.00    -0.206 F 
ATOM     75  C   UNL A   1      45.814  24.890  35.855  1.00  0.00     0.006 A 
ENDBRANCH  54  68
BRANCH  55  76
ATOM     76  C   UNL A   1      41.459  24.545  27.132  1.00  0.00     0.057 A 
ATOM     77  C   UNL A   1      42.389  23.996  26.228  1.00  0.00     0.134 A 
ATOM     78  C   UNL A   1      40.371  23.722  27.462  1.00  0.00     0.134 A 
ATOM     79  F   UNL A   1      43.482  24.684  25.870  1.00  0.00    -0.206 F 
ATOM     80  C   UNL A   1      42.265  22.697  25.716  1.00  0.00     0.040 A 
ATOM     81  C   UNL A   1      40.233  22.422  26.952  1.00  0.00     0.040 A 
ATOM     82  F   UNL A   1      39.459  24.120  28.358  1.00  0.00    -0.206 F 
ATOM     83  C   UNL A   1      41.191  21.898  26.090  1.00  0.00     0.006 A 
ENDBRANCH  55  76
BRANCH  67  84
ATOM     84  C   UNL A   1      45.047  29.515  28.272  1.00  0.00     0.057 A 
ATOM     85  C   UNL A   1      43.958  30.364  28.021  1.00  0.00     0.134 A 
ATOM     86  C   UNL A   1      46.214  29.756  27.537  1.00  0.00     0.134 A 
ATOM     87  F   UNL A   1      42.826  30.276  28.727  1.00  0.00    -0.206 F 
ATOM     88  C   UNL A   1      44.024  31.391  27.075  1.00  0.00     0.040 A 
ATOM     89  C   UNL A   1      46.305  30.802  26.617  1.00  0.00     0.040 A 
ATOM     90  F   UNL A   1      47.313  29.015  27.753  1.00  0.00    -0.206 F 
ATOM     91  C   UNL A   1      45.207  31.623  26.381  1.00  0.00     0.006 A 
ENDBRANCH  67  84
ENDBRANCH  41  42
ENDBRANCH  33  36
ENDBRANCH  31  32
ENDBRANCH  30  31
ENDBRANCH  29  30
ENDBRANCH   1  29
TORSDOF 17
ENDMDL
