MODEL 1
REMARK VINA RESULT:     -10.9      0.000      0.000
REMARK SMILES CO[C@H](C)[C@@H](NC(=O)OCc1ccccc1)C(=O)NCCCCCCNC(=O)c1ccc(-c2c3nc(c(-c4c(F)cccc4F)c4ccc([nH]4)c(-c4c(F)cccc4F)c4nc(c(-c5c(F)cccc5F)c5ccc2[nH]5)C=C4)C=C3)cc1
REMARK SMILES IDX 21 1 20 2 19 3 17 4 18 5 5 7 3 8 4 9 2 10 1 11 6 12 7 13
REMARK SMILES IDX 8 15 9 16 10 17 11 18 12 19 16 20 13 21 15 22 14 23 22 24
REMARK SMILES IDX 23 25 24 26 25 27 26 28 27 29 28 31 29 32 30 33 82 34 31 35
REMARK SMILES IDX 81 36 32 37 33 38 34 39 75 40 35 41 80 42 74 43 76 44 36 45
REMARK SMILES IDX 79 46 73 47 72 48 37 50 63 51 46 52 62 53 47 54 50 55 61 56
REMARK SMILES IDX 77 57 48 58 49 59 60 61 78 62 51 63 38 64 39 65 44 66 40 67
REMARK SMILES IDX 41 68 43 69 45 70 42 71 64 72 65 73 70 74 66 75 67 76 69 77
REMARK SMILES IDX 71 78 68 79 52 80 53 81 58 82 54 83 55 84 57 85 59 86 56 87
REMARK H PARENT 19 6 6 14 26 30 76 49 50 60
REMARK Flexibility Score: inf
ROOT
ATOM      1  C   UNL A   1      36.146  22.481  24.107  1.00  0.00     0.021 C 
ENDROOT
BRANCH   1   2
ATOM      2  C   UNL A   1      35.377  23.364  25.076  1.00  0.00     0.116 C 
BRANCH   2   3
ATOM      3  N   UNL A   1      34.964  22.608  26.240  1.00  0.00    -0.354 N 
ATOM      4  C   UNL A   1      33.758  22.040  26.525  1.00  0.00     0.245 C 
ATOM      5  O   UNL A   1      33.655  21.421  27.589  1.00  0.00    -0.273 OA
ATOM      6  H   UNL A   1      35.659  22.486  26.928  1.00  0.00     0.163 HD
BRANCH   4   7
ATOM      7  C   UNL A   1      32.536  22.240  25.599  1.00  0.00     0.203 C 
BRANCH   7   8
ATOM      8  C   UNL A   1      32.547  21.084  24.541  1.00  0.00     0.146 C 
ATOM      9  C   UNL A   1      32.495  21.549  23.084  1.00  0.00     0.041 C 
BRANCH   8  10
ATOM     10  O   UNL A   1      33.573  20.098  24.713  1.00  0.00    -0.379 OA
ATOM     11  C   UNL A   1      33.225  18.755  24.416  1.00  0.00     0.195 C 
ENDBRANCH   8  10
ENDBRANCH   7   8
BRANCH   7  12
ATOM     12  N   UNL A   1      31.243  22.281  26.316  1.00  0.00    -0.307 N 
ATOM     13  C   UNL A   1      30.646  23.325  26.955  1.00  0.00     0.408 C 
ATOM     14  H   UNL A   1      30.743  21.434  26.332  1.00  0.00     0.168 HD
ATOM     15  O   UNL A   1      29.554  23.165  27.495  1.00  0.00    -0.225 OA
BRANCH  13  16
ATOM     16  O   UNL A   1      31.411  24.430  27.044  1.00  0.00    -0.445 OA
BRANCH  16  17
ATOM     17  C   UNL A   1      30.952  25.577  26.315  1.00  0.00     0.270 C 
BRANCH  17  18
ATOM     18  C   UNL A   1      31.881  26.732  26.538  1.00  0.00    -0.011 A 
ATOM     19  C   UNL A   1      31.408  27.904  27.142  1.00  0.00     0.007 A 
ATOM     20  C   UNL A   1      33.198  26.686  26.068  1.00  0.00     0.007 A 
ATOM     21  C   UNL A   1      32.229  29.023  27.248  1.00  0.00     0.000 A 
ATOM     22  C   UNL A   1      34.022  27.804  26.182  1.00  0.00     0.000 A 
ATOM     23  C   UNL A   1      33.534  28.974  26.763  1.00  0.00     0.000 A 
ENDBRANCH  17  18
ENDBRANCH  16  17
ENDBRANCH  13  16
ENDBRANCH   7  12
ENDBRANCH   4   7
ENDBRANCH   2   3
ENDBRANCH   1   2
BRANCH   1  24
ATOM     24  C   UNL A   1      37.238  21.655  24.791  1.00  0.00     0.002 C 
BRANCH  24  25
ATOM     25  C   UNL A   1      36.905  20.168  24.959  1.00  0.00     0.002 C 
BRANCH  25  26
ATOM     26  C   UNL A   1      38.122  19.241  25.001  1.00  0.00     0.021 C 
BRANCH  26  27
ATOM     27  C   UNL A   1      39.316  19.817  25.752  1.00  0.00     0.116 C 
BRANCH  27  28
ATOM     28  N   UNL A   1      40.397  18.854  25.873  1.00  0.00    -0.352 N 
ATOM     29  C   UNL A   1      41.734  19.083  26.075  1.00  0.00     0.251 C 
ATOM     30  H   UNL A   1      40.134  17.908  25.803  1.00  0.00     0.163 HD
ATOM     31  O   UNL A   1      42.548  18.173  25.962  1.00  0.00    -0.269 OA
BRANCH  29  32
ATOM     32  C   UNL A   1      42.185  20.448  26.409  1.00  0.00     0.039 A 
ATOM     33  C   UNL A   1      42.564  21.306  25.375  1.00  0.00     0.014 A 
ATOM     34  C   UNL A   1      42.218  20.878  27.739  1.00  0.00     0.014 A 
ATOM     35  C   UNL A   1      42.933  22.618  25.674  1.00  0.00     0.010 A 
ATOM     36  C   UNL A   1      42.510  22.205  28.026  1.00  0.00     0.010 A 
ATOM     37  C   UNL A   1      42.880  23.085  26.997  1.00  0.00    -0.014 A 
BRANCH  37  38
ATOM     38  C   UNL A   1      43.225  24.489  27.331  1.00  0.00     0.031 A 
ATOM     39  C   UNL A   1      44.663  24.929  27.325  1.00  0.00     0.074 A 
ATOM     40  C   UNL A   1      42.254  25.346  27.701  1.00  0.00     0.049 A 
ATOM     41  N   UNL A   1      45.175  26.085  27.661  1.00  0.00    -0.248 NA
ATOM     42  C   UNL A   1      45.659  23.927  26.915  1.00  0.00     0.031 C 
ATOM     43  C   UNL A   1      40.828  25.024  27.787  1.00  0.00     0.029 A 
ATOM     44  N   UNL A   1      42.322  26.661  28.084  1.00  0.00    -0.354 N 
ATOM     45  C   UNL A   1      46.550  25.944  27.517  1.00  0.00     0.074 A 
ATOM     46  C   UNL A   1      46.796  24.575  27.121  1.00  0.00     0.031 C 
ATOM     47  C   UNL A   1      40.155  26.119  28.176  1.00  0.00     0.029 A 
ATOM     48  C   UNL A   1      41.102  27.205  28.405  1.00  0.00     0.049 A 
ATOM     49  H   UNL A   1      43.166  27.168  28.124  1.00  0.00     0.167 HD
ATOM     50  C   UNL A   1      47.517  26.878  27.677  1.00  0.00     0.037 A 
ATOM     51  C   UNL A   1      40.787  28.437  28.848  1.00  0.00     0.037 A 
ATOM     52  C   UNL A   1      47.263  28.244  28.050  1.00  0.00     0.049 A 
ATOM     53  C   UNL A   1      41.881  29.452  29.031  1.00  0.00     0.074 A 
ATOM     54  C   UNL A   1      48.167  29.283  28.184  1.00  0.00     0.029 A 
ATOM     55  N   UNL A   1      46.012  28.761  28.353  1.00  0.00    -0.354 N 
ATOM     56  N   UNL A   1      43.170  29.325  28.828  1.00  0.00    -0.248 NA
ATOM     57  C   UNL A   1      41.475  30.784  29.500  1.00  0.00     0.031 C 
ATOM     58  C   UNL A   1      47.472  30.415  28.618  1.00  0.00     0.029 A 
ATOM     59  C   UNL A   1      46.124  30.098  28.697  1.00  0.00     0.049 A 
ATOM     60  H   UNL A   1      45.170  28.253  28.327  1.00  0.00     0.167 HD
ATOM     61  C   UNL A   1      43.724  30.567  29.111  1.00  0.00     0.074 A 
ATOM     62  C   UNL A   1      42.630  31.436  29.490  1.00  0.00     0.031 C 
ATOM     63  C   UNL A   1      45.023  30.953  29.060  1.00  0.00     0.037 A 
BRANCH  50  64
ATOM     64  C   UNL A   1      48.938  26.450  27.449  1.00  0.00     0.057 A 
ATOM     65  C   UNL A   1      49.545  26.535  26.189  1.00  0.00     0.134 A 
ATOM     66  C   UNL A   1      49.720  25.976  28.510  1.00  0.00     0.134 A 
ATOM     67  F   UNL A   1      48.849  26.968  25.126  1.00  0.00    -0.206 F 
ATOM     68  C   UNL A   1      50.867  26.137  25.985  1.00  0.00     0.040 A 
ATOM     69  C   UNL A   1      51.054  25.604  28.325  1.00  0.00     0.040 A 
ATOM     70  F   UNL A   1      49.206  25.874  29.744  1.00  0.00    -0.206 F 
ATOM     71  C   UNL A   1      51.627  25.677  27.058  1.00  0.00     0.006 A 
ENDBRANCH  50  64
BRANCH  51  72
ATOM     72  C   UNL A   1      39.371  28.787  29.129  1.00  0.00     0.057 A 
ATOM     73  C   UNL A   1      38.542  29.308  28.129  1.00  0.00     0.134 A 
ATOM     74  C   UNL A   1      38.815  28.620  30.404  1.00  0.00     0.134 A 
ATOM     75  F   UNL A   1      39.021  29.508  26.892  1.00  0.00    -0.206 F 
ATOM     76  C   UNL A   1      37.220  29.673  28.390  1.00  0.00     0.040 A 
ATOM     77  C   UNL A   1      37.487  28.954  30.672  1.00  0.00     0.040 A 
ATOM     78  F   UNL A   1      39.553  28.116  31.405  1.00  0.00    -0.206 F 
ATOM     79  C   UNL A   1      36.688  29.491  29.665  1.00  0.00     0.006 A 
ENDBRANCH  51  72
BRANCH  63  80
ATOM     80  C   UNL A   1      45.327  32.388  29.378  1.00  0.00     0.057 A 
ATOM     81  C   UNL A   1      45.691  32.804  30.664  1.00  0.00     0.134 A 
ATOM     82  C   UNL A   1      45.299  33.359  28.368  1.00  0.00     0.134 A 
ATOM     83  F   UNL A   1      45.726  31.927  31.679  1.00  0.00    -0.206 F 
ATOM     84  C   UNL A   1      45.994  34.138  30.941  1.00  0.00     0.040 A 
ATOM     85  C   UNL A   1      45.628  34.691  28.625  1.00  0.00     0.040 A 
ATOM     86  F   UNL A   1      44.968  33.026  27.111  1.00  0.00    -0.206 F 
ATOM     87  C   UNL A   1      45.971  35.085  29.917  1.00  0.00     0.006 A 
ENDBRANCH  63  80
ENDBRANCH  37  38
ENDBRANCH  29  32
ENDBRANCH  27  28
ENDBRANCH  26  27
ENDBRANCH  25  26
ENDBRANCH  24  25
ENDBRANCH   1  24
TORSDOF 19
ENDMDL
MODEL 2
REMARK VINA RESULT:     -10.7      5.364      9.880
REMARK SMILES CO[C@H](C)[C@@H](NC(=O)OCc1ccccc1)C(=O)NCCCCCCNC(=O)c1ccc(-c2c3nc(c(-c4c(F)cccc4F)c4ccc([nH]4)c(-c4c(F)cccc4F)c4nc(c(-c5c(F)cccc5F)c5ccc2[nH]5)C=C4)C=C3)cc1
REMARK SMILES IDX 21 1 20 2 19 3 17 4 18 5 5 7 3 8 4 9 2 10 1 11 6 12 7 13
REMARK SMILES IDX 8 15 9 16 10 17 11 18 12 19 16 20 13 21 15 22 14 23 22 24
REMARK SMILES IDX 23 25 24 26 25 27 26 28 27 29 28 31 29 32 30 33 82 34 31 35
REMARK SMILES IDX 81 36 32 37 33 38 34 39 75 40 35 41 80 42 74 43 76 44 36 45
REMARK SMILES IDX 79 46 73 47 72 48 37 50 63 51 46 52 62 53 47 54 50 55 61 56
REMARK SMILES IDX 77 57 48 58 49 59 60 61 78 62 51 63 38 64 39 65 44 66 40 67
REMARK SMILES IDX 41 68 43 69 45 70 42 71 64 72 65 73 70 74 66 75 67 76 69 77
REMARK SMILES IDX 71 78 68 79 52 80 53 81 58 82 54 83 55 84 57 85 59 86 56 87
REMARK H PARENT 19 6 6 14 26 30 76 49 50 60
REMARK Flexibility Score: inf
ROOT
ATOM      1  C   UNL A   1      33.573  28.707  27.089  1.00  0.00     0.021 C 
ENDROOT
BRANCH   1   2
ATOM      2  C   UNL A   1      33.438  27.772  25.900  1.00  0.00     0.116 C 
BRANCH   2   3
ATOM      3  N   UNL A   1      33.795  28.449  24.671  1.00  0.00    -0.354 N 
ATOM      4  C   UNL A   1      33.321  28.263  23.406  1.00  0.00     0.245 C 
ATOM      5  O   UNL A   1      33.774  28.988  22.515  1.00  0.00    -0.273 OA
ATOM      6  H   UNL A   1      34.482  29.149  24.763  1.00  0.00     0.163 HD
BRANCH   4   7
ATOM      7  C   UNL A   1      32.325  27.127  23.080  1.00  0.00     0.203 C 
BRANCH   7   8
ATOM      8  C   UNL A   1      30.889  27.635  23.445  1.00  0.00     0.146 C 
ATOM      9  C   UNL A   1      30.123  26.741  24.423  1.00  0.00     0.041 C 
BRANCH   8  10
ATOM     10  O   UNL A   1      30.802  29.006  23.851  1.00  0.00    -0.379 OA
ATOM     11  C   UNL A   1      29.841  29.810  23.185  1.00  0.00     0.195 C 
ENDBRANCH   8  10
ENDBRANCH   7   8
BRANCH   7  12
ATOM     12  N   UNL A   1      32.378  26.671  21.673  1.00  0.00    -0.307 N 
ATOM     13  C   UNL A   1      32.988  25.574  21.146  1.00  0.00     0.408 C 
ATOM     14  H   UNL A   1      31.904  27.243  21.027  1.00  0.00     0.168 HD
ATOM     15  O   UNL A   1      32.915  25.357  19.939  1.00  0.00    -0.225 OA
BRANCH  13  16
ATOM     16  O   UNL A   1      33.747  24.888  22.023  1.00  0.00    -0.445 OA
BRANCH  16  17
ATOM     17  C   UNL A   1      33.292  23.571  22.357  1.00  0.00     0.270 C 
BRANCH  17  18
ATOM     18  C   UNL A   1      34.294  22.891  23.241  1.00  0.00    -0.011 A 
ATOM     19  C   UNL A   1      35.657  23.186  23.112  1.00  0.00     0.007 A 
ATOM     20  C   UNL A   1      33.890  21.895  24.138  1.00  0.00     0.007 A 
ATOM     21  C   UNL A   1      36.605  22.479  23.845  1.00  0.00     0.000 A 
ATOM     22  C   UNL A   1      34.840  21.192  24.878  1.00  0.00     0.000 A 
ATOM     23  C   UNL A   1      36.196  21.478  24.723  1.00  0.00     0.000 A 
ENDBRANCH  17  18
ENDBRANCH  16  17
ENDBRANCH  13  16
ENDBRANCH   7  12
ENDBRANCH   4   7
ENDBRANCH   2   3
ENDBRANCH   1   2
BRANCH   1  24
ATOM     24  C   UNL A   1      33.290  30.169  26.732  1.00  0.00     0.002 C 
BRANCH  24  25
ATOM     25  C   UNL A   1      31.806  30.557  26.756  1.00  0.00     0.002 C 
BRANCH  25  26
ATOM     26  C   UNL A   1      31.541  32.060  26.875  1.00  0.00     0.021 C 
BRANCH  26  27
ATOM     27  C   UNL A   1      32.786  32.890  27.163  1.00  0.00     0.116 C 
BRANCH  27  28
ATOM     28  N   UNL A   1      32.452  34.244  27.573  1.00  0.00    -0.352 N 
ATOM     29  C   UNL A   1      32.969  34.980  28.607  1.00  0.00     0.251 C 
ATOM     30  H   UNL A   1      31.763  34.694  27.033  1.00  0.00     0.163 HD
ATOM     31  O   UNL A   1      32.447  36.037  28.944  1.00  0.00    -0.269 OA
BRANCH  29  32
ATOM     32  C   UNL A   1      34.152  34.472  29.329  1.00  0.00     0.039 A 
ATOM     33  C   UNL A   1      33.972  33.834  30.557  1.00  0.00     0.014 A 
ATOM     34  C   UNL A   1      35.431  34.616  28.782  1.00  0.00     0.014 A 
ATOM     35  C   UNL A   1      35.076  33.294  31.217  1.00  0.00     0.010 A 
ATOM     36  C   UNL A   1      36.517  34.011  29.403  1.00  0.00     0.010 A 
ATOM     37  C   UNL A   1      36.351  33.353  30.632  1.00  0.00    -0.014 A 
BRANCH  37  38
ATOM     38  C   UNL A   1      37.531  32.747  31.296  1.00  0.00     0.031 A 
ATOM     39  C   UNL A   1      38.200  31.547  30.687  1.00  0.00     0.074 A 
ATOM     40  C   UNL A   1      37.958  33.237  32.476  1.00  0.00     0.049 A 
ATOM     41  N   UNL A   1      39.190  30.828  31.151  1.00  0.00    -0.248 NA
ATOM     42  C   UNL A   1      37.665  31.073  29.400  1.00  0.00     0.031 C 
ATOM     43  C   UNL A   1      37.365  34.371  33.187  1.00  0.00     0.029 A 
ATOM     44  N   UNL A   1      38.986  32.835  33.291  1.00  0.00    -0.354 N 
ATOM     45  C   UNL A   1      39.386  29.813  30.222  1.00  0.00     0.074 A 
ATOM     46  C   UNL A   1      38.375  29.973  29.200  1.00  0.00     0.031 C 
ATOM     47  C   UNL A   1      38.052  34.586  34.321  1.00  0.00     0.029 A 
ATOM     48  C   UNL A   1      39.106  33.584  34.436  1.00  0.00     0.049 A 
ATOM     49  H   UNL A   1      39.582  32.082  33.074  1.00  0.00     0.167 HD
ATOM     50  C   UNL A   1      40.336  28.849  30.210  1.00  0.00     0.037 A 
ATOM     51  C   UNL A   1      39.962  33.465  35.468  1.00  0.00     0.037 A 
ATOM     52  C   UNL A   1      41.352  28.708  31.219  1.00  0.00     0.049 A 
ATOM     53  C   UNL A   1      41.001  32.378  35.439  1.00  0.00     0.074 A 
ATOM     54  C   UNL A   1      42.396  27.801  31.271  1.00  0.00     0.029 A 
ATOM     55  N   UNL A   1      41.451  29.495  32.357  1.00  0.00    -0.354 N 
ATOM     56  N   UNL A   1      41.216  31.465  34.522  1.00  0.00    -0.248 NA
ATOM     57  C   UNL A   1      41.918  32.307  36.584  1.00  0.00     0.031 C 
ATOM     58  C   UNL A   1      43.094  28.004  32.464  1.00  0.00     0.029 A 
ATOM     59  C   UNL A   1      42.522  29.078  33.129  1.00  0.00     0.049 A 
ATOM     60  H   UNL A   1      40.848  30.240  32.582  1.00  0.00     0.167 HD
ATOM     61  C   UNL A   1      42.313  30.735  34.963  1.00  0.00     0.074 A 
ATOM     62  C   UNL A   1      42.723  31.318  36.223  1.00  0.00     0.031 C 
ATOM     63  C   UNL A   1      42.925  29.677  34.376  1.00  0.00     0.037 A 
BRANCH  50  64
ATOM     64  C   UNL A   1      40.319  27.873  29.070  1.00  0.00     0.057 A 
ATOM     65  C   UNL A   1      41.102  28.059  27.923  1.00  0.00     0.134 A 
ATOM     66  C   UNL A   1      39.534  26.714  29.133  1.00  0.00     0.134 A 
ATOM     67  F   UNL A   1      41.867  29.153  27.791  1.00  0.00    -0.206 F 
ATOM     68  C   UNL A   1      41.082  27.146  26.867  1.00  0.00     0.040 A 
ATOM     69  C   UNL A   1      39.530  25.777  28.097  1.00  0.00     0.040 A 
ATOM     70  F   UNL A   1      38.766  26.468  30.204  1.00  0.00    -0.206 F 
ATOM     71  C   UNL A   1      40.300  25.997  26.957  1.00  0.00     0.006 A 
ENDBRANCH  50  64
BRANCH  51  72
ATOM     72  C   UNL A   1      39.889  34.414  36.609  1.00  0.00     0.057 A 
ATOM     73  C   UNL A   1      40.570  35.636  36.579  1.00  0.00     0.134 A 
ATOM     74  C   UNL A   1      39.146  34.118  37.760  1.00  0.00     0.134 A 
ATOM     75  F   UNL A   1      41.313  35.968  35.512  1.00  0.00    -0.206 F 
ATOM     76  C   UNL A   1      40.537  36.520  37.658  1.00  0.00     0.040 A 
ATOM     77  C   UNL A   1      39.081  35.006  38.835  1.00  0.00     0.040 A 
ATOM     78  F   UNL A   1      38.462  32.968  37.849  1.00  0.00    -0.206 F 
ATOM     79  C   UNL A   1      39.786  36.207  38.789  1.00  0.00     0.006 A 
ENDBRANCH  51  72
BRANCH  63  80
ATOM     80  C   UNL A   1      44.132  29.110  35.066  1.00  0.00     0.057 A 
ATOM     81  C   UNL A   1      45.426  29.572  34.800  1.00  0.00     0.134 A 
ATOM     82  C   UNL A   1      43.988  28.118  36.046  1.00  0.00     0.134 A 
ATOM     83  F   UNL A   1      45.634  30.512  33.864  1.00  0.00    -0.206 F 
ATOM     84  C   UNL A   1      46.538  29.052  35.465  1.00  0.00     0.040 A 
ATOM     85  C   UNL A   1      45.088  27.611  36.739  1.00  0.00     0.040 A 
ATOM     86  F   UNL A   1      42.774  27.638  36.356  1.00  0.00    -0.206 F 
ATOM     87  C   UNL A   1      46.369  28.074  36.443  1.00  0.00     0.006 A 
ENDBRANCH  63  80
ENDBRANCH  37  38
ENDBRANCH  29  32
ENDBRANCH  27  28
ENDBRANCH  26  27
ENDBRANCH  25  26
ENDBRANCH  24  25
ENDBRANCH   1  24
TORSDOF 19
ENDMDL
MODEL 3
REMARK VINA RESULT:     -10.7      0.702      6.185
REMARK SMILES CO[C@H](C)[C@@H](NC(=O)OCc1ccccc1)C(=O)NCCCCCCNC(=O)c1ccc(-c2c3nc(c(-c4c(F)cccc4F)c4ccc([nH]4)c(-c4c(F)cccc4F)c4nc(c(-c5c(F)cccc5F)c5ccc2[nH]5)C=C4)C=C3)cc1
REMARK SMILES IDX 21 1 20 2 19 3 17 4 18 5 5 7 3 8 4 9 2 10 1 11 6 12 7 13
REMARK SMILES IDX 8 15 9 16 10 17 11 18 12 19 16 20 13 21 15 22 14 23 22 24
REMARK SMILES IDX 23 25 24 26 25 27 26 28 27 29 28 31 29 32 30 33 82 34 31 35
REMARK SMILES IDX 81 36 32 37 33 38 34 39 75 40 35 41 80 42 74 43 76 44 36 45
REMARK SMILES IDX 79 46 73 47 72 48 37 50 63 51 46 52 62 53 47 54 50 55 61 56
REMARK SMILES IDX 77 57 48 58 49 59 60 61 78 62 51 63 38 64 39 65 44 66 40 67
REMARK SMILES IDX 41 68 43 69 45 70 42 71 64 72 65 73 70 74 66 75 67 76 69 77
REMARK SMILES IDX 71 78 68 79 52 80 53 81 58 82 54 83 55 84 57 85 59 86 56 87
REMARK H PARENT 19 6 6 14 26 30 76 49 50 60
REMARK Flexibility Score: inf
ROOT
ATOM      1  C   UNL A   1      36.661  23.246  24.344  1.00  0.00     0.021 C 
ENDROOT
BRANCH   1   2
ATOM      2  C   UNL A   1      35.957  24.099  25.386  1.00  0.00     0.116 C 
BRANCH   2   3
ATOM      3  N   UNL A   1      35.615  23.308  26.550  1.00  0.00    -0.354 N 
ATOM      4  C   UNL A   1      34.450  22.669  26.854  1.00  0.00     0.245 C 
ATOM      5  O   UNL A   1      34.407  22.033  27.913  1.00  0.00    -0.273 OA
ATOM      6  H   UNL A   1      36.330  23.220  27.221  1.00  0.00     0.163 HD
BRANCH   4   7
ATOM      7  C   UNL A   1      33.198  22.806  25.957  1.00  0.00     0.203 C 
BRANCH   7   8
ATOM      8  C   UNL A   1      33.241  21.651  24.900  1.00  0.00     0.146 C 
ATOM      9  C   UNL A   1      32.166  20.577  25.082  1.00  0.00     0.041 C 
BRANCH   8  10
ATOM     10  O   UNL A   1      33.303  22.067  23.530  1.00  0.00    -0.379 OA
ATOM     11  C   UNL A   1      32.070  22.177  22.839  1.00  0.00     0.195 C 
ENDBRANCH   8  10
ENDBRANCH   7   8
BRANCH   7  12
ATOM     12  N   UNL A   1      31.922  22.785  26.705  1.00  0.00    -0.307 N 
ATOM     13  C   UNL A   1      30.798  23.531  26.512  1.00  0.00     0.408 C 
ATOM     14  H   UNL A   1      31.879  22.140  27.447  1.00  0.00     0.168 HD
ATOM     15  O   UNL A   1      29.824  23.364  27.241  1.00  0.00    -0.225 OA
BRANCH  13  16
ATOM     16  O   UNL A   1      30.931  24.502  25.589  1.00  0.00    -0.445 OA
BRANCH  16  17
ATOM     17  C   UNL A   1      30.454  25.801  25.964  1.00  0.00     0.270 C 
BRANCH  17  18
ATOM     18  C   UNL A   1      31.607  26.682  26.342  1.00  0.00    -0.011 A 
ATOM     19  C   UNL A   1      31.411  27.747  27.230  1.00  0.00     0.007 A 
ATOM     20  C   UNL A   1      32.861  26.506  25.747  1.00  0.00     0.007 A 
ATOM     21  C   UNL A   1      32.445  28.640  27.498  1.00  0.00     0.000 A 
ATOM     22  C   UNL A   1      33.898  27.396  26.022  1.00  0.00     0.000 A 
ATOM     23  C   UNL A   1      33.686  28.467  26.889  1.00  0.00     0.000 A 
ENDBRANCH  17  18
ENDBRANCH  16  17
ENDBRANCH  13  16
ENDBRANCH   7  12
ENDBRANCH   4   7
ENDBRANCH   2   3
ENDBRANCH   1   2
BRANCH   1  24
ATOM     24  C   UNL A   1      37.512  22.133  24.962  1.00  0.00     0.002 C 
BRANCH  24  25
ATOM     25  C   UNL A   1      37.007  20.712  24.685  1.00  0.00     0.002 C 
BRANCH  25  26
ATOM     26  C   UNL A   1      38.011  19.603  25.006  1.00  0.00     0.021 C 
BRANCH  26  27
ATOM     27  C   UNL A   1      39.253  20.083  25.745  1.00  0.00     0.116 C 
BRANCH  27  28
ATOM     28  N   UNL A   1      40.246  19.031  25.880  1.00  0.00    -0.352 N 
ATOM     29  C   UNL A   1      41.596  19.144  26.089  1.00  0.00     0.251 C 
ATOM     30  H   UNL A   1      39.902  18.111  25.814  1.00  0.00     0.163 HD
ATOM     31  O   UNL A   1      42.329  18.166  25.988  1.00  0.00    -0.269 OA
BRANCH  29  32
ATOM     32  C   UNL A   1      42.163  20.467  26.416  1.00  0.00     0.039 A 
ATOM     33  C   UNL A   1      42.597  21.292  25.377  1.00  0.00     0.014 A 
ATOM     34  C   UNL A   1      42.249  20.892  27.745  1.00  0.00     0.014 A 
ATOM     35  C   UNL A   1      43.077  22.569  25.670  1.00  0.00     0.010 A 
ATOM     36  C   UNL A   1      42.653  22.191  28.028  1.00  0.00     0.010 A 
ATOM     37  C   UNL A   1      43.080  23.038  26.994  1.00  0.00    -0.014 A 
BRANCH  37  38
ATOM     38  C   UNL A   1      43.544  24.409  27.322  1.00  0.00     0.031 A 
ATOM     39  C   UNL A   1      42.549  25.460  27.725  1.00  0.00     0.074 A 
ATOM     40  C   UNL A   1      44.848  24.721  27.195  1.00  0.00     0.049 A 
ATOM     41  N   UNL A   1      42.743  26.730  27.975  1.00  0.00    -0.248 NA
ATOM     42  C   UNL A   1      41.144  25.035  27.833  1.00  0.00     0.031 C 
ATOM     43  C   UNL A   1      45.903  23.798  26.770  1.00  0.00     0.029 A 
ATOM     44  N   UNL A   1      45.507  25.907  27.400  1.00  0.00    -0.354 N 
ATOM     45  C   UNL A   1      41.487  27.255  28.254  1.00  0.00     0.074 A 
ATOM     46  C   UNL A   1      40.532  26.182  28.086  1.00  0.00     0.031 C 
ATOM     47  C   UNL A   1      47.078  24.447  26.768  1.00  0.00     0.029 A 
ATOM     48  C   UNL A   1      46.856  25.837  27.150  1.00  0.00     0.049 A 
ATOM     49  H   UNL A   1      45.055  26.729  27.700  1.00  0.00     0.167 HD
ATOM     50  C   UNL A   1      41.162  28.512  28.639  1.00  0.00     0.037 A 
ATOM     51  C   UNL A   1      47.803  26.793  27.210  1.00  0.00     0.037 A 
ATOM     52  C   UNL A   1      42.120  29.569  28.826  1.00  0.00     0.049 A 
ATOM     53  C   UNL A   1      47.415  28.185  27.627  1.00  0.00     0.074 A 
ATOM     54  C   UNL A   1      41.901  30.862  29.269  1.00  0.00     0.029 A 
ATOM     55  N   UNL A   1      43.480  29.456  28.578  1.00  0.00    -0.354 N 
ATOM     56  N   UNL A   1      46.233  28.652  27.952  1.00  0.00    -0.248 NA
ATOM     57  C   UNL A   1      48.493  29.181  27.691  1.00  0.00     0.031 C 
ATOM     58  C   UNL A   1      43.119  31.547  29.239  1.00  0.00     0.029 A 
ATOM     59  C   UNL A   1      44.108  30.664  28.834  1.00  0.00     0.049 A 
ATOM     60  H   UNL A   1      43.931  28.639  28.265  1.00  0.00     0.167 HD
ATOM     61  C   UNL A   1      46.431  29.984  28.292  1.00  0.00     0.074 A 
ATOM     62  C   UNL A   1      47.847  30.248  28.143  1.00  0.00     0.031 C 
ATOM     63  C   UNL A   1      45.521  30.906  28.692  1.00  0.00     0.037 A 
BRANCH  50  64
ATOM     64  C   UNL A   1      39.711  28.808  28.883  1.00  0.00     0.057 A 
ATOM     65  C   UNL A   1      38.853  29.214  27.852  1.00  0.00     0.134 A 
ATOM     66  C   UNL A   1      39.155  28.656  30.160  1.00  0.00     0.134 A 
ATOM     67  F   UNL A   1      39.322  29.392  26.607  1.00  0.00    -0.206 F 
ATOM     68  C   UNL A   1      37.504  29.486  28.086  1.00  0.00     0.040 A 
ATOM     69  C   UNL A   1      37.800  28.895  30.400  1.00  0.00     0.040 A 
ATOM     70  F   UNL A   1      39.916  28.264  31.193  1.00  0.00    -0.206 F 
ATOM     71  C   UNL A   1      36.973  29.318  29.363  1.00  0.00     0.006 A 
ENDBRANCH  50  64
BRANCH  51  72
ATOM     72  C   UNL A   1      49.215  26.463  26.887  1.00  0.00     0.057 A 
ATOM     73  C   UNL A   1      49.728  26.662  25.600  1.00  0.00     0.134 A 
ATOM     74  C   UNL A   1      50.081  25.932  27.851  1.00  0.00     0.134 A 
ATOM     75  F   UNL A   1      48.942  27.150  24.629  1.00  0.00    -0.206 F 
ATOM     76  C   UNL A   1      51.042  26.324  25.276  1.00  0.00     0.040 A 
ATOM     77  C   UNL A   1      51.406  25.616  27.548  1.00  0.00     0.040 A 
ATOM     78  F   UNL A   1      49.655  25.726  29.106  1.00  0.00    -0.206 F 
ATOM     79  C   UNL A   1      51.887  25.803  26.253  1.00  0.00     0.006 A 
ENDBRANCH  51  72
BRANCH  63  80
ATOM     80  C   UNL A   1      46.034  32.273  29.041  1.00  0.00     0.057 A 
ATOM     81  C   UNL A   1      46.112  33.303  28.096  1.00  0.00     0.134 A 
ATOM     82  C   UNL A   1      46.413  32.573  30.357  1.00  0.00     0.134 A 
ATOM     83  F   UNL A   1      45.776  33.078  26.816  1.00  0.00    -0.206 F 
ATOM     84  C   UNL A   1      46.570  34.576  28.440  1.00  0.00     0.040 A 
ATOM     85  C   UNL A   1      46.845  33.850  30.720  1.00  0.00     0.040 A 
ATOM     86  F   UNL A   1      46.354  31.635  31.314  1.00  0.00    -0.206 F 
ATOM     87  C   UNL A   1      46.930  34.854  29.757  1.00  0.00     0.006 A 
ENDBRANCH  63  80
ENDBRANCH  37  38
ENDBRANCH  29  32
ENDBRANCH  27  28
ENDBRANCH  26  27
ENDBRANCH  25  26
ENDBRANCH  24  25
ENDBRANCH   1  24
TORSDOF 19
ENDMDL
