MODEL 1
REMARK VINA RESULT:     -11.5      0.000      0.000
REMARK SMILES O=C(COc1ccccc1[C@@H]1[NH2+]CCc2cc(O)c(O)cc21)NCCCCCCNC(=O)c1ccc(-c2c3nc(c(-c4c(F)cccc4F)c4ccc([nH]4)c(-c4c(F)cccc4F)c4nc(c(-c5c(F)cccc5F)c5ccc2[nH]5)C=C4)C=C3)cc1
REMARK SMILES IDX 25 1 24 2 23 3 1 4 2 5 3 7 4 8 5 9 6 10 10 11 7 12 9 13 8 14
REMARK SMILES IDX 11 15 12 16 22 17 13 18 15 21 21 22 14 23 16 24 19 25 17 26
REMARK SMILES IDX 20 27 18 29 26 31 27 32 28 33 29 34 30 35 31 36 32 38 33 39
REMARK SMILES IDX 34 40 86 41 35 42 85 43 36 44 37 45 38 46 79 47 39 48 84 49
REMARK SMILES IDX 78 50 80 51 40 52 83 53 77 54 76 55 41 57 67 58 50 59 66 60
REMARK SMILES IDX 51 61 54 62 65 63 81 64 52 65 53 66 64 68 82 69 55 70 42 71
REMARK SMILES IDX 43 72 48 73 44 74 45 75 47 76 49 77 46 78 68 79 69 80 74 81
REMARK SMILES IDX 70 82 71 83 73 84 75 85 72 86 56 87 57 88 62 89 58 90 59 91
REMARK SMILES IDX 61 92 63 93 60 94
REMARK H PARENT 23 6 12 19 12 20 20 28 18 30 30 37 80 56 54 67
REMARK Flexibility Score: inf
ROOT
ATOM      1  C   UNL A   1      35.530  23.510  25.934  1.00  0.00     0.021 C 
ENDROOT
BRANCH   1   2
ATOM      2  C   UNL A   1      35.010  22.345  26.759  1.00  0.00     0.116 C 
BRANCH   2   3
ATOM      3  N   UNL A   1      33.774  21.780  26.264  1.00  0.00    -0.353 N 
ATOM      4  O   UNL A   1      32.391  22.945  27.673  1.00  0.00    -0.271 OA
ATOM      5  C   UNL A   1      32.540  22.246  26.674  1.00  0.00     0.257 C 
ATOM      6  H   UNL A   1      33.814  21.041  25.614  1.00  0.00     0.163 HD
BRANCH   5   7
ATOM      7  C   UNL A   1      31.378  21.831  25.759  1.00  0.00     0.329 C 
BRANCH   7   8
ATOM      8  O   UNL A   1      30.950  22.767  24.786  1.00  0.00    -0.483 OA
BRANCH   8   9
ATOM      9  C   UNL A   1      31.752  23.642  24.101  1.00  0.00     0.129 A 
ATOM     10  C   UNL A   1      32.433  22.949  23.080  1.00  0.00     0.047 A 
ATOM     11  C   UNL A   1      32.117  24.981  24.385  1.00  0.00     0.056 A 
ATOM     12  C   UNL A   1      33.538  23.491  22.430  1.00  0.00     0.004 A 
ATOM     13  C   UNL A   1      33.305  25.464  23.782  1.00  0.00     0.014 A 
ATOM     14  C   UNL A   1      34.010  24.729  22.826  1.00  0.00     0.001 A 
BRANCH  11  15
ATOM     15  C   UNL A   1      31.359  25.916  25.319  1.00  0.00     0.249 C 
ATOM     16  N   UNL A   1      29.900  25.763  25.197  1.00  0.00    -0.336 N 
ATOM     17  C   UNL A   1      31.620  27.426  25.314  1.00  0.00     0.021 A 
ATOM     18  C   UNL A   1      29.353  26.308  23.947  1.00  0.00     0.266 C 
ATOM     19  H   UNL A   1      29.459  26.245  25.980  1.00  0.00     0.347 HD
ATOM     20  H   UNL A   1      29.704  24.762  25.198  1.00  0.00     0.347 HD
ATOM     21  C   UNL A   1      30.914  28.202  24.363  1.00  0.00    -0.029 A 
ATOM     22  C   UNL A   1      32.303  28.058  26.365  1.00  0.00     0.060 A 
ATOM     23  C   UNL A   1      30.154  27.451  23.303  1.00  0.00     0.097 C 
ATOM     24  C   UNL A   1      30.841  29.588  24.496  1.00  0.00     0.054 A 
ATOM     25  C   UNL A   1      32.195  29.437  26.502  1.00  0.00     0.157 A 
ATOM     26  C   UNL A   1      31.453  30.185  25.587  1.00  0.00     0.157 A 
BRANCH  25  27
ATOM     27  O   UNL A   1      32.746  30.103  27.563  1.00  0.00    -0.504 OA
ATOM     28  H   UNL A   1      33.654  29.990  27.766  1.00  0.00     0.293 HD
ENDBRANCH  25  27
BRANCH  26  29
ATOM     29  O   UNL A   1      31.269  31.523  25.797  1.00  0.00    -0.504 OA
ATOM     30  H   UNL A   1      32.005  32.073  25.984  1.00  0.00     0.293 HD
ENDBRANCH  26  29
ENDBRANCH  11  15
ENDBRANCH   8   9
ENDBRANCH   7   8
ENDBRANCH   5   7
ENDBRANCH   2   3
ENDBRANCH   1   2
BRANCH   1  31
ATOM     31  C   UNL A   1      36.863  23.221  25.248  1.00  0.00     0.002 C 
BRANCH  31  32
ATOM     32  C   UNL A   1      36.800  22.136  24.169  1.00  0.00     0.002 C 
BRANCH  32  33
ATOM     33  C   UNL A   1      37.424  20.799  24.566  1.00  0.00     0.021 C 
BRANCH  33  34
ATOM     34  C   UNL A   1      38.440  20.888  25.698  1.00  0.00     0.116 C 
BRANCH  34  35
ATOM     35  N   UNL A   1      39.391  19.788  25.672  1.00  0.00    -0.352 N 
ATOM     36  C   UNL A   1      40.729  19.794  25.971  1.00  0.00     0.251 C 
ATOM     37  H   UNL A   1      39.023  18.916  25.402  1.00  0.00     0.163 HD
ATOM     38  O   UNL A   1      41.430  18.816  25.727  1.00  0.00    -0.269 OA
BRANCH  36  39
ATOM     39  C   UNL A   1      41.325  21.003  26.566  1.00  0.00     0.039 A 
ATOM     40  C   UNL A   1      41.913  21.950  25.725  1.00  0.00     0.014 A 
ATOM     41  C   UNL A   1      41.272  21.213  27.947  1.00  0.00     0.014 A 
ATOM     42  C   UNL A   1      42.386  23.146  26.264  1.00  0.00     0.010 A 
ATOM     43  C   UNL A   1      41.674  22.436  28.471  1.00  0.00     0.010 A 
ATOM     44  C   UNL A   1      42.233  23.414  27.635  1.00  0.00    -0.014 A 
BRANCH  44  45
ATOM     45  C   UNL A   1      42.630  24.723  28.208  1.00  0.00     0.031 A 
ATOM     46  C   UNL A   1      41.603  25.800  28.414  1.00  0.00     0.074 A 
ATOM     47  C   UNL A   1      43.928  24.965  28.469  1.00  0.00     0.049 A 
ATOM     48  N   UNL A   1      41.768  27.029  28.830  1.00  0.00    -0.248 NA
ATOM     49  C   UNL A   1      40.211  25.459  28.079  1.00  0.00     0.031 C 
ATOM     50  C   UNL A   1      45.024  24.018  28.258  1.00  0.00     0.029 A 
ATOM     51  N   UNL A   1      44.549  26.089  28.953  1.00  0.00    -0.354 N 
ATOM     52  C   UNL A   1      40.506  27.609  28.802  1.00  0.00     0.074 A 
ATOM     53  C   UNL A   1      39.598  26.617  28.268  1.00  0.00     0.031 C 
ATOM     54  C   UNL A   1      46.180  24.594  28.624  1.00  0.00     0.029 A 
ATOM     55  C   UNL A   1      45.912  25.963  29.053  1.00  0.00     0.049 A 
ATOM     56  H   UNL A   1      44.062  26.908  29.205  1.00  0.00     0.167 HD
ATOM     57  C   UNL A   1      40.135  28.847  29.205  1.00  0.00     0.037 A 
ATOM     58  C   UNL A   1      46.847  26.855  29.433  1.00  0.00     0.037 A 
ATOM     59  C   UNL A   1      41.044  29.827  29.741  1.00  0.00     0.049 A 
ATOM     60  C   UNL A   1      46.415  28.231  29.859  1.00  0.00     0.074 A 
ATOM     61  C   UNL A   1      40.760  31.088  30.234  1.00  0.00     0.029 A 
ATOM     62  N   UNL A   1      42.417  29.657  29.844  1.00  0.00    -0.354 N 
ATOM     63  N   UNL A   1      45.208  28.741  29.902  1.00  0.00    -0.248 NA
ATOM     64  C   UNL A   1      47.473  29.153  30.293  1.00  0.00     0.031 C 
ATOM     65  C   UNL A   1      41.967  31.704  30.581  1.00  0.00     0.029 A 
ATOM     66  C   UNL A   1      42.998  30.804  30.361  1.00  0.00     0.049 A 
ATOM     67  H   UNL A   1      42.907  28.842  29.587  1.00  0.00     0.167 HD
ATOM     68  C   UNL A   1      45.357  30.034  30.386  1.00  0.00     0.074 A 
ATOM     69  C   UNL A   1      46.771  30.223  30.640  1.00  0.00     0.031 C 
ATOM     70  C   UNL A   1      44.409  30.979  30.602  1.00  0.00     0.037 A 
BRANCH  57  71
ATOM     71  C   UNL A   1      38.683  29.208  29.072  1.00  0.00     0.057 A 
ATOM     72  C   UNL A   1      37.800  29.139  30.159  1.00  0.00     0.134 A 
ATOM     73  C   UNL A   1      38.163  29.644  27.847  1.00  0.00     0.134 A 
ATOM     74  F   UNL A   1      38.228  28.719  31.358  1.00  0.00    -0.206 F 
ATOM     75  C   UNL A   1      36.446  29.454  30.022  1.00  0.00     0.040 A 
ATOM     76  C   UNL A   1      36.818  29.993  27.707  1.00  0.00     0.040 A 
ATOM     77  F   UNL A   1      38.952  29.742  26.767  1.00  0.00    -0.206 F 
ATOM     78  C   UNL A   1      35.953  29.887  28.794  1.00  0.00     0.006 A 
ENDBRANCH  57  71
BRANCH  58  79
ATOM     79  C   UNL A   1      48.280  26.469  29.431  1.00  0.00     0.057 A 
ATOM     80  C   UNL A   1      49.089  26.687  28.312  1.00  0.00     0.134 A 
ATOM     81  C   UNL A   1      48.878  25.885  30.555  1.00  0.00     0.134 A 
ATOM     82  F   UNL A   1      48.571  27.229  27.199  1.00  0.00    -0.206 F 
ATOM     83  C   UNL A   1      50.438  26.325  28.302  1.00  0.00     0.040 A 
ATOM     84  C   UNL A   1      50.230  25.542  30.569  1.00  0.00     0.040 A 
ATOM     85  F   UNL A   1      48.159  25.659  31.665  1.00  0.00    -0.206 F 
ATOM     86  C   UNL A   1      51.013  25.756  29.437  1.00  0.00     0.006 A 
ENDBRANCH  58  79
BRANCH  70  87
ATOM     87  C   UNL A   1      44.866  32.297  31.159  1.00  0.00     0.057 A 
ATOM     88  C   UNL A   1      45.204  33.373  30.328  1.00  0.00     0.134 A 
ATOM     89  C   UNL A   1      44.924  32.505  32.543  1.00  0.00     0.134 A 
ATOM     90  F   UNL A   1      45.184  33.236  28.994  1.00  0.00    -0.206 F 
ATOM     91  C   UNL A   1      45.603  34.603  30.855  1.00  0.00     0.040 A 
ATOM     92  C   UNL A   1      45.293  33.739  33.081  1.00  0.00     0.040 A 
ATOM     93  F   UNL A   1      44.605  31.519  33.394  1.00  0.00    -0.206 F 
ATOM     94  C   UNL A   1      45.640  34.790  32.236  1.00  0.00     0.006 A 
ENDBRANCH  70  87
ENDBRANCH  44  45
ENDBRANCH  36  39
ENDBRANCH  34  35
ENDBRANCH  33  34
ENDBRANCH  32  33
ENDBRANCH  31  32
ENDBRANCH   1  31
TORSDOF 18
ENDMDL
MODEL 2
REMARK VINA RESULT:     -11.5      4.897     10.013
REMARK SMILES O=C(COc1ccccc1[C@@H]1[NH2+]CCc2cc(O)c(O)cc21)NCCCCCCNC(=O)c1ccc(-c2c3nc(c(-c4c(F)cccc4F)c4ccc([nH]4)c(-c4c(F)cccc4F)c4nc(c(-c5c(F)cccc5F)c5ccc2[nH]5)C=C4)C=C3)cc1
REMARK SMILES IDX 25 1 24 2 23 3 1 4 2 5 3 7 4 8 5 9 6 10 10 11 7 12 9 13 8 14
REMARK SMILES IDX 11 15 12 16 22 17 13 18 15 21 21 22 14 23 16 24 19 25 17 26
REMARK SMILES IDX 20 27 18 29 26 31 27 32 28 33 29 34 30 35 31 36 32 38 33 39
REMARK SMILES IDX 34 40 86 41 35 42 85 43 36 44 37 45 38 46 79 47 39 48 84 49
REMARK SMILES IDX 78 50 80 51 40 52 83 53 77 54 76 55 41 57 67 58 50 59 66 60
REMARK SMILES IDX 51 61 54 62 65 63 81 64 52 65 53 66 64 68 82 69 55 70 42 71
REMARK SMILES IDX 43 72 48 73 44 74 45 75 47 76 49 77 46 78 68 79 69 80 74 81
REMARK SMILES IDX 70 82 71 83 73 84 75 85 72 86 56 87 57 88 62 89 58 90 59 91
REMARK SMILES IDX 61 92 63 93 60 94
REMARK H PARENT 23 6 12 19 12 20 20 28 18 30 30 37 80 56 54 67
REMARK Flexibility Score: inf
ROOT
ATOM      1  C   UNL A   1      35.803  32.470  28.068  1.00  0.00     0.021 C 
ENDROOT
BRANCH   1   2
ATOM      2  C   UNL A   1      34.724  31.431  28.328  1.00  0.00     0.116 C 
BRANCH   2   3
ATOM      3  N   UNL A   1      33.753  31.313  27.263  1.00  0.00    -0.353 N 
ATOM      4  O   UNL A   1      33.665  29.022  27.266  1.00  0.00    -0.271 OA
ATOM      5  C   UNL A   1      33.190  30.100  26.917  1.00  0.00     0.257 C 
ATOM      6  H   UNL A   1      33.484  32.122  26.770  1.00  0.00     0.163 HD
BRANCH   5   7
ATOM      7  C   UNL A   1      31.908  30.221  26.079  1.00  0.00     0.329 C 
BRANCH   7   8
ATOM      8  O   UNL A   1      31.960  29.758  24.741  1.00  0.00    -0.483 OA
BRANCH   8   9
ATOM      9  C   UNL A   1      31.064  28.909  24.146  1.00  0.00     0.129 A 
ATOM     10  C   UNL A   1      30.293  29.627  23.209  1.00  0.00     0.047 A 
ATOM     11  C   UNL A   1      30.695  27.579  24.464  1.00  0.00     0.056 A 
ATOM     12  C   UNL A   1      29.109  29.119  22.683  1.00  0.00     0.004 A 
ATOM     13  C   UNL A   1      29.435  27.133  23.995  1.00  0.00     0.014 A 
ATOM     14  C   UNL A   1      28.649  27.892  23.125  1.00  0.00     0.001 A 
BRANCH  11  15
ATOM     15  C   UNL A   1      31.525  26.619  25.306  1.00  0.00     0.249 C 
ATOM     16  N   UNL A   1      32.966  26.735  25.027  1.00  0.00    -0.336 N 
ATOM     17  C   UNL A   1      31.226  25.115  25.323  1.00  0.00     0.021 A 
ATOM     18  C   UNL A   1      33.360  26.186  23.723  1.00  0.00     0.266 C 
ATOM     19  H   UNL A   1      33.477  26.237  25.756  1.00  0.00     0.347 HD
ATOM     20  H   UNL A   1      33.187  27.731  25.012  1.00  0.00     0.347 HD
ATOM     21  C   UNL A   1      31.804  24.329  24.298  1.00  0.00    -0.029 A 
ATOM     22  C   UNL A   1      30.645  24.493  26.440  1.00  0.00     0.060 A 
ATOM     23  C   UNL A   1      32.464  25.068  23.165  1.00  0.00     0.097 C 
ATOM     24  C   UNL A   1      31.855  22.941  24.415  1.00  0.00     0.054 A 
ATOM     25  C   UNL A   1      30.731  23.111  26.558  1.00  0.00     0.157 A 
ATOM     26  C   UNL A   1      31.350  22.351  25.564  1.00  0.00     0.157 A 
BRANCH  25  27
ATOM     27  O   UNL A   1      30.282  22.452  27.669  1.00  0.00    -0.504 OA
ATOM     28  H   UNL A   1      30.262  21.514  27.681  1.00  0.00     0.293 HD
ENDBRANCH  25  27
BRANCH  26  29
ATOM     29  O   UNL A   1      31.520  21.008  25.747  1.00  0.00    -0.504 OA
ATOM     30  H   UNL A   1      30.844  20.501  26.150  1.00  0.00     0.293 HD
ENDBRANCH  26  29
ENDBRANCH  11  15
ENDBRANCH   8   9
ENDBRANCH   7   8
ENDBRANCH   5   7
ENDBRANCH   2   3
ENDBRANCH   1   2
BRANCH   1  31
ATOM     31  C   UNL A   1      35.559  33.791  28.793  1.00  0.00     0.002 C 
BRANCH  31  32
ATOM     32  C   UNL A   1      34.825  34.846  27.960  1.00  0.00     0.002 C 
BRANCH  32  33
ATOM     33  C   UNL A   1      33.809  35.683  28.737  1.00  0.00     0.021 C 
BRANCH  33  34
ATOM     34  C   UNL A   1      33.016  34.904  29.779  1.00  0.00     0.116 C 
BRANCH  34  35
ATOM     35  N   UNL A   1      32.437  35.772  30.793  1.00  0.00    -0.352 N 
ATOM     36  C   UNL A   1      32.754  35.879  32.122  1.00  0.00     0.251 C 
ATOM     37  H   UNL A   1      31.717  36.366  30.482  1.00  0.00     0.163 HD
ATOM     38  O   UNL A   1      32.049  36.534  32.884  1.00  0.00    -0.269 OA
BRANCH  36  39
ATOM     39  C   UNL A   1      33.941  35.171  32.636  1.00  0.00     0.039 A 
ATOM     40  C   UNL A   1      33.779  33.915  33.222  1.00  0.00     0.014 A 
ATOM     41  C   UNL A   1      35.213  35.737  32.506  1.00  0.00     0.014 A 
ATOM     42  C   UNL A   1      34.903  33.191  33.616  1.00  0.00     0.010 A 
ATOM     43  C   UNL A   1      36.335  34.983  32.828  1.00  0.00     0.010 A 
ATOM     44  C   UNL A   1      36.191  33.703  33.383  1.00  0.00    -0.014 A 
BRANCH  44  45
ATOM     45  C   UNL A   1      37.400  32.902  33.694  1.00  0.00     0.031 A 
ATOM     46  C   UNL A   1      38.194  33.185  34.938  1.00  0.00     0.074 A 
ATOM     47  C   UNL A   1      37.824  31.974  32.815  1.00  0.00     0.049 A 
ATOM     48  N   UNL A   1      39.316  32.646  35.341  1.00  0.00    -0.248 NA
ATOM     49  C   UNL A   1      37.673  34.232  35.830  1.00  0.00     0.031 C 
ATOM     50  C   UNL A   1      37.168  31.649  31.548  1.00  0.00     0.029 A 
ATOM     51  N   UNL A   1      38.917  31.146  32.847  1.00  0.00    -0.354 N 
ATOM     52  C   UNL A   1      39.638  33.291  36.528  1.00  0.00     0.074 A 
ATOM     53  C   UNL A   1      38.627  34.304  36.746  1.00  0.00     0.031 C 
ATOM     54  C   UNL A   1      37.863  30.681  30.929  1.00  0.00     0.029 A 
ATOM     55  C   UNL A   1      39.034  30.349  31.735  1.00  0.00     0.049 A 
ATOM     56  H   UNL A   1      39.556  31.124  33.596  1.00  0.00     0.167 HD
ATOM     57  C   UNL A   1      40.670  33.047  37.370  1.00  0.00     0.037 A 
ATOM     58  C   UNL A   1      39.986  29.461  31.392  1.00  0.00     0.037 A 
ATOM     59  C   UNL A   1      41.668  32.033  37.150  1.00  0.00     0.049 A 
ATOM     60  C   UNL A   1      41.134  29.219  32.334  1.00  0.00     0.074 A 
ATOM     61  C   UNL A   1      42.719  31.665  37.971  1.00  0.00     0.029 A 
ATOM     62  N   UNL A   1      41.744  31.233  36.019  1.00  0.00    -0.354 N 
ATOM     63  N   UNL A   1      41.384  29.780  33.492  1.00  0.00    -0.248 NA
ATOM     64  C   UNL A   1      42.127  28.216  31.924  1.00  0.00     0.031 C 
ATOM     65  C   UNL A   1      43.465  30.682  37.312  1.00  0.00     0.029 A 
ATOM     66  C   UNL A   1      42.845  30.396  36.106  1.00  0.00     0.049 A 
ATOM     67  H   UNL A   1      41.111  31.256  35.266  1.00  0.00     0.167 HD
ATOM     68  C   UNL A   1      42.550  29.187  33.959  1.00  0.00     0.074 A 
ATOM     69  C   UNL A   1      42.946  28.208  32.966  1.00  0.00     0.031 C 
ATOM     70  C   UNL A   1      43.230  29.430  35.106  1.00  0.00     0.037 A 
BRANCH  57  71
ATOM     71  C   UNL A   1      40.768  33.899  38.604  1.00  0.00     0.057 A 
ATOM     72  C   UNL A   1      41.529  35.075  38.634  1.00  0.00     0.134 A 
ATOM     73  C   UNL A   1      40.081  33.547  39.774  1.00  0.00     0.134 A 
ATOM     74  F   UNL A   1      42.220  35.465  37.553  1.00  0.00    -0.206 F 
ATOM     75  C   UNL A   1      41.634  35.849  39.791  1.00  0.00     0.040 A 
ATOM     76  C   UNL A   1      40.153  34.331  40.926  1.00  0.00     0.040 A 
ATOM     77  F   UNL A   1      39.327  32.438  39.814  1.00  0.00    -0.206 F 
ATOM     78  C   UNL A   1      40.940  35.480  40.941  1.00  0.00     0.006 A 
ENDBRANCH  57  71
BRANCH  58  79
ATOM     79  C   UNL A   1      39.889  28.734  30.102  1.00  0.00     0.057 A 
ATOM     80  C   UNL A   1      40.514  29.218  28.948  1.00  0.00     0.134 A 
ATOM     81  C   UNL A   1      39.179  27.532  29.995  1.00  0.00     0.134 A 
ATOM     82  F   UNL A   1      41.196  30.372  28.982  1.00  0.00    -0.206 F 
ATOM     83  C   UNL A   1      40.425  28.541  27.729  1.00  0.00     0.040 A 
ATOM     84  C   UNL A   1      39.104  26.831  28.790  1.00  0.00     0.040 A 
ATOM     85  F   UNL A   1      38.566  27.009  31.067  1.00  0.00    -0.206 F 
ATOM     86  C   UNL A   1      39.723  27.340  27.651  1.00  0.00     0.006 A 
ENDBRANCH  58  79
BRANCH  70  87
ATOM     87  C   UNL A   1      44.463  28.611  35.362  1.00  0.00     0.057 A 
ATOM     88  C   UNL A   1      44.407  27.377  36.021  1.00  0.00     0.134 A 
ATOM     89  C   UNL A   1      45.713  29.042  34.901  1.00  0.00     0.134 A 
ATOM     90  F   UNL A   1      43.243  26.913  36.501  1.00  0.00    -0.206 F 
ATOM     91  C   UNL A   1      45.555  26.610  36.232  1.00  0.00     0.040 A 
ATOM     92  C   UNL A   1      46.863  28.271  35.079  1.00  0.00     0.040 A 
ATOM     93  F   UNL A   1      45.835  30.210  34.254  1.00  0.00    -0.206 F 
ATOM     94  C   UNL A   1      46.786  27.054  35.753  1.00  0.00     0.006 A 
ENDBRANCH  70  87
ENDBRANCH  44  45
ENDBRANCH  36  39
ENDBRANCH  34  35
ENDBRANCH  33  34
ENDBRANCH  32  33
ENDBRANCH  31  32
ENDBRANCH   1  31
TORSDOF 18
ENDMDL
MODEL 3
REMARK VINA RESULT:     -11.4      4.138      9.355
REMARK SMILES O=C(COc1ccccc1[C@@H]1[NH2+]CCc2cc(O)c(O)cc21)NCCCCCCNC(=O)c1ccc(-c2c3nc(c(-c4c(F)cccc4F)c4ccc([nH]4)c(-c4c(F)cccc4F)c4nc(c(-c5c(F)cccc5F)c5ccc2[nH]5)C=C4)C=C3)cc1
REMARK SMILES IDX 25 1 24 2 23 3 1 4 2 5 3 7 4 8 5 9 6 10 10 11 7 12 9 13 8 14
REMARK SMILES IDX 11 15 12 16 22 17 13 18 15 21 21 22 14 23 16 24 19 25 17 26
REMARK SMILES IDX 20 27 18 29 26 31 27 32 28 33 29 34 30 35 31 36 32 38 33 39
REMARK SMILES IDX 34 40 86 41 35 42 85 43 36 44 37 45 38 46 79 47 39 48 84 49
REMARK SMILES IDX 78 50 80 51 40 52 83 53 77 54 76 55 41 57 67 58 50 59 66 60
REMARK SMILES IDX 51 61 54 62 65 63 81 64 52 65 53 66 64 68 82 69 55 70 42 71
REMARK SMILES IDX 43 72 48 73 44 74 45 75 47 76 49 77 46 78 68 79 69 80 74 81
REMARK SMILES IDX 70 82 71 83 73 84 75 85 72 86 56 87 57 88 62 89 58 90 59 91
REMARK SMILES IDX 61 92 63 93 60 94
REMARK H PARENT 23 6 12 19 12 20 20 28 18 30 30 37 80 56 54 67
REMARK Flexibility Score: inf
ROOT
ATOM      1  C   UNL A   1      33.598  29.767  27.618  1.00  0.00     0.021 C 
ENDROOT
BRANCH   1   2
ATOM      2  C   UNL A   1      34.589  28.981  26.775  1.00  0.00     0.116 C 
BRANCH   2   3
ATOM      3  N   UNL A   1      34.014  27.832  26.111  1.00  0.00    -0.353 N 
ATOM      4  O   UNL A   1      33.868  28.798  24.037  1.00  0.00    -0.271 OA
ATOM      5  C   UNL A   1      33.834  27.792  24.743  1.00  0.00     0.257 C 
ATOM      6  H   UNL A   1      33.743  27.055  26.652  1.00  0.00     0.163 HD
BRANCH   5   7
ATOM      7  C   UNL A   1      33.612  26.380  24.181  1.00  0.00     0.329 C 
BRANCH   7   8
ATOM      8  O   UNL A   1      33.510  25.318  25.113  1.00  0.00    -0.483 OA
BRANCH   8   9
ATOM      9  C   UNL A   1      32.389  24.571  25.366  1.00  0.00     0.129 A 
ATOM     10  C   UNL A   1      31.303  25.432  25.620  1.00  0.00     0.047 A 
ATOM     11  C   UNL A   1      32.234  23.182  25.596  1.00  0.00     0.056 A 
ATOM     12  C   UNL A   1      30.126  24.981  26.210  1.00  0.00     0.004 A 
ATOM     13  C   UNL A   1      31.069  22.773  26.291  1.00  0.00     0.014 A 
ATOM     14  C   UNL A   1      30.034  23.658  26.601  1.00  0.00     0.001 A 
BRANCH  11  15
ATOM     15  C   UNL A   1      33.241  22.111  25.198  1.00  0.00     0.249 C 
ATOM     16  N   UNL A   1      34.067  22.522  24.051  1.00  0.00    -0.336 N 
ATOM     17  C   UNL A   1      32.796  20.676  24.896  1.00  0.00     0.021 A 
ATOM     18  C   UNL A   1      33.339  22.539  22.775  1.00  0.00     0.266 C 
ATOM     19  H   UNL A   1      34.850  21.873  23.968  1.00  0.00     0.347 HD
ATOM     20  H   UNL A   1      34.375  23.478  24.233  1.00  0.00     0.347 HD
ATOM     21  C   UNL A   1      32.351  20.399  23.580  1.00  0.00    -0.029 A 
ATOM     22  C   UNL A   1      33.069  19.619  25.779  1.00  0.00     0.060 A 
ATOM     23  C   UNL A   1      32.140  21.581  22.672  1.00  0.00     0.097 C 
ATOM     24  C   UNL A   1      32.238  19.084  23.134  1.00  0.00     0.054 A 
ATOM     25  C   UNL A   1      32.983  18.313  25.309  1.00  0.00     0.157 A 
ATOM     26  C   UNL A   1      32.593  18.056  23.994  1.00  0.00     0.157 A 
BRANCH  25  27
ATOM     27  O   UNL A   1      33.338  17.243  26.083  1.00  0.00    -0.504 OA
ATOM     28  H   UNL A   1      34.241  17.093  26.290  1.00  0.00     0.293 HD
ENDBRANCH  25  27
BRANCH  26  29
ATOM     29  O   UNL A   1      32.617  16.776  23.519  1.00  0.00    -0.504 OA
ATOM     30  H   UNL A   1      31.997  16.148  23.835  1.00  0.00     0.293 HD
ENDBRANCH  26  29
ENDBRANCH  11  15
ENDBRANCH   8   9
ENDBRANCH   7   8
ENDBRANCH   5   7
ENDBRANCH   2   3
ENDBRANCH   1   2
BRANCH   1  31
ATOM     31  C   UNL A   1      32.149  29.592  27.171  1.00  0.00     0.002 C 
BRANCH  31  32
ATOM     32  C   UNL A   1      31.631  30.700  26.249  1.00  0.00     0.002 C 
BRANCH  32  33
ATOM     33  C   UNL A   1      31.429  32.056  26.926  1.00  0.00     0.021 C 
BRANCH  33  34
ATOM     34  C   UNL A   1      32.601  33.017  26.774  1.00  0.00     0.116 C 
BRANCH  34  35
ATOM     35  N   UNL A   1      32.422  34.231  27.555  1.00  0.00    -0.352 N 
ATOM     36  C   UNL A   1      33.086  34.640  28.682  1.00  0.00     0.251 C 
ATOM     37  H   UNL A   1      31.726  34.846  27.228  1.00  0.00     0.163 HD
ATOM     38  O   UNL A   1      32.693  35.609  29.324  1.00  0.00    -0.269 OA
BRANCH  36  39
ATOM     39  C   UNL A   1      34.268  33.883  29.132  1.00  0.00     0.039 A 
ATOM     40  C   UNL A   1      35.540  34.362  28.814  1.00  0.00     0.014 A 
ATOM     41  C   UNL A   1      34.116  32.722  29.896  1.00  0.00     0.014 A 
ATOM     42  C   UNL A   1      36.664  33.714  29.322  1.00  0.00     0.010 A 
ATOM     43  C   UNL A   1      35.234  32.123  30.464  1.00  0.00     0.010 A 
ATOM     44  C   UNL A   1      36.518  32.614  30.184  1.00  0.00    -0.014 A 
BRANCH  44  45
ATOM     45  C   UNL A   1      37.697  31.979  30.822  1.00  0.00     0.031 A 
ATOM     46  C   UNL A   1      38.447  30.892  30.109  1.00  0.00     0.074 A 
ATOM     47  C   UNL A   1      38.041  32.331  32.076  1.00  0.00     0.049 A 
ATOM     48  N   UNL A   1      39.451  30.168  30.532  1.00  0.00    -0.248 NA
ATOM     49  C   UNL A   1      37.989  30.553  28.753  1.00  0.00     0.031 C 
ATOM     50  C   UNL A   1      37.354  33.335  32.891  1.00  0.00     0.029 A 
ATOM     51  N   UNL A   1      39.044  31.871  32.890  1.00  0.00    -0.354 N 
ATOM     52  C   UNL A   1      39.741  29.285  29.498  1.00  0.00     0.074 A 
ATOM     53  C   UNL A   1      38.766  29.522  28.456  1.00  0.00     0.031 C 
ATOM     54  C   UNL A   1      37.965  33.425  34.083  1.00  0.00     0.029 A 
ATOM     55  C   UNL A   1      39.057  32.458  34.132  1.00  0.00     0.049 A 
ATOM     56  H   UNL A   1      39.694  31.186  32.611  1.00  0.00     0.167 HD
ATOM     57  C   UNL A   1      40.741  28.377  29.418  1.00  0.00     0.037 A 
ATOM     58  C   UNL A   1      39.848  32.232  35.197  1.00  0.00     0.037 A 
ATOM     59  C   UNL A   1      41.711  28.151  30.457  1.00  0.00     0.049 A 
ATOM     60  C   UNL A   1      40.940  31.204  35.093  1.00  0.00     0.074 A 
ATOM     61  C   UNL A   1      42.799  27.296  30.451  1.00  0.00     0.029 A 
ATOM     62  N   UNL A   1      41.702  28.777  31.695  1.00  0.00    -0.354 N 
ATOM     63  N   UNL A   1      41.253  30.432  34.081  1.00  0.00    -0.248 NA
ATOM     64  C   UNL A   1      41.793  31.021  36.275  1.00  0.00     0.031 C 
ATOM     65  C   UNL A   1      43.415  27.363  31.705  1.00  0.00     0.029 A 
ATOM     66  C   UNL A   1      42.746  28.302  32.473  1.00  0.00     0.049 A 
ATOM     67  H   UNL A   1      41.050  29.457  31.980  1.00  0.00     0.167 HD
ATOM     68  C   UNL A   1      42.349  29.686  34.495  1.00  0.00     0.074 A 
ATOM     69  C   UNL A   1      42.658  30.113  35.844  1.00  0.00     0.031 C 
ATOM     70  C   UNL A   1      43.038  28.734  33.818  1.00  0.00     0.037 A 
BRANCH  57  71
ATOM     71  C   UNL A   1      40.827  27.556  28.162  1.00  0.00     0.057 A 
ATOM     72  C   UNL A   1      40.176  26.321  28.037  1.00  0.00     0.134 A 
ATOM     73  C   UNL A   1      41.558  28.014  27.057  1.00  0.00     0.134 A 
ATOM     74  F   UNL A   1      39.469  25.819  29.060  1.00  0.00    -0.206 F 
ATOM     75  C   UNL A   1      40.280  25.554  26.875  1.00  0.00     0.040 A 
ATOM     76  C   UNL A   1      41.641  27.270  25.879  1.00  0.00     0.040 A 
ATOM     77  F   UNL A   1      42.199  29.191  27.104  1.00  0.00    -0.206 F 
ATOM     78  C   UNL A   1      41.010  26.031  25.789  1.00  0.00     0.006 A 
ENDBRANCH  57  71
BRANCH  58  79
ATOM     79  C   UNL A   1      39.635  32.998  36.450  1.00  0.00     0.057 A 
ATOM     80  C   UNL A   1      40.332  34.185  36.703  1.00  0.00     0.134 A 
ATOM     81  C   UNL A   1      38.719  32.570  37.420  1.00  0.00     0.134 A 
ATOM     82  F   UNL A   1      41.234  34.639  35.821  1.00  0.00    -0.206 F 
ATOM     83  C   UNL A   1      40.139  34.910  37.881  1.00  0.00     0.040 A 
ATOM     84  C   UNL A   1      38.497  33.298  38.589  1.00  0.00     0.040 A 
ATOM     85  F   UNL A   1      38.011  31.446  37.233  1.00  0.00    -0.206 F 
ATOM     86  C   UNL A   1      39.213  34.469  38.825  1.00  0.00     0.006 A 
ENDBRANCH  58  79
BRANCH  70  87
ATOM     87  C   UNL A   1      44.207  28.103  34.518  1.00  0.00     0.057 A 
ATOM     88  C   UNL A   1      44.076  26.918  35.254  1.00  0.00     0.134 A 
ATOM     89  C   UNL A   1      45.487  28.663  34.415  1.00  0.00     0.134 A 
ATOM     90  F   UNL A   1      42.875  26.339  35.404  1.00  0.00    -0.206 F 
ATOM     91  C   UNL A   1      45.174  26.324  35.881  1.00  0.00     0.040 A 
ATOM     92  C   UNL A   1      46.596  28.062  35.012  1.00  0.00     0.040 A 
ATOM     93  F   UNL A   1      45.683  29.791  33.718  1.00  0.00    -0.206 F 
ATOM     94  C   UNL A   1      46.440  26.893  35.753  1.00  0.00     0.006 A 
ENDBRANCH  70  87
ENDBRANCH  44  45
ENDBRANCH  36  39
ENDBRANCH  34  35
ENDBRANCH  33  34
ENDBRANCH  32  33
ENDBRANCH  31  32
ENDBRANCH   1  31
TORSDOF 18
ENDMDL
