MODEL 1
REMARK VINA RESULT:     -12.5      0.000      0.000
REMARK SMILES Cc1ccccc1NC(=O)NC[C@@H]1CC[C@@H](C(=O)NCCCCCCNC(=O)c2ccc(-c3c4nc(c(-c5c(F)cccc5F)c5ccc([nH]5)c(-c5c(F)cccc5F)c5nc(c(-c6c(F)cccc6F)c6ccc3[nH]6)C=C5)C=C4)cc2)O1
REMARK SMILES IDX 22 1 21 2 20 3 19 4 17 5 18 6 16 8 13 9 14 10 83 11 15 12
REMARK SMILES IDX 12 13 11 14 8 15 9 16 10 18 7 20 1 21 2 22 3 23 4 24 6 25
REMARK SMILES IDX 5 26 23 27 24 28 25 29 26 30 27 31 28 33 29 34 30 35 82 36
REMARK SMILES IDX 31 37 81 38 32 39 33 40 34 41 75 42 35 43 80 44 74 45 76 46
REMARK SMILES IDX 36 47 79 48 73 49 72 50 37 52 63 53 46 54 62 55 47 56 50 57
REMARK SMILES IDX 61 58 77 59 48 60 49 61 60 63 78 64 51 65 38 66 39 67 44 68
REMARK SMILES IDX 40 69 41 70 43 71 45 72 42 73 64 74 65 75 70 76 66 77 67 78
REMARK SMILES IDX 69 79 71 80 68 81 52 82 53 83 58 84 54 85 55 86 57 87 59 88
REMARK SMILES IDX 56 89
REMARK H PARENT 19 7 8 17 11 19 26 32 76 51 50 62
REMARK Flexibility Score: inf
ROOT
ATOM      1  C   UNL A   1      33.483  28.623  26.163  1.00  0.00     0.002 C 
ENDROOT
BRANCH   1   2
ATOM      2  C   UNL A   1      32.919  29.626  25.143  1.00  0.00     0.021 C 
BRANCH   2   3
ATOM      3  C   UNL A   1      31.400  29.817  25.205  1.00  0.00     0.116 C 
BRANCH   3   4
ATOM      4  N   UNL A   1      30.795  29.617  23.907  1.00  0.00    -0.354 N 
ATOM      5  C   UNL A   1      30.900  28.582  23.024  1.00  0.00     0.249 C 
ATOM      6  O   UNL A   1      30.306  28.712  21.950  1.00  0.00    -0.272 OA
ATOM      7  H   UNL A   1      30.210  30.350  23.610  1.00  0.00     0.163 HD
BRANCH   5   8
ATOM      8  C   UNL A   1      31.652  27.286  23.400  1.00  0.00     0.207 C 
ATOM      9  C   UNL A   1      31.172  25.063  22.763  1.00  0.00     0.138 C 
ATOM     10  C   UNL A   1      32.646  25.314  22.543  1.00  0.00     0.037 C 
ATOM     11  O   UNL A   1      30.736  26.183  23.564  1.00  0.00    -0.363 OA
ATOM     12  C   UNL A   1      32.696  26.813  22.402  1.00  0.00     0.045 C 
BRANCH   9  13
ATOM     13  C   UNL A   1      30.833  23.761  23.507  1.00  0.00     0.149 C 
BRANCH  13  14
ATOM     14  N   UNL A   1      30.317  23.976  24.847  1.00  0.00    -0.335 N 
ATOM     15  N   UNL A   1      31.933  24.264  26.617  1.00  0.00    -0.308 N 
ATOM     16  C   UNL A   1      30.718  24.221  26.080  1.00  0.00     0.319 C 
ATOM     17  H   UNL A   1      31.836  24.490  27.571  1.00  0.00     0.171 HD
ATOM     18  O   UNL A   1      29.796  24.415  26.889  1.00  0.00    -0.249 OA
ATOM     19  H   UNL A   1      29.334  23.921  24.829  1.00  0.00     0.165 HD
BRANCH  15  20
ATOM     20  C   UNL A   1      33.303  24.110  26.346  1.00  0.00     0.045 A 
ATOM     21  C   UNL A   1      33.384  21.938  27.779  1.00  0.00     0.046 C 
ATOM     22  C   UNL A   1      33.980  22.970  26.852  1.00  0.00    -0.027 A 
ATOM     23  C   UNL A   1      35.337  22.751  26.519  1.00  0.00     0.005 A 
ATOM     24  C   UNL A   1      36.037  23.642  25.719  1.00  0.00     0.000 A 
ATOM     25  C   UNL A   1      34.054  25.011  25.604  1.00  0.00     0.026 A 
ATOM     26  C   UNL A   1      35.398  24.785  25.276  1.00  0.00     0.002 A 
ENDBRANCH  15  20
ENDBRANCH  13  14
ENDBRANCH   9  13
ENDBRANCH   5   8
ENDBRANCH   3   4
ENDBRANCH   2   3
ENDBRANCH   1   2
BRANCH   1  27
ATOM     27  C   UNL A   1      34.402  29.201  27.252  1.00  0.00     0.002 C 
BRANCH  27  28
ATOM     28  C   UNL A   1      34.097  30.637  27.688  1.00  0.00     0.021 C 
BRANCH  28  29
ATOM     29  C   UNL A   1      35.299  31.571  27.628  1.00  0.00     0.116 C 
BRANCH  29  30
ATOM     30  N   UNL A   1      35.794  31.979  28.939  1.00  0.00    -0.352 N 
ATOM     31  C   UNL A   1      36.635  31.295  29.797  1.00  0.00     0.251 C 
ATOM     32  H   UNL A   1      35.488  32.860  29.255  1.00  0.00     0.163 HD
ATOM     33  O   UNL A   1      36.967  31.782  30.873  1.00  0.00    -0.269 OA
BRANCH  31  34
ATOM     34  C   UNL A   1      37.236  30.022  29.339  1.00  0.00     0.039 A 
ATOM     35  C   UNL A   1      37.376  28.995  30.279  1.00  0.00     0.014 A 
ATOM     36  C   UNL A   1      37.875  29.945  28.104  1.00  0.00     0.014 A 
ATOM     37  C   UNL A   1      38.356  28.028  30.082  1.00  0.00     0.010 A 
ATOM     38  C   UNL A   1      38.914  29.044  27.953  1.00  0.00     0.010 A 
ATOM     39  C   UNL A   1      39.206  28.139  28.979  1.00  0.00    -0.014 A 
BRANCH  39  40
ATOM     40  C   UNL A   1      40.518  27.494  28.943  1.00  0.00     0.031 A 
ATOM     41  C   UNL A   1      40.673  26.066  28.585  1.00  0.00     0.074 A 
ATOM     42  C   UNL A   1      41.622  28.234  29.193  1.00  0.00     0.049 A 
ATOM     43  N   UNL A   1      41.671  25.331  28.951  1.00  0.00    -0.248 NA
ATOM     44  C   UNL A   1      39.678  25.334  27.814  1.00  0.00     0.031 C 
ATOM     45  C   UNL A   1      43.012  27.861  28.945  1.00  0.00     0.029 A 
ATOM     46  N   UNL A   1      41.707  29.421  29.936  1.00  0.00    -0.354 N 
ATOM     47  C   UNL A   1      41.599  24.141  28.265  1.00  0.00     0.074 A 
ATOM     48  C   UNL A   1      40.307  24.171  27.616  1.00  0.00     0.031 C 
ATOM     49  C   UNL A   1      43.806  28.604  29.730  1.00  0.00     0.029 A 
ATOM     50  C   UNL A   1      42.948  29.384  30.603  1.00  0.00     0.049 A 
ATOM     51  H   UNL A   1      41.033  30.138  29.982  1.00  0.00     0.167 HD
ATOM     52  C   UNL A   1      42.692  23.322  28.218  1.00  0.00     0.037 A 
ATOM     53  C   UNL A   1      43.038  29.410  31.963  1.00  0.00     0.037 A 
ATOM     54  C   UNL A   1      43.789  23.846  29.032  1.00  0.00     0.049 A 
ATOM     55  C   UNL A   1      43.739  28.217  32.564  1.00  0.00     0.074 A 
ATOM     56  C   UNL A   1      44.927  24.569  28.715  1.00  0.00     0.029 A 
ATOM     57  N   UNL A   1      43.666  23.894  30.416  1.00  0.00    -0.354 N 
ATOM     58  N   UNL A   1      43.947  27.099  31.927  1.00  0.00    -0.248 NA
ATOM     59  C   UNL A   1      44.213  28.168  33.946  1.00  0.00     0.031 C 
ATOM     60  C   UNL A   1      45.474  25.082  29.914  1.00  0.00     0.029 A 
ATOM     61  C   UNL A   1      44.672  24.668  30.962  1.00  0.00     0.049 A 
ATOM     62  H   UNL A   1      42.962  23.440  30.934  1.00  0.00     0.167 HD
ATOM     63  C   UNL A   1      44.507  26.185  32.782  1.00  0.00     0.074 A 
ATOM     64  C   UNL A   1      44.686  26.913  34.023  1.00  0.00     0.031 C 
ATOM     65  C   UNL A   1      44.748  24.897  32.397  1.00  0.00     0.037 A 
BRANCH  52  66
ATOM     66  C   UNL A   1      42.876  22.212  27.201  1.00  0.00     0.057 A 
ATOM     67  C   UNL A   1      42.115  21.026  27.271  1.00  0.00     0.134 A 
ATOM     68  C   UNL A   1      43.826  22.218  26.165  1.00  0.00     0.134 A 
ATOM     69  F   UNL A   1      41.077  20.898  28.106  1.00  0.00    -0.206 F 
ATOM     70  C   UNL A   1      42.377  19.897  26.482  1.00  0.00     0.040 A 
ATOM     71  C   UNL A   1      44.135  21.080  25.403  1.00  0.00     0.040 A 
ATOM     72  F   UNL A   1      44.454  23.342  25.798  1.00  0.00    -0.206 F 
ATOM     73  C   UNL A   1      43.422  19.905  25.574  1.00  0.00     0.006 A 
ENDBRANCH  52  66
BRANCH  53  74
ATOM     74  C   UNL A   1      41.951  30.167  32.629  1.00  0.00     0.057 A 
ATOM     75  C   UNL A   1      42.066  31.562  32.739  1.00  0.00     0.134 A 
ATOM     76  C   UNL A   1      40.689  29.609  32.847  1.00  0.00     0.134 A 
ATOM     77  F   UNL A   1      43.251  32.159  32.539  1.00  0.00    -0.206 F 
ATOM     78  C   UNL A   1      40.954  32.378  32.964  1.00  0.00     0.040 A 
ATOM     79  C   UNL A   1      39.568  30.416  33.075  1.00  0.00     0.040 A 
ATOM     80  F   UNL A   1      40.498  28.287  32.731  1.00  0.00    -0.206 F 
ATOM     81  C   UNL A   1      39.693  31.804  33.102  1.00  0.00     0.006 A 
ENDBRANCH  53  74
BRANCH  65  82
ATOM     82  C   UNL A   1      45.155  23.763  33.304  1.00  0.00     0.057 A 
ATOM     83  C   UNL A   1      46.438  23.611  33.848  1.00  0.00     0.134 A 
ATOM     84  C   UNL A   1      44.190  22.846  33.777  1.00  0.00     0.134 A 
ATOM     85  F   UNL A   1      47.424  24.477  33.575  1.00  0.00    -0.206 F 
ATOM     86  C   UNL A   1      46.755  22.587  34.751  1.00  0.00     0.040 A 
ATOM     87  C   UNL A   1      44.483  21.852  34.716  1.00  0.00     0.040 A 
ATOM     88  F   UNL A   1      42.914  22.891  33.364  1.00  0.00    -0.206 F 
ATOM     89  C   UNL A   1      45.775  21.710  35.197  1.00  0.00     0.006 A 
ENDBRANCH  65  82
ENDBRANCH  39  40
ENDBRANCH  31  34
ENDBRANCH  29  30
ENDBRANCH  28  29
ENDBRANCH  27  28
ENDBRANCH   1  27
TORSDOF 16
ENDMDL
MODEL 2
REMARK VINA RESULT:     -12.3      1.448      2.213
REMARK SMILES Cc1ccccc1NC(=O)NC[C@@H]1CC[C@@H](C(=O)NCCCCCCNC(=O)c2ccc(-c3c4nc(c(-c5c(F)cccc5F)c5ccc([nH]5)c(-c5c(F)cccc5F)c5nc(c(-c6c(F)cccc6F)c6ccc3[nH]6)C=C5)C=C4)cc2)O1
REMARK SMILES IDX 22 1 21 2 20 3 19 4 17 5 18 6 16 8 13 9 14 10 83 11 15 12
REMARK SMILES IDX 12 13 11 14 8 15 9 16 10 18 7 20 1 21 2 22 3 23 4 24 6 25
REMARK SMILES IDX 5 26 23 27 24 28 25 29 26 30 27 31 28 33 29 34 30 35 82 36
REMARK SMILES IDX 31 37 81 38 32 39 33 40 34 41 75 42 35 43 80 44 74 45 76 46
REMARK SMILES IDX 36 47 79 48 73 49 72 50 37 52 63 53 46 54 62 55 47 56 50 57
REMARK SMILES IDX 61 58 77 59 48 60 49 61 60 63 78 64 51 65 38 66 39 67 44 68
REMARK SMILES IDX 40 69 41 70 43 71 45 72 42 73 64 74 65 75 70 76 66 77 67 78
REMARK SMILES IDX 69 79 71 80 68 81 52 82 53 83 58 84 54 85 55 86 57 87 59 88
REMARK SMILES IDX 56 89
REMARK H PARENT 19 7 8 17 11 19 26 32 76 51 50 62
REMARK Flexibility Score: inf
ROOT
ATOM      1  C   UNL A   1      33.482  28.228  26.461  1.00  0.00     0.002 C 
ENDROOT
BRANCH   1   2
ATOM      2  C   UNL A   1      32.001  28.637  26.522  1.00  0.00     0.021 C 
BRANCH   2   3
ATOM      3  C   UNL A   1      31.028  27.609  25.939  1.00  0.00     0.116 C 
BRANCH   3   4
ATOM      4  N   UNL A   1      30.991  26.408  26.745  1.00  0.00    -0.354 N 
ATOM      5  C   UNL A   1      31.265  25.110  26.425  1.00  0.00     0.249 C 
ATOM      6  O   UNL A   1      31.090  24.275  27.316  1.00  0.00    -0.272 OA
ATOM      7  H   UNL A   1      30.723  26.551  27.681  1.00  0.00     0.163 HD
BRANCH   5   8
ATOM      8  C   UNL A   1      31.847  24.735  25.044  1.00  0.00     0.207 C 
ATOM      9  C   UNL A   1      31.578  22.731  23.824  1.00  0.00     0.138 C 
ATOM     10  C   UNL A   1      31.322  23.894  22.893  1.00  0.00     0.037 C 
ATOM     11  O   UNL A   1      32.187  23.334  24.987  1.00  0.00    -0.363 OA
ATOM     12  C   UNL A   1      30.941  24.990  23.852  1.00  0.00     0.045 C 
BRANCH   9  13
ATOM     13  C   UNL A   1      32.523  21.650  23.277  1.00  0.00     0.149 C 
BRANCH  13  14
ATOM     14  N   UNL A   1      32.603  20.467  24.116  1.00  0.00    -0.335 N 
ATOM     15  N   UNL A   1      34.439  20.348  25.680  1.00  0.00    -0.308 N 
ATOM     16  C   UNL A   1      33.313  19.946  25.099  1.00  0.00     0.319 C 
ATOM     17  H   UNL A   1      34.662  19.702  26.389  1.00  0.00     0.171 HD
ATOM     18  O   UNL A   1      32.868  18.872  25.537  1.00  0.00    -0.249 OA
ATOM     19  H   UNL A   1      31.881  19.844  23.869  1.00  0.00     0.165 HD
BRANCH  15  20
ATOM     20  C   UNL A   1      35.431  21.342  25.671  1.00  0.00     0.045 A 
ATOM     21  C   UNL A   1      37.199  19.624  24.831  1.00  0.00     0.046 C 
ATOM     22  C   UNL A   1      36.732  21.009  25.211  1.00  0.00    -0.027 A 
ATOM     23  C   UNL A   1      37.722  22.014  25.111  1.00  0.00     0.005 A 
ATOM     24  C   UNL A   1      37.458  23.326  25.475  1.00  0.00     0.000 A 
ATOM     25  C   UNL A   1      35.226  22.649  26.088  1.00  0.00     0.026 A 
ATOM     26  C   UNL A   1      36.212  23.640  25.983  1.00  0.00     0.002 A 
ENDBRANCH  15  20
ENDBRANCH  13  14
ENDBRANCH   9  13
ENDBRANCH   5   8
ENDBRANCH   3   4
ENDBRANCH   2   3
ENDBRANCH   1   2
BRANCH   1  27
ATOM     27  C   UNL A   1      34.443  29.006  27.376  1.00  0.00     0.002 C 
BRANCH  27  28
ATOM     28  C   UNL A   1      34.017  30.435  27.728  1.00  0.00     0.021 C 
BRANCH  28  29
ATOM     29  C   UNL A   1      35.129  31.465  27.582  1.00  0.00     0.116 C 
BRANCH  29  30
ATOM     30  N   UNL A   1      35.676  31.928  28.853  1.00  0.00    -0.352 N 
ATOM     31  C   UNL A   1      36.582  31.296  29.684  1.00  0.00     0.251 C 
ATOM     32  H   UNL A   1      35.356  32.807  29.160  1.00  0.00     0.163 HD
ATOM     33  O   UNL A   1      36.952  31.825  30.728  1.00  0.00    -0.269 OA
BRANCH  31  34
ATOM     34  C   UNL A   1      37.202  30.031  29.230  1.00  0.00     0.039 A 
ATOM     35  C   UNL A   1      37.336  29.002  30.168  1.00  0.00     0.014 A 
ATOM     36  C   UNL A   1      37.861  29.965  28.006  1.00  0.00     0.014 A 
ATOM     37  C   UNL A   1      38.329  28.044  29.983  1.00  0.00     0.010 A 
ATOM     38  C   UNL A   1      38.911  29.074  27.867  1.00  0.00     0.010 A 
ATOM     39  C   UNL A   1      39.195  28.167  28.894  1.00  0.00    -0.014 A 
BRANCH  39  40
ATOM     40  C   UNL A   1      40.512  27.534  28.875  1.00  0.00     0.031 A 
ATOM     41  C   UNL A   1      40.686  26.109  28.517  1.00  0.00     0.074 A 
ATOM     42  C   UNL A   1      41.606  28.285  29.144  1.00  0.00     0.049 A 
ATOM     43  N   UNL A   1      41.685  25.383  28.896  1.00  0.00    -0.248 NA
ATOM     44  C   UNL A   1      39.710  25.370  27.728  1.00  0.00     0.031 C 
ATOM     45  C   UNL A   1      43.002  27.924  28.916  1.00  0.00     0.029 A 
ATOM     46  N   UNL A   1      41.669  29.470  29.891  1.00  0.00    -0.354 N 
ATOM     47  C   UNL A   1      41.634  24.193  28.206  1.00  0.00     0.074 A 
ATOM     48  C   UNL A   1      40.352  24.214  27.538  1.00  0.00     0.031 C 
ATOM     49  C   UNL A   1      43.779  28.673  29.714  1.00  0.00     0.029 A 
ATOM     50  C   UNL A   1      42.900  29.442  30.577  1.00  0.00     0.049 A 
ATOM     51  H   UNL A   1      40.988  30.180  29.929  1.00  0.00     0.167 HD
ATOM     52  C   UNL A   1      42.735  23.384  28.173  1.00  0.00     0.037 A 
ATOM     53  C   UNL A   1      42.970  29.466  31.938  1.00  0.00     0.037 A 
ATOM     54  C   UNL A   1      43.815  23.916  29.004  1.00  0.00     0.049 A 
ATOM     55  C   UNL A   1      43.672  28.277  32.546  1.00  0.00     0.074 A 
ATOM     56  C   UNL A   1      44.951  24.650  28.706  1.00  0.00     0.029 A 
ATOM     57  N   UNL A   1      43.671  23.960  30.387  1.00  0.00    -0.354 N 
ATOM     58  N   UNL A   1      43.901  27.163  31.910  1.00  0.00    -0.248 NA
ATOM     59  C   UNL A   1      44.126  28.230  33.934  1.00  0.00     0.031 C 
ATOM     60  C   UNL A   1      45.476  25.166  29.914  1.00  0.00     0.029 A 
ATOM     61  C   UNL A   1      44.662  24.741  30.949  1.00  0.00     0.049 A 
ATOM     62  H   UNL A   1      42.964  23.498  30.893  1.00  0.00     0.167 HD
ATOM     63  C   UNL A   1      44.455  26.252  32.770  1.00  0.00     0.074 A 
ATOM     64  C   UNL A   1      44.609  26.978  34.016  1.00  0.00     0.031 C 
ATOM     65  C   UNL A   1      44.715  24.968  32.385  1.00  0.00     0.037 A 
BRANCH  52  66
ATOM     66  C   UNL A   1      42.945  22.279  27.156  1.00  0.00     0.057 A 
ATOM     67  C   UNL A   1      42.204  21.080  27.220  1.00  0.00     0.134 A 
ATOM     68  C   UNL A   1      43.900  22.303  26.125  1.00  0.00     0.134 A 
ATOM     69  F   UNL A   1      41.164  20.933  28.049  1.00  0.00    -0.206 F 
ATOM     70  C   UNL A   1      42.490  19.957  26.431  1.00  0.00     0.040 A 
ATOM     71  C   UNL A   1      44.233  21.171  25.364  1.00  0.00     0.040 A 
ATOM     72  F   UNL A   1      44.511  23.437  25.763  1.00  0.00    -0.206 F 
ATOM     73  C   UNL A   1      43.540  19.984  25.529  1.00  0.00     0.006 A 
ENDBRANCH  52  66
BRANCH  53  74
ATOM     74  C   UNL A   1      41.866  30.211  32.590  1.00  0.00     0.057 A 
ATOM     75  C   UNL A   1      40.738  29.501  33.033  1.00  0.00     0.134 A 
ATOM     76  C   UNL A   1      42.039  31.509  33.078  1.00  0.00     0.134 A 
ATOM     77  F   UNL A   1      40.518  28.249  32.603  1.00  0.00    -0.206 F 
ATOM     78  C   UNL A   1      39.868  30.024  33.992  1.00  0.00     0.040 A 
ATOM     79  C   UNL A   1      41.172  32.045  34.038  1.00  0.00     0.040 A 
ATOM     80  F   UNL A   1      43.107  32.235  32.721  1.00  0.00    -0.206 F 
ATOM     81  C   UNL A   1      40.104  31.291  34.521  1.00  0.00     0.006 A 
ENDBRANCH  53  74
BRANCH  65  82
ATOM     82  C   UNL A   1      45.118  23.835  33.296  1.00  0.00     0.057 A 
ATOM     83  C   UNL A   1      46.395  23.692  33.858  1.00  0.00     0.134 A 
ATOM     84  C   UNL A   1      44.155  22.909  33.753  1.00  0.00     0.134 A 
ATOM     85  F   UNL A   1      47.376  24.568  33.601  1.00  0.00    -0.206 F 
ATOM     86  C   UNL A   1      46.708  22.669  34.763  1.00  0.00     0.040 A 
ATOM     87  C   UNL A   1      44.442  21.915  34.694  1.00  0.00     0.040 A 
ATOM     88  F   UNL A   1      42.885  22.943  33.322  1.00  0.00    -0.206 F 
ATOM     89  C   UNL A   1      45.729  21.782  35.193  1.00  0.00     0.006 A 
ENDBRANCH  65  82
ENDBRANCH  39  40
ENDBRANCH  31  34
ENDBRANCH  29  30
ENDBRANCH  28  29
ENDBRANCH  27  28
ENDBRANCH   1  27
TORSDOF 16
ENDMDL
MODEL 3
REMARK VINA RESULT:     -12.1      1.801      2.481
REMARK SMILES Cc1ccccc1NC(=O)NC[C@@H]1CC[C@@H](C(=O)NCCCCCCNC(=O)c2ccc(-c3c4nc(c(-c5c(F)cccc5F)c5ccc([nH]5)c(-c5c(F)cccc5F)c5nc(c(-c6c(F)cccc6F)c6ccc3[nH]6)C=C5)C=C4)cc2)O1
REMARK SMILES IDX 22 1 21 2 20 3 19 4 17 5 18 6 16 8 13 9 14 10 83 11 15 12
REMARK SMILES IDX 12 13 11 14 8 15 9 16 10 18 7 20 1 21 2 22 3 23 4 24 6 25
REMARK SMILES IDX 5 26 23 27 24 28 25 29 26 30 27 31 28 33 29 34 30 35 82 36
REMARK SMILES IDX 31 37 81 38 32 39 33 40 34 41 75 42 35 43 80 44 74 45 76 46
REMARK SMILES IDX 36 47 79 48 73 49 72 50 37 52 63 53 46 54 62 55 47 56 50 57
REMARK SMILES IDX 61 58 77 59 48 60 49 61 60 63 78 64 51 65 38 66 39 67 44 68
REMARK SMILES IDX 40 69 41 70 43 71 45 72 42 73 64 74 65 75 70 76 66 77 67 78
REMARK SMILES IDX 69 79 71 80 68 81 52 82 53 83 58 84 54 85 55 86 57 87 59 88
REMARK SMILES IDX 56 89
REMARK H PARENT 19 7 8 17 11 19 26 32 76 51 50 62
REMARK Flexibility Score: inf
ROOT
ATOM      1  C   UNL A   1      33.160  29.323  25.618  1.00  0.00     0.002 C 
ENDROOT
BRANCH   1   2
ATOM      2  C   UNL A   1      32.835  28.686  24.257  1.00  0.00     0.021 C 
BRANCH   2   3
ATOM      3  C   UNL A   1      33.793  27.570  23.827  1.00  0.00     0.116 C 
BRANCH   3   4
ATOM      4  N   UNL A   1      33.519  27.139  22.474  1.00  0.00    -0.354 N 
ATOM      5  C   UNL A   1      33.325  25.892  21.957  1.00  0.00     0.249 C 
ATOM      6  O   UNL A   1      33.166  25.821  20.735  1.00  0.00    -0.272 OA
ATOM      7  H   UNL A   1      33.464  27.869  21.816  1.00  0.00     0.163 HD
BRANCH   5   8
ATOM      8  C   UNL A   1      33.224  24.655  22.876  1.00  0.00     0.207 C 
ATOM      9  C   UNL A   1      32.941  22.388  22.275  1.00  0.00     0.138 C 
ATOM     10  C   UNL A   1      34.066  22.478  23.281  1.00  0.00     0.037 C 
ATOM     11  O   UNL A   1      32.303  23.682  22.340  1.00  0.00    -0.363 OA
ATOM     12  C   UNL A   1      34.522  23.904  23.121  1.00  0.00     0.045 C 
BRANCH   9  13
ATOM     13  C   UNL A   1      31.890  21.304  22.563  1.00  0.00     0.149 C 
BRANCH  13  14
ATOM     14  N   UNL A   1      32.219  20.463  23.701  1.00  0.00    -0.335 N 
ATOM     15  N   UNL A   1      32.123  21.482  25.888  1.00  0.00    -0.308 N 
ATOM     16  C   UNL A   1      32.276  20.488  25.019  1.00  0.00     0.319 C 
ATOM     17  H   UNL A   1      32.228  21.112  26.794  1.00  0.00     0.171 HD
ATOM     18  O   UNL A   1      32.555  19.394  25.539  1.00  0.00    -0.249 OA
ATOM     19  H   UNL A   1      32.488  19.573  23.379  1.00  0.00     0.165 HD
BRANCH  15  20
ATOM     20  C   UNL A   1      31.870  22.858  26.008  1.00  0.00     0.045 A 
ATOM     21  C   UNL A   1      34.261  23.256  26.961  1.00  0.00     0.046 C 
ATOM     22  C   UNL A   1      32.908  23.711  26.465  1.00  0.00    -0.027 A 
ATOM     23  C   UNL A   1      32.704  25.109  26.510  1.00  0.00     0.005 A 
ATOM     24  C   UNL A   1      31.492  25.674  26.137  1.00  0.00     0.000 A 
ATOM     25  C   UNL A   1      30.653  23.454  25.706  1.00  0.00     0.026 A 
ATOM     26  C   UNL A   1      30.458  24.841  25.751  1.00  0.00     0.002 A 
ENDBRANCH  15  20
ENDBRANCH  13  14
ENDBRANCH   9  13
ENDBRANCH   5   8
ENDBRANCH   3   4
ENDBRANCH   2   3
ENDBRANCH   1   2
BRANCH   1  27
ATOM     27  C   UNL A   1      32.098  30.271  26.199  1.00  0.00     0.002 C 
BRANCH  27  28
ATOM     28  C   UNL A   1      32.586  31.228  27.292  1.00  0.00     0.021 C 
BRANCH  28  29
ATOM     29  C   UNL A   1      34.096  31.211  27.499  1.00  0.00     0.116 C 
BRANCH  29  30
ATOM     30  N   UNL A   1      34.528  31.854  28.736  1.00  0.00    -0.352 N 
ATOM     31  C   UNL A   1      35.526  31.462  29.610  1.00  0.00     0.251 C 
ATOM     32  H   UNL A   1      34.045  32.676  28.981  1.00  0.00     0.163 HD
ATOM     33  O   UNL A   1      35.775  32.121  30.614  1.00  0.00    -0.269 OA
BRANCH  31  34
ATOM     34  C   UNL A   1      36.379  30.308  29.246  1.00  0.00     0.039 A 
ATOM     35  C   UNL A   1      36.628  29.349  30.232  1.00  0.00     0.014 A 
ATOM     36  C   UNL A   1      37.114  30.318  28.063  1.00  0.00     0.014 A 
ATOM     37  C   UNL A   1      37.778  28.572  30.143  1.00  0.00     0.010 A 
ATOM     38  C   UNL A   1      38.306  29.617  28.021  1.00  0.00     0.010 A 
ATOM     39  C   UNL A   1      38.676  28.807  29.100  1.00  0.00    -0.014 A 
BRANCH  39  40
ATOM     40  C   UNL A   1      40.081  28.410  29.181  1.00  0.00     0.031 A 
ATOM     41  C   UNL A   1      40.563  27.130  28.615  1.00  0.00     0.074 A 
ATOM     42  C   UNL A   1      40.972  29.259  29.744  1.00  0.00     0.049 A 
ATOM     43  N   UNL A   1      41.625  26.514  29.017  1.00  0.00    -0.248 NA
ATOM     44  C   UNL A   1      39.848  26.413  27.568  1.00  0.00     0.031 C 
ATOM     45  C   UNL A   1      42.429  29.180  29.680  1.00  0.00     0.029 A 
ATOM     46  N   UNL A   1      40.718  30.269  30.683  1.00  0.00    -0.354 N 
ATOM     47  C   UNL A   1      41.884  25.491  28.134  1.00  0.00     0.074 A 
ATOM     48  C   UNL A   1      40.715  25.436  27.286  1.00  0.00     0.031 C 
ATOM     49  C   UNL A   1      42.945  29.872  30.707  1.00  0.00     0.029 A 
ATOM     50  C   UNL A   1      41.837  30.305  31.540  1.00  0.00     0.049 A 
ATOM     51  H   UNL A   1      39.917  30.839  30.734  1.00  0.00     0.167 HD
ATOM     52  C   UNL A   1      43.113  24.892  28.138  1.00  0.00     0.037 A 
ATOM     53  C   UNL A   1      41.730  30.071  32.878  1.00  0.00     0.037 A 
ATOM     54  C   UNL A   1      43.961  25.416  29.207  1.00  0.00     0.049 A 
ATOM     55  C   UNL A   1      42.561  28.915  33.377  1.00  0.00     0.074 A 
ATOM     56  C   UNL A   1      44.967  26.368  29.223  1.00  0.00     0.029 A 
ATOM     57  N   UNL A   1      43.640  25.164  30.537  1.00  0.00    -0.354 N 
ATOM     58  N   UNL A   1      43.072  27.999  32.603  1.00  0.00    -0.248 NA
ATOM     59  C   UNL A   1      42.839  28.669  34.790  1.00  0.00     0.031 C 
ATOM     60  C   UNL A   1      45.231  26.713  30.569  1.00  0.00     0.029 A 
ATOM     61  C   UNL A   1      44.388  25.969  31.374  1.00  0.00     0.049 A 
ATOM     62  H   UNL A   1      42.974  24.504  30.838  1.00  0.00     0.167 HD
ATOM     63  C   UNL A   1      43.676  27.038  33.371  1.00  0.00     0.074 A 
ATOM     64  C   UNL A   1      43.534  27.521  34.731  1.00  0.00     0.031 C 
ATOM     65  C   UNL A   1      44.217  25.914  32.818  1.00  0.00     0.037 A 
BRANCH  52  66
ATOM     66  C   UNL A   1      43.651  24.057  26.992  1.00  0.00     0.057 A 
ATOM     67  C   UNL A   1      44.361  24.652  25.928  1.00  0.00     0.134 A 
ATOM     68  C   UNL A   1      43.455  22.673  26.841  1.00  0.00     0.134 A 
ATOM     69  F   UNL A   1      44.756  25.931  25.967  1.00  0.00    -0.206 F 
ATOM     70  C   UNL A   1      44.710  23.965  24.756  1.00  0.00     0.040 A 
ATOM     71  C   UNL A   1      43.750  21.983  25.654  1.00  0.00     0.040 A 
ATOM     72  F   UNL A   1      43.027  21.913  27.855  1.00  0.00    -0.206 F 
ATOM     73  C   UNL A   1      44.363  22.634  24.596  1.00  0.00     0.006 A 
ENDBRANCH  52  66
BRANCH  53  74
ATOM     74  C   UNL A   1      40.434  30.486  33.465  1.00  0.00     0.057 A 
ATOM     75  C   UNL A   1      40.246  31.835  33.808  1.00  0.00     0.134 A 
ATOM     76  C   UNL A   1      39.294  29.682  33.383  1.00  0.00     0.134 A 
ATOM     77  F   UNL A   1      41.301  32.660  33.901  1.00  0.00    -0.206 F 
ATOM     78  C   UNL A   1      38.972  32.384  33.971  1.00  0.00     0.040 A 
ATOM     79  C   UNL A   1      38.012  30.220  33.546  1.00  0.00     0.040 A 
ATOM     80  F   UNL A   1      39.394  28.392  33.033  1.00  0.00    -0.206 F 
ATOM     81  C   UNL A   1      37.848  31.580  33.808  1.00  0.00     0.006 A 
ENDBRANCH  53  74
BRANCH  65  82
ATOM     82  C   UNL A   1      44.709  24.704  33.572  1.00  0.00     0.057 A 
ATOM     83  C   UNL A   1      46.059  24.341  33.686  1.00  0.00     0.134 A 
ATOM     84  C   UNL A   1      43.813  23.931  34.344  1.00  0.00     0.134 A 
ATOM     85  F   UNL A   1      47.029  25.054  33.098  1.00  0.00    -0.206 F 
ATOM     86  C   UNL A   1      46.483  23.254  34.463  1.00  0.00     0.040 A 
ATOM     87  C   UNL A   1      44.230  22.877  35.162  1.00  0.00     0.040 A 
ATOM     88  F   UNL A   1      42.496  24.183  34.355  1.00  0.00    -0.206 F 
ATOM     89  C   UNL A   1      45.569  22.524  35.213  1.00  0.00     0.006 A 
ENDBRANCH  65  82
ENDBRANCH  39  40
ENDBRANCH  31  34
ENDBRANCH  29  30
ENDBRANCH  28  29
ENDBRANCH  27  28
ENDBRANCH   1  27
TORSDOF 16
ENDMDL
