MODEL 1
REMARK VINA RESULT:     -11.5      0.000      0.000
REMARK SMILES CNC(=O)c1cc(S(=O)(=O)N2CCC(C(=O)NCCCCCCNC(=O)c3ccc(-c4c5nc(c(-c6c(F)cccc6F)c6ccc([nH]6)c(-c6c(F)cccc6F)c6nc(c(-c7c(F)cccc7F)c7ccc4[nH]7)C=C6)C=C5)cc3)CC2)ccc1OC
REMARK SMILES IDX 20 1 19 2 18 3 17 4 15 5 16 6 14 8 11 9 12 10 82 11 13 12
REMARK SMILES IDX 81 13 8 14 9 15 10 16 7 17 5 18 6 19 85 20 84 21 83 22 3 23
REMARK SMILES IDX 1 24 2 25 4 27 86 28 87 29 21 30 22 31 23 32 24 33 25 34
REMARK SMILES IDX 26 36 27 37 28 38 80 39 29 40 79 41 30 42 31 43 32 44 73 45
REMARK SMILES IDX 33 46 78 47 72 48 74 49 34 50 77 51 71 52 70 53 35 55 61 56
REMARK SMILES IDX 44 57 60 58 45 59 48 60 59 61 75 62 46 63 47 64 58 66 76 67
REMARK SMILES IDX 49 68 36 69 37 70 42 71 38 72 39 73 41 74 43 75 40 76 62 77
REMARK SMILES IDX 63 78 68 79 64 80 65 81 67 82 69 83 66 84 50 85 51 86 56 87
REMARK SMILES IDX 52 88 53 89 55 90 57 91 54 92
REMARK H PARENT 17 7 2 26 24 35 74 54 48 65
REMARK Flexibility Score: inf
ROOT
ATOM      1  C   UNL A   1      34.375  32.180  28.977  1.00  0.00     0.002 C 
ENDROOT
BRANCH   1   2
ATOM      2  C   UNL A   1      34.698  31.198  27.850  1.00  0.00     0.021 C 
BRANCH   2   3
ATOM      3  C   UNL A   1      33.521  30.917  26.924  1.00  0.00     0.116 C 
BRANCH   3   4
ATOM      4  N   UNL A   1      32.502  30.122  27.585  1.00  0.00    -0.356 N 
ATOM      5  C   UNL A   1      31.953  28.923  27.256  1.00  0.00     0.223 C 
ATOM      6  O   UNL A   1      31.072  28.465  27.987  1.00  0.00    -0.275 OA
ATOM      7  H   UNL A   1      32.149  30.518  28.414  1.00  0.00     0.163 HD
BRANCH   5   8
ATOM      8  C   UNL A   1      32.412  28.150  26.032  1.00  0.00     0.081 C 
ATOM      9  N   UNL A   1      32.798  25.795  24.408  1.00  0.00    -0.198 NA
ATOM     10  C   UNL A   1      33.947  26.348  25.164  1.00  0.00     0.103 C 
ATOM     11  C   UNL A   1      31.624  26.656  24.134  1.00  0.00     0.103 C 
ATOM     12  C   UNL A   1      33.517  27.158  26.368  1.00  0.00     0.030 C 
ATOM     13  C   UNL A   1      31.225  27.530  25.303  1.00  0.00     0.030 C 
BRANCH   9  14
ATOM     14  S   UNL A   1      33.229  24.742  23.123  1.00  0.00     0.243 S 
ATOM     15  O   UNL A   1      34.048  25.503  22.199  1.00  0.00    -0.207 OA
ATOM     16  O   UNL A   1      32.032  24.060  22.690  1.00  0.00    -0.207 OA
BRANCH  14  17
ATOM     17  C   UNL A   1      34.297  23.487  23.816  1.00  0.00     0.083 A 
ATOM     18  C   UNL A   1      34.564  21.736  25.468  1.00  0.00     0.083 A 
ATOM     19  C   UNL A   1      33.783  22.742  24.881  1.00  0.00     0.039 A 
ATOM     20  C   UNL A   1      35.824  21.422  24.943  1.00  0.00     0.131 A 
ATOM     21  C   UNL A   1      36.347  22.198  23.911  1.00  0.00     0.048 A 
ATOM     22  C   UNL A   1      35.591  23.229  23.354  1.00  0.00     0.025 A 
BRANCH  18  23
ATOM     23  C   UNL A   1      34.004  21.073  26.657  1.00  0.00     0.254 C 
ATOM     24  C   UNL A   1      32.909  19.253  25.276  1.00  0.00     0.143 C 
ATOM     25  N   UNL A   1      33.242  19.944  26.503  1.00  0.00    -0.355 N 
ATOM     26  H   UNL A   1      32.876  19.554  27.329  1.00  0.00     0.163 HD
ATOM     27  O   UNL A   1      34.251  21.524  27.770  1.00  0.00    -0.269 OA
ENDBRANCH  18  23
BRANCH  20  28
ATOM     28  O   UNL A   1      36.652  20.431  25.392  1.00  0.00    -0.496 OA
ATOM     29  C   UNL A   1      36.539  19.219  24.644  1.00  0.00     0.278 C 
ENDBRANCH  20  28
ENDBRANCH  14  17
ENDBRANCH   9  14
ENDBRANCH   5   8
ENDBRANCH   3   4
ENDBRANCH   2   3
ENDBRANCH   1   2
BRANCH   1  30
ATOM     30  C   UNL A   1      34.485  33.660  28.595  1.00  0.00     0.002 C 
BRANCH  30  31
ATOM     31  C   UNL A   1      33.217  34.488  28.820  1.00  0.00     0.021 C 
BRANCH  31  32
ATOM     32  C   UNL A   1      33.463  35.909  29.311  1.00  0.00     0.116 C 
BRANCH  32  33
ATOM     33  N   UNL A   1      32.596  36.263  30.421  1.00  0.00    -0.352 N 
ATOM     34  C   UNL A   1      32.661  35.847  31.727  1.00  0.00     0.251 C 
ATOM     35  H   UNL A   1      31.862  36.883  30.208  1.00  0.00     0.163 HD
ATOM     36  O   UNL A   1      31.752  36.103  32.509  1.00  0.00    -0.269 OA
BRANCH  34  37
ATOM     37  C   UNL A   1      33.830  35.068  32.181  1.00  0.00     0.039 A 
ATOM     38  C   UNL A   1      33.649  33.738  32.569  1.00  0.00     0.014 A 
ATOM     39  C   UNL A   1      35.101  35.650  32.221  1.00  0.00     0.014 A 
ATOM     40  C   UNL A   1      34.753  32.974  32.951  1.00  0.00     0.010 A 
ATOM     41  C   UNL A   1      36.206  34.871  32.541  1.00  0.00     0.010 A 
ATOM     42  C   UNL A   1      36.042  33.527  32.916  1.00  0.00    -0.014 A 
BRANCH  42  43
ATOM     43  C   UNL A   1      37.237  32.736  33.296  1.00  0.00     0.031 A 
ATOM     44  C   UNL A   1      37.945  33.032  34.588  1.00  0.00     0.074 A 
ATOM     45  C   UNL A   1      37.728  31.809  32.451  1.00  0.00     0.049 A 
ATOM     46  N   UNL A   1      39.073  32.552  35.045  1.00  0.00    -0.248 NA
ATOM     47  C   UNL A   1      37.312  34.025  35.472  1.00  0.00     0.031 C 
ATOM     48  C   UNL A   1      37.149  31.451  31.155  1.00  0.00     0.029 A 
ATOM     49  N   UNL A   1      38.839  31.011  32.551  1.00  0.00    -0.354 N 
ATOM     50  C   UNL A   1      39.296  33.199  36.252  1.00  0.00     0.074 A 
ATOM     51  C   UNL A   1      38.211  34.137  36.439  1.00  0.00     0.031 C 
ATOM     52  C   UNL A   1      37.903  30.496  30.587  1.00  0.00     0.029 A 
ATOM     53  C   UNL A   1      39.038  30.204  31.458  1.00  0.00     0.049 A 
ATOM     54  H   UNL A   1      39.438  31.017  33.333  1.00  0.00     0.167 HD
ATOM     55  C   UNL A   1      40.306  33.015  37.136  1.00  0.00     0.037 A 
ATOM     56  C   UNL A   1      40.030  29.336  31.185  1.00  0.00     0.037 A 
ATOM     57  C   UNL A   1      41.366  32.059  36.965  1.00  0.00     0.049 A 
ATOM     58  C   UNL A   1      41.140  29.150  32.184  1.00  0.00     0.074 A 
ATOM     59  C   UNL A   1      42.410  31.764  37.824  1.00  0.00     0.029 A 
ATOM     60  N   UNL A   1      41.512  31.236  35.859  1.00  0.00    -0.354 N 
ATOM     61  N   UNL A   1      41.317  29.738  33.342  1.00  0.00    -0.248 NA
ATOM     62  C   UNL A   1      42.185  28.176  31.838  1.00  0.00     0.031 C 
ATOM     63  C   UNL A   1      43.205  30.782  37.225  1.00  0.00     0.029 A 
ATOM     64  C   UNL A   1      42.634  30.438  36.010  1.00  0.00     0.049 A 
ATOM     65  H   UNL A   1      40.908  31.220  35.082  1.00  0.00     0.167 HD
ATOM     66  C   UNL A   1      42.471  29.182  33.878  1.00  0.00     0.074 A 
ATOM     67  C   UNL A   1      42.950  28.206  32.921  1.00  0.00     0.031 C 
ATOM     68  C   UNL A   1      43.080  29.455  35.057  1.00  0.00     0.037 A 
BRANCH  55  69
ATOM     69  C   UNL A   1      40.303  33.866  38.373  1.00  0.00     0.057 A 
ATOM     70  C   UNL A   1      41.017  35.069  38.441  1.00  0.00     0.134 A 
ATOM     71  C   UNL A   1      39.558  33.491  39.497  1.00  0.00     0.134 A 
ATOM     72  F   UNL A   1      41.762  35.477  37.403  1.00  0.00    -0.206 F 
ATOM     73  C   UNL A   1      41.010  35.856  39.593  1.00  0.00     0.040 A 
ATOM     74  C   UNL A   1      39.523  34.283  40.646  1.00  0.00     0.040 A 
ATOM     75  F   UNL A   1      38.848  32.352  39.497  1.00  0.00    -0.206 F 
ATOM     76  C   UNL A   1      40.255  35.467  40.698  1.00  0.00     0.006 A 
ENDBRANCH  55  69
BRANCH  56  77
ATOM     77  C   UNL A   1      40.014  28.559  29.922  1.00  0.00     0.057 A 
ATOM     78  C   UNL A   1      39.313  27.350  29.831  1.00  0.00     0.134 A 
ATOM     79  C   UNL A   1      40.704  28.993  28.784  1.00  0.00     0.134 A 
ATOM     80  F   UNL A   1      38.649  26.875  30.894  1.00  0.00    -0.206 F 
ATOM     81  C   UNL A   1      39.315  26.590  28.660  1.00  0.00     0.040 A 
ATOM     82  C   UNL A   1      40.696  28.254  27.600  1.00  0.00     0.040 A 
ATOM     83  F   UNL A   1      41.388  30.146  28.805  1.00  0.00    -0.206 F 
ATOM     84  C   UNL A   1      40.006  27.045  27.539  1.00  0.00     0.006 A 
ENDBRANCH  56  77
BRANCH  68  85
ATOM     85  C   UNL A   1      44.297  28.652  35.405  1.00  0.00     0.057 A 
ATOM     86  C   UNL A   1      45.585  29.069  35.051  1.00  0.00     0.134 A 
ATOM     87  C   UNL A   1      44.177  27.469  36.146  1.00  0.00     0.134 A 
ATOM     88  F   UNL A   1      45.764  30.186  34.330  1.00  0.00    -0.206 F 
ATOM     89  C   UNL A   1      46.713  28.328  35.408  1.00  0.00     0.040 A 
ATOM     90  C   UNL A   1      45.298  26.733  36.528  1.00  0.00     0.040 A 
ATOM     91  F   UNL A   1      42.970  27.019  36.521  1.00  0.00    -0.206 F 
ATOM     92  C   UNL A   1      46.571  27.160  36.156  1.00  0.00     0.006 A 
ENDBRANCH  68  85
ENDBRANCH  42  43
ENDBRANCH  34  37
ENDBRANCH  32  33
ENDBRANCH  31  32
ENDBRANCH  30  31
ENDBRANCH   1  30
TORSDOF 17
ENDMDL
MODEL 2
REMARK VINA RESULT:     -11.4      6.179     12.010
REMARK SMILES CNC(=O)c1cc(S(=O)(=O)N2CCC(C(=O)NCCCCCCNC(=O)c3ccc(-c4c5nc(c(-c6c(F)cccc6F)c6ccc([nH]6)c(-c6c(F)cccc6F)c6nc(c(-c7c(F)cccc7F)c7ccc4[nH]7)C=C6)C=C5)cc3)CC2)ccc1OC
REMARK SMILES IDX 20 1 19 2 18 3 17 4 15 5 16 6 14 8 11 9 12 10 82 11 13 12
REMARK SMILES IDX 81 13 8 14 9 15 10 16 7 17 5 18 6 19 85 20 84 21 83 22 3 23
REMARK SMILES IDX 1 24 2 25 4 27 86 28 87 29 21 30 22 31 23 32 24 33 25 34
REMARK SMILES IDX 26 36 27 37 28 38 80 39 29 40 79 41 30 42 31 43 32 44 73 45
REMARK SMILES IDX 33 46 78 47 72 48 74 49 34 50 77 51 71 52 70 53 35 55 61 56
REMARK SMILES IDX 44 57 60 58 45 59 48 60 59 61 75 62 46 63 47 64 58 66 76 67
REMARK SMILES IDX 49 68 36 69 37 70 42 71 38 72 39 73 41 74 43 75 40 76 62 77
REMARK SMILES IDX 63 78 68 79 64 80 65 81 67 82 69 83 66 84 50 85 51 86 56 87
REMARK SMILES IDX 52 88 53 89 55 90 57 91 54 92
REMARK H PARENT 17 7 2 26 24 35 74 54 48 65
REMARK Flexibility Score: inf
ROOT
ATOM      1  C   UNL A   1      41.528  21.736  26.658  1.00  0.00     0.002 C 
ENDROOT
BRANCH   1   2
ATOM      2  C   UNL A   1      40.426  22.592  27.285  1.00  0.00     0.021 C 
BRANCH   2   3
ATOM      3  C   UNL A   1      39.119  22.581  26.502  1.00  0.00     0.116 C 
BRANCH   3   4
ATOM      4  N   UNL A   1      38.926  21.322  25.806  1.00  0.00    -0.356 N 
ATOM      5  C   UNL A   1      37.859  20.837  25.118  1.00  0.00     0.223 C 
ATOM      6  O   UNL A   1      37.944  19.708  24.630  1.00  0.00    -0.275 OA
ATOM      7  H   UNL A   1      39.702  20.716  25.836  1.00  0.00     0.163 HD
BRANCH   5   8
ATOM      8  C   UNL A   1      36.594  21.658  24.935  1.00  0.00     0.081 C 
ATOM      9  N   UNL A   1      34.199  22.520  23.574  1.00  0.00    -0.198 NA
ATOM     10  C   UNL A   1      35.412  23.369  23.509  1.00  0.00     0.103 C 
ATOM     11  C   UNL A   1      34.074  21.508  24.649  1.00  0.00     0.103 C 
ATOM     12  C   UNL A   1      36.687  22.583  23.729  1.00  0.00     0.030 C 
ATOM     13  C   UNL A   1      35.360  20.763  24.935  1.00  0.00     0.030 C 
BRANCH   9  14
ATOM     14  S   UNL A   1      32.738  23.330  23.181  1.00  0.00     0.243 S 
ATOM     15  O   UNL A   1      31.658  22.608  23.827  1.00  0.00    -0.207 OA
ATOM     16  O   UNL A   1      32.740  23.578  21.758  1.00  0.00    -0.207 OA
BRANCH  14  17
ATOM     17  C   UNL A   1      32.805  24.933  23.969  1.00  0.00     0.083 A 
ATOM     18  C   UNL A   1      32.987  27.330  23.680  1.00  0.00     0.083 A 
ATOM     19  C   UNL A   1      32.936  26.042  23.129  1.00  0.00     0.039 A 
ATOM     20  C   UNL A   1      32.830  27.517  25.059  1.00  0.00     0.131 A 
ATOM     21  C   UNL A   1      32.744  26.406  25.893  1.00  0.00     0.048 A 
ATOM     22  C   UNL A   1      32.738  25.120  25.353  1.00  0.00     0.025 A 
BRANCH  18  23
ATOM     23  C   UNL A   1      33.242  28.440  22.745  1.00  0.00     0.254 C 
ATOM     24  C   UNL A   1      30.798  29.101  22.671  1.00  0.00     0.143 C 
ATOM     25  N   UNL A   1      32.194  29.208  22.308  1.00  0.00    -0.355 N 
ATOM     26  H   UNL A   1      32.418  29.922  21.669  1.00  0.00     0.163 HD
ATOM     27  O   UNL A   1      34.392  28.678  22.393  1.00  0.00    -0.269 OA
ENDBRANCH  18  23
BRANCH  20  28
ATOM     28  O   UNL A   1      32.808  28.723  25.704  1.00  0.00    -0.496 OA
ATOM     29  C   UNL A   1      34.040  29.037  26.355  1.00  0.00     0.278 C 
ENDBRANCH  20  28
ENDBRANCH  14  17
ENDBRANCH   9  14
ENDBRANCH   5   8
ENDBRANCH   3   4
ENDBRANCH   2   3
ENDBRANCH   1   2
BRANCH   1  30
ATOM     30  C   UNL A   1      42.074  20.624  27.562  1.00  0.00     0.002 C 
BRANCH  30  31
ATOM     31  C   UNL A   1      42.501  19.345  26.838  1.00  0.00     0.021 C 
BRANCH  31  32
ATOM     32  C   UNL A   1      42.490  19.441  25.317  1.00  0.00     0.116 C 
BRANCH  32  33
ATOM     33  N   UNL A   1      43.694  18.885  24.725  1.00  0.00    -0.352 N 
ATOM     34  C   UNL A   1      44.850  19.532  24.364  1.00  0.00     0.251 C 
ATOM     35  H   UNL A   1      43.679  17.915  24.559  1.00  0.00     0.163 HD
ATOM     36  O   UNL A   1      45.714  18.950  23.718  1.00  0.00    -0.269 OA
BRANCH  34  37
ATOM     37  C   UNL A   1      45.036  20.947  24.743  1.00  0.00     0.039 A 
ATOM     38  C   UNL A   1      44.713  21.944  23.820  1.00  0.00     0.014 A 
ATOM     39  C   UNL A   1      45.527  21.285  26.008  1.00  0.00     0.014 A 
ATOM     40  C   UNL A   1      44.835  23.286  24.182  1.00  0.00     0.010 A 
ATOM     41  C   UNL A   1      45.588  22.621  26.388  1.00  0.00     0.010 A 
ATOM     42  C   UNL A   1      45.249  23.634  25.477  1.00  0.00    -0.014 A 
BRANCH  42  43
ATOM     43  C   UNL A   1      45.370  25.050  25.900  1.00  0.00     0.031 A 
ATOM     44  C   UNL A   1      46.709  25.730  25.849  1.00  0.00     0.074 A 
ATOM     45  C   UNL A   1      44.299  25.698  26.397  1.00  0.00     0.049 A 
ATOM     46  N   UNL A   1      47.056  26.912  26.291  1.00  0.00    -0.248 NA
ATOM     47  C   UNL A   1      47.813  24.965  25.246  1.00  0.00     0.031 C 
ATOM     48  C   UNL A   1      42.953  25.138  26.526  1.00  0.00     0.029 A 
ATOM     49  N   UNL A   1      44.181  26.967  26.905  1.00  0.00    -0.354 N 
ATOM     50  C   UNL A   1      48.418  27.021  26.042  1.00  0.00     0.074 A 
ATOM     51  C   UNL A   1      48.844  25.772  25.450  1.00  0.00     0.031 C 
ATOM     52  C   UNL A   1      42.143  26.062  27.066  1.00  0.00     0.029 A 
ATOM     53  C   UNL A   1      42.919  27.265  27.356  1.00  0.00     0.049 A 
ATOM     54  H   UNL A   1      44.931  27.604  26.942  1.00  0.00     0.167 HD
ATOM     55  C   UNL A   1      49.237  28.076  26.270  1.00  0.00     0.037 A 
ATOM     56  C   UNL A   1      42.446  28.376  27.949  1.00  0.00     0.037 A 
ATOM     57  C   UNL A   1      48.805  29.328  26.827  1.00  0.00     0.049 A 
ATOM     58  C   UNL A   1      43.376  29.534  28.190  1.00  0.00     0.074 A 
ATOM     59  C   UNL A   1      49.547  30.474  27.055  1.00  0.00     0.029 A 
ATOM     60  N   UNL A   1      47.510  29.602  27.240  1.00  0.00    -0.354 N 
ATOM     61  N   UNL A   1      44.652  29.641  27.911  1.00  0.00    -0.248 NA
ATOM     62  C   UNL A   1      42.797  30.727  28.824  1.00  0.00     0.031 C 
ATOM     63  C   UNL A   1      48.707  31.432  27.632  1.00  0.00     0.029 A 
ATOM     64  C   UNL A   1      47.433  30.896  27.727  1.00  0.00     0.049 A 
ATOM     65  H   UNL A   1      46.756  28.971  27.193  1.00  0.00     0.167 HD
ATOM     66  C   UNL A   1      45.021  30.921  28.304  1.00  0.00     0.074 A 
ATOM     67  C   UNL A   1      43.833  31.556  28.834  1.00  0.00     0.031 C 
ATOM     68  C   UNL A   1      46.235  31.518  28.229  1.00  0.00     0.037 A 
BRANCH  55  69
ATOM     69  C   UNL A   1      50.684  27.916  25.906  1.00  0.00     0.057 A 
ATOM     70  C   UNL A   1      51.660  27.640  26.871  1.00  0.00     0.134 A 
ATOM     71  C   UNL A   1      51.101  28.013  24.573  1.00  0.00     0.134 A 
ATOM     72  F   UNL A   1      51.328  27.549  28.167  1.00  0.00    -0.206 F 
ATOM     73  C   UNL A   1      53.004  27.491  26.527  1.00  0.00     0.040 A 
ATOM     74  C   UNL A   1      52.439  27.840  24.213  1.00  0.00     0.040 A 
ATOM     75  F   UNL A   1      50.216  28.271  23.597  1.00  0.00    -0.206 F 
ATOM     76  C   UNL A   1      53.396  27.585  25.192  1.00  0.00     0.006 A 
ENDBRANCH  55  69
BRANCH  56  77
ATOM     77  C   UNL A   1      41.017  28.463  28.339  1.00  0.00     0.057 A 
ATOM     78  C   UNL A   1      40.055  28.939  27.441  1.00  0.00     0.134 A 
ATOM     79  C   UNL A   1      40.580  28.088  29.615  1.00  0.00     0.134 A 
ATOM     80  F   UNL A   1      40.416  29.331  26.211  1.00  0.00    -0.206 F 
ATOM     81  C   UNL A   1      38.712  29.058  27.803  1.00  0.00     0.040 A 
ATOM     82  C   UNL A   1      39.237  28.180  29.983  1.00  0.00     0.040 A 
ATOM     83  F   UNL A   1      41.452  27.617  30.518  1.00  0.00    -0.206 F 
ATOM     84  C   UNL A   1      38.300  28.674  29.078  1.00  0.00     0.006 A 
ENDBRANCH  56  77
BRANCH  68  85
ATOM     85  C   UNL A   1      46.329  32.944  28.682  1.00  0.00     0.057 A 
ATOM     86  C   UNL A   1      46.053  34.013  27.823  1.00  0.00     0.134 A 
ATOM     87  C   UNL A   1      46.656  33.244  30.011  1.00  0.00     0.134 A 
ATOM     88  F   UNL A   1      45.748  33.790  26.536  1.00  0.00    -0.206 F 
ATOM     89  C   UNL A   1      46.113  35.335  28.265  1.00  0.00     0.040 A 
ATOM     90  C   UNL A   1      46.696  34.561  30.470  1.00  0.00     0.040 A 
ATOM     91  F   UNL A   1      46.925  32.264  30.886  1.00  0.00    -0.206 F 
ATOM     92  C   UNL A   1      46.428  35.611  29.595  1.00  0.00     0.006 A 
ENDBRANCH  68  85
ENDBRANCH  42  43
ENDBRANCH  34  37
ENDBRANCH  32  33
ENDBRANCH  31  32
ENDBRANCH  30  31
ENDBRANCH   1  30
TORSDOF 17
ENDMDL
MODEL 3
REMARK VINA RESULT:     -11.3      0.642      5.926
REMARK SMILES CNC(=O)c1cc(S(=O)(=O)N2CCC(C(=O)NCCCCCCNC(=O)c3ccc(-c4c5nc(c(-c6c(F)cccc6F)c6ccc([nH]6)c(-c6c(F)cccc6F)c6nc(c(-c7c(F)cccc7F)c7ccc4[nH]7)C=C6)C=C5)cc3)CC2)ccc1OC
REMARK SMILES IDX 20 1 19 2 18 3 17 4 15 5 16 6 14 8 11 9 12 10 82 11 13 12
REMARK SMILES IDX 81 13 8 14 9 15 10 16 7 17 5 18 6 19 85 20 84 21 83 22 3 23
REMARK SMILES IDX 1 24 2 25 4 27 86 28 87 29 21 30 22 31 23 32 24 33 25 34
REMARK SMILES IDX 26 36 27 37 28 38 80 39 29 40 79 41 30 42 31 43 32 44 73 45
REMARK SMILES IDX 33 46 78 47 72 48 74 49 34 50 77 51 71 52 70 53 35 55 61 56
REMARK SMILES IDX 44 57 60 58 45 59 48 60 59 61 75 62 46 63 47 64 58 66 76 67
REMARK SMILES IDX 49 68 36 69 37 70 42 71 38 72 39 73 41 74 43 75 40 76 62 77
REMARK SMILES IDX 63 78 68 79 64 80 65 81 67 82 69 83 66 84 50 85 51 86 56 87
REMARK SMILES IDX 52 88 53 89 55 90 57 91 54 92
REMARK H PARENT 17 7 2 26 24 35 74 54 48 65
REMARK Flexibility Score: inf
ROOT
ATOM      1  C   UNL A   1      34.406  32.027  28.936  1.00  0.00     0.002 C 
ENDROOT
BRANCH   1   2
ATOM      2  C   UNL A   1      34.636  31.019  27.808  1.00  0.00     0.021 C 
BRANCH   2   3
ATOM      3  C   UNL A   1      33.405  30.770  26.946  1.00  0.00     0.116 C 
BRANCH   3   4
ATOM      4  N   UNL A   1      32.449  29.909  27.620  1.00  0.00    -0.356 N 
ATOM      5  C   UNL A   1      31.928  28.706  27.265  1.00  0.00     0.223 C 
ATOM      6  O   UNL A   1      31.102  28.183  28.016  1.00  0.00    -0.275 OA
ATOM      7  H   UNL A   1      32.123  30.257  28.481  1.00  0.00     0.163 HD
BRANCH   5   8
ATOM      8  C   UNL A   1      32.354  28.003  25.987  1.00  0.00     0.081 C 
ATOM      9  N   UNL A   1      32.817  25.727  24.272  1.00  0.00    -0.198 NA
ATOM     10  C   UNL A   1      33.969  26.367  24.951  1.00  0.00     0.103 C 
ATOM     11  C   UNL A   1      31.552  26.483  24.116  1.00  0.00     0.103 C 
ATOM     12  C   UNL A   1      33.568  27.110  26.207  1.00  0.00     0.030 C 
ATOM     13  C   UNL A   1      31.172  27.292  25.337  1.00  0.00     0.030 C 
BRANCH   9  14
ATOM     14  S   UNL A   1      33.234  24.745  22.929  1.00  0.00     0.243 S 
ATOM     15  O   UNL A   1      34.028  25.560  22.030  1.00  0.00    -0.207 OA
ATOM     16  O   UNL A   1      32.037  24.072  22.484  1.00  0.00    -0.207 OA
BRANCH  14  17
ATOM     17  C   UNL A   1      34.328  23.469  23.539  1.00  0.00     0.083 A 
ATOM     18  C   UNL A   1      34.531  21.366  24.722  1.00  0.00     0.083 A 
ATOM     19  C   UNL A   1      33.734  22.405  24.222  1.00  0.00     0.039 A 
ATOM     20  C   UNL A   1      35.909  21.349  24.472  1.00  0.00     0.131 A 
ATOM     21  C   UNL A   1      36.500  22.433  23.828  1.00  0.00     0.048 A 
ATOM     22  C   UNL A   1      35.715  23.491  23.370  1.00  0.00     0.025 A 
BRANCH  18  23
ATOM     23  C   UNL A   1      33.851  20.340  25.530  1.00  0.00     0.254 C 
ATOM     24  C   UNL A   1      33.898  21.776  27.616  1.00  0.00     0.143 C 
ATOM     25  N   UNL A   1      33.600  20.582  26.855  1.00  0.00    -0.355 N 
ATOM     26  H   UNL A   1      33.162  19.854  27.352  1.00  0.00     0.163 HD
ATOM     27  O   UNL A   1      33.494  19.295  24.997  1.00  0.00    -0.269 OA
ENDBRANCH  18  23
BRANCH  20  28
ATOM     28  O   UNL A   1      36.780  20.367  24.857  1.00  0.00    -0.496 OA
ATOM     29  C   UNL A   1      38.010  20.875  25.375  1.00  0.00     0.278 C 
ENDBRANCH  20  28
ENDBRANCH  14  17
ENDBRANCH   9  14
ENDBRANCH   5   8
ENDBRANCH   3   4
ENDBRANCH   2   3
ENDBRANCH   1   2
BRANCH   1  30
ATOM     30  C   UNL A   1      34.631  33.493  28.548  1.00  0.00     0.002 C 
BRANCH  30  31
ATOM     31  C   UNL A   1      33.386  34.381  28.601  1.00  0.00     0.021 C 
BRANCH  31  32
ATOM     32  C   UNL A   1      33.576  35.699  29.342  1.00  0.00     0.116 C 
BRANCH  32  33
ATOM     33  N   UNL A   1      32.632  35.852  30.436  1.00  0.00    -0.352 N 
ATOM     34  C   UNL A   1      32.718  35.369  31.717  1.00  0.00     0.251 C 
ATOM     35  H   UNL A   1      31.823  36.373  30.231  1.00  0.00     0.163 HD
ATOM     36  O   UNL A   1      31.759  35.441  32.476  1.00  0.00    -0.269 OA
BRANCH  34  37
ATOM     37  C   UNL A   1      33.975  34.740  32.171  1.00  0.00     0.039 A 
ATOM     38  C   UNL A   1      33.972  33.383  32.503  1.00  0.00     0.014 A 
ATOM     39  C   UNL A   1      35.152  35.490  32.265  1.00  0.00     0.014 A 
ATOM     40  C   UNL A   1      35.164  32.763  32.883  1.00  0.00     0.010 A 
ATOM     41  C   UNL A   1      36.348  34.857  32.583  1.00  0.00     0.010 A 
ATOM     42  C   UNL A   1      36.364  33.489  32.902  1.00  0.00    -0.014 A 
BRANCH  42  43
ATOM     43  C   UNL A   1      37.650  32.855  33.282  1.00  0.00     0.031 A 
ATOM     44  C   UNL A   1      38.264  31.821  32.381  1.00  0.00     0.074 A 
ATOM     45  C   UNL A   1      38.222  33.150  34.465  1.00  0.00     0.049 A 
ATOM     46  N   UNL A   1      39.306  31.057  32.585  1.00  0.00    -0.248 NA
ATOM     47  C   UNL A   1      37.597  31.598  31.087  1.00  0.00     0.031 C 
ATOM     48  C   UNL A   1      37.708  34.113  35.440  1.00  0.00     0.029 A 
ATOM     49  N   UNL A   1      39.356  32.652  35.055  1.00  0.00    -0.354 N 
ATOM     50  C   UNL A   1      39.405  30.248  31.461  1.00  0.00     0.074 A 
ATOM     51  C   UNL A   1      38.294  30.583  30.596  1.00  0.00     0.031 C 
ATOM     52  C   UNL A   1      38.531  34.144  36.501  1.00  0.00     0.029 A 
ATOM     53  C   UNL A   1      39.607  33.177  36.299  1.00  0.00     0.049 A 
ATOM     54  H   UNL A   1      39.936  31.981  34.627  1.00  0.00     0.167 HD
ATOM     55  C   UNL A   1      40.348  29.322  31.166  1.00  0.00     0.037 A 
ATOM     56  C   UNL A   1      40.585  32.900  37.181  1.00  0.00     0.037 A 
ATOM     57  C   UNL A   1      41.469  29.014  32.012  1.00  0.00     0.049 A 
ATOM     58  C   UNL A   1      41.621  31.867  36.829  1.00  0.00     0.074 A 
ATOM     59  C   UNL A   1      42.505  28.124  31.782  1.00  0.00     0.029 A 
ATOM     60  N   UNL A   1      41.706  29.593  33.249  1.00  0.00    -0.354 N 
ATOM     61  N   UNL A   1      41.727  31.139  35.744  1.00  0.00    -0.248 NA
ATOM     62  C   UNL A   1      42.674  31.621  37.824  1.00  0.00     0.031 C 
ATOM     63  C   UNL A   1      43.353  28.145  32.894  1.00  0.00     0.029 A 
ATOM     64  C   UNL A   1      42.867  29.075  33.798  1.00  0.00     0.049 A 
ATOM     65  H   UNL A   1      41.134  30.272  33.673  1.00  0.00     0.167 HD
ATOM     66  C   UNL A   1      42.875  30.375  35.910  1.00  0.00     0.074 A 
ATOM     67  C   UNL A   1      43.434  30.732  37.198  1.00  0.00     0.031 C 
ATOM     68  C   UNL A   1      43.419  29.461  35.071  1.00  0.00     0.037 A 
BRANCH  55  69
ATOM     69  C   UNL A   1      40.206  28.581  29.869  1.00  0.00     0.057 A 
ATOM     70  C   UNL A   1      40.883  28.985  28.712  1.00  0.00     0.134 A 
ATOM     71  C   UNL A   1      39.404  27.436  29.783  1.00  0.00     0.134 A 
ATOM     72  F   UNL A   1      41.656  30.082  28.724  1.00  0.00    -0.206 F 
ATOM     73  C   UNL A   1      40.749  28.292  27.509  1.00  0.00     0.040 A 
ATOM     74  C   UNL A   1      39.282  26.720  28.591  1.00  0.00     0.040 A 
ATOM     75  F   UNL A   1      38.731  26.992  30.856  1.00  0.00    -0.206 F 
ATOM     76  C   UNL A   1      39.950  27.151  27.448  1.00  0.00     0.006 A 
ENDBRANCH  55  69
BRANCH  56  77
ATOM     77  C   UNL A   1      40.649  33.623  38.474  1.00  0.00     0.057 A 
ATOM     78  C   UNL A   1      39.833  33.249  39.548  1.00  0.00     0.134 A 
ATOM     79  C   UNL A   1      41.513  34.708  38.666  1.00  0.00     0.134 A 
ATOM     80  F   UNL A   1      38.973  32.230  39.417  1.00  0.00    -0.206 F 
ATOM     81  C   UNL A   1      39.858  33.940  40.760  1.00  0.00     0.040 A 
ATOM     82  C   UNL A   1      41.564  35.394  39.880  1.00  0.00     0.040 A 
ATOM     83  F   UNL A   1      42.325  35.110  37.678  1.00  0.00    -0.206 F 
ATOM     84  C   UNL A   1      40.729  35.014  40.929  1.00  0.00     0.006 A 
ENDBRANCH  56  77
BRANCH  68  85
ATOM     85  C   UNL A   1      44.708  28.822  35.492  1.00  0.00     0.057 A 
ATOM     86  C   UNL A   1      45.950  29.374  35.159  1.00  0.00     0.134 A 
ATOM     87  C   UNL A   1      44.700  27.665  36.282  1.00  0.00     0.134 A 
ATOM     88  F   UNL A   1      46.023  30.473  34.394  1.00  0.00    -0.206 F 
ATOM     89  C   UNL A   1      47.143  28.787  35.584  1.00  0.00     0.040 A 
ATOM     90  C   UNL A   1      45.886  27.084  36.732  1.00  0.00     0.040 A 
ATOM     91  F   UNL A   1      43.542  27.093  36.641  1.00  0.00    -0.206 F 
ATOM     92  C   UNL A   1      47.112  27.643  36.379  1.00  0.00     0.006 A 
ENDBRANCH  68  85
ENDBRANCH  42  43
ENDBRANCH  34  37
ENDBRANCH  32  33
ENDBRANCH  31  32
ENDBRANCH  30  31
ENDBRANCH   1  30
TORSDOF 17
ENDMDL
