MODEL 1
REMARK VINA RESULT:     -11.7      0.000      0.000
REMARK SMILES O=C(NCCCCCCNC(=O)c1ccc(-c2c3nc(c(-c4c(F)cccc4F)c4ccc([nH]4)c(-c4c(F)cccc4F)c4nc(c(-c5c(F)cccc5F)c5ccc2[nH]5)C=C4)C=C3)cc1)C1=Cc2ccc(Cl)c(Cl)c2O[C@@H]1C(F)(F)F
REMARK SMILES IDX 7 1 6 2 5 3 4 4 3 5 1 6 2 7 67 9 68 10 78 11 69 12 77 13
REMARK SMILES IDX 70 14 76 15 71 16 74 17 72 18 75 19 73 20 79 21 80 22 81 23
REMARK SMILES IDX 82 24 8 25 9 26 10 27 11 28 12 30 13 31 14 32 66 33 15 34
REMARK SMILES IDX 65 35 16 36 17 37 18 38 59 39 19 40 64 41 58 42 60 43 20 44
REMARK SMILES IDX 63 45 57 46 56 47 21 49 47 50 30 51 46 52 31 53 34 54 45 55
REMARK SMILES IDX 61 56 32 57 33 58 44 60 62 61 35 62 22 63 23 64 28 65 24 66
REMARK SMILES IDX 25 67 27 68 29 69 26 70 48 71 49 72 54 73 50 74 51 75 53 76
REMARK SMILES IDX 55 77 52 78 36 79 37 80 42 81 38 82 39 83 41 84 43 85 40 86
REMARK H PARENT 3 8 10 29 60 48 34 59
REMARK Flexibility Score: inf
ROOT
ATOM      1  C   UNL A   1      32.940  29.344  24.654  1.00  0.00     0.002 C 
ENDROOT
BRANCH   1   2
ATOM      2  C   UNL A   1      31.427  29.112  24.738  1.00  0.00     0.002 C 
BRANCH   2   3
ATOM      3  C   UNL A   1      30.620  29.302  23.456  1.00  0.00     0.021 C 
BRANCH   3   4
ATOM      4  C   UNL A   1      30.242  28.037  22.690  1.00  0.00     0.116 C 
BRANCH   4   5
ATOM      5  N   UNL A   1      31.354  27.320  22.093  1.00  0.00    -0.352 N 
ATOM      6  O   UNL A   1      32.715  25.590  21.652  1.00  0.00    -0.270 OA
ATOM      7  C   UNL A   1      31.834  26.069  22.366  1.00  0.00     0.251 C 
ATOM      8  H   UNL A   1      31.834  27.808  21.385  1.00  0.00     0.163 HD
BRANCH   7   9
ATOM      9  C   UNL A   1      31.264  25.215  23.450  1.00  0.00     0.067 C 
ATOM     10  C   UNL A   1      30.935  23.929  23.240  1.00  0.00     0.025 C 
ATOM     11  C   UNL A   1      31.725  25.635  24.826  1.00  0.00     0.314 C 
ATOM     12  C   UNL A   1      31.862  22.998  23.923  1.00  0.00     0.019 A 
ATOM     13  O   UNL A   1      32.790  24.773  25.307  1.00  0.00    -0.474 OA
ATOM     14  C   UNL A   1      31.937  21.683  23.450  1.00  0.00     0.013 A 
ATOM     15  C   UNL A   1      32.817  23.479  24.837  1.00  0.00     0.148 A 
ATOM     16  C   UNL A   1      33.014  20.877  23.816  1.00  0.00     0.023 A 
ATOM     17  C   UNL A   1      33.897  22.664  25.208  1.00  0.00     0.102 A 
ATOM     18  C   UNL A   1      34.004  21.372  24.671  1.00  0.00     0.063 A 
ATOM     19  Cl  UNL A   1      35.129  23.306  26.245  1.00  0.00    -0.079 Cl
ATOM     20  Cl  UNL A   1      35.370  20.353  24.965  1.00  0.00    -0.083 Cl
BRANCH  11  21
ATOM     21  C   UNL A   1      30.563  25.713  25.831  1.00  0.00     0.429 C 
ATOM     22  F   UNL A   1      30.385  24.536  26.475  1.00  0.00    -0.167 F 
ATOM     23  F   UNL A   1      30.785  26.654  26.780  1.00  0.00    -0.167 F 
ATOM     24  F   UNL A   1      29.388  26.024  25.231  1.00  0.00    -0.167 F 
ENDBRANCH  11  21
ENDBRANCH   7   9
ENDBRANCH   4   5
ENDBRANCH   3   4
ENDBRANCH   2   3
ENDBRANCH   1   2
BRANCH   1  25
ATOM     25  C   UNL A   1      33.846  28.398  25.450  1.00  0.00     0.021 C 
BRANCH  25  26
ATOM     26  C   UNL A   1      33.770  28.487  26.973  1.00  0.00     0.116 C 
BRANCH  26  27
ATOM     27  N   UNL A   1      33.661  29.845  27.469  1.00  0.00    -0.352 N 
ATOM     28  C   UNL A   1      34.573  30.620  28.145  1.00  0.00     0.251 C 
ATOM     29  H   UNL A   1      32.796  30.281  27.295  1.00  0.00     0.163 HD
ATOM     30  O   UNL A   1      34.234  31.725  28.559  1.00  0.00    -0.269 OA
BRANCH  28  31
ATOM     31  C   UNL A   1      35.951  30.140  28.405  1.00  0.00     0.039 A 
ATOM     32  C   UNL A   1      36.886  30.211  27.365  1.00  0.00     0.014 A 
ATOM     33  C   UNL A   1      36.324  29.578  29.629  1.00  0.00     0.014 A 
ATOM     34  C   UNL A   1      38.198  29.772  27.567  1.00  0.00     0.010 A 
ATOM     35  C   UNL A   1      37.651  29.196  29.850  1.00  0.00     0.010 A 
ATOM     36  C   UNL A   1      38.600  29.286  28.820  1.00  0.00    -0.014 A 
BRANCH  36  37
ATOM     37  C   UNL A   1      40.006  28.865  29.064  1.00  0.00     0.031 A 
ATOM     38  C   UNL A   1      40.978  29.803  29.725  1.00  0.00     0.074 A 
ATOM     39  C   UNL A   1      40.423  27.654  28.643  1.00  0.00     0.049 A 
ATOM     40  N   UNL A   1      42.254  29.635  29.969  1.00  0.00    -0.248 NA
ATOM     41  C   UNL A   1      40.454  31.111  30.149  1.00  0.00     0.031 C 
ATOM     42  C   UNL A   1      39.593  26.663  27.958  1.00  0.00     0.029 A 
ATOM     43  N   UNL A   1      41.656  27.054  28.727  1.00  0.00    -0.354 N 
ATOM     44  C   UNL A   1      42.688  30.819  30.553  1.00  0.00     0.074 A 
ATOM     45  C   UNL A   1      41.550  31.712  30.593  1.00  0.00     0.031 C 
ATOM     46  C   UNL A   1      40.332  25.571  27.704  1.00  0.00     0.029 A 
ATOM     47  C   UNL A   1      41.695  25.796  28.174  1.00  0.00     0.049 A 
ATOM     48  H   UNL A   1      42.438  27.484  29.143  1.00  0.00     0.167 HD
ATOM     49  C   UNL A   1      43.919  31.128  31.031  1.00  0.00     0.037 A 
ATOM     50  C   UNL A   1      42.715  24.925  28.056  1.00  0.00     0.037 A 
ATOM     51  C   UNL A   1      45.041  30.227  31.029  1.00  0.00     0.049 A 
ATOM     52  C   UNL A   1      44.070  25.296  28.592  1.00  0.00     0.074 A 
ATOM     53  C   UNL A   1      46.305  30.425  31.561  1.00  0.00     0.029 A 
ATOM     54  N   UNL A   1      45.037  28.960  30.469  1.00  0.00    -0.354 N 
ATOM     55  N   UNL A   1      44.447  26.392  29.203  1.00  0.00    -0.248 NA
ATOM     56  C   UNL A   1      45.143  24.304  28.424  1.00  0.00     0.031 C 
ATOM     57  C   UNL A   1      47.078  29.293  31.284  1.00  0.00     0.029 A 
ATOM     58  C   UNL A   1      46.284  28.373  30.620  1.00  0.00     0.049 A 
ATOM     59  H   UNL A   1      44.264  28.538  30.030  1.00  0.00     0.167 HD
ATOM     60  C   UNL A   1      45.787  26.210  29.519  1.00  0.00     0.074 A 
ATOM     61  C   UNL A   1      46.156  24.894  29.042  1.00  0.00     0.031 C 
ATOM     62  C   UNL A   1      46.635  27.058  30.151  1.00  0.00     0.037 A 
BRANCH  49  63
ATOM     63  C   UNL A   1      44.119  32.503  31.599  1.00  0.00     0.057 A 
ATOM     64  C   UNL A   1      44.447  33.597  30.789  1.00  0.00     0.134 A 
ATOM     65  C   UNL A   1      43.929  32.745  32.965  1.00  0.00     0.134 A 
ATOM     66  F   UNL A   1      44.652  33.432  29.473  1.00  0.00    -0.206 F 
ATOM     67  C   UNL A   1      44.602  34.879  31.321  1.00  0.00     0.040 A 
ATOM     68  C   UNL A   1      44.056  34.026  33.505  1.00  0.00     0.040 A 
ATOM     69  F   UNL A   1      43.605  31.743  33.796  1.00  0.00    -0.206 F 
ATOM     70  C   UNL A   1      44.398  35.098  32.681  1.00  0.00     0.006 A 
ENDBRANCH  49  63
BRANCH  50  71
ATOM     71  C   UNL A   1      42.495  23.600  27.422  1.00  0.00     0.057 A 
ATOM     72  C   UNL A   1      42.186  22.475  28.195  1.00  0.00     0.134 A 
ATOM     73  C   UNL A   1      42.611  23.421  26.038  1.00  0.00     0.134 A 
ATOM     74  F   UNL A   1      42.085  22.581  29.529  1.00  0.00    -0.206 F 
ATOM     75  C   UNL A   1      42.019  21.215  27.619  1.00  0.00     0.040 A 
ATOM     76  C   UNL A   1      42.422  22.171  25.446  1.00  0.00     0.040 A 
ATOM     77  F   UNL A   1      42.902  24.459  25.243  1.00  0.00    -0.206 F 
ATOM     78  C   UNL A   1      42.133  21.062  26.240  1.00  0.00     0.006 A 
ENDBRANCH  50  71
BRANCH  62  79
ATOM     79  C   UNL A   1      48.033  26.574  30.397  1.00  0.00     0.057 A 
ATOM     80  C   UNL A   1      49.073  26.827  29.494  1.00  0.00     0.134 A 
ATOM     81  C   UNL A   1      48.349  25.877  31.570  1.00  0.00     0.134 A 
ATOM     82  F   UNL A   1      48.832  27.478  28.345  1.00  0.00    -0.206 F 
ATOM     83  C   UNL A   1      50.375  26.386  29.740  1.00  0.00     0.040 A 
ATOM     84  C   UNL A   1      49.651  25.452  31.839  1.00  0.00     0.040 A 
ATOM     85  F   UNL A   1      47.400  25.609  32.479  1.00  0.00    -0.206 F 
ATOM     86  C   UNL A   1      50.667  25.702  30.918  1.00  0.00     0.006 A 
ENDBRANCH  62  79
ENDBRANCH  36  37
ENDBRANCH  28  31
ENDBRANCH  26  27
ENDBRANCH  25  26
ENDBRANCH   1  25
TORSDOF 14
ENDMDL
MODEL 2
REMARK VINA RESULT:     -11.7      2.493      3.461
REMARK SMILES O=C(NCCCCCCNC(=O)c1ccc(-c2c3nc(c(-c4c(F)cccc4F)c4ccc([nH]4)c(-c4c(F)cccc4F)c4nc(c(-c5c(F)cccc5F)c5ccc2[nH]5)C=C4)C=C3)cc1)C1=Cc2ccc(Cl)c(Cl)c2O[C@@H]1C(F)(F)F
REMARK SMILES IDX 7 1 6 2 5 3 4 4 3 5 1 6 2 7 67 9 68 10 78 11 69 12 77 13
REMARK SMILES IDX 70 14 76 15 71 16 74 17 72 18 75 19 73 20 79 21 80 22 81 23
REMARK SMILES IDX 82 24 8 25 9 26 10 27 11 28 12 30 13 31 14 32 66 33 15 34
REMARK SMILES IDX 65 35 16 36 17 37 18 38 59 39 19 40 64 41 58 42 60 43 20 44
REMARK SMILES IDX 63 45 57 46 56 47 21 49 47 50 30 51 46 52 31 53 34 54 45 55
REMARK SMILES IDX 61 56 32 57 33 58 44 60 62 61 35 62 22 63 23 64 28 65 24 66
REMARK SMILES IDX 25 67 27 68 29 69 26 70 48 71 49 72 54 73 50 74 51 75 53 76
REMARK SMILES IDX 55 77 52 78 36 79 37 80 42 81 38 82 39 83 41 84 43 85 40 86
REMARK H PARENT 3 8 10 29 60 48 34 59
REMARK Flexibility Score: inf
ROOT
ATOM      1  C   UNL A   1      32.163  27.439  26.880  1.00  0.00     0.002 C 
ENDROOT
BRANCH   1   2
ATOM      2  C   UNL A   1      31.242  26.956  25.754  1.00  0.00     0.002 C 
BRANCH   2   3
ATOM      3  C   UNL A   1      30.310  25.787  26.069  1.00  0.00     0.021 C 
BRANCH   3   4
ATOM      4  C   UNL A   1      30.788  24.399  25.656  1.00  0.00     0.116 C 
BRANCH   4   5
ATOM      5  N   UNL A   1      31.585  23.699  26.647  1.00  0.00    -0.352 N 
ATOM      6  O   UNL A   1      33.427  22.852  27.613  1.00  0.00    -0.270 OA
ATOM      7  C   UNL A   1      32.902  23.328  26.607  1.00  0.00     0.251 C 
ATOM      8  H   UNL A   1      31.107  23.456  27.473  1.00  0.00     0.163 HD
BRANCH   7   9
ATOM      9  C   UNL A   1      33.760  23.564  25.408  1.00  0.00     0.067 C 
ATOM     10  C   UNL A   1      34.891  24.285  25.477  1.00  0.00     0.025 C 
ATOM     11  C   UNL A   1      33.669  22.445  24.397  1.00  0.00     0.314 C 
ATOM     12  C   UNL A   1      36.100  23.440  25.337  1.00  0.00     0.019 A 
ATOM     13  O   UNL A   1      34.811  21.554  24.497  1.00  0.00    -0.474 OA
ATOM     14  C   UNL A   1      37.311  23.941  25.829  1.00  0.00     0.013 A 
ATOM     15  C   UNL A   1      35.991  22.089  24.963  1.00  0.00     0.148 A 
ATOM     16  C   UNL A   1      38.384  23.076  26.034  1.00  0.00     0.023 A 
ATOM     17  C   UNL A   1      37.075  21.221  25.166  1.00  0.00     0.102 A 
ATOM     18  C   UNL A   1      38.260  21.717  25.729  1.00  0.00     0.063 A 
ATOM     19  Cl  UNL A   1      36.891  19.534  24.809  1.00  0.00    -0.079 Cl
ATOM     20  Cl  UNL A   1      39.593  20.694  26.140  1.00  0.00    -0.083 Cl
BRANCH  11  21
ATOM     21  C   UNL A   1      33.485  22.969  22.963  1.00  0.00     0.429 C 
ATOM     22  F   UNL A   1      32.755  22.112  22.211  1.00  0.00    -0.167 F 
ATOM     23  F   UNL A   1      32.839  24.161  22.944  1.00  0.00    -0.167 F 
ATOM     24  F   UNL A   1      34.669  23.151  22.329  1.00  0.00    -0.167 F 
ENDBRANCH  11  21
ENDBRANCH   7   9
ENDBRANCH   4   5
ENDBRANCH   3   4
ENDBRANCH   2   3
ENDBRANCH   1   2
BRANCH   1  25
ATOM     25  C   UNL A   1      33.653  27.595  26.558  1.00  0.00     0.021 C 
BRANCH  25  26
ATOM     26  C   UNL A   1      34.065  28.840  25.775  1.00  0.00     0.116 C 
BRANCH  26  27
ATOM     27  N   UNL A   1      33.707  30.082  26.432  1.00  0.00    -0.352 N 
ATOM     28  C   UNL A   1      34.332  30.760  27.451  1.00  0.00     0.251 C 
ATOM     29  H   UNL A   1      32.885  30.507  26.095  1.00  0.00     0.163 HD
ATOM     30  O   UNL A   1      33.798  31.759  27.926  1.00  0.00    -0.269 OA
BRANCH  28  31
ATOM     31  C   UNL A   1      35.626  30.297  28.007  1.00  0.00     0.039 A 
ATOM     32  C   UNL A   1      35.619  29.633  29.240  1.00  0.00     0.014 A 
ATOM     33  C   UNL A   1      36.843  30.548  27.367  1.00  0.00     0.014 A 
ATOM     34  C   UNL A   1      36.816  29.178  29.801  1.00  0.00     0.010 A 
ATOM     35  C   UNL A   1      38.032  30.039  27.897  1.00  0.00     0.010 A 
ATOM     36  C   UNL A   1      38.031  29.352  29.121  1.00  0.00    -0.014 A 
BRANCH  36  37
ATOM     37  C   UNL A   1      39.305  28.826  29.681  1.00  0.00     0.031 A 
ATOM     38  C   UNL A   1      39.909  29.444  30.913  1.00  0.00     0.074 A 
ATOM     39  C   UNL A   1      39.947  27.821  29.052  1.00  0.00     0.049 A 
ATOM     40  N   UNL A   1      41.038  29.160  31.513  1.00  0.00    -0.248 NA
ATOM     41  C   UNL A   1      39.157  30.542  31.540  1.00  0.00     0.031 C 
ATOM     42  C   UNL A   1      39.489  27.157  27.832  1.00  0.00     0.029 A 
ATOM     43  N   UNL A   1      41.129  27.188  29.352  1.00  0.00    -0.354 N 
ATOM     44  C   UNL A   1      41.141  30.053  32.572  1.00  0.00     0.074 A 
ATOM     45  C   UNL A   1      39.980  30.916  32.511  1.00  0.00     0.031 C 
ATOM     46  C   UNL A   1      40.367  26.195  27.499  1.00  0.00     0.029 A 
ATOM     47  C   UNL A   1      41.465  26.198  28.460  1.00  0.00     0.049 A 
ATOM     48  H   UNL A   1      41.682  27.421  30.132  1.00  0.00     0.167 HD
ATOM     49  C   UNL A   1      42.105  30.137  33.521  1.00  0.00     0.037 A 
ATOM     50  C   UNL A   1      42.539  25.387  28.419  1.00  0.00     0.037 A 
ATOM     51  C   UNL A   1      43.239  29.254  33.607  1.00  0.00     0.049 A 
ATOM     52  C   UNL A   1      43.595  25.504  29.483  1.00  0.00     0.074 A 
ATOM     53  C   UNL A   1      44.227  29.213  34.578  1.00  0.00     0.029 A 
ATOM     54  N   UNL A   1      43.538  28.259  32.690  1.00  0.00    -0.354 N 
ATOM     55  N   UNL A   1      43.643  26.308  30.516  1.00  0.00    -0.248 NA
ATOM     56  C   UNL A   1      44.747  24.596  29.375  1.00  0.00     0.031 C 
ATOM     57  C   UNL A   1      45.147  28.221  34.224  1.00  0.00     0.029 A 
ATOM     58  C   UNL A   1      44.709  27.615  33.058  1.00  0.00     0.049 A 
ATOM     59  H   UNL A   1      43.000  28.042  31.896  1.00  0.00     0.167 HD
ATOM     60  C   UNL A   1      44.810  25.983  31.197  1.00  0.00     0.074 A 
ATOM     61  C   UNL A   1      45.435  24.901  30.466  1.00  0.00     0.031 C 
ATOM     62  C   UNL A   1      45.315  26.532  32.329  1.00  0.00     0.037 A 
BRANCH  49  63
ATOM     63  C   UNL A   1      41.977  31.223  34.549  1.00  0.00     0.057 A 
ATOM     64  C   UNL A   1      41.236  31.047  35.724  1.00  0.00     0.134 A 
ATOM     65  C   UNL A   1      42.648  32.441  34.385  1.00  0.00     0.134 A 
ATOM     66  F   UNL A   1      40.563  29.907  35.938  1.00  0.00    -0.206 F 
ATOM     67  C   UNL A   1      41.149  32.052  36.689  1.00  0.00     0.040 A 
ATOM     68  C   UNL A   1      42.588  33.445  35.354  1.00  0.00     0.040 A 
ATOM     69  F   UNL A   1      43.382  32.673  33.286  1.00  0.00    -0.206 F 
ATOM     70  C   UNL A   1      41.832  33.252  36.509  1.00  0.00     0.006 A 
ENDBRANCH  49  63
BRANCH  50  71
ATOM     71  C   UNL A   1      42.666  24.372  27.343  1.00  0.00     0.057 A 
ATOM     72  C   UNL A   1      42.273  23.045  27.556  1.00  0.00     0.134 A 
ATOM     73  C   UNL A   1      43.202  24.693  26.089  1.00  0.00     0.134 A 
ATOM     74  F   UNL A   1      41.774  22.673  28.744  1.00  0.00    -0.206 F 
ATOM     75  C   UNL A   1      42.427  22.069  26.570  1.00  0.00     0.040 A 
ATOM     76  C   UNL A   1      43.338  23.732  25.086  1.00  0.00     0.040 A 
ATOM     77  F   UNL A   1      43.595  25.946  25.822  1.00  0.00    -0.206 F 
ATOM     78  C   UNL A   1      42.957  22.414  25.329  1.00  0.00     0.006 A 
ENDBRANCH  50  71
BRANCH  62  79
ATOM     79  C   UNL A   1      46.586  25.946  32.867  1.00  0.00     0.057 A 
ATOM     80  C   UNL A   1      47.843  26.434  32.491  1.00  0.00     0.134 A 
ATOM     81  C   UNL A   1      46.549  24.903  33.802  1.00  0.00     0.134 A 
ATOM     82  F   UNL A   1      47.946  27.423  31.590  1.00  0.00    -0.206 F 
ATOM     83  C   UNL A   1      49.020  25.892  33.010  1.00  0.00     0.040 A 
ATOM     84  C   UNL A   1      47.718  24.369  34.347  1.00  0.00     0.040 A 
ATOM     85  F   UNL A   1      45.377  24.394  34.209  1.00  0.00    -0.206 F 
ATOM     86  C   UNL A   1      48.959  24.861  33.946  1.00  0.00     0.006 A 
ENDBRANCH  62  79
ENDBRANCH  36  37
ENDBRANCH  28  31
ENDBRANCH  26  27
ENDBRANCH  25  26
ENDBRANCH   1  25
TORSDOF 14
ENDMDL
MODEL 3
REMARK VINA RESULT:     -11.7      1.552      2.593
REMARK SMILES O=C(NCCCCCCNC(=O)c1ccc(-c2c3nc(c(-c4c(F)cccc4F)c4ccc([nH]4)c(-c4c(F)cccc4F)c4nc(c(-c5c(F)cccc5F)c5ccc2[nH]5)C=C4)C=C3)cc1)C1=Cc2ccc(Cl)c(Cl)c2O[C@@H]1C(F)(F)F
REMARK SMILES IDX 7 1 6 2 5 3 4 4 3 5 1 6 2 7 67 9 68 10 78 11 69 12 77 13
REMARK SMILES IDX 70 14 76 15 71 16 74 17 72 18 75 19 73 20 79 21 80 22 81 23
REMARK SMILES IDX 82 24 8 25 9 26 10 27 11 28 12 30 13 31 14 32 66 33 15 34
REMARK SMILES IDX 65 35 16 36 17 37 18 38 59 39 19 40 64 41 58 42 60 43 20 44
REMARK SMILES IDX 63 45 57 46 56 47 21 49 47 50 30 51 46 52 31 53 34 54 45 55
REMARK SMILES IDX 61 56 32 57 33 58 44 60 62 61 35 62 22 63 23 64 28 65 24 66
REMARK SMILES IDX 25 67 27 68 29 69 26 70 48 71 49 72 54 73 50 74 51 75 53 76
REMARK SMILES IDX 55 77 52 78 36 79 37 80 42 81 38 82 39 83 41 84 43 85 40 86
REMARK H PARENT 3 8 10 29 60 48 34 59
REMARK Flexibility Score: inf
ROOT
ATOM      1  C   UNL A   1      32.233  28.433  24.988  1.00  0.00     0.002 C 
ENDROOT
BRANCH   1   2
ATOM      2  C   UNL A   1      31.425  27.134  24.873  1.00  0.00     0.002 C 
BRANCH   2   3
ATOM      3  C   UNL A   1      30.769  26.605  26.146  1.00  0.00     0.021 C 
BRANCH   3   4
ATOM      4  C   UNL A   1      30.136  25.219  26.067  1.00  0.00     0.116 C 
BRANCH   4   5
ATOM      5  N   UNL A   1      30.791  24.195  26.862  1.00  0.00    -0.352 N 
ATOM      6  O   UNL A   1      32.386  22.735  27.464  1.00  0.00    -0.270 OA
ATOM      7  C   UNL A   1      31.920  23.471  26.595  1.00  0.00     0.251 C 
ATOM      8  H   UNL A   1      30.357  23.992  27.722  1.00  0.00     0.163 HD
BRANCH   7   9
ATOM      9  C   UNL A   1      32.670  23.608  25.311  1.00  0.00     0.067 C 
ATOM     10  C   UNL A   1      33.732  24.422  25.194  1.00  0.00     0.025 C 
ATOM     11  C   UNL A   1      32.614  22.356  24.467  1.00  0.00     0.314 C 
ATOM     12  C   UNL A   1      35.002  23.668  25.071  1.00  0.00     0.019 A 
ATOM     13  O   UNL A   1      33.838  21.584  24.593  1.00  0.00    -0.474 OA
ATOM     14  C   UNL A   1      36.191  24.330  25.395  1.00  0.00     0.013 A 
ATOM     15  C   UNL A   1      34.992  22.274  24.889  1.00  0.00     0.148 A 
ATOM     16  C   UNL A   1      37.351  23.593  25.626  1.00  0.00     0.023 A 
ATOM     17  C   UNL A   1      36.163  21.534  25.118  1.00  0.00     0.102 A 
ATOM     18  C   UNL A   1      37.333  22.199  25.514  1.00  0.00     0.063 A 
ATOM     19  Cl  UNL A   1      36.111  19.805  25.003  1.00  0.00    -0.079 Cl
ATOM     20  Cl  UNL A   1      38.778  21.355  25.949  1.00  0.00    -0.083 Cl
BRANCH  11  21
ATOM     21  C   UNL A   1      32.286  22.660  22.996  1.00  0.00     0.429 C 
ATOM     22  F   UNL A   1      31.757  21.581  22.372  1.00  0.00    -0.167 F 
ATOM     23  F   UNL A   1      31.385  23.665  22.881  1.00  0.00    -0.167 F 
ATOM     24  F   UNL A   1      33.384  23.031  22.293  1.00  0.00    -0.167 F 
ENDBRANCH  11  21
ENDBRANCH   7   9
ENDBRANCH   4   5
ENDBRANCH   3   4
ENDBRANCH   2   3
ENDBRANCH   1   2
BRANCH   1  25
ATOM     25  C   UNL A   1      33.681  28.324  25.477  1.00  0.00     0.021 C 
BRANCH  25  26
ATOM     26  C   UNL A   1      33.908  28.386  26.986  1.00  0.00     0.116 C 
BRANCH  26  27
ATOM     27  N   UNL A   1      33.774  29.721  27.537  1.00  0.00    -0.352 N 
ATOM     28  C   UNL A   1      34.676  30.489  28.234  1.00  0.00     0.251 C 
ATOM     29  H   UNL A   1      32.898  30.144  27.389  1.00  0.00     0.163 HD
ATOM     30  O   UNL A   1      34.317  31.569  28.695  1.00  0.00    -0.269 OA
BRANCH  28  31
ATOM     31  C   UNL A   1      36.068  30.030  28.462  1.00  0.00     0.039 A 
ATOM     32  C   UNL A   1      36.985  30.149  27.411  1.00  0.00     0.014 A 
ATOM     33  C   UNL A   1      36.470  29.443  29.665  1.00  0.00     0.014 A 
ATOM     34  C   UNL A   1      38.308  29.731  27.582  1.00  0.00     0.010 A 
ATOM     35  C   UNL A   1      37.807  29.083  29.856  1.00  0.00     0.010 A 
ATOM     36  C   UNL A   1      38.739  29.219  28.816  1.00  0.00    -0.014 A 
BRANCH  36  37
ATOM     37  C   UNL A   1      40.156  28.821  29.028  1.00  0.00     0.031 A 
ATOM     38  C   UNL A   1      41.133  29.782  29.648  1.00  0.00     0.074 A 
ATOM     39  C   UNL A   1      40.579  27.609  28.615  1.00  0.00     0.049 A 
ATOM     40  N   UNL A   1      42.418  29.635  29.860  1.00  0.00    -0.248 NA
ATOM     41  C   UNL A   1      40.603  31.089  30.065  1.00  0.00     0.031 C 
ATOM     42  C   UNL A   1      39.743  26.596  27.969  1.00  0.00     0.029 A 
ATOM     43  N   UNL A   1      41.821  27.026  28.675  1.00  0.00    -0.354 N 
ATOM     44  C   UNL A   1      42.851  30.833  30.413  1.00  0.00     0.074 A 
ATOM     45  C   UNL A   1      41.702  31.712  30.470  1.00  0.00     0.031 C 
ATOM     46  C   UNL A   1      40.490  25.510  27.711  1.00  0.00     0.029 A 
ATOM     47  C   UNL A   1      41.862  25.761  28.141  1.00  0.00     0.049 A 
ATOM     48  H   UNL A   1      42.608  27.473  29.062  1.00  0.00     0.167 HD
ATOM     49  C   UNL A   1      44.089  31.166  30.853  1.00  0.00     0.037 A 
ATOM     50  C   UNL A   1      42.890  24.900  28.009  1.00  0.00     0.037 A 
ATOM     51  C   UNL A   1      45.223  30.280  30.835  1.00  0.00     0.049 A 
ATOM     52  C   UNL A   1      44.254  25.298  28.502  1.00  0.00     0.074 A 
ATOM     53  C   UNL A   1      46.498  30.502  31.329  1.00  0.00     0.029 A 
ATOM     54  N   UNL A   1      45.221  29.004  30.295  1.00  0.00    -0.354 N 
ATOM     55  N   UNL A   1      44.632  26.408  29.086  1.00  0.00    -0.248 NA
ATOM     56  C   UNL A   1      45.335  24.317  28.321  1.00  0.00     0.031 C 
ATOM     57  C   UNL A   1      47.279  29.376  31.049  1.00  0.00     0.029 A 
ATOM     58  C   UNL A   1      46.479  28.436  30.421  1.00  0.00     0.049 A 
ATOM     59  H   UNL A   1      44.442  28.565  29.884  1.00  0.00     0.167 HD
ATOM     60  C   UNL A   1      45.983  26.249  29.369  1.00  0.00     0.074 A 
ATOM     61  C   UNL A   1      46.356  24.930  28.902  1.00  0.00     0.031 C 
ATOM     62  C   UNL A   1      46.836  27.118  29.963  1.00  0.00     0.037 A 
BRANCH  49  63
ATOM     63  C   UNL A   1      44.286  32.553  31.393  1.00  0.00     0.057 A 
ATOM     64  C   UNL A   1      44.659  33.622  30.569  1.00  0.00     0.134 A 
ATOM     65  C   UNL A   1      44.049  32.832  32.745  1.00  0.00     0.134 A 
ATOM     66  F   UNL A   1      44.911  33.421  29.267  1.00  0.00    -0.206 F 
ATOM     67  C   UNL A   1      44.810  34.915  31.075  1.00  0.00     0.040 A 
ATOM     68  C   UNL A   1      44.172  34.124  33.257  1.00  0.00     0.040 A 
ATOM     69  F   UNL A   1      43.681  31.855  33.588  1.00  0.00    -0.206 F 
ATOM     70  C   UNL A   1      44.559  35.170  32.421  1.00  0.00     0.006 A 
ENDBRANCH  49  63
BRANCH  50  71
ATOM     71  C   UNL A   1      42.671  23.564  27.402  1.00  0.00     0.057 A 
ATOM     72  C   UNL A   1      42.774  23.377  26.019  1.00  0.00     0.134 A 
ATOM     73  C   UNL A   1      42.332  22.450  28.181  1.00  0.00     0.134 A 
ATOM     74  F   UNL A   1      43.073  24.411  25.219  1.00  0.00    -0.206 F 
ATOM     75  C   UNL A   1      42.528  22.136  25.428  1.00  0.00     0.040 A 
ATOM     76  C   UNL A   1      42.109  21.198  27.605  1.00  0.00     0.040 A 
ATOM     77  F   UNL A   1      42.221  22.563  29.511  1.00  0.00    -0.206 F 
ATOM     78  C   UNL A   1      42.198  21.042  26.223  1.00  0.00     0.006 A 
ENDBRANCH  50  71
BRANCH  62  79
ATOM     79  C   UNL A   1      48.247  26.657  30.179  1.00  0.00     0.057 A 
ATOM     80  C   UNL A   1      48.620  25.926  31.312  1.00  0.00     0.134 A 
ATOM     81  C   UNL A   1      49.235  26.918  29.221  1.00  0.00     0.134 A 
ATOM     82  F   UNL A   1      47.723  25.655  32.273  1.00  0.00    -0.206 F 
ATOM     83  C   UNL A   1      49.933  25.487  31.497  1.00  0.00     0.040 A 
ATOM     84  C   UNL A   1      50.545  26.463  29.382  1.00  0.00     0.040 A 
ATOM     85  F   UNL A   1      48.941  27.607  28.109  1.00  0.00    -0.206 F 
ATOM     86  C   UNL A   1      50.897  25.751  30.526  1.00  0.00     0.006 A 
ENDBRANCH  62  79
ENDBRANCH  36  37
ENDBRANCH  28  31
ENDBRANCH  26  27
ENDBRANCH  25  26
ENDBRANCH   1  25
TORSDOF 14
ENDMDL
