MODEL 1
REMARK VINA RESULT:     -11.1      0.000      0.000
REMARK SMILES C[C@H](NC(=O)CCN1C(=O)/C(=C/c2ccc([N+](=O)[O-])cc2)SC1=S)C(=O)NCCCCCCNC(=O)c1ccc(-c2c3nc(c(-c4c(F)cccc4F)c4ccc([nH]4)c(-c4c(F)cccc4F)c4nc(c(-c5c(F)cccc5F)c5ccc2[nH]5)C=C4)C=C3)cc1
REMARK SMILES IDX 28 1 27 2 25 3 26 4 2 6 1 7 3 8 4 9 5 11 6 12 7 13 8 14 9 15
REMARK SMILES IDX 23 16 10 17 11 18 22 19 24 20 12 21 13 22 14 23 21 24 15 25
REMARK SMILES IDX 20 26 16 27 17 28 18 29 19 30 29 31 30 32 31 33 32 34 33 35
REMARK SMILES IDX 34 36 35 37 36 39 37 40 38 41 90 42 39 43 89 44 40 45 41 46
REMARK SMILES IDX 42 47 83 48 43 49 88 50 82 51 84 52 44 53 87 54 81 55 80 56
REMARK SMILES IDX 45 58 71 59 54 60 70 61 55 62 58 63 69 64 85 65 56 66 57 67
REMARK SMILES IDX 68 69 86 70 59 71 46 72 47 73 52 74 48 75 49 76 51 77 53 78
REMARK SMILES IDX 50 79 72 80 73 81 78 82 74 83 75 84 77 85 79 86 76 87 60 88
REMARK SMILES IDX 61 89 66 90 62 91 63 92 65 93 67 94 64 95
REMARK H PARENT 27 5 3 10 34 38 84 57 58 68
REMARK Flexibility Score: inf
ROOT
ATOM      1  C   UNL A   1      37.993  21.950  25.561  1.00  0.00     0.116 C 
ENDROOT
BRANCH   1   2
ATOM      2  N   UNL A   1      37.708  23.021  24.638  1.00  0.00    -0.354 N 
ATOM      3  C   UNL A   1      36.577  22.986  23.880  1.00  0.00     0.242 C 
ATOM      4  O   UNL A   1      36.686  22.953  22.656  1.00  0.00    -0.273 OA
ATOM      5  H   UNL A   1      38.333  23.776  24.554  1.00  0.00     0.163 HD
BRANCH   3   6
ATOM      6  C   UNL A   1      35.246  23.263  24.592  1.00  0.00     0.168 C 
ATOM      7  C   UNL A   1      35.159  24.315  25.686  1.00  0.00     0.041 C 
BRANCH   6   8
ATOM      8  N   UNL A   1      34.516  22.064  24.930  1.00  0.00    -0.345 N 
ATOM      9  C   UNL A   1      33.357  21.592  24.401  1.00  0.00     0.222 C 
ATOM     10  H   UNL A   1      34.913  21.513  25.642  1.00  0.00     0.164 HD
ATOM     11  O   UNL A   1      32.900  20.560  24.901  1.00  0.00    -0.275 OA
BRANCH   9  12
ATOM     12  C   UNL A   1      32.679  22.230  23.192  1.00  0.00     0.122 C 
BRANCH  12  13
ATOM     13  C   UNL A   1      31.313  22.922  23.365  1.00  0.00     0.137 C 
BRANCH  13  14
ATOM     14  N   UNL A   1      31.245  24.165  24.178  1.00  0.00    -0.292 N 
ATOM     15  C   UNL A   1      31.424  25.423  23.613  1.00  0.00     0.266 C 
ATOM     16  C   UNL A   1      30.945  24.175  25.529  1.00  0.00     0.148 C 
ATOM     17  O   UNL A   1      31.359  25.712  22.435  1.00  0.00    -0.268 OA
ATOM     18  C   UNL A   1      31.723  26.419  24.694  1.00  0.00     0.081 C 
ATOM     19  S   UNL A   1      31.192  25.788  26.194  1.00  0.00    -0.054 SA
ATOM     20  S   UNL A   1      30.474  22.899  26.496  1.00  0.00    -0.052 S 
ATOM     21  C   UNL A   1      32.415  27.541  24.434  1.00  0.00     0.029 C 
BRANCH  21  22
ATOM     22  C   UNL A   1      32.975  28.581  25.330  1.00  0.00    -0.024 A 
ATOM     23  C   UNL A   1      34.157  28.281  26.032  1.00  0.00     0.015 A 
ATOM     24  C   UNL A   1      32.326  29.789  25.631  1.00  0.00     0.015 A 
ATOM     25  C   UNL A   1      34.689  29.161  26.986  1.00  0.00     0.086 A 
ATOM     26  C   UNL A   1      32.855  30.687  26.573  1.00  0.00     0.086 A 
ATOM     27  C   UNL A   1      34.031  30.364  27.254  1.00  0.00     0.269 A 
BRANCH  27  28
ATOM     28  N   UNL A   1      34.547  31.269  28.290  1.00  0.00     0.062 N 
ATOM     29  O   UNL A   1      34.008  32.379  28.405  1.00  0.00    -0.258 OA
ATOM     30  O   UNL A   1      35.500  30.871  28.975  1.00  0.00    -0.258 OA
ENDBRANCH  27  28
ENDBRANCH  21  22
ENDBRANCH  13  14
ENDBRANCH  12  13
ENDBRANCH   9  12
ENDBRANCH   6   8
ENDBRANCH   3   6
ENDBRANCH   1   2
BRANCH   1  31
ATOM     31  C   UNL A   1      39.138  22.367  26.482  1.00  0.00     0.021 C 
BRANCH  31  32
ATOM     32  C   UNL A   1      40.343  21.412  26.455  1.00  0.00     0.002 C 
BRANCH  32  33
ATOM     33  C   UNL A   1      39.996  19.958  26.128  1.00  0.00     0.002 C 
BRANCH  33  34
ATOM     34  C   UNL A   1      41.195  19.054  25.869  1.00  0.00     0.021 C 
BRANCH  34  35
ATOM     35  C   UNL A   1      42.512  19.800  25.787  1.00  0.00     0.116 C 
BRANCH  35  36
ATOM     36  N   UNL A   1      43.502  19.084  25.005  1.00  0.00    -0.352 N 
ATOM     37  C   UNL A   1      44.636  19.598  24.428  1.00  0.00     0.251 C 
ATOM     38  H   UNL A   1      43.342  18.121  24.873  1.00  0.00     0.163 HD
ATOM     39  O   UNL A   1      45.316  18.936  23.653  1.00  0.00    -0.269 OA
BRANCH  37  40
ATOM     40  C   UNL A   1      44.994  20.992  24.744  1.00  0.00     0.039 A 
ATOM     41  C   UNL A   1      44.668  21.996  23.834  1.00  0.00     0.014 A 
ATOM     42  C   UNL A   1      45.538  21.301  25.995  1.00  0.00     0.014 A 
ATOM     43  C   UNL A   1      44.841  23.329  24.204  1.00  0.00     0.010 A 
ATOM     44  C   UNL A   1      45.613  22.627  26.396  1.00  0.00     0.010 A 
ATOM     45  C   UNL A   1      45.277  23.653  25.500  1.00  0.00    -0.014 A 
BRANCH  45  46
ATOM     46  C   UNL A   1      45.402  25.065  25.937  1.00  0.00     0.031 A 
ATOM     47  C   UNL A   1      46.746  25.734  25.914  1.00  0.00     0.074 A 
ATOM     48  C   UNL A   1      44.324  25.715  26.415  1.00  0.00     0.049 A 
ATOM     49  N   UNL A   1      47.079  26.935  26.316  1.00  0.00    -0.248 NA
ATOM     50  C   UNL A   1      47.873  24.937  25.405  1.00  0.00     0.031 C 
ATOM     51  C   UNL A   1      42.980  25.150  26.543  1.00  0.00     0.029 A 
ATOM     52  N   UNL A   1      44.194  26.993  26.895  1.00  0.00    -0.354 N 
ATOM     53  C   UNL A   1      48.450  27.029  26.117  1.00  0.00     0.074 A 
ATOM     54  C   UNL A   1      48.899  25.744  25.629  1.00  0.00     0.031 C 
ATOM     55  C   UNL A   1      42.157  26.082  27.046  1.00  0.00     0.029 A 
ATOM     56  C   UNL A   1      42.921  27.296  27.316  1.00  0.00     0.049 A 
ATOM     57  H   UNL A   1      44.940  27.633  26.935  1.00  0.00     0.167 HD
ATOM     58  C   UNL A   1      49.258  28.100  26.294  1.00  0.00     0.037 A 
ATOM     59  C   UNL A   1      42.430  28.422  27.867  1.00  0.00     0.037 A 
ATOM     60  C   UNL A   1      48.801  29.380  26.767  1.00  0.00     0.049 A 
ATOM     61  C   UNL A   1      43.347  29.596  28.068  1.00  0.00     0.074 A 
ATOM     62  C   UNL A   1      49.524  30.549  26.925  1.00  0.00     0.029 A 
ATOM     63  N   UNL A   1      47.500  29.654  27.164  1.00  0.00    -0.354 N 
ATOM     64  N   UNL A   1      44.627  29.700  27.800  1.00  0.00    -0.248 NA
ATOM     65  C   UNL A   1      42.752  30.811  28.643  1.00  0.00     0.031 C 
ATOM     66  C   UNL A   1      48.673  31.515  27.472  1.00  0.00     0.029 A 
ATOM     67  C   UNL A   1      47.406  30.966  27.599  1.00  0.00     0.049 A 
ATOM     68  H   UNL A   1      46.754  29.012  27.141  1.00  0.00     0.167 HD
ATOM     69  C   UNL A   1      44.986  30.995  28.153  1.00  0.00     0.074 A 
ATOM     70  C   UNL A   1      43.784  31.643  28.637  1.00  0.00     0.031 C 
ATOM     71  C   UNL A   1      46.201  31.592  28.083  1.00  0.00     0.037 A 
BRANCH  58  72
ATOM     72  C   UNL A   1      50.716  27.922  25.979  1.00  0.00     0.057 A 
ATOM     73  C   UNL A   1      51.668  27.684  26.980  1.00  0.00     0.134 A 
ATOM     74  C   UNL A   1      51.175  27.985  24.657  1.00  0.00     0.134 A 
ATOM     75  F   UNL A   1      51.300  27.626  28.269  1.00  0.00    -0.206 F 
ATOM     76  C   UNL A   1      53.027  27.556  26.682  1.00  0.00     0.040 A 
ATOM     77  C   UNL A   1      52.526  27.825  24.343  1.00  0.00     0.040 A 
ATOM     78  F   UNL A   1      50.319  28.205  23.647  1.00  0.00    -0.206 F 
ATOM     79  C   UNL A   1      53.457  27.620  25.360  1.00  0.00     0.006 A 
ENDBRANCH  58  72
BRANCH  59  80
ATOM     80  C   UNL A   1      40.999  28.488  28.259  1.00  0.00     0.057 A 
ATOM     81  C   UNL A   1      40.577  28.114  29.539  1.00  0.00     0.134 A 
ATOM     82  C   UNL A   1      40.020  28.939  27.364  1.00  0.00     0.134 A 
ATOM     83  F   UNL A   1      41.465  27.658  30.435  1.00  0.00    -0.206 F 
ATOM     84  C   UNL A   1      39.233  28.172  29.913  1.00  0.00     0.040 A 
ATOM     85  C   UNL A   1      38.677  29.028  27.733  1.00  0.00     0.040 A 
ATOM     86  F   UNL A   1      40.360  29.324  26.125  1.00  0.00    -0.206 F 
ATOM     87  C   UNL A   1      38.279  28.636  29.009  1.00  0.00     0.006 A 
ENDBRANCH  59  80
BRANCH  71  88
ATOM     88  C   UNL A   1      46.289  33.025  28.523  1.00  0.00     0.057 A 
ATOM     89  C   UNL A   1      46.081  34.086  27.634  1.00  0.00     0.134 A 
ATOM     90  C   UNL A   1      46.535  33.344  29.865  1.00  0.00     0.134 A 
ATOM     91  F   UNL A   1      45.853  33.850  26.333  1.00  0.00    -0.206 F 
ATOM     92  C   UNL A   1      46.134  35.414  28.059  1.00  0.00     0.040 A 
ATOM     93  C   UNL A   1      46.560  34.667  30.308  1.00  0.00     0.040 A 
ATOM     94  F   UNL A   1      46.733  32.375  30.771  1.00  0.00    -0.206 F 
ATOM     95  C   UNL A   1      46.366  35.707  29.403  1.00  0.00     0.006 A 
ENDBRANCH  71  88
ENDBRANCH  45  46
ENDBRANCH  37  40
ENDBRANCH  35  36
ENDBRANCH  34  35
ENDBRANCH  33  34
ENDBRANCH  32  33
ENDBRANCH  31  32
ENDBRANCH   1  31
TORSDOF 19
ENDMDL
MODEL 2
REMARK VINA RESULT:     -10.9      0.432      5.958
REMARK SMILES C[C@H](NC(=O)CCN1C(=O)/C(=C/c2ccc([N+](=O)[O-])cc2)SC1=S)C(=O)NCCCCCCNC(=O)c1ccc(-c2c3nc(c(-c4c(F)cccc4F)c4ccc([nH]4)c(-c4c(F)cccc4F)c4nc(c(-c5c(F)cccc5F)c5ccc2[nH]5)C=C4)C=C3)cc1
REMARK SMILES IDX 28 1 27 2 25 3 26 4 2 6 1 7 3 8 4 9 5 11 6 12 7 13 8 14 9 15
REMARK SMILES IDX 23 16 10 17 11 18 22 19 24 20 12 21 13 22 14 23 21 24 15 25
REMARK SMILES IDX 20 26 16 27 17 28 18 29 19 30 29 31 30 32 31 33 32 34 33 35
REMARK SMILES IDX 34 36 35 37 36 39 37 40 38 41 90 42 39 43 89 44 40 45 41 46
REMARK SMILES IDX 42 47 83 48 43 49 88 50 82 51 84 52 44 53 87 54 81 55 80 56
REMARK SMILES IDX 45 58 71 59 54 60 70 61 55 62 58 63 69 64 85 65 56 66 57 67
REMARK SMILES IDX 68 69 86 70 59 71 46 72 47 73 52 74 48 75 49 76 51 77 53 78
REMARK SMILES IDX 50 79 72 80 73 81 78 82 74 83 75 84 77 85 79 86 76 87 60 88
REMARK SMILES IDX 61 89 66 90 62 91 63 92 65 93 67 94 64 95
REMARK H PARENT 27 5 3 10 34 38 84 57 58 68
REMARK Flexibility Score: inf
ROOT
ATOM      1  C   UNL A   1      37.986  22.108  25.528  1.00  0.00     0.116 C 
ENDROOT
BRANCH   1   2
ATOM      2  N   UNL A   1      37.693  23.171  24.599  1.00  0.00    -0.354 N 
ATOM      3  C   UNL A   1      36.569  23.119  23.832  1.00  0.00     0.242 C 
ATOM      4  O   UNL A   1      36.689  23.084  22.609  1.00  0.00    -0.273 OA
ATOM      5  H   UNL A   1      38.307  23.936  24.518  1.00  0.00     0.163 HD
BRANCH   3   6
ATOM      6  C   UNL A   1      35.228  23.378  24.532  1.00  0.00     0.168 C 
ATOM      7  C   UNL A   1      35.124  24.412  25.641  1.00  0.00     0.041 C 
BRANCH   6   8
ATOM      8  N   UNL A   1      34.499  22.171  24.840  1.00  0.00    -0.345 N 
ATOM      9  C   UNL A   1      33.327  21.724  24.319  1.00  0.00     0.222 C 
ATOM     10  H   UNL A   1      34.907  21.592  25.523  1.00  0.00     0.164 HD
ATOM     11  O   UNL A   1      32.875  20.676  24.790  1.00  0.00    -0.275 OA
BRANCH   9  12
ATOM     12  C   UNL A   1      32.627  22.409  23.148  1.00  0.00     0.122 C 
BRANCH  12  13
ATOM     13  C   UNL A   1      31.274  23.109  23.377  1.00  0.00     0.137 C 
BRANCH  13  14
ATOM     14  N   UNL A   1      31.229  24.292  24.276  1.00  0.00    -0.292 N 
ATOM     15  C   UNL A   1      31.421  25.585  23.799  1.00  0.00     0.266 C 
ATOM     16  C   UNL A   1      30.940  24.211  25.627  1.00  0.00     0.148 C 
ATOM     17  O   UNL A   1      31.350  25.956  22.644  1.00  0.00    -0.268 OA
ATOM     18  C   UNL A   1      31.742  26.498  24.945  1.00  0.00     0.081 C 
ATOM     19  S   UNL A   1      31.215  25.770  26.401  1.00  0.00    -0.054 SA
ATOM     20  S   UNL A   1      30.460  22.877  26.506  1.00  0.00    -0.052 S 
ATOM     21  C   UNL A   1      32.447  27.627  24.758  1.00  0.00     0.029 C 
BRANCH  21  22
ATOM     22  C   UNL A   1      33.029  28.593  25.720  1.00  0.00    -0.024 A 
ATOM     23  C   UNL A   1      32.314  29.777  25.981  1.00  0.00     0.015 A 
ATOM     24  C   UNL A   1      34.311  28.468  26.277  1.00  0.00     0.015 A 
ATOM     25  C   UNL A   1      32.846  30.795  26.786  1.00  0.00     0.086 A 
ATOM     26  C   UNL A   1      34.851  29.472  27.098  1.00  0.00     0.086 A 
ATOM     27  C   UNL A   1      34.118  30.637  27.342  1.00  0.00     0.269 A 
BRANCH  27  28
ATOM     28  N   UNL A   1      34.710  31.718  28.141  1.00  0.00     0.062 N 
ATOM     29  O   UNL A   1      34.550  31.679  29.369  1.00  0.00    -0.258 OA
ATOM     30  O   UNL A   1      35.320  32.610  27.536  1.00  0.00    -0.258 OA
ENDBRANCH  27  28
ENDBRANCH  21  22
ENDBRANCH  13  14
ENDBRANCH  12  13
ENDBRANCH   9  12
ENDBRANCH   6   8
ENDBRANCH   3   6
ENDBRANCH   1   2
BRANCH   1  31
ATOM     31  C   UNL A   1      39.158  22.519  26.416  1.00  0.00     0.021 C 
BRANCH  31  32
ATOM     32  C   UNL A   1      40.399  21.624  26.269  1.00  0.00     0.002 C 
BRANCH  32  33
ATOM     33  C   UNL A   1      40.093  20.152  25.983  1.00  0.00     0.002 C 
BRANCH  33  34
ATOM     34  C   UNL A   1      41.285  19.212  26.111  1.00  0.00     0.021 C 
BRANCH  34  35
ATOM     35  C   UNL A   1      42.624  19.899  25.935  1.00  0.00     0.116 C 
BRANCH  35  36
ATOM     36  N   UNL A   1      43.465  19.226  24.963  1.00  0.00    -0.352 N 
ATOM     37  C   UNL A   1      44.524  19.757  24.270  1.00  0.00     0.251 C 
ATOM     38  H   UNL A   1      43.251  18.282  24.780  1.00  0.00     0.163 HD
ATOM     39  O   UNL A   1      45.060  19.146  23.354  1.00  0.00    -0.269 OA
BRANCH  37  40
ATOM     40  C   UNL A   1      44.975  21.110  24.640  1.00  0.00     0.039 A 
ATOM     41  C   UNL A   1      44.623  22.186  23.827  1.00  0.00     0.014 A 
ATOM     42  C   UNL A   1      45.639  21.311  25.855  1.00  0.00     0.014 A 
ATOM     43  C   UNL A   1      44.892  23.482  24.264  1.00  0.00     0.010 A 
ATOM     44  C   UNL A   1      45.813  22.602  26.331  1.00  0.00     0.010 A 
ATOM     45  C   UNL A   1      45.452  23.700  25.534  1.00  0.00    -0.014 A 
BRANCH  45  46
ATOM     46  C   UNL A   1      45.683  25.072  26.046  1.00  0.00     0.031 A 
ATOM     47  C   UNL A   1      44.534  25.862  26.604  1.00  0.00     0.074 A 
ATOM     48  C   UNL A   1      46.906  25.627  25.946  1.00  0.00     0.049 A 
ATOM     49  N   UNL A   1      44.511  27.096  27.039  1.00  0.00    -0.248 NA
ATOM     50  C   UNL A   1      43.226  25.186  26.646  1.00  0.00     0.031 C 
ATOM     51  C   UNL A   1      48.086  24.980  25.368  1.00  0.00     0.029 A 
ATOM     52  N   UNL A   1      47.356  26.868  26.319  1.00  0.00    -0.354 N 
ATOM     53  C   UNL A   1      43.192  27.344  27.394  1.00  0.00     0.074 A 
ATOM     54  C   UNL A   1      42.431  26.162  27.057  1.00  0.00     0.031 C 
ATOM     55  C   UNL A   1      49.129  25.821  25.443  1.00  0.00     0.029 A 
ATOM     56  C   UNL A   1      48.684  27.079  26.035  1.00  0.00     0.049 A 
ATOM     57  H   UNL A   1      46.783  27.543  26.747  1.00  0.00     0.167 HD
ATOM     58  C   UNL A   1      42.667  28.446  27.979  1.00  0.00     0.037 A 
ATOM     59  C   UNL A   1      49.452  28.169  26.222  1.00  0.00     0.037 A 
ATOM     60  C   UNL A   1      43.435  29.613  28.325  1.00  0.00     0.049 A 
ATOM     61  C   UNL A   1      48.847  29.387  26.861  1.00  0.00     0.074 A 
ATOM     62  C   UNL A   1      43.015  30.760  28.974  1.00  0.00     0.029 A 
ATOM     63  N   UNL A   1      44.782  29.783  28.040  1.00  0.00    -0.354 N 
ATOM     64  N   UNL A   1      47.615  29.582  27.268  1.00  0.00    -0.248 NA
ATOM     65  C   UNL A   1      49.738  30.537  27.073  1.00  0.00     0.031 C 
ATOM     66  C   UNL A   1      44.095  31.647  29.032  1.00  0.00     0.029 A 
ATOM     67  C   UNL A   1      45.202  31.029  28.471  1.00  0.00     0.049 A 
ATOM     68  H   UNL A   1      45.355  29.115  27.597  1.00  0.00     0.167 HD
ATOM     69  C   UNL A   1      47.587  30.864  27.801  1.00  0.00     0.074 A 
ATOM     70  C   UNL A   1      48.931  31.393  27.682  1.00  0.00     0.031 C 
ATOM     71  C   UNL A   1      46.543  31.542  28.339  1.00  0.00     0.037 A 
BRANCH  58  72
ATOM     72  C   UNL A   1      41.194  28.434  28.272  1.00  0.00     0.057 A 
ATOM     73  C   UNL A   1      40.244  28.817  27.315  1.00  0.00     0.134 A 
ATOM     74  C   UNL A   1      40.717  28.030  29.526  1.00  0.00     0.134 A 
ATOM     75  F   UNL A   1      40.632  29.228  26.099  1.00  0.00    -0.206 F 
ATOM     76  C   UNL A   1      38.878  28.838  27.607  1.00  0.00     0.040 A 
ATOM     77  C   UNL A   1      39.352  28.014  29.819  1.00  0.00     0.040 A 
ATOM     78  F   UNL A   1      41.569  27.646  30.489  1.00  0.00    -0.206 F 
ATOM     79  C   UNL A   1      38.430  28.429  28.860  1.00  0.00     0.006 A 
ENDBRANCH  58  72
BRANCH  59  80
ATOM     80  C   UNL A   1      50.878  28.147  25.805  1.00  0.00     0.057 A 
ATOM     81  C   UNL A   1      51.906  27.982  26.738  1.00  0.00     0.134 A 
ATOM     82  C   UNL A   1      51.244  28.278  24.459  1.00  0.00     0.134 A 
ATOM     83  F   UNL A   1      51.620  27.868  28.044  1.00  0.00    -0.206 F 
ATOM     84  C   UNL A   1      53.248  27.963  26.353  1.00  0.00     0.040 A 
ATOM     85  C   UNL A   1      52.579  28.234  24.057  1.00  0.00     0.040 A 
ATOM     86  F   UNL A   1      50.305  28.428  23.513  1.00  0.00    -0.206 F 
ATOM     87  C   UNL A   1      53.587  28.083  25.006  1.00  0.00     0.006 A 
ENDBRANCH  59  80
BRANCH  71  88
ATOM     88  C   UNL A   1      46.816  32.924  28.858  1.00  0.00     0.057 A 
ATOM     89  C   UNL A   1      47.253  33.150  30.169  1.00  0.00     0.134 A 
ATOM     90  C   UNL A   1      46.687  34.038  28.018  1.00  0.00     0.134 A 
ATOM     91  F   UNL A   1      47.385  32.127  31.028  1.00  0.00    -0.206 F 
ATOM     92  C   UNL A   1      47.533  34.436  30.632  1.00  0.00     0.040 A 
ATOM     93  C   UNL A   1      46.994  35.325  28.462  1.00  0.00     0.040 A 
ATOM     94  F   UNL A   1      46.283  33.892  26.748  1.00  0.00    -0.206 F 
ATOM     95  C   UNL A   1      47.412  35.528  29.774  1.00  0.00     0.006 A 
ENDBRANCH  71  88
ENDBRANCH  45  46
ENDBRANCH  37  40
ENDBRANCH  35  36
ENDBRANCH  34  35
ENDBRANCH  33  34
ENDBRANCH  32  33
ENDBRANCH  31  32
ENDBRANCH   1  31
TORSDOF 19
ENDMDL
MODEL 3
REMARK VINA RESULT:     -10.9      3.048      9.086
REMARK SMILES C[C@H](NC(=O)CCN1C(=O)/C(=C/c2ccc([N+](=O)[O-])cc2)SC1=S)C(=O)NCCCCCCNC(=O)c1ccc(-c2c3nc(c(-c4c(F)cccc4F)c4ccc([nH]4)c(-c4c(F)cccc4F)c4nc(c(-c5c(F)cccc5F)c5ccc2[nH]5)C=C4)C=C3)cc1
REMARK SMILES IDX 28 1 27 2 25 3 26 4 2 6 1 7 3 8 4 9 5 11 6 12 7 13 8 14 9 15
REMARK SMILES IDX 23 16 10 17 11 18 22 19 24 20 12 21 13 22 14 23 21 24 15 25
REMARK SMILES IDX 20 26 16 27 17 28 18 29 19 30 29 31 30 32 31 33 32 34 33 35
REMARK SMILES IDX 34 36 35 37 36 39 37 40 38 41 90 42 39 43 89 44 40 45 41 46
REMARK SMILES IDX 42 47 83 48 43 49 88 50 82 51 84 52 44 53 87 54 81 55 80 56
REMARK SMILES IDX 45 58 71 59 54 60 70 61 55 62 58 63 69 64 85 65 56 66 57 67
REMARK SMILES IDX 68 69 86 70 59 71 46 72 47 73 52 74 48 75 49 76 51 77 53 78
REMARK SMILES IDX 50 79 72 80 73 81 78 82 74 83 75 84 77 85 79 86 76 87 60 88
REMARK SMILES IDX 61 89 66 90 62 91 63 92 65 93 67 94 64 95
REMARK H PARENT 27 5 3 10 34 38 84 57 58 68
REMARK Flexibility Score: inf
ROOT
ATOM      1  C   UNL A   1      35.392  29.517  27.329  1.00  0.00     0.116 C 
ENDROOT
BRANCH   1   2
ATOM      2  N   UNL A   1      34.479  30.274  28.148  1.00  0.00    -0.354 N 
ATOM      3  C   UNL A   1      33.619  31.161  27.574  1.00  0.00     0.242 C 
ATOM      4  O   UNL A   1      33.708  32.349  27.873  1.00  0.00    -0.273 OA
ATOM      5  H   UNL A   1      34.477  30.151  29.125  1.00  0.00     0.163 HD
BRANCH   3   6
ATOM      6  C   UNL A   1      32.426  30.582  26.800  1.00  0.00     0.168 C 
ATOM      7  C   UNL A   1      31.363  31.501  26.221  1.00  0.00     0.041 C 
BRANCH   6   8
ATOM      8  N   UNL A   1      31.856  29.409  27.418  1.00  0.00    -0.345 N 
ATOM      9  C   UNL A   1      31.644  28.179  26.883  1.00  0.00     0.222 C 
ATOM     10  H   UNL A   1      31.582  29.516  28.357  1.00  0.00     0.164 HD
ATOM     11  O   UNL A   1      31.087  27.348  27.607  1.00  0.00    -0.275 OA
BRANCH   9  12
ATOM     12  C   UNL A   1      32.139  27.784  25.494  1.00  0.00     0.122 C 
BRANCH  12  13
ATOM     13  C   UNL A   1      33.289  26.768  25.359  1.00  0.00     0.137 C 
BRANCH  13  14
ATOM     14  N   UNL A   1      32.991  25.430  24.783  1.00  0.00    -0.292 N 
ATOM     15  C   UNL A   1      32.593  24.360  25.577  1.00  0.00     0.266 C 
ATOM     16  C   UNL A   1      33.029  25.161  23.426  1.00  0.00     0.148 C 
ATOM     17  O   UNL A   1      32.161  24.412  26.711  1.00  0.00    -0.268 OA
ATOM     18  C   UNL A   1      32.776  23.079  24.819  1.00  0.00     0.081 C 
ATOM     19  S   UNL A   1      32.857  23.430  23.145  1.00  0.00    -0.054 SA
ATOM     20  S   UNL A   1      33.262  26.227  22.164  1.00  0.00    -0.052 S 
ATOM     21  C   UNL A   1      32.962  21.912  25.459  1.00  0.00     0.029 C 
BRANCH  21  22
ATOM     22  C   UNL A   1      33.325  20.564  24.961  1.00  0.00    -0.024 A 
ATOM     23  C   UNL A   1      32.286  19.709  24.550  1.00  0.00     0.015 A 
ATOM     24  C   UNL A   1      34.625  20.036  25.005  1.00  0.00     0.015 A 
ATOM     25  C   UNL A   1      32.532  18.380  24.176  1.00  0.00     0.086 A 
ATOM     26  C   UNL A   1      34.889  18.712  24.619  1.00  0.00     0.086 A 
ATOM     27  C   UNL A   1      33.838  17.885  24.214  1.00  0.00     0.269 A 
BRANCH  27  28
ATOM     28  N   UNL A   1      34.102  16.480  23.878  1.00  0.00     0.062 N 
ATOM     29  O   UNL A   1      34.334  16.205  22.693  1.00  0.00    -0.258 OA
ATOM     30  O   UNL A   1      34.060  15.653  24.800  1.00  0.00    -0.258 OA
ENDBRANCH  27  28
ENDBRANCH  21  22
ENDBRANCH  13  14
ENDBRANCH  12  13
ENDBRANCH   9  12
ENDBRANCH   6   8
ENDBRANCH   3   6
ENDBRANCH   1   2
BRANCH   1  31
ATOM     31  C   UNL A   1      36.725  29.369  28.059  1.00  0.00     0.021 C 
BRANCH  31  32
ATOM     32  C   UNL A   1      36.624  29.528  29.585  1.00  0.00     0.002 C 
BRANCH  32  33
ATOM     33  C   UNL A   1      37.020  30.909  30.109  1.00  0.00     0.002 C 
BRANCH  33  34
ATOM     34  C   UNL A   1      35.936  31.631  30.902  1.00  0.00     0.021 C 
BRANCH  34  35
ATOM     35  C   UNL A   1      36.179  31.635  32.398  1.00  0.00     0.116 C 
BRANCH  35  36
ATOM     36  N   UNL A   1      36.290  32.979  32.933  1.00  0.00    -0.352 N 
ATOM     37  C   UNL A   1      37.423  33.749  33.018  1.00  0.00     0.251 C 
ATOM     38  H   UNL A   1      35.460  33.384  33.275  1.00  0.00     0.163 HD
ATOM     39  O   UNL A   1      37.434  34.805  33.638  1.00  0.00    -0.269 OA
BRANCH  37  40
ATOM     40  C   UNL A   1      38.645  33.243  32.367  1.00  0.00     0.039 A 
ATOM     41  C   UNL A   1      39.386  32.247  33.001  1.00  0.00     0.014 A 
ATOM     42  C   UNL A   1      38.973  33.677  31.078  1.00  0.00     0.014 A 
ATOM     43  C   UNL A   1      40.436  31.642  32.312  1.00  0.00     0.010 A 
ATOM     44  C   UNL A   1      39.951  33.004  30.361  1.00  0.00     0.010 A 
ATOM     45  C   UNL A   1      40.700  31.988  30.975  1.00  0.00    -0.014 A 
BRANCH  45  46
ATOM     46  C   UNL A   1      41.767  31.308  30.203  1.00  0.00     0.031 A 
ATOM     47  C   UNL A   1      43.045  32.036  29.900  1.00  0.00     0.074 A 
ATOM     48  C   UNL A   1      41.558  30.068  29.720  1.00  0.00     0.049 A 
ATOM     49  N   UNL A   1      44.070  31.646  29.185  1.00  0.00    -0.248 NA
ATOM     50  C   UNL A   1      43.175  33.399  30.442  1.00  0.00     0.031 C 
ATOM     51  C   UNL A   1      40.334  29.285  29.898  1.00  0.00     0.029 A 
ATOM     52  N   UNL A   1      42.367  29.255  28.969  1.00  0.00    -0.354 N 
ATOM     53  C   UNL A   1      44.956  32.716  29.185  1.00  0.00     0.074 A 
ATOM     54  C   UNL A   1      44.319  33.795  29.906  1.00  0.00     0.031 C 
ATOM     55  C   UNL A   1      40.482  28.097  29.292  1.00  0.00     0.029 A 
ATOM     56  C   UNL A   1      41.791  28.049  28.649  1.00  0.00     0.049 A 
ATOM     57  H   UNL A   1      43.275  29.510  28.686  1.00  0.00     0.167 HD
ATOM     58  C   UNL A   1      46.201  32.782  28.660  1.00  0.00     0.037 A 
ATOM     59  C   UNL A   1      42.262  27.028  27.909  1.00  0.00     0.037 A 
ATOM     60  C   UNL A   1      46.833  31.698  27.956  1.00  0.00     0.049 A 
ATOM     61  C   UNL A   1      43.642  27.126  27.323  1.00  0.00     0.074 A 
ATOM     62  C   UNL A   1      48.113  31.638  27.436  1.00  0.00     0.029 A 
ATOM     63  N   UNL A   1      46.225  30.485  27.668  1.00  0.00    -0.354 N 
ATOM     64  N   UNL A   1      44.503  28.113  27.399  1.00  0.00    -0.248 NA
ATOM     65  C   UNL A   1      44.120  25.969  26.554  1.00  0.00     0.031 C 
ATOM     66  C   UNL A   1      48.260  30.410  26.784  1.00  0.00     0.029 A 
ATOM     67  C   UNL A   1      47.093  29.681  26.949  1.00  0.00     0.049 A 
ATOM     68  H   UNL A   1      45.312  30.233  27.936  1.00  0.00     0.167 HD
ATOM     69  C   UNL A   1      45.630  27.689  26.706  1.00  0.00     0.074 A 
ATOM     70  C   UNL A   1      45.349  26.349  26.234  1.00  0.00     0.031 C 
ATOM     71  C   UNL A   1      46.793  28.350  26.481  1.00  0.00     0.037 A 
BRANCH  58  72
ATOM     72  C   UNL A   1      46.950  34.074  28.827  1.00  0.00     0.057 A 
ATOM     73  C   UNL A   1      46.829  35.125  27.908  1.00  0.00     0.134 A 
ATOM     74  C   UNL A   1      47.801  34.271  29.922  1.00  0.00     0.134 A 
ATOM     75  F   UNL A   1      46.043  34.998  26.828  1.00  0.00    -0.206 F 
ATOM     76  C   UNL A   1      47.557  36.309  28.050  1.00  0.00     0.040 A 
ATOM     77  C   UNL A   1      48.508  35.463  30.093  1.00  0.00     0.040 A 
ATOM     78  F   UNL A   1      47.962  33.309  30.844  1.00  0.00    -0.206 F 
ATOM     79  C   UNL A   1      48.394  36.481  29.149  1.00  0.00     0.006 A 
ENDBRANCH  58  72
BRANCH  59  80
ATOM     80  C   UNL A   1      41.419  25.824  27.693  1.00  0.00     0.057 A 
ATOM     81  C   UNL A   1      40.362  25.832  26.776  1.00  0.00     0.134 A 
ATOM     82  C   UNL A   1      41.658  24.633  28.390  1.00  0.00     0.134 A 
ATOM     83  F   UNL A   1      40.072  26.947  26.090  1.00  0.00    -0.206 F 
ATOM     84  C   UNL A   1      39.564  24.705  26.570  1.00  0.00     0.040 A 
ATOM     85  C   UNL A   1      40.886  23.491  28.174  1.00  0.00     0.040 A 
ATOM     86  F   UNL A   1      42.663  24.556  29.275  1.00  0.00    -0.206 F 
ATOM     87  C   UNL A   1      39.830  23.527  27.266  1.00  0.00     0.006 A 
ENDBRANCH  59  80
BRANCH  71  88
ATOM     88  C   UNL A   1      47.855  27.627  25.705  1.00  0.00     0.057 A 
ATOM     89  C   UNL A   1      47.859  27.599  24.305  1.00  0.00     0.134 A 
ATOM     90  C   UNL A   1      48.915  26.994  26.368  1.00  0.00     0.134 A 
ATOM     91  F   UNL A   1      46.866  28.176  23.610  1.00  0.00    -0.206 F 
ATOM     92  C   UNL A   1      48.867  26.951  23.592  1.00  0.00     0.040 A 
ATOM     93  C   UNL A   1      49.945  26.368  25.664  1.00  0.00     0.040 A 
ATOM     94  F   UNL A   1      48.978  26.991  27.707  1.00  0.00    -0.206 F 
ATOM     95  C   UNL A   1      49.919  26.340  24.272  1.00  0.00     0.006 A 
ENDBRANCH  71  88
ENDBRANCH  45  46
ENDBRANCH  37  40
ENDBRANCH  35  36
ENDBRANCH  34  35
ENDBRANCH  33  34
ENDBRANCH  32  33
ENDBRANCH  31  32
ENDBRANCH   1  31
TORSDOF 19
ENDMDL
