MODEL 1
REMARK VINA RESULT:     -11.8      0.000      0.000
REMARK SMILES O=C(Cn1cc(C(=O)C(F)(F)F)c2ccccc21)NCCCCCCNC(=O)c1ccc(-c2c3nc(c(-c4c(F)cccc4F)c4ccc([nH]4)c(-c4c(F)cccc4F)c4nc(c(-c5c(F)cccc5F)c5ccc2[nH]5)C=C4)C=C3)cc1
REMARK SMILES IDX 22 1 21 2 20 3 19 4 1 5 2 6 3 8 4 9 5 10 18 11 6 12 13 13
REMARK SMILES IDX 17 14 14 15 16 16 15 17 7 18 8 19 9 20 10 21 11 22 12 23
REMARK SMILES IDX 23 24 24 25 25 26 26 27 27 28 28 30 29 31 30 32 82 33 31 34
REMARK SMILES IDX 81 35 32 36 33 37 34 38 75 39 35 40 80 41 74 42 76 43 36 44
REMARK SMILES IDX 79 45 73 46 72 47 37 49 63 50 46 51 62 52 47 53 50 54 61 55
REMARK SMILES IDX 77 56 48 57 49 58 60 60 78 61 51 62 38 63 39 64 44 65 40 66
REMARK SMILES IDX 41 67 43 68 45 69 42 70 64 71 65 72 70 73 66 74 67 75 69 76
REMARK SMILES IDX 71 77 68 78 52 79 53 80 58 81 54 82 55 83 57 84 59 85 56 86
REMARK H PARENT 19 7 26 29 76 48 50 59
REMARK Flexibility Score: inf
ROOT
ATOM      1  C   UNL A   1      41.889  21.106  27.284  1.00  0.00     0.002 C 
ENDROOT
BRANCH   1   2
ATOM      2  C   UNL A   1      40.524  21.795  27.410  1.00  0.00     0.021 C 
BRANCH   2   3
ATOM      3  C   UNL A   1      39.688  21.829  26.129  1.00  0.00     0.116 C 
BRANCH   3   4
ATOM      4  N   UNL A   1      38.285  22.103  26.389  1.00  0.00    -0.355 N 
ATOM      5  O   UNL A   1      37.591  21.861  24.217  1.00  0.00    -0.273 OA
ATOM      6  C   UNL A   1      37.327  22.066  25.390  1.00  0.00     0.239 C 
ATOM      7  H   UNL A   1      38.006  22.323  27.307  1.00  0.00     0.163 HD
BRANCH   6   8
ATOM      8  C   UNL A   1      35.911  22.391  25.835  1.00  0.00     0.222 C 
BRANCH   8   9
ATOM      9  N   UNL A   1      34.892  21.569  25.196  1.00  0.00    -0.337 N 
ATOM     10  C   UNL A   1      34.652  20.253  25.510  1.00  0.00     0.099 A 
ATOM     11  C   UNL A   1      34.002  21.995  24.236  1.00  0.00     0.049 A 
ATOM     12  C   UNL A   1      33.599  19.795  24.735  1.00  0.00     0.053 A 
ATOM     13  C   UNL A   1      33.188  20.903  23.919  1.00  0.00     0.011 A 
ATOM     14  C   UNL A   1      33.844  23.248  23.620  1.00  0.00     0.027 A 
ATOM     15  C   UNL A   1      32.185  21.076  22.939  1.00  0.00     0.011 A 
ATOM     16  C   UNL A   1      32.844  23.387  22.653  1.00  0.00     0.002 A 
ATOM     17  C   UNL A   1      32.024  22.316  22.314  1.00  0.00     0.001 A 
BRANCH  12  18
ATOM     18  C   UNL A   1      33.020  18.442  24.761  1.00  0.00     0.268 C 
ATOM     19  O   UNL A   1      32.209  18.123  25.635  1.00  0.00    -0.284 OA
BRANCH  18  20
ATOM     20  C   UNL A   1      33.454  17.462  23.672  1.00  0.00     0.454 C 
ATOM     21  F   UNL A   1      34.812  17.395  23.542  1.00  0.00    -0.163 F 
ATOM     22  F   UNL A   1      33.039  16.185  23.920  1.00  0.00    -0.163 F 
ATOM     23  F   UNL A   1      32.976  17.779  22.436  1.00  0.00    -0.163 F 
ENDBRANCH  18  20
ENDBRANCH  12  18
ENDBRANCH   8   9
ENDBRANCH   6   8
ENDBRANCH   3   4
ENDBRANCH   2   3
ENDBRANCH   1   2
BRANCH   1  24
ATOM     24  C   UNL A   1      41.861  19.590  27.058  1.00  0.00     0.002 C 
BRANCH  24  25
ATOM     25  C   UNL A   1      43.151  18.952  26.516  1.00  0.00     0.021 C 
BRANCH  25  26
ATOM     26  C   UNL A   1      43.398  19.131  25.015  1.00  0.00     0.116 C 
BRANCH  26  27
ATOM     27  N   UNL A   1      44.760  19.501  24.682  1.00  0.00    -0.352 N 
ATOM     28  C   UNL A   1      45.580  20.569  24.928  1.00  0.00     0.251 C 
ATOM     29  H   UNL A   1      45.207  18.810  24.143  1.00  0.00     0.163 HD
ATOM     30  O   UNL A   1      46.761  20.413  24.600  1.00  0.00    -0.269 OA
BRANCH  28  31
ATOM     31  C   UNL A   1      45.179  21.885  25.504  1.00  0.00     0.039 A 
ATOM     32  C   UNL A   1      45.664  22.443  26.683  1.00  0.00     0.014 A 
ATOM     33  C   UNL A   1      44.175  22.592  24.801  1.00  0.00     0.014 A 
ATOM     34  C   UNL A   1      45.132  23.645  27.160  1.00  0.00     0.010 A 
ATOM     35  C   UNL A   1      43.642  23.794  25.274  1.00  0.00     0.010 A 
ATOM     36  C   UNL A   1      44.105  24.317  26.473  1.00  0.00    -0.014 A 
BRANCH  36  37
ATOM     37  C   UNL A   1      43.682  25.628  26.984  1.00  0.00     0.031 A 
ATOM     38  C   UNL A   1      44.615  26.732  26.638  1.00  0.00     0.074 A 
ATOM     39  C   UNL A   1      42.552  25.930  27.660  1.00  0.00     0.049 A 
ATOM     40  N   UNL A   1      45.446  27.323  27.432  1.00  0.00    -0.248 NA
ATOM     41  C   UNL A   1      44.725  27.147  25.233  1.00  0.00     0.031 C 
ATOM     42  C   UNL A   1      41.371  25.095  27.868  1.00  0.00     0.029 A 
ATOM     43  N   UNL A   1      42.209  27.111  28.275  1.00  0.00    -0.354 N 
ATOM     44  C   UNL A   1      46.046  28.327  26.679  1.00  0.00     0.074 A 
ATOM     45  C   UNL A   1      45.679  28.078  25.309  1.00  0.00     0.031 C 
ATOM     46  C   UNL A   1      40.374  25.846  28.395  1.00  0.00     0.029 A 
ATOM     47  C   UNL A   1      40.886  27.173  28.701  1.00  0.00     0.049 A 
ATOM     48  H   UNL A   1      42.845  27.852  28.401  1.00  0.00     0.167 HD
ATOM     49  C   UNL A   1      46.574  29.421  27.292  1.00  0.00     0.037 A 
ATOM     50  C   UNL A   1      40.251  28.228  29.273  1.00  0.00     0.037 A 
ATOM     51  C   UNL A   1      46.752  29.187  28.705  1.00  0.00     0.049 A 
ATOM     52  C   UNL A   1      41.272  29.091  29.903  1.00  0.00     0.074 A 
ATOM     53  C   UNL A   1      47.527  28.379  29.509  1.00  0.00     0.029 A 
ATOM     54  N   UNL A   1      45.741  29.669  29.488  1.00  0.00    -0.354 N 
ATOM     55  N   UNL A   1      41.929  28.772  30.982  1.00  0.00    -0.248 NA
ATOM     56  C   UNL A   1      41.773  30.259  29.192  1.00  0.00     0.031 C 
ATOM     57  C   UNL A   1      46.768  28.172  30.702  1.00  0.00     0.029 A 
ATOM     58  C   UNL A   1      45.574  28.883  30.592  1.00  0.00     0.049 A 
ATOM     59  H   UNL A   1      45.207  30.472  29.285  1.00  0.00     0.167 HD
ATOM     60  C   UNL A   1      43.155  29.383  30.824  1.00  0.00     0.074 A 
ATOM     61  C   UNL A   1      42.927  30.434  29.841  1.00  0.00     0.031 C 
ATOM     62  C   UNL A   1      44.293  28.764  31.253  1.00  0.00     0.037 A 
BRANCH  49  63
ATOM     63  C   UNL A   1      46.439  30.841  26.764  1.00  0.00     0.057 A 
ATOM     64  C   UNL A   1      45.213  31.516  26.605  1.00  0.00     0.134 A 
ATOM     65  C   UNL A   1      47.577  31.676  26.784  1.00  0.00     0.134 A 
ATOM     66  F   UNL A   1      44.035  30.883  26.608  1.00  0.00    -0.206 F 
ATOM     67  C   UNL A   1      45.117  32.910  26.540  1.00  0.00     0.040 A 
ATOM     68  C   UNL A   1      47.487  33.073  26.768  1.00  0.00     0.040 A 
ATOM     69  F   UNL A   1      48.807  31.159  26.927  1.00  0.00    -0.206 F 
ATOM     70  C   UNL A   1      46.251  33.696  26.663  1.00  0.00     0.006 A 
ENDBRANCH  49  63
BRANCH  50  71
ATOM     71  C   UNL A   1      38.825  28.632  29.256  1.00  0.00     0.057 A 
ATOM     72  C   UNL A   1      38.285  29.339  28.172  1.00  0.00     0.134 A 
ATOM     73  C   UNL A   1      38.041  28.605  30.424  1.00  0.00     0.134 A 
ATOM     74  F   UNL A   1      38.973  29.476  27.029  1.00  0.00    -0.206 F 
ATOM     75  C   UNL A   1      37.062  30.014  28.253  1.00  0.00     0.040 A 
ATOM     76  C   UNL A   1      36.818  29.282  30.520  1.00  0.00     0.040 A 
ATOM     77  F   UNL A   1      38.476  27.981  31.528  1.00  0.00    -0.206 F 
ATOM     78  C   UNL A   1      36.333  30.004  29.437  1.00  0.00     0.006 A 
ENDBRANCH  50  71
BRANCH  62  79
ATOM     79  C   UNL A   1      44.143  27.751  32.349  1.00  0.00     0.057 A 
ATOM     80  C   UNL A   1      44.072  26.400  31.990  1.00  0.00     0.134 A 
ATOM     81  C   UNL A   1      44.040  28.054  33.713  1.00  0.00     0.134 A 
ATOM     82  F   UNL A   1      44.116  26.039  30.697  1.00  0.00    -0.206 F 
ATOM     83  C   UNL A   1      43.935  25.390  32.943  1.00  0.00     0.040 A 
ATOM     84  C   UNL A   1      43.946  27.049  34.681  1.00  0.00     0.040 A 
ATOM     85  F   UNL A   1      44.003  29.323  34.146  1.00  0.00    -0.206 F 
ATOM     86  C   UNL A   1      43.893  25.713  34.296  1.00  0.00     0.006 A 
ENDBRANCH  62  79
ENDBRANCH  36  37
ENDBRANCH  28  31
ENDBRANCH  26  27
ENDBRANCH  25  26
ENDBRANCH  24  25
ENDBRANCH   1  24
TORSDOF 16
ENDMDL
MODEL 2
REMARK VINA RESULT:     -11.5      1.761      2.473
REMARK SMILES O=C(Cn1cc(C(=O)C(F)(F)F)c2ccccc21)NCCCCCCNC(=O)c1ccc(-c2c3nc(c(-c4c(F)cccc4F)c4ccc([nH]4)c(-c4c(F)cccc4F)c4nc(c(-c5c(F)cccc5F)c5ccc2[nH]5)C=C4)C=C3)cc1
REMARK SMILES IDX 22 1 21 2 20 3 19 4 1 5 2 6 3 8 4 9 5 10 18 11 6 12 13 13
REMARK SMILES IDX 17 14 14 15 16 16 15 17 7 18 8 19 9 20 10 21 11 22 12 23
REMARK SMILES IDX 23 24 24 25 25 26 26 27 27 28 28 30 29 31 30 32 82 33 31 34
REMARK SMILES IDX 81 35 32 36 33 37 34 38 75 39 35 40 80 41 74 42 76 43 36 44
REMARK SMILES IDX 79 45 73 46 72 47 37 49 63 50 46 51 62 52 47 53 50 54 61 55
REMARK SMILES IDX 77 56 48 57 49 58 60 60 78 61 51 62 38 63 39 64 44 65 40 66
REMARK SMILES IDX 41 67 43 68 45 69 42 70 64 71 65 72 70 73 66 74 67 75 69 76
REMARK SMILES IDX 71 77 68 78 52 79 53 80 58 81 54 82 55 83 57 84 59 85 56 86
REMARK H PARENT 19 7 26 29 76 48 50 59
REMARK Flexibility Score: inf
ROOT
ATOM      1  C   UNL A   1      41.849  21.041  27.257  1.00  0.00     0.002 C 
ENDROOT
BRANCH   1   2
ATOM      2  C   UNL A   1      40.500  21.746  27.452  1.00  0.00     0.021 C 
BRANCH   2   3
ATOM      3  C   UNL A   1      39.653  21.896  26.187  1.00  0.00     0.116 C 
BRANCH   3   4
ATOM      4  N   UNL A   1      38.336  22.443  26.463  1.00  0.00    -0.355 N 
ATOM      5  O   UNL A   1      37.478  22.058  24.371  1.00  0.00    -0.273 OA
ATOM      6  C   UNL A   1      37.325  22.451  25.516  1.00  0.00     0.239 C 
ATOM      7  H   UNL A   1      38.155  22.821  27.354  1.00  0.00     0.163 HD
BRANCH   6   8
ATOM      8  C   UNL A   1      36.015  23.073  25.969  1.00  0.00     0.222 C 
BRANCH   8   9
ATOM      9  N   UNL A   1      34.953  22.992  24.975  1.00  0.00    -0.337 N 
ATOM     10  C   UNL A   1      34.590  24.025  24.146  1.00  0.00     0.099 A 
ATOM     11  C   UNL A   1      34.203  21.872  24.692  1.00  0.00     0.049 A 
ATOM     12  C   UNL A   1      33.573  23.591  23.312  1.00  0.00     0.053 A 
ATOM     13  C   UNL A   1      33.321  22.221  23.663  1.00  0.00     0.011 A 
ATOM     14  C   UNL A   1      34.224  20.584  25.253  1.00  0.00     0.027 A 
ATOM     15  C   UNL A   1      32.424  21.239  23.189  1.00  0.00     0.011 A 
ATOM     16  C   UNL A   1      33.323  19.636  24.763  1.00  0.00     0.002 A 
ATOM     17  C   UNL A   1      32.432  19.956  23.745  1.00  0.00     0.001 A 
BRANCH  12  18
ATOM     18  C   UNL A   1      32.899  24.382  22.270  1.00  0.00     0.268 C 
ATOM     19  O   UNL A   1      33.352  24.423  21.123  1.00  0.00    -0.284 OA
BRANCH  18  20
ATOM     20  C   UNL A   1      31.630  25.138  22.660  1.00  0.00     0.454 C 
ATOM     21  F   UNL A   1      31.245  26.037  21.707  1.00  0.00    -0.163 F 
ATOM     22  F   UNL A   1      30.562  24.309  22.845  1.00  0.00    -0.163 F 
ATOM     23  F   UNL A   1      31.758  25.850  23.815  1.00  0.00    -0.163 F 
ENDBRANCH  18  20
ENDBRANCH  12  18
ENDBRANCH   8   9
ENDBRANCH   6   8
ENDBRANCH   3   4
ENDBRANCH   2   3
ENDBRANCH   1   2
BRANCH   1  24
ATOM     24  C   UNL A   1      41.795  19.636  26.645  1.00  0.00     0.002 C 
BRANCH  24  25
ATOM     25  C   UNL A   1      43.144  18.976  26.319  1.00  0.00     0.021 C 
BRANCH  25  26
ATOM     26  C   UNL A   1      43.527  18.948  24.837  1.00  0.00     0.116 C 
BRANCH  26  27
ATOM     27  N   UNL A   1      44.890  19.367  24.573  1.00  0.00    -0.352 N 
ATOM     28  C   UNL A   1      45.644  20.484  24.812  1.00  0.00     0.251 C 
ATOM     29  H   UNL A   1      45.404  18.671  24.101  1.00  0.00     0.163 HD
ATOM     30  O   UNL A   1      46.850  20.369  24.570  1.00  0.00    -0.269 OA
BRANCH  28  31
ATOM     31  C   UNL A   1      45.147  21.807  25.289  1.00  0.00     0.039 A 
ATOM     32  C   UNL A   1      44.223  22.617  24.635  1.00  0.00     0.014 A 
ATOM     33  C   UNL A   1      45.716  22.290  26.491  1.00  0.00     0.014 A 
ATOM     34  C   UNL A   1      43.914  23.882  25.146  1.00  0.00     0.010 A 
ATOM     35  C   UNL A   1      45.408  23.552  27.006  1.00  0.00     0.010 A 
ATOM     36  C   UNL A   1      44.519  24.366  26.321  1.00  0.00    -0.014 A 
BRANCH  36  37
ATOM     37  C   UNL A   1      44.055  25.656  26.848  1.00  0.00     0.031 A 
ATOM     38  C   UNL A   1      44.965  26.790  26.537  1.00  0.00     0.074 A 
ATOM     39  C   UNL A   1      42.907  25.918  27.511  1.00  0.00     0.049 A 
ATOM     40  N   UNL A   1      45.768  27.386  27.355  1.00  0.00    -0.248 NA
ATOM     41  C   UNL A   1      45.087  27.232  25.142  1.00  0.00     0.031 C 
ATOM     42  C   UNL A   1      41.744  25.050  27.685  1.00  0.00     0.029 A 
ATOM     43  N   UNL A   1      42.524  27.079  28.140  1.00  0.00    -0.354 N 
ATOM     44  C   UNL A   1      46.354  28.419  26.630  1.00  0.00     0.074 A 
ATOM     45  C   UNL A   1      46.016  28.185  25.250  1.00  0.00     0.031 C 
ATOM     46  C   UNL A   1      40.720  25.766  28.208  1.00  0.00     0.029 A 
ATOM     47  C   UNL A   1      41.194  27.100  28.546  1.00  0.00     0.049 A 
ATOM     48  H   UNL A   1      43.139  27.833  28.290  1.00  0.00     0.167 HD
ATOM     49  C   UNL A   1      46.844  29.514  27.270  1.00  0.00     0.037 A 
ATOM     50  C   UNL A   1      40.523  28.128  29.126  1.00  0.00     0.037 A 
ATOM     51  C   UNL A   1      47.005  29.259  28.682  1.00  0.00     0.049 A 
ATOM     52  C   UNL A   1      41.511  29.005  29.788  1.00  0.00     0.074 A 
ATOM     53  C   UNL A   1      47.788  28.457  29.484  1.00  0.00     0.029 A 
ATOM     54  N   UNL A   1      45.970  29.702  29.457  1.00  0.00    -0.354 N 
ATOM     55  N   UNL A   1      42.159  28.683  30.871  1.00  0.00    -0.248 NA
ATOM     56  C   UNL A   1      41.994  30.198  29.106  1.00  0.00     0.031 C 
ATOM     57  C   UNL A   1      47.015  28.210  30.661  1.00  0.00     0.029 A 
ATOM     58  C   UNL A   1      45.805  28.892  30.544  1.00  0.00     0.049 A 
ATOM     59  H   UNL A   1      45.419  30.495  29.259  1.00  0.00     0.167 HD
ATOM     60  C   UNL A   1      43.371  29.328  30.744  1.00  0.00     0.074 A 
ATOM     61  C   UNL A   1      43.132  30.390  29.777  1.00  0.00     0.031 C 
ATOM     62  C   UNL A   1      44.518  28.729  31.182  1.00  0.00     0.037 A 
BRANCH  49  63
ATOM     63  C   UNL A   1      46.683  30.940  26.766  1.00  0.00     0.057 A 
ATOM     64  C   UNL A   1      45.442  31.580  26.581  1.00  0.00     0.134 A 
ATOM     65  C   UNL A   1      47.793  31.808  26.837  1.00  0.00     0.134 A 
ATOM     66  F   UNL A   1      44.284  30.912  26.535  1.00  0.00    -0.206 F 
ATOM     67  C   UNL A   1      45.305  32.972  26.539  1.00  0.00     0.040 A 
ATOM     68  C   UNL A   1      47.660  33.202  26.845  1.00  0.00     0.040 A 
ATOM     69  F   UNL A   1      49.033  31.326  27.009  1.00  0.00    -0.206 F 
ATOM     70  C   UNL A   1      46.409  33.789  26.713  1.00  0.00     0.006 A 
ENDBRANCH  49  63
BRANCH  50  71
ATOM     71  C   UNL A   1      39.088  28.497  29.092  1.00  0.00     0.057 A 
ATOM     72  C   UNL A   1      38.548  29.214  28.014  1.00  0.00     0.134 A 
ATOM     73  C   UNL A   1      38.285  28.425  30.245  1.00  0.00     0.134 A 
ATOM     74  F   UNL A   1      39.252  29.393  26.887  1.00  0.00    -0.206 F 
ATOM     75  C   UNL A   1      37.307  29.856  28.088  1.00  0.00     0.040 A 
ATOM     76  C   UNL A   1      37.043  29.068  30.334  1.00  0.00     0.040 A 
ATOM     77  F   UNL A   1      38.716  27.788  31.343  1.00  0.00    -0.206 F 
ATOM     78  C   UNL A   1      36.559  29.802  29.258  1.00  0.00     0.006 A 
ENDBRANCH  50  71
BRANCH  62  79
ATOM     79  C   UNL A   1      44.375  27.694  32.256  1.00  0.00     0.057 A 
ATOM     80  C   UNL A   1      44.299  26.351  31.870  1.00  0.00     0.134 A 
ATOM     81  C   UNL A   1      44.285  27.968  33.628  1.00  0.00     0.134 A 
ATOM     82  F   UNL A   1      44.332  26.017  30.569  1.00  0.00    -0.206 F 
ATOM     83  C   UNL A   1      44.169  25.321  32.802  1.00  0.00     0.040 A 
ATOM     84  C   UNL A   1      44.197  26.943  34.575  1.00  0.00     0.040 A 
ATOM     85  F   UNL A   1      44.254  29.227  34.088  1.00  0.00    -0.206 F 
ATOM     86  C   UNL A   1      44.139  25.615  34.162  1.00  0.00     0.006 A 
ENDBRANCH  62  79
ENDBRANCH  36  37
ENDBRANCH  28  31
ENDBRANCH  26  27
ENDBRANCH  25  26
ENDBRANCH  24  25
ENDBRANCH   1  24
TORSDOF 16
ENDMDL
MODEL 3
REMARK VINA RESULT:     -11.4      2.790      7.487
REMARK SMILES O=C(Cn1cc(C(=O)C(F)(F)F)c2ccccc21)NCCCCCCNC(=O)c1ccc(-c2c3nc(c(-c4c(F)cccc4F)c4ccc([nH]4)c(-c4c(F)cccc4F)c4nc(c(-c5c(F)cccc5F)c5ccc2[nH]5)C=C4)C=C3)cc1
REMARK SMILES IDX 22 1 21 2 20 3 19 4 1 5 2 6 3 8 4 9 5 10 18 11 6 12 13 13
REMARK SMILES IDX 17 14 14 15 16 16 15 17 7 18 8 19 9 20 10 21 11 22 12 23
REMARK SMILES IDX 23 24 24 25 25 26 26 27 27 28 28 30 29 31 30 32 82 33 31 34
REMARK SMILES IDX 81 35 32 36 33 37 34 38 75 39 35 40 80 41 74 42 76 43 36 44
REMARK SMILES IDX 79 45 73 46 72 47 37 49 63 50 46 51 62 52 47 53 50 54 61 55
REMARK SMILES IDX 77 56 48 57 49 58 60 60 78 61 51 62 38 63 39 64 44 65 40 66
REMARK SMILES IDX 41 67 43 68 45 69 42 70 64 71 65 72 70 73 66 74 67 75 69 76
REMARK SMILES IDX 71 77 68 78 52 79 53 80 58 81 54 82 55 83 57 84 59 85 56 86
REMARK H PARENT 19 7 26 29 76 48 50 59
REMARK Flexibility Score: inf
ROOT
ATOM      1  C   UNL A   1      33.271  26.496  25.968  1.00  0.00     0.002 C 
ENDROOT
BRANCH   1   2
ATOM      2  C   UNL A   1      31.826  26.302  26.444  1.00  0.00     0.021 C 
BRANCH   2   3
ATOM      3  C   UNL A   1      31.150  25.014  25.972  1.00  0.00     0.116 C 
BRANCH   3   4
ATOM      4  N   UNL A   1      31.951  24.291  24.999  1.00  0.00    -0.355 N 
ATOM      5  O   UNL A   1      30.317  24.170  23.394  1.00  0.00    -0.273 OA
ATOM      6  C   UNL A   1      31.463  23.947  23.750  1.00  0.00     0.239 C 
ATOM      7  H   UNL A   1      32.871  24.036  25.236  1.00  0.00     0.163 HD
BRANCH   6   8
ATOM      8  C   UNL A   1      32.430  23.181  22.863  1.00  0.00     0.222 C 
BRANCH   8   9
ATOM      9  N   UNL A   1      33.044  22.034  23.519  1.00  0.00    -0.337 N 
ATOM     10  C   UNL A   1      32.406  20.837  23.739  1.00  0.00     0.099 A 
ATOM     11  C   UNL A   1      34.346  21.964  23.962  1.00  0.00     0.049 A 
ATOM     12  C   UNL A   1      33.292  19.967  24.353  1.00  0.00     0.053 A 
ATOM     13  C   UNL A   1      34.527  20.686  24.501  1.00  0.00     0.011 A 
ATOM     14  C   UNL A   1      35.379  22.917  23.936  1.00  0.00     0.027 A 
ATOM     15  C   UNL A   1      35.790  20.359  25.040  1.00  0.00     0.011 A 
ATOM     16  C   UNL A   1      36.617  22.563  24.479  1.00  0.00     0.002 A 
ATOM     17  C   UNL A   1      36.823  21.301  25.026  1.00  0.00     0.001 A 
BRANCH  12  18
ATOM     18  C   UNL A   1      33.015  18.579  24.758  1.00  0.00     0.268 C 
ATOM     19  O   UNL A   1      32.333  18.342  25.758  1.00  0.00    -0.284 OA
BRANCH  18  20
ATOM     20  C   UNL A   1      33.597  17.458  23.898  1.00  0.00     0.454 C 
ATOM     21  F   UNL A   1      33.300  17.608  22.574  1.00  0.00    -0.163 F 
ATOM     22  F   UNL A   1      34.959  17.396  23.970  1.00  0.00    -0.163 F 
ATOM     23  F   UNL A   1      33.145  16.220  24.245  1.00  0.00    -0.163 F 
ENDBRANCH  18  20
ENDBRANCH  12  18
ENDBRANCH   8   9
ENDBRANCH   6   8
ENDBRANCH   3   4
ENDBRANCH   2   3
ENDBRANCH   1   2
BRANCH   1  24
ATOM     24  C   UNL A   1      33.699  27.941  25.681  1.00  0.00     0.002 C 
BRANCH  24  25
ATOM     25  C   UNL A   1      33.663  28.917  26.867  1.00  0.00     0.021 C 
BRANCH  25  26
ATOM     26  C   UNL A   1      35.018  29.487  27.297  1.00  0.00     0.116 C 
BRANCH  26  27
ATOM     27  N   UNL A   1      35.214  29.521  28.733  1.00  0.00    -0.352 N 
ATOM     28  C   UNL A   1      36.286  29.510  29.584  1.00  0.00     0.251 C 
ATOM     29  H   UNL A   1      34.360  29.563  29.220  1.00  0.00     0.163 HD
ATOM     30  O   UNL A   1      36.021  29.731  30.770  1.00  0.00    -0.269 OA
BRANCH  28  31
ATOM     31  C   UNL A   1      37.705  29.224  29.223  1.00  0.00     0.039 A 
ATOM     32  C   UNL A   1      38.374  29.696  28.098  1.00  0.00     0.014 A 
ATOM     33  C   UNL A   1      38.402  28.347  30.088  1.00  0.00     0.014 A 
ATOM     34  C   UNL A   1      39.679  29.273  27.829  1.00  0.00     0.010 A 
ATOM     35  C   UNL A   1      39.707  27.923  29.823  1.00  0.00     0.010 A 
ATOM     36  C   UNL A   1      40.347  28.368  28.676  1.00  0.00    -0.014 A 
BRANCH  36  37
ATOM     37  C   UNL A   1      41.753  28.063  28.381  1.00  0.00     0.031 A 
ATOM     38  C   UNL A   1      41.943  26.788  27.640  1.00  0.00     0.074 A 
ATOM     39  C   UNL A   1      42.841  28.817  28.651  1.00  0.00     0.049 A 
ATOM     40  N   UNL A   1      42.391  25.674  28.117  1.00  0.00    -0.248 NA
ATOM     41  C   UNL A   1      41.475  26.705  26.250  1.00  0.00     0.031 C 
ATOM     42  C   UNL A   1      42.890  30.205  29.105  1.00  0.00     0.029 A 
ATOM     43  N   UNL A   1      44.169  28.487  28.520  1.00  0.00    -0.354 N 
ATOM     44  C   UNL A   1      42.456  24.796  27.039  1.00  0.00     0.074 A 
ATOM     45  C   UNL A   1      41.746  25.430  25.959  1.00  0.00     0.031 C 
ATOM     46  C   UNL A   1      44.165  30.658  29.036  1.00  0.00     0.029 A 
ATOM     47  C   UNL A   1      45.045  29.555  28.679  1.00  0.00     0.049 A 
ATOM     48  H   UNL A   1      44.475  27.571  28.329  1.00  0.00     0.167 HD
ATOM     49  C   UNL A   1      43.316  23.742  27.065  1.00  0.00     0.037 A 
ATOM     50  C   UNL A   1      46.395  29.545  28.538  1.00  0.00     0.037 A 
ATOM     51  C   UNL A   1      43.786  23.489  28.406  1.00  0.00     0.049 A 
ATOM     52  C   UNL A   1      46.869  28.163  28.760  1.00  0.00     0.074 A 
ATOM     53  C   UNL A   1      43.251  23.064  29.604  1.00  0.00     0.029 A 
ATOM     54  N   UNL A   1      45.004  24.041  28.691  1.00  0.00    -0.354 N 
ATOM     55  N   UNL A   1      46.883  27.577  29.924  1.00  0.00    -0.248 NA
ATOM     56  C   UNL A   1      47.119  27.290  27.622  1.00  0.00     0.031 C 
ATOM     57  C   UNL A   1      44.063  23.652  30.623  1.00  0.00     0.029 A 
ATOM     58  C   UNL A   1      45.075  24.388  30.010  1.00  0.00     0.049 A 
ATOM     59  H   UNL A   1      45.729  24.170  28.037  1.00  0.00     0.167 HD
ATOM     60  C   UNL A   1      46.677  26.245  29.635  1.00  0.00     0.074 A 
ATOM     61  C   UNL A   1      47.042  26.105  28.232  1.00  0.00     0.031 C 
ATOM     62  C   UNL A   1      45.920  25.470  30.465  1.00  0.00     0.037 A 
BRANCH  49  63
ATOM     63  C   UNL A   1      44.138  23.284  25.869  1.00  0.00     0.057 A 
ATOM     64  C   UNL A   1      45.116  24.071  25.230  1.00  0.00     0.134 A 
ATOM     65  C   UNL A   1      44.221  21.902  25.602  1.00  0.00     0.134 A 
ATOM     66  F   UNL A   1      45.209  25.393  25.408  1.00  0.00    -0.206 F 
ATOM     67  C   UNL A   1      46.136  23.523  24.445  1.00  0.00     0.040 A 
ATOM     68  C   UNL A   1      45.267  21.340  24.858  1.00  0.00     0.040 A 
ATOM     69  F   UNL A   1      43.348  21.041  26.146  1.00  0.00    -0.206 F 
ATOM     70  C   UNL A   1      46.239  22.151  24.291  1.00  0.00     0.006 A 
ENDBRANCH  49  63
BRANCH  50  71
ATOM     71  C   UNL A   1      47.340  30.612  28.131  1.00  0.00     0.057 A 
ATOM     72  C   UNL A   1      48.244  31.169  29.049  1.00  0.00     0.134 A 
ATOM     73  C   UNL A   1      47.174  31.319  26.927  1.00  0.00     0.134 A 
ATOM     74  F   UNL A   1      48.436  30.608  30.251  1.00  0.00    -0.206 F 
ATOM     75  C   UNL A   1      48.910  32.375  28.805  1.00  0.00     0.040 A 
ATOM     76  C   UNL A   1      47.830  32.530  26.673  1.00  0.00     0.040 A 
ATOM     77  F   UNL A   1      46.314  30.889  25.992  1.00  0.00    -0.206 F 
ATOM     78  C   UNL A   1      48.689  33.071  27.622  1.00  0.00     0.006 A 
ENDBRANCH  50  71
BRANCH  62  79
ATOM     79  C   UNL A   1      45.816  25.908  31.895  1.00  0.00     0.057 A 
ATOM     80  C   UNL A   1      44.690  26.648  32.276  1.00  0.00     0.134 A 
ATOM     81  C   UNL A   1      46.777  25.656  32.884  1.00  0.00     0.134 A 
ATOM     82  F   UNL A   1      43.751  26.968  31.370  1.00  0.00    -0.206 F 
ATOM     83  C   UNL A   1      44.509  27.094  33.585  1.00  0.00     0.040 A 
ATOM     84  C   UNL A   1      46.586  26.061  34.209  1.00  0.00     0.040 A 
ATOM     85  F   UNL A   1      47.930  25.038  32.595  1.00  0.00    -0.206 F 
ATOM     86  C   UNL A   1      45.450  26.783  34.562  1.00  0.00     0.006 A 
ENDBRANCH  62  79
ENDBRANCH  36  37
ENDBRANCH  28  31
ENDBRANCH  26  27
ENDBRANCH  25  26
ENDBRANCH  24  25
ENDBRANCH   1  24
TORSDOF 16
ENDMDL
