MODEL 1
REMARK VINA RESULT:     -11.7      0.000      0.000
REMARK SMILES NC(=O)C1CC[NH+](Cc2ccc(C(=O)NCCCCCCNC(=O)c3ccc(-c4c5nc(c(-c6c(F)cccc6F)c6ccc([nH]6)c(-c6c(F)cccc6F)c6nc(c(-c7c(F)cccc7F)c7ccc4[nH]7)C=C6)C=C5)cc3)cc2)CC1
REMARK SMILES IDX 18 1 17 2 16 3 15 4 13 5 14 6 12 8 9 9 10 10 80 11 11 12
REMARK SMILES IDX 79 13 8 14 7 15 4 16 5 17 82 18 6 19 81 20 2 22 1 23 3 26
REMARK SMILES IDX 19 27 20 28 21 29 22 30 23 31 24 33 25 34 26 35 78 36 27 37
REMARK SMILES IDX 77 38 28 39 29 40 30 41 71 42 31 43 76 44 70 45 72 46 32 47
REMARK SMILES IDX 75 48 69 49 68 50 33 52 59 53 42 54 58 55 43 56 46 57 57 58
REMARK SMILES IDX 73 59 44 60 45 61 56 63 74 64 47 65 34 66 35 67 40 68 36 69
REMARK SMILES IDX 37 70 39 71 41 72 38 73 60 74 61 75 66 76 62 77 63 78 65 79
REMARK SMILES IDX 67 80 64 81 48 82 49 83 54 84 50 85 51 86 53 87 55 88 52 89
REMARK H PARENT 15 7 7 21 1 24 1 25 22 32 72 51 46 62
REMARK Flexibility Score: inf
ROOT
ATOM      1  C   UNL A   1      31.730  30.047  25.296  1.00  0.00     0.002 C 
ENDROOT
BRANCH   1   2
ATOM      2  C   UNL A   1      32.981  29.244  24.909  1.00  0.00     0.021 C 
BRANCH   2   3
ATOM      3  C   UNL A   1      33.162  29.083  23.398  1.00  0.00     0.116 C 
BRANCH   3   4
ATOM      4  N   UNL A   1      31.891  29.253  22.720  1.00  0.00    -0.352 N 
ATOM      5  C   UNL A   1      30.827  28.406  22.550  1.00  0.00     0.251 C 
ATOM      6  O   UNL A   1      29.837  28.816  21.947  1.00  0.00    -0.269 OA
ATOM      7  H   UNL A   1      31.770  30.139  22.307  1.00  0.00     0.163 HD
BRANCH   5   8
ATOM      8  C   UNL A   1      30.804  27.045  23.140  1.00  0.00     0.039 A 
ATOM      9  C   UNL A   1      30.834  24.587  24.507  1.00  0.00     0.006 A 
ATOM     10  C   UNL A   1      30.028  25.643  24.958  1.00  0.00     0.010 A 
ATOM     11  C   UNL A   1      31.531  24.741  23.299  1.00  0.00     0.010 A 
ATOM     12  C   UNL A   1      30.019  26.864  24.284  1.00  0.00     0.014 A 
ATOM     13  C   UNL A   1      31.506  25.959  22.612  1.00  0.00     0.014 A 
BRANCH   9  14
ATOM     14  C   UNL A   1      31.002  23.343  25.362  1.00  0.00     0.299 C 
BRANCH  14  15
ATOM     15  N   UNL A   1      32.171  22.496  25.034  1.00  0.00    -0.331 N 
ATOM     16  C   UNL A   1      33.720  19.999  24.877  1.00  0.00     0.089 C 
ATOM     17  C   UNL A   1      34.048  21.104  25.883  1.00  0.00     0.075 C 
ATOM     18  C   UNL A   1      33.103  20.658  23.635  1.00  0.00     0.075 C 
ATOM     19  C   UNL A   1      32.815  21.944  26.226  1.00  0.00     0.263 C 
ATOM     20  C   UNL A   1      31.867  21.479  24.016  1.00  0.00     0.263 C 
ATOM     21  H   UNL A   1      32.861  23.113  24.607  1.00  0.00     0.348 HD
BRANCH  16  22
ATOM     22  C   UNL A   1      32.799  18.878  25.375  1.00  0.00     0.220 C 
ATOM     23  N   UNL A   1      32.855  18.529  26.688  1.00  0.00    -0.369 N 
ATOM     24  H   UNL A   1      32.274  17.813  27.031  1.00  0.00     0.159 HD
ATOM     25  H   UNL A   1      33.475  18.994  27.295  1.00  0.00     0.159 HD
ATOM     26  O   UNL A   1      32.060  18.242  24.628  1.00  0.00    -0.275 OA
ENDBRANCH  16  22
ENDBRANCH  14  15
ENDBRANCH   9  14
ENDBRANCH   5   8
ENDBRANCH   3   4
ENDBRANCH   2   3
ENDBRANCH   1   2
BRANCH   1  27
ATOM     27  C   UNL A   1      31.720  30.580  26.734  1.00  0.00     0.002 C 
BRANCH  27  28
ATOM     28  C   UNL A   1      31.455  32.083  26.871  1.00  0.00     0.021 C 
BRANCH  28  29
ATOM     29  C   UNL A   1      32.709  32.953  26.886  1.00  0.00     0.116 C 
BRANCH  29  30
ATOM     30  N   UNL A   1      32.513  34.182  27.635  1.00  0.00    -0.352 N 
ATOM     31  C   UNL A   1      33.139  34.618  28.774  1.00  0.00     0.251 C 
ATOM     32  H   UNL A   1      31.829  34.791  27.271  1.00  0.00     0.163 HD
ATOM     33  O   UNL A   1      32.708  35.596  29.376  1.00  0.00    -0.269 OA
BRANCH  31  34
ATOM     34  C   UNL A   1      34.331  33.908  29.289  1.00  0.00     0.039 A 
ATOM     35  C   UNL A   1      34.148  32.852  30.186  1.00  0.00     0.014 A 
ATOM     36  C   UNL A   1      35.622  34.307  28.931  1.00  0.00     0.014 A 
ATOM     37  C   UNL A   1      35.257  32.174  30.697  1.00  0.00     0.010 A 
ATOM     38  C   UNL A   1      36.724  33.590  29.391  1.00  0.00     0.010 A 
ATOM     39  C   UNL A   1      36.553  32.528  30.292  1.00  0.00    -0.014 A 
BRANCH  39  40
ATOM     40  C   UNL A   1      37.742  31.819  30.829  1.00  0.00     0.031 A 
ATOM     41  C   UNL A   1      38.265  32.159  32.199  1.00  0.00     0.074 A 
ATOM     42  C   UNL A   1      38.377  30.906  30.072  1.00  0.00     0.049 A 
ATOM     43  N   UNL A   1      39.315  31.691  32.824  1.00  0.00    -0.248 NA
ATOM     44  C   UNL A   1      37.523  33.181  32.955  1.00  0.00     0.031 C 
ATOM     45  C   UNL A   1      37.996  30.520  28.713  1.00  0.00     0.029 A 
ATOM     46  N   UNL A   1      39.485  30.139  30.338  1.00  0.00    -0.354 N 
ATOM     47  C   UNL A   1      39.370  32.372  34.033  1.00  0.00     0.074 A 
ATOM     48  C   UNL A   1      38.278  33.319  34.036  1.00  0.00     0.031 C 
ATOM     49  C   UNL A   1      38.843  29.575  28.271  1.00  0.00     0.029 A 
ATOM     50  C   UNL A   1      39.840  29.308  29.304  1.00  0.00     0.049 A 
ATOM     51  H   UNL A   1      39.978  30.183  31.189  1.00  0.00     0.167 HD
ATOM     52  C   UNL A   1      40.239  32.207  35.060  1.00  0.00     0.037 A 
ATOM     53  C   UNL A   1      40.854  28.429  29.204  1.00  0.00     0.037 A 
ATOM     54  C   UNL A   1      41.304  31.239  35.072  1.00  0.00     0.049 A 
ATOM     55  C   UNL A   1      41.787  28.243  30.367  1.00  0.00     0.074 A 
ATOM     56  C   UNL A   1      42.207  30.961  36.084  1.00  0.00     0.029 A 
ATOM     57  N   UNL A   1      41.606  30.387  34.021  1.00  0.00    -0.354 N 
ATOM     58  N   UNL A   1      41.793  28.855  31.527  1.00  0.00    -0.248 NA
ATOM     59  C   UNL A   1      42.845  27.235  30.215  1.00  0.00     0.031 C 
ATOM     60  C   UNL A   1      43.072  29.958  35.634  1.00  0.00     0.029 A 
ATOM     61  C   UNL A   1      42.684  29.585  34.358  1.00  0.00     0.049 A 
ATOM     62  H   UNL A   1      41.124  30.355  33.163  1.00  0.00     0.167 HD
ATOM     63  C   UNL A   1      42.830  28.283  32.253  1.00  0.00     0.074 A 
ATOM     64  C   UNL A   1      43.424  27.270  31.407  1.00  0.00     0.031 C 
ATOM     65  C   UNL A   1      43.251  28.570  33.509  1.00  0.00     0.037 A 
BRANCH  52  66
ATOM     66  C   UNL A   1      40.064  33.090  36.261  1.00  0.00     0.057 A 
ATOM     67  C   UNL A   1      39.172  32.766  37.291  1.00  0.00     0.134 A 
ATOM     68  C   UNL A   1      40.819  34.261  36.405  1.00  0.00     0.134 A 
ATOM     69  F   UNL A   1      38.409  31.664  37.208  1.00  0.00    -0.206 F 
ATOM     70  C   UNL A   1      39.016  33.588  38.408  1.00  0.00     0.040 A 
ATOM     71  C   UNL A   1      40.692  35.077  37.530  1.00  0.00     0.040 A 
ATOM     72  F   UNL A   1      41.696  34.627  35.458  1.00  0.00    -0.206 F 
ATOM     73  C   UNL A   1      39.783  34.744  38.533  1.00  0.00     0.006 A 
ENDBRANCH  52  66
BRANCH  53  74
ATOM     74  C   UNL A   1      41.020  27.625  27.967  1.00  0.00     0.057 A 
ATOM     75  C   UNL A   1      41.760  28.113  26.884  1.00  0.00     0.134 A 
ATOM     76  C   UNL A   1      40.435  26.360  27.832  1.00  0.00     0.134 A 
ATOM     77  F   UNL A   1      42.329  29.326  26.949  1.00  0.00    -0.206 F 
ATOM     78  C   UNL A   1      41.897  27.382  25.703  1.00  0.00     0.040 A 
ATOM     79  C   UNL A   1      40.583  25.609  26.665  1.00  0.00     0.040 A 
ATOM     80  F   UNL A   1      39.721  25.833  28.837  1.00  0.00    -0.206 F 
ATOM     81  C   UNL A   1      41.309  26.123  25.593  1.00  0.00     0.006 A 
ENDBRANCH  53  74
BRANCH  65  82
ATOM     82  C   UNL A   1      44.377  27.745  34.058  1.00  0.00     0.057 A 
ATOM     83  C   UNL A   1      45.714  28.145  33.944  1.00  0.00     0.134 A 
ATOM     84  C   UNL A   1      44.114  26.548  34.735  1.00  0.00     0.134 A 
ATOM     85  F   UNL A   1      46.032  29.277  33.297  1.00  0.00    -0.206 F 
ATOM     86  C   UNL A   1      46.752  27.371  34.463  1.00  0.00     0.040 A 
ATOM     87  C   UNL A   1      45.142  25.777  35.280  1.00  0.00     0.040 A 
ATOM     88  F   UNL A   1      42.854  26.112  34.885  1.00  0.00    -0.206 F 
ATOM     89  C   UNL A   1      46.466  26.185  35.138  1.00  0.00     0.006 A 
ENDBRANCH  65  82
ENDBRANCH  39  40
ENDBRANCH  31  34
ENDBRANCH  29  30
ENDBRANCH  28  29
ENDBRANCH  27  28
ENDBRANCH   1  27
TORSDOF 16
ENDMDL
MODEL 2
REMARK VINA RESULT:     -11.6      4.869      8.522
REMARK SMILES NC(=O)C1CC[NH+](Cc2ccc(C(=O)NCCCCCCNC(=O)c3ccc(-c4c5nc(c(-c6c(F)cccc6F)c6ccc([nH]6)c(-c6c(F)cccc6F)c6nc(c(-c7c(F)cccc7F)c7ccc4[nH]7)C=C6)C=C5)cc3)cc2)CC1
REMARK SMILES IDX 18 1 17 2 16 3 15 4 13 5 14 6 12 8 9 9 10 10 80 11 11 12
REMARK SMILES IDX 79 13 8 14 7 15 4 16 5 17 82 18 6 19 81 20 2 22 1 23 3 26
REMARK SMILES IDX 19 27 20 28 21 29 22 30 23 31 24 33 25 34 26 35 78 36 27 37
REMARK SMILES IDX 77 38 28 39 29 40 30 41 71 42 31 43 76 44 70 45 72 46 32 47
REMARK SMILES IDX 75 48 69 49 68 50 33 52 59 53 42 54 58 55 43 56 46 57 57 58
REMARK SMILES IDX 73 59 44 60 45 61 56 63 74 64 47 65 34 66 35 67 40 68 36 69
REMARK SMILES IDX 37 70 39 71 41 72 38 73 60 74 61 75 66 76 62 77 63 78 65 79
REMARK SMILES IDX 67 80 64 81 48 82 49 83 54 84 50 85 51 86 53 87 55 88 52 89
REMARK H PARENT 15 7 7 21 1 24 1 25 22 32 72 51 46 62
REMARK Flexibility Score: inf
ROOT
ATOM      1  C   UNL A   1      37.248  33.114  30.785  1.00  0.00     0.002 C 
ENDROOT
BRANCH   1   2
ATOM      2  C   UNL A   1      37.073  34.275  31.775  1.00  0.00     0.021 C 
BRANCH   2   3
ATOM      3  C   UNL A   1      38.173  34.347  32.836  1.00  0.00     0.116 C 
BRANCH   3   4
ATOM      4  N   UNL A   1      37.657  33.917  34.122  1.00  0.00    -0.352 N 
ATOM      5  C   UNL A   1      37.774  32.732  34.801  1.00  0.00     0.251 C 
ATOM      6  O   UNL A   1      37.254  32.635  35.911  1.00  0.00    -0.269 OA
ATOM      7  H   UNL A   1      37.126  34.599  34.592  1.00  0.00     0.163 HD
BRANCH   5   8
ATOM      8  C   UNL A   1      38.573  31.599  34.273  1.00  0.00     0.039 A 
ATOM      9  C   UNL A   1      39.896  29.278  33.394  1.00  0.00     0.006 A 
ATOM     10  C   UNL A   1      38.548  29.493  33.074  1.00  0.00     0.010 A 
ATOM     11  C   UNL A   1      40.601  30.294  34.058  1.00  0.00     0.010 A 
ATOM     12  C   UNL A   1      37.890  30.641  33.516  1.00  0.00     0.014 A 
ATOM     13  C   UNL A   1      39.946  31.454  34.484  1.00  0.00     0.014 A 
BRANCH   9  14
ATOM     14  C   UNL A   1      40.542  27.936  33.096  1.00  0.00     0.299 C 
BRANCH  14  15
ATOM     15  N   UNL A   1      41.758  27.623  33.881  1.00  0.00    -0.331 N 
ATOM     16  C   UNL A   1      43.983  25.950  34.835  1.00  0.00     0.089 C 
ATOM     17  C   UNL A   1      42.777  26.289  35.714  1.00  0.00     0.075 C 
ATOM     18  C   UNL A   1      44.196  27.113  33.856  1.00  0.00     0.075 C 
ATOM     19  C   UNL A   1      41.528  26.578  34.878  1.00  0.00     0.263 C 
ATOM     20  C   UNL A   1      42.930  27.365  33.031  1.00  0.00     0.263 C 
ATOM     21  H   UNL A   1      41.982  28.466  34.409  1.00  0.00     0.348 HD
BRANCH  16  22
ATOM     22  C   UNL A   1      43.907  24.631  34.057  1.00  0.00     0.220 C 
ATOM     23  N   UNL A   1      43.355  23.549  34.668  1.00  0.00    -0.369 N 
ATOM     24  H   UNL A   1      43.296  22.691  34.188  1.00  0.00     0.159 HD
ATOM     25  H   UNL A   1      43.015  23.623  35.589  1.00  0.00     0.159 HD
ATOM     26  O   UNL A   1      44.377  24.495  32.930  1.00  0.00    -0.275 OA
ENDBRANCH  16  22
ENDBRANCH  14  15
ENDBRANCH   9  14
ENDBRANCH   5   8
ENDBRANCH   3   4
ENDBRANCH   2   3
ENDBRANCH   1   2
BRANCH   1  27
ATOM     27  C   UNL A   1      37.178  33.506  29.305  1.00  0.00     0.002 C 
BRANCH  27  28
ATOM     28  C   UNL A   1      35.788  33.408  28.668  1.00  0.00     0.021 C 
BRANCH  28  29
ATOM     29  C   UNL A   1      34.754  32.663  29.508  1.00  0.00     0.116 C 
BRANCH  29  30
ATOM     30  N   UNL A   1      34.054  31.649  28.739  1.00  0.00    -0.352 N 
ATOM     31  C   UNL A   1      34.548  30.531  28.116  1.00  0.00     0.251 C 
ATOM     32  H   UNL A   1      33.082  31.784  28.652  1.00  0.00     0.163 HD
ATOM     33  O   UNL A   1      33.837  29.891  27.348  1.00  0.00    -0.269 OA
BRANCH  31  34
ATOM     34  C   UNL A   1      35.941  30.097  28.358  1.00  0.00     0.039 A 
ATOM     35  C   UNL A   1      36.275  29.577  29.612  1.00  0.00     0.014 A 
ATOM     36  C   UNL A   1      36.926  30.243  27.377  1.00  0.00     0.014 A 
ATOM     37  C   UNL A   1      37.587  29.173  29.870  1.00  0.00     0.010 A 
ATOM     38  C   UNL A   1      38.219  29.781  27.614  1.00  0.00     0.010 A 
ATOM     39  C   UNL A   1      38.565  29.257  28.868  1.00  0.00    -0.014 A 
BRANCH  39  40
ATOM     40  C   UNL A   1      39.965  28.836  29.129  1.00  0.00     0.031 A 
ATOM     41  C   UNL A   1      40.908  29.761  29.849  1.00  0.00     0.074 A 
ATOM     42  C   UNL A   1      40.400  27.644  28.680  1.00  0.00     0.049 A 
ATOM     43  N   UNL A   1      42.177  29.598  30.127  1.00  0.00    -0.248 NA
ATOM     44  C   UNL A   1      40.358  31.053  30.292  1.00  0.00     0.031 C 
ATOM     45  C   UNL A   1      39.598  26.676  27.931  1.00  0.00     0.029 A 
ATOM     46  N   UNL A   1      41.632  27.045  28.785  1.00  0.00    -0.354 N 
ATOM     47  C   UNL A   1      42.579  30.769  30.758  1.00  0.00     0.074 A 
ATOM     48  C   UNL A   1      41.435  31.653  30.779  1.00  0.00     0.031 C 
ATOM     49  C   UNL A   1      40.350  25.596  27.662  1.00  0.00     0.029 A 
ATOM     50  C   UNL A   1      41.693  25.807  28.194  1.00  0.00     0.049 A 
ATOM     51  H   UNL A   1      42.397  27.465  29.240  1.00  0.00     0.167 HD
ATOM     52  C   UNL A   1      43.787  31.072  31.293  1.00  0.00     0.037 A 
ATOM     53  C   UNL A   1      42.718  24.940  28.098  1.00  0.00     0.037 A 
ATOM     54  C   UNL A   1      44.914  30.178  31.303  1.00  0.00     0.049 A 
ATOM     55  C   UNL A   1      44.039  25.287  28.724  1.00  0.00     0.074 A 
ATOM     56  C   UNL A   1      46.165  30.373  31.864  1.00  0.00     0.029 A 
ATOM     57  N   UNL A   1      44.924  28.915  30.731  1.00  0.00    -0.354 N 
ATOM     58  N   UNL A   1      44.390  26.375  29.366  1.00  0.00    -0.248 NA
ATOM     59  C   UNL A   1      45.105  24.279  28.625  1.00  0.00     0.031 C 
ATOM     60  C   UNL A   1      46.941  29.238  31.605  1.00  0.00     0.029 A 
ATOM     61  C   UNL A   1      46.161  28.321  30.919  1.00  0.00     0.049 A 
ATOM     62  H   UNL A   1      44.164  28.502  30.261  1.00  0.00     0.167 HD
ATOM     63  C   UNL A   1      45.701  26.170  29.776  1.00  0.00     0.074 A 
ATOM     64  C   UNL A   1      46.080  24.850  29.319  1.00  0.00     0.031 C 
ATOM     65  C   UNL A   1      46.515  27.000  30.472  1.00  0.00     0.037 A 
BRANCH  52  66
ATOM     66  C   UNL A   1      43.944  32.426  31.919  1.00  0.00     0.057 A 
ATOM     67  C   UNL A   1      44.206  33.568  31.151  1.00  0.00     0.134 A 
ATOM     68  C   UNL A   1      43.801  32.596  33.302  1.00  0.00     0.134 A 
ATOM     69  F   UNL A   1      44.367  33.471  29.822  1.00  0.00    -0.206 F 
ATOM     70  C   UNL A   1      44.346  34.827  31.738  1.00  0.00     0.040 A 
ATOM     71  C   UNL A   1      43.913  33.854  33.897  1.00  0.00     0.040 A 
ATOM     72  F   UNL A   1      43.545  31.545  34.096  1.00  0.00    -0.206 F 
ATOM     73  C   UNL A   1      44.193  34.973  33.115  1.00  0.00     0.006 A 
ENDBRANCH  52  66
BRANCH  53  74
ATOM     74  C   UNL A   1      42.526  23.638  27.411  1.00  0.00     0.057 A 
ATOM     75  C   UNL A   1      42.124  22.501  28.123  1.00  0.00     0.134 A 
ATOM     76  C   UNL A   1      42.749  23.495  26.037  1.00  0.00     0.134 A 
ATOM     77  F   UNL A   1      41.912  22.573  29.444  1.00  0.00    -0.206 F 
ATOM     78  C   UNL A   1      41.971  21.263  27.496  1.00  0.00     0.040 A 
ATOM     79  C   UNL A   1      42.579  22.267  25.394  1.00  0.00     0.040 A 
ATOM     80  F   UNL A   1      43.128  24.548  25.298  1.00  0.00    -0.206 F 
ATOM     81  C   UNL A   1      42.196  21.145  26.126  1.00  0.00     0.006 A 
ENDBRANCH  53  74
BRANCH  65  82
ATOM     82  C   UNL A   1      47.881  26.484  30.820  1.00  0.00     0.057 A 
ATOM     83  C   UNL A   1      48.134  25.804  32.017  1.00  0.00     0.134 A 
ATOM     84  C   UNL A   1      48.949  26.648  29.928  1.00  0.00     0.134 A 
ATOM     85  F   UNL A   1      47.155  25.625  32.917  1.00  0.00    -0.206 F 
ATOM     86  C   UNL A   1      49.407  25.325  32.327  1.00  0.00     0.040 A 
ATOM     87  C   UNL A   1      50.220  26.152  30.216  1.00  0.00     0.040 A 
ATOM     88  F   UNL A   1      48.771  27.284  28.761  1.00  0.00    -0.206 F 
ATOM     89  C   UNL A   1      50.454  25.495  31.422  1.00  0.00     0.006 A 
ENDBRANCH  65  82
ENDBRANCH  39  40
ENDBRANCH  31  34
ENDBRANCH  29  30
ENDBRANCH  28  29
ENDBRANCH  27  28
ENDBRANCH   1  27
TORSDOF 16
ENDMDL
MODEL 3
REMARK VINA RESULT:     -11.5      4.152      9.762
REMARK SMILES NC(=O)C1CC[NH+](Cc2ccc(C(=O)NCCCCCCNC(=O)c3ccc(-c4c5nc(c(-c6c(F)cccc6F)c6ccc([nH]6)c(-c6c(F)cccc6F)c6nc(c(-c7c(F)cccc7F)c7ccc4[nH]7)C=C6)C=C5)cc3)cc2)CC1
REMARK SMILES IDX 18 1 17 2 16 3 15 4 13 5 14 6 12 8 9 9 10 10 80 11 11 12
REMARK SMILES IDX 79 13 8 14 7 15 4 16 5 17 82 18 6 19 81 20 2 22 1 23 3 26
REMARK SMILES IDX 19 27 20 28 21 29 22 30 23 31 24 33 25 34 26 35 78 36 27 37
REMARK SMILES IDX 77 38 28 39 29 40 30 41 71 42 31 43 76 44 70 45 72 46 32 47
REMARK SMILES IDX 75 48 69 49 68 50 33 52 59 53 42 54 58 55 43 56 46 57 57 58
REMARK SMILES IDX 73 59 44 60 45 61 56 63 74 64 47 65 34 66 35 67 40 68 36 69
REMARK SMILES IDX 37 70 39 71 41 72 38 73 60 74 61 75 66 76 62 77 63 78 65 79
REMARK SMILES IDX 67 80 64 81 48 82 49 83 54 84 50 85 51 86 53 87 55 88 52 89
REMARK H PARENT 15 7 7 21 1 24 1 25 22 32 72 51 46 62
REMARK Flexibility Score: inf
ROOT
ATOM      1  C   UNL A   1      35.926  20.740  25.099  1.00  0.00     0.002 C 
ENDROOT
BRANCH   1   2
ATOM      2  C   UNL A   1      35.519  21.842  26.088  1.00  0.00     0.021 C 
BRANCH   2   3
ATOM      3  C   UNL A   1      34.319  21.469  26.961  1.00  0.00     0.116 C 
BRANCH   3   4
ATOM      4  N   UNL A   1      33.585  20.371  26.362  1.00  0.00    -0.352 N 
ATOM      5  C   UNL A   1      32.605  20.343  25.403  1.00  0.00     0.251 C 
ATOM      6  O   UNL A   1      32.161  19.255  25.044  1.00  0.00    -0.269 OA
ATOM      7  H   UNL A   1      33.835  19.483  26.706  1.00  0.00     0.163 HD
BRANCH   5   8
ATOM      8  C   UNL A   1      32.127  21.578  24.734  1.00  0.00     0.039 A 
ATOM      9  C   UNL A   1      31.494  24.003  23.458  1.00  0.00     0.006 A 
ATOM     10  C   UNL A   1      32.425  23.122  22.890  1.00  0.00     0.010 A 
ATOM     11  C   UNL A   1      30.801  23.599  24.609  1.00  0.00     0.010 A 
ATOM     12  C   UNL A   1      32.744  21.922  23.526  1.00  0.00     0.014 A 
ATOM     13  C   UNL A   1      31.105  22.387  25.237  1.00  0.00     0.014 A 
BRANCH   9  14
ATOM     14  C   UNL A   1      31.313  25.394  22.876  1.00  0.00     0.299 C 
BRANCH  14  15
ATOM     15  N   UNL A   1      32.316  26.399  23.296  1.00  0.00    -0.331 N 
ATOM     16  C   UNL A   1      33.287  28.815  24.667  1.00  0.00     0.089 C 
ATOM     17  C   UNL A   1      33.108  28.750  23.148  1.00  0.00     0.075 C 
ATOM     18  C   UNL A   1      33.623  27.402  25.164  1.00  0.00     0.075 C 
ATOM     19  C   UNL A   1      32.045  27.727  22.745  1.00  0.00     0.263 C 
ATOM     20  C   UNL A   1      32.532  26.409  24.751  1.00  0.00     0.263 C 
ATOM     21  H   UNL A   1      33.203  26.105  22.889  1.00  0.00     0.348 HD
BRANCH  16  22
ATOM     22  C   UNL A   1      32.104  29.373  25.466  1.00  0.00     0.220 C 
ATOM     23  N   UNL A   1      31.359  30.368  24.914  1.00  0.00    -0.369 N 
ATOM     24  H   UNL A   1      30.595  30.742  25.408  1.00  0.00     0.159 HD
ATOM     25  H   UNL A   1      31.584  30.713  24.019  1.00  0.00     0.159 HD
ATOM     26  O   UNL A   1      31.837  29.003  26.607  1.00  0.00    -0.275 OA
ENDBRANCH  16  22
ENDBRANCH  14  15
ENDBRANCH   9  14
ENDBRANCH   5   8
ENDBRANCH   3   4
ENDBRANCH   2   3
ENDBRANCH   1   2
BRANCH   1  27
ATOM     27  C   UNL A   1      37.354  20.852  24.553  1.00  0.00     0.002 C 
BRANCH  27  28
ATOM     28  C   UNL A   1      38.257  19.646  24.834  1.00  0.00     0.021 C 
BRANCH  28  29
ATOM     29  C   UNL A   1      39.180  19.807  26.038  1.00  0.00     0.116 C 
BRANCH  29  30
ATOM     30  N   UNL A   1      40.416  19.060  25.882  1.00  0.00    -0.352 N 
ATOM     31  C   UNL A   1      41.715  19.498  25.954  1.00  0.00     0.251 C 
ATOM     32  H   UNL A   1      40.307  18.099  25.698  1.00  0.00     0.163 HD
ATOM     33  O   UNL A   1      42.631  18.763  25.604  1.00  0.00    -0.269 OA
BRANCH  31  34
ATOM     34  C   UNL A   1      42.016  20.862  26.443  1.00  0.00     0.039 A 
ATOM     35  C   UNL A   1      42.288  21.866  25.510  1.00  0.00     0.014 A 
ATOM     36  C   UNL A   1      42.078  21.143  27.811  1.00  0.00     0.014 A 
ATOM     37  C   UNL A   1      42.588  23.158  25.946  1.00  0.00     0.010 A 
ATOM     38  C   UNL A   1      42.315  22.446  28.244  1.00  0.00     0.010 A 
ATOM     39  C   UNL A   1      42.589  23.462  27.316  1.00  0.00    -0.014 A 
BRANCH  39  40
ATOM     40  C   UNL A   1      42.911  24.830  27.796  1.00  0.00     0.031 A 
ATOM     41  C   UNL A   1      44.346  25.250  27.962  1.00  0.00     0.074 A 
ATOM     42  C   UNL A   1      41.917  25.676  28.124  1.00  0.00     0.049 A 
ATOM     43  N   UNL A   1      44.831  26.379  28.414  1.00  0.00    -0.248 NA
ATOM     44  C   UNL A   1      45.372  24.260  27.598  1.00  0.00     0.031 C 
ATOM     45  C   UNL A   1      40.487  25.373  28.050  1.00  0.00     0.029 A 
ATOM     46  N   UNL A   1      41.961  26.965  28.593  1.00  0.00    -0.354 N 
ATOM     47  C   UNL A   1      46.212  26.228  28.405  1.00  0.00     0.074 A 
ATOM     48  C   UNL A   1      46.488  24.884  27.950  1.00  0.00     0.031 C 
ATOM     49  C   UNL A   1      39.789  26.452  28.439  1.00  0.00     0.029 A 
ATOM     50  C   UNL A   1      40.720  27.512  28.815  1.00  0.00     0.049 A 
ATOM     51  H   UNL A   1      42.801  27.451  28.756  1.00  0.00     0.167 HD
ATOM     52  C   UNL A   1      47.166  27.136  28.725  1.00  0.00     0.037 A 
ATOM     53  C   UNL A   1      40.376  28.732  29.268  1.00  0.00     0.037 A 
ATOM     54  C   UNL A   1      46.892  28.485  29.144  1.00  0.00     0.049 A 
ATOM     55  C   UNL A   1      41.452  29.730  29.588  1.00  0.00     0.074 A 
ATOM     56  C   UNL A   1      47.790  29.496  29.442  1.00  0.00     0.029 A 
ATOM     57  N   UNL A   1      45.622  29.014  29.316  1.00  0.00    -0.354 N 
ATOM     58  N   UNL A   1      42.754  29.592  29.522  1.00  0.00    -0.248 NA
ATOM     59  C   UNL A   1      41.011  31.061  30.033  1.00  0.00     0.031 C 
ATOM     60  C   UNL A   1      47.062  30.628  29.823  1.00  0.00     0.029 A 
ATOM     61  C   UNL A   1      45.711  30.335  29.723  1.00  0.00     0.049 A 
ATOM     62  H   UNL A   1      44.781  28.523  29.170  1.00  0.00     0.167 HD
ATOM     63  C   UNL A   1      43.286  30.823  29.883  1.00  0.00     0.074 A 
ATOM     64  C   UNL A   1      42.166  31.699  30.157  1.00  0.00     0.031 C 
ATOM     65  C   UNL A   1      44.586  31.196  29.975  1.00  0.00     0.037 A 
BRANCH  52  66
ATOM     66  C   UNL A   1      48.598  26.697  28.625  1.00  0.00     0.057 A 
ATOM     67  C   UNL A   1      49.271  26.123  29.710  1.00  0.00     0.134 A 
ATOM     68  C   UNL A   1      49.301  26.821  27.420  1.00  0.00     0.134 A 
ATOM     69  F   UNL A   1      48.658  25.989  30.896  1.00  0.00    -0.206 F 
ATOM     70  C   UNL A   1      50.601  25.712  29.610  1.00  0.00     0.040 A 
ATOM     71  C   UNL A   1      50.623  26.389  27.300  1.00  0.00     0.040 A 
ATOM     72  F   UNL A   1      48.714  27.357  26.339  1.00  0.00    -0.206 F 
ATOM     73  C   UNL A   1      51.279  25.838  28.399  1.00  0.00     0.006 A 
ENDBRANCH  52  66
BRANCH  53  74
ATOM     74  C   UNL A   1      38.943  29.094  29.409  1.00  0.00     0.057 A 
ATOM     75  C   UNL A   1      38.233  29.653  28.339  1.00  0.00     0.134 A 
ATOM     76  C   UNL A   1      38.254  28.902  30.612  1.00  0.00     0.134 A 
ATOM     77  F   UNL A   1      38.844  29.876  27.167  1.00  0.00    -0.206 F 
ATOM     78  C   UNL A   1      36.895  30.028  28.467  1.00  0.00     0.040 A 
ATOM     79  C   UNL A   1      36.910  29.252  30.747  1.00  0.00     0.040 A 
ATOM     80  F   UNL A   1      38.877  28.363  31.670  1.00  0.00    -0.206 F 
ATOM     81  C   UNL A   1      36.228  29.824  29.674  1.00  0.00     0.006 A 
ENDBRANCH  53  74
BRANCH  65  82
ATOM     82  C   UNL A   1      44.864  32.624  30.344  1.00  0.00     0.057 A 
ATOM     83  C   UNL A   1      45.054  33.022  31.672  1.00  0.00     0.134 A 
ATOM     84  C   UNL A   1      44.970  33.605  29.350  1.00  0.00     0.134 A 
ATOM     85  F   UNL A   1      44.953  32.131  32.671  1.00  0.00    -0.206 F 
ATOM     86  C   UNL A   1      45.316  34.353  32.003  1.00  0.00     0.040 A 
ATOM     87  C   UNL A   1      45.255  34.933  29.666  1.00  0.00     0.040 A 
ATOM     88  F   UNL A   1      44.806  33.286  28.057  1.00  0.00    -0.206 F 
ATOM     89  C   UNL A   1      45.422  35.312  30.996  1.00  0.00     0.006 A 
ENDBRANCH  65  82
ENDBRANCH  39  40
ENDBRANCH  31  34
ENDBRANCH  29  30
ENDBRANCH  28  29
ENDBRANCH  27  28
ENDBRANCH   1  27
TORSDOF 16
ENDMDL
