MODEL 1
REMARK VINA RESULT:      -8.9      0.000      0.000
REMARK SMILES CCCCCCNC(=O)Oc1cccc(-c2ccc([C@@H](C)C(=O)NCCCCCCNC(=O)c3ccc(-c4c5nc(c(-c6c(F)cccc6F)c6ccc([nH]6)c(-c6c(F)cccc6F)c6nc(c(-c7c(F)cccc7F)c7ccc4[nH]7)C=C6)C=C5)cc3)cc2C)c1
REMARK SMILES IDX 22 1 23 2 24 3 20 5 21 6 19 7 16 8 17 9 89 10 18 11 88 12
REMARK SMILES IDX 90 13 15 14 11 15 12 16 91 17 13 18 14 19 10 20 8 21 7 22
REMARK SMILES IDX 9 24 6 25 5 26 4 27 3 28 2 29 1 30 25 31 26 32 27 33 28 34
REMARK SMILES IDX 29 35 30 36 31 37 32 38 33 40 34 41 35 42 87 43 36 44 86 45
REMARK SMILES IDX 37 46 38 47 39 48 80 49 40 50 85 51 79 52 81 53 41 54 84 55
REMARK SMILES IDX 78 56 77 57 42 59 68 60 51 61 67 62 52 63 55 64 66 65 82 66
REMARK SMILES IDX 53 67 54 68 65 70 83 71 56 72 43 73 44 74 49 75 45 76 46 77
REMARK SMILES IDX 48 78 50 79 47 80 69 81 70 82 75 83 71 84 72 85 74 86 76 87
REMARK SMILES IDX 73 88 57 89 58 90 63 91 59 92 60 93 62 94 64 95 61 96
REMARK H PARENT 24 4 7 23 31 39 81 58 55 69
REMARK Flexibility Score: inf
ROOT
ATOM      1  C   UNL A   1      42.785  37.894  27.715  1.00  0.00     0.227 C 
ATOM      2  O   UNL A   1      42.073  38.256  26.769  1.00  0.00    -0.274 OA
ATOM      3  N   UNL A   1      43.169  38.871  28.582  1.00  0.00    -0.356 N 
ATOM      4  H   UNL A   1      42.767  39.750  28.401  1.00  0.00     0.163 HD
ENDROOT
BRANCH   1   5
ATOM      5  C   UNL A   1      43.159  36.413  27.867  1.00  0.00     0.105 C 
ATOM      6  C   UNL A   1      43.519  35.715  26.556  1.00  0.00     0.023 C 
BRANCH   5   7
ATOM      7  C   UNL A   1      42.241  35.632  28.795  1.00  0.00    -0.036 A 
ATOM      8  C   UNL A   1      40.541  34.303  30.679  1.00  0.00    -0.015 A 
ATOM      9  C   UNL A   1      40.080  34.718  29.417  1.00  0.00     0.009 A 
ATOM     10  C   UNL A   1      41.914  34.485  30.954  1.00  0.00    -0.043 A 
ATOM     11  C   UNL A   1      40.920  35.326  28.480  1.00  0.00     0.005 A 
ATOM     12  C   UNL A   1      42.724  35.191  30.036  1.00  0.00     0.008 A 
ATOM     13  C   UNL A   1      42.604  33.945  32.180  1.00  0.00     0.045 C 
BRANCH   8  14
ATOM     14  C   UNL A   1      39.572  33.710  31.627  1.00  0.00    -0.014 A 
ATOM     15  C   UNL A   1      37.907  33.922  33.385  1.00  0.00     0.133 A 
ATOM     16  C   UNL A   1      37.715  32.545  33.417  1.00  0.00     0.047 A 
ATOM     17  C   UNL A   1      38.808  34.509  32.496  1.00  0.00     0.056 A 
ATOM     18  C   UNL A   1      38.434  31.740  32.541  1.00  0.00     0.004 A 
ATOM     19  C   UNL A   1      39.360  32.317  31.666  1.00  0.00     0.009 A 
BRANCH  15  20
ATOM     20  O   UNL A   1      37.272  34.666  34.396  1.00  0.00    -0.410 OA
BRANCH  20  21
ATOM     21  C   UNL A   1      36.309  34.064  35.191  1.00  0.00     0.412 C 
ATOM     22  N   UNL A   1      35.034  34.357  34.789  1.00  0.00    -0.321 N 
ATOM     23  H   UNL A   1      34.303  33.975  35.329  1.00  0.00     0.167 HD
ATOM     24  O   UNL A   1      36.520  33.352  36.163  1.00  0.00    -0.224 OA
BRANCH  22  25
ATOM     25  C   UNL A   1      34.646  35.170  33.652  1.00  0.00     0.119 C 
BRANCH  25  26
ATOM     26  C   UNL A   1      33.971  34.343  32.559  1.00  0.00     0.021 C 
BRANCH  26  27
ATOM     27  C   UNL A   1      34.301  34.777  31.125  1.00  0.00     0.002 C 
BRANCH  27  28
ATOM     28  C   UNL A   1      34.403  33.642  30.099  1.00  0.00    -0.000 C 
BRANCH  28  29
ATOM     29  C   UNL A   1      35.732  32.882  30.087  1.00  0.00    -0.003 C 
ATOM     30  C   UNL A   1      36.780  33.516  29.185  1.00  0.00     0.004 C 
ENDBRANCH  28  29
ENDBRANCH  27  28
ENDBRANCH  26  27
ENDBRANCH  25  26
ENDBRANCH  22  25
ENDBRANCH  20  21
ENDBRANCH  15  20
ENDBRANCH   8  14
ENDBRANCH   5   7
ENDBRANCH   1   5
BRANCH   3  31
ATOM     31  C   UNL A   1      44.060  38.850  29.722  1.00  0.00     0.116 C 
BRANCH  31  32
ATOM     32  C   UNL A   1      43.692  39.928  30.744  1.00  0.00     0.021 C 
BRANCH  32  33
ATOM     33  C   UNL A   1      43.677  39.430  32.193  1.00  0.00     0.002 C 
BRANCH  33  34
ATOM     34  C   UNL A   1      43.738  37.907  32.358  1.00  0.00     0.002 C 
BRANCH  34  35
ATOM     35  C   UNL A   1      44.898  37.380  33.210  1.00  0.00     0.021 C 
BRANCH  35  36
ATOM     36  C   UNL A   1      45.688  36.235  32.581  1.00  0.00     0.116 C 
BRANCH  36  37
ATOM     37  N   UNL A   1      46.502  36.691  31.464  1.00  0.00    -0.352 N 
ATOM     38  C   UNL A   1      46.980  35.996  30.383  1.00  0.00     0.251 C 
ATOM     39  H   UNL A   1      46.746  37.643  31.488  1.00  0.00     0.163 HD
ATOM     40  O   UNL A   1      47.842  36.495  29.665  1.00  0.00    -0.269 OA
BRANCH  38  41
ATOM     41  C   UNL A   1      46.469  34.641  30.078  1.00  0.00     0.039 A 
ATOM     42  C   UNL A   1      46.095  34.343  28.764  1.00  0.00     0.014 A 
ATOM     43  C   UNL A   1      46.314  33.685  31.086  1.00  0.00     0.014 A 
ATOM     44  C   UNL A   1      45.613  33.070  28.453  1.00  0.00     0.010 A 
ATOM     45  C   UNL A   1      45.894  32.397  30.762  1.00  0.00     0.010 A 
ATOM     46  C   UNL A   1      45.534  32.078  29.444  1.00  0.00    -0.014 A 
BRANCH  46  47
ATOM     47  C   UNL A   1      45.075  30.705  29.117  1.00  0.00     0.031 A 
ATOM     48  C   UNL A   1      46.061  29.657  28.681  1.00  0.00     0.074 A 
ATOM     49  C   UNL A   1      43.760  30.418  29.157  1.00  0.00     0.049 A 
ATOM     50  N   UNL A   1      45.844  28.423  28.304  1.00  0.00    -0.248 NA
ATOM     51  C   UNL A   1      47.477  30.057  28.640  1.00  0.00     0.031 C 
ATOM     52  C   UNL A   1      42.699  31.360  29.517  1.00  0.00     0.029 A 
ATOM     53  N   UNL A   1      43.090  29.253  28.881  1.00  0.00    -0.354 N 
ATOM     54  C   UNL A   1      47.088  27.905  27.969  1.00  0.00     0.074 A 
ATOM     55  C   UNL A   1      48.049  28.973  28.139  1.00  0.00     0.031 C 
ATOM     56  C   UNL A   1      41.515  30.730  29.463  1.00  0.00     0.029 A 
ATOM     57  C   UNL A   1      41.728  29.352  29.033  1.00  0.00     0.049 A 
ATOM     58  H   UNL A   1      43.542  28.424  28.602  1.00  0.00     0.167 HD
ATOM     59  C   UNL A   1      47.404  26.649  27.575  1.00  0.00     0.037 A 
ATOM     60  C   UNL A   1      40.761  28.435  28.843  1.00  0.00     0.037 A 
ATOM     61  C   UNL A   1      46.450  25.580  27.430  1.00  0.00     0.049 A 
ATOM     62  C   UNL A   1      41.138  27.047  28.410  1.00  0.00     0.074 A 
ATOM     63  C   UNL A   1      46.680  24.257  27.095  1.00  0.00     0.029 A 
ATOM     64  N   UNL A   1      45.082  25.716  27.610  1.00  0.00    -0.354 N 
ATOM     65  N   UNL A   1      42.326  26.553  28.159  1.00  0.00    -0.248 NA
ATOM     66  C   UNL A   1      40.039  26.086  28.239  1.00  0.00     0.031 C 
ATOM     67  C   UNL A   1      45.446  23.600  27.034  1.00  0.00     0.029 A 
ATOM     68  C   UNL A   1      44.452  24.504  27.373  1.00  0.00     0.049 A 
ATOM     69  H   UNL A   1      44.625  26.549  27.866  1.00  0.00     0.167 HD
ATOM     70  C   UNL A   1      42.122  25.220  27.827  1.00  0.00     0.074 A 
ATOM     71  C   UNL A   1      40.697  24.979  27.922  1.00  0.00     0.031 C 
ATOM     72  C   UNL A   1      43.032  24.281  27.475  1.00  0.00     0.037 A 
BRANCH  59  73
ATOM     73  C   UNL A   1      48.847  26.361  27.277  1.00  0.00     0.057 A 
ATOM     74  C   UNL A   1      49.380  26.520  25.990  1.00  0.00     0.134 A 
ATOM     75  C   UNL A   1      49.721  25.947  28.290  1.00  0.00     0.134 A 
ATOM     76  F   UNL A   1      48.595  26.903  24.972  1.00  0.00    -0.206 F 
ATOM     77  C   UNL A   1      50.723  26.253  25.717  1.00  0.00     0.040 A 
ATOM     78  C   UNL A   1      51.071  25.702  28.035  1.00  0.00     0.040 A 
ATOM     79  F   UNL A   1      49.279  25.781  29.545  1.00  0.00    -0.206 F 
ATOM     80  C   UNL A   1      51.574  25.847  26.743  1.00  0.00     0.006 A 
ENDBRANCH  59  73
BRANCH  60  81
ATOM     81  C   UNL A   1      39.343  28.794  29.091  1.00  0.00     0.057 A 
ATOM     82  C   UNL A   1      38.549  29.337  28.074  1.00  0.00     0.134 A 
ATOM     83  C   UNL A   1      38.747  28.604  30.343  1.00  0.00     0.134 A 
ATOM     84  F   UNL A   1      39.070  29.559  26.858  1.00  0.00    -0.206 F 
ATOM     85  C   UNL A   1      37.219  29.694  28.297  1.00  0.00     0.040 A 
ATOM     86  C   UNL A   1      37.411  28.935  30.574  1.00  0.00     0.040 A 
ATOM     87  F   UNL A   1      39.453  28.079  31.356  1.00  0.00    -0.206 F 
ATOM     88  C   UNL A   1      36.645  29.489  29.550  1.00  0.00     0.006 A 
ENDBRANCH  60  81
BRANCH  72  89
ATOM     89  C   UNL A   1      42.516  22.900  27.193  1.00  0.00     0.057 A 
ATOM     90  C   UNL A   1      42.125  22.034  28.221  1.00  0.00     0.134 A 
ATOM     91  C   UNL A   1      42.382  22.445  25.875  1.00  0.00     0.134 A 
ATOM     92  F   UNL A   1      42.242  22.405  29.504  1.00  0.00    -0.206 F 
ATOM     93  C   UNL A   1      41.640  20.754  27.949  1.00  0.00     0.040 A 
ATOM     94  C   UNL A   1      41.875  21.177  25.589  1.00  0.00     0.040 A 
ATOM     95  F   UNL A   1      42.732  23.230  24.844  1.00  0.00    -0.206 F 
ATOM     96  C   UNL A   1      41.509  20.325  26.629  1.00  0.00     0.006 A 
ENDBRANCH  72  89
ENDBRANCH  46  47
ENDBRANCH  38  41
ENDBRANCH  36  37
ENDBRANCH  35  36
ENDBRANCH  34  35
ENDBRANCH  33  34
ENDBRANCH  32  33
ENDBRANCH  31  32
ENDBRANCH   3  31
TORSDOF 22
ENDMDL
MODEL 2
REMARK VINA RESULT:      -8.8      0.306      5.820
REMARK SMILES CCCCCCNC(=O)Oc1cccc(-c2ccc([C@@H](C)C(=O)NCCCCCCNC(=O)c3ccc(-c4c5nc(c(-c6c(F)cccc6F)c6ccc([nH]6)c(-c6c(F)cccc6F)c6nc(c(-c7c(F)cccc7F)c7ccc4[nH]7)C=C6)C=C5)cc3)cc2C)c1
REMARK SMILES IDX 22 1 23 2 24 3 20 5 21 6 19 7 16 8 17 9 89 10 18 11 88 12
REMARK SMILES IDX 90 13 15 14 11 15 12 16 91 17 13 18 14 19 10 20 8 21 7 22
REMARK SMILES IDX 9 24 6 25 5 26 4 27 3 28 2 29 1 30 25 31 26 32 27 33 28 34
REMARK SMILES IDX 29 35 30 36 31 37 32 38 33 40 34 41 35 42 87 43 36 44 86 45
REMARK SMILES IDX 37 46 38 47 39 48 80 49 40 50 85 51 79 52 81 53 41 54 84 55
REMARK SMILES IDX 78 56 77 57 42 59 68 60 51 61 67 62 52 63 55 64 66 65 82 66
REMARK SMILES IDX 53 67 54 68 65 70 83 71 56 72 43 73 44 74 49 75 45 76 46 77
REMARK SMILES IDX 48 78 50 79 47 80 69 81 70 82 75 83 71 84 72 85 74 86 76 87
REMARK SMILES IDX 73 88 57 89 58 90 63 91 59 92 60 93 62 94 64 95 61 96
REMARK H PARENT 24 4 7 23 31 39 81 58 55 69
REMARK Flexibility Score: inf
ROOT
ATOM      1  C   UNL A   1      42.704  37.911  27.684  1.00  0.00     0.227 C 
ATOM      2  O   UNL A   1      41.990  38.302  26.752  1.00  0.00    -0.274 OA
ATOM      3  N   UNL A   1      43.124  38.867  28.558  1.00  0.00    -0.356 N 
ATOM      4  H   UNL A   1      42.743  39.758  28.393  1.00  0.00     0.163 HD
ENDROOT
BRANCH   1   5
ATOM      5  C   UNL A   1      43.042  36.419  27.815  1.00  0.00     0.105 C 
ATOM      6  C   UNL A   1      43.367  35.729  26.490  1.00  0.00     0.023 C 
BRANCH   5   7
ATOM      7  C   UNL A   1      42.117  35.650  28.744  1.00  0.00    -0.036 A 
ATOM      8  C   UNL A   1      40.404  34.344  30.633  1.00  0.00    -0.015 A 
ATOM      9  C   UNL A   1      39.947  34.758  29.368  1.00  0.00     0.009 A 
ATOM     10  C   UNL A   1      41.778  34.516  30.909  1.00  0.00    -0.043 A 
ATOM     11  C   UNL A   1      40.793  35.354  28.429  1.00  0.00     0.005 A 
ATOM     12  C   UNL A   1      42.595  35.211  29.988  1.00  0.00     0.008 A 
ATOM     13  C   UNL A   1      42.461  33.976  32.138  1.00  0.00     0.045 C 
BRANCH   8  14
ATOM     14  C   UNL A   1      39.428  33.764  31.582  1.00  0.00    -0.014 A 
ATOM     15  C   UNL A   1      37.721  34.002  33.296  1.00  0.00     0.133 A 
ATOM     16  C   UNL A   1      37.561  32.622  33.376  1.00  0.00     0.047 A 
ATOM     17  C   UNL A   1      38.627  34.576  32.404  1.00  0.00     0.056 A 
ATOM     18  C   UNL A   1      38.318  31.802  32.547  1.00  0.00     0.004 A 
ATOM     19  C   UNL A   1      39.249  32.369  31.670  1.00  0.00     0.009 A 
BRANCH  15  20
ATOM     20  O   UNL A   1      37.047  34.767  34.264  1.00  0.00    -0.410 OA
BRANCH  20  21
ATOM     21  C   UNL A   1      36.047  34.185  35.028  1.00  0.00     0.412 C 
ATOM     22  N   UNL A   1      34.791  34.539  34.614  1.00  0.00    -0.321 N 
ATOM     23  H   UNL A   1      34.037  34.174  35.132  1.00  0.00     0.167 HD
ATOM     24  O   UNL A   1      36.213  33.440  35.984  1.00  0.00    -0.224 OA
BRANCH  22  25
ATOM     25  C   UNL A   1      34.456  35.397  33.493  1.00  0.00     0.119 C 
BRANCH  25  26
ATOM     26  C   UNL A   1      33.740  34.632  32.380  1.00  0.00     0.021 C 
BRANCH  26  27
ATOM     27  C   UNL A   1      34.024  35.141  30.961  1.00  0.00     0.002 C 
BRANCH  27  28
ATOM     28  C   UNL A   1      34.027  34.070  29.864  1.00  0.00    -0.000 C 
BRANCH  28  29
ATOM     29  C   UNL A   1      35.175  33.060  29.933  1.00  0.00    -0.003 C 
ATOM     30  C   UNL A   1      36.487  33.602  29.387  1.00  0.00     0.004 C 
ENDBRANCH  28  29
ENDBRANCH  27  28
ENDBRANCH  26  27
ENDBRANCH  25  26
ENDBRANCH  22  25
ENDBRANCH  20  21
ENDBRANCH  15  20
ENDBRANCH   8  14
ENDBRANCH   5   7
ENDBRANCH   1   5
BRANCH   3  31
ATOM     31  C   UNL A   1      44.029  38.810  29.686  1.00  0.00     0.116 C 
BRANCH  31  32
ATOM     32  C   UNL A   1      43.715  39.897  30.716  1.00  0.00     0.021 C 
BRANCH  32  33
ATOM     33  C   UNL A   1      43.712  39.398  32.165  1.00  0.00     0.002 C 
BRANCH  33  34
ATOM     34  C   UNL A   1      43.677  37.873  32.327  1.00  0.00     0.002 C 
BRANCH  34  35
ATOM     35  C   UNL A   1      44.872  37.260  33.066  1.00  0.00     0.021 C 
BRANCH  35  36
ATOM     36  C   UNL A   1      45.606  36.164  32.299  1.00  0.00     0.116 C 
BRANCH  36  37
ATOM     37  N   UNL A   1      46.293  36.690  31.130  1.00  0.00    -0.352 N 
ATOM     38  C   UNL A   1      46.711  36.048  29.992  1.00  0.00     0.251 C 
ATOM     39  H   UNL A   1      46.487  37.654  31.160  1.00  0.00     0.163 HD
ATOM     40  O   UNL A   1      47.478  36.611  29.216  1.00  0.00    -0.269 OA
BRANCH  38  41
ATOM     41  C   UNL A   1      46.247  34.675  29.694  1.00  0.00     0.039 A 
ATOM     42  C   UNL A   1      45.979  34.328  28.366  1.00  0.00     0.014 A 
ATOM     43  C   UNL A   1      46.032  33.749  30.718  1.00  0.00     0.014 A 
ATOM     44  C   UNL A   1      45.545  33.037  28.061  1.00  0.00     0.010 A 
ATOM     45  C   UNL A   1      45.660  32.443  30.406  1.00  0.00     0.010 A 
ATOM     46  C   UNL A   1      45.407  32.076  29.076  1.00  0.00    -0.014 A 
BRANCH  46  47
ATOM     47  C   UNL A   1      44.997  30.684  28.760  1.00  0.00     0.031 A 
ATOM     48  C   UNL A   1      43.556  30.272  28.877  1.00  0.00     0.074 A 
ATOM     49  C   UNL A   1      45.933  29.776  28.424  1.00  0.00     0.049 A 
ATOM     50  N   UNL A   1      43.016  29.094  28.696  1.00  0.00    -0.248 NA
ATOM     51  C   UNL A   1      42.599  31.316  29.275  1.00  0.00     0.031 C 
ATOM     52  C   UNL A   1      47.369  30.040  28.322  1.00  0.00     0.029 A 
ATOM     53  N   UNL A   1      45.818  28.445  28.114  1.00  0.00    -0.354 N 
ATOM     54  C   UNL A   1      41.663  29.251  28.970  1.00  0.00     0.074 A 
ATOM     55  C   UNL A   1      41.473  30.626  29.377  1.00  0.00     0.031 C 
ATOM     56  C   UNL A   1      47.998  28.913  27.953  1.00  0.00     0.029 A 
ATOM     57  C   UNL A   1      47.017  27.841  27.824  1.00  0.00     0.049 A 
ATOM     58  H   UNL A   1      44.956  27.967  28.101  1.00  0.00     0.167 HD
ATOM     59  C   UNL A   1      40.667  28.339  28.870  1.00  0.00     0.037 A 
ATOM     60  C   UNL A   1      47.293  26.566  27.493  1.00  0.00     0.037 A 
ATOM     61  C   UNL A   1      40.855  26.977  28.441  1.00  0.00     0.049 A 
ATOM     62  C   UNL A   1      46.170  25.574  27.386  1.00  0.00     0.074 A 
ATOM     63  C   UNL A   1      39.900  25.994  28.250  1.00  0.00     0.029 A 
ATOM     64  N   UNL A   1      42.083  26.408  28.139  1.00  0.00    -0.354 N 
ATOM     65  N   UNL A   1      44.886  25.753  27.584  1.00  0.00    -0.248 NA
ATOM     66  C   UNL A   1      46.533  24.202  27.002  1.00  0.00     0.031 C 
ATOM     67  C   UNL A   1      40.554  24.817  27.868  1.00  0.00     0.029 A 
ATOM     68  C   UNL A   1      41.912  25.080  27.781  1.00  0.00     0.049 A 
ATOM     69  H   UNL A   1      42.947  26.877  28.174  1.00  0.00     0.167 HD
ATOM     70  C   UNL A   1      44.286  24.528  27.325  1.00  0.00     0.074 A 
ATOM     71  C   UNL A   1      45.345  23.617  26.941  1.00  0.00     0.031 C 
ATOM     72  C   UNL A   1      42.977  24.188  27.398  1.00  0.00     0.037 A 
BRANCH  59  73
ATOM     73  C   UNL A   1      39.281  28.788  29.230  1.00  0.00     0.057 A 
ATOM     74  C   UNL A   1      38.444  29.417  28.298  1.00  0.00     0.134 A 
ATOM     75  C   UNL A   1      38.765  28.565  30.513  1.00  0.00     0.134 A 
ATOM     76  F   UNL A   1      38.881  29.670  27.054  1.00  0.00    -0.206 F 
ATOM     77  C   UNL A   1      37.154  29.831  28.636  1.00  0.00     0.040 A 
ATOM     78  C   UNL A   1      37.468  28.952  30.855  1.00  0.00     0.040 A 
ATOM     79  F   UNL A   1      39.509  27.962  31.451  1.00  0.00    -0.206 F 
ATOM     80  C   UNL A   1      36.661  29.594  29.917  1.00  0.00     0.006 A 
ENDBRANCH  59  73
BRANCH  60  81
ATOM     81  C   UNL A   1      48.692  26.161  27.212  1.00  0.00     0.057 A 
ATOM     82  C   UNL A   1      49.248  26.330  25.939  1.00  0.00     0.134 A 
ATOM     83  C   UNL A   1      49.506  25.598  28.202  1.00  0.00     0.134 A 
ATOM     84  F   UNL A   1      48.511  26.847  24.944  1.00  0.00    -0.206 F 
ATOM     85  C   UNL A   1      50.557  25.939  25.655  1.00  0.00     0.040 A 
ATOM     86  C   UNL A   1      50.824  25.224  27.939  1.00  0.00     0.040 A 
ATOM     87  F   UNL A   1      49.033  25.418  29.445  1.00  0.00    -0.206 F 
ATOM     88  C   UNL A   1      51.351  25.388  26.659  1.00  0.00     0.006 A 
ENDBRANCH  60  81
BRANCH  72  89
ATOM     89  C   UNL A   1      42.615  22.779  27.031  1.00  0.00     0.057 A 
ATOM     90  C   UNL A   1      42.633  22.334  25.703  1.00  0.00     0.134 A 
ATOM     91  C   UNL A   1      42.272  21.850  28.021  1.00  0.00     0.134 A 
ATOM     92  F   UNL A   1      42.939  23.179  24.707  1.00  0.00    -0.206 F 
ATOM     93  C   UNL A   1      42.301  21.020  25.371  1.00  0.00     0.040 A 
ATOM     94  C   UNL A   1      41.963  20.526  27.704  1.00  0.00     0.040 A 
ATOM     95  F   UNL A   1      42.243  22.211  29.313  1.00  0.00    -0.206 F 
ATOM     96  C   UNL A   1      41.970  20.110  26.374  1.00  0.00     0.006 A 
ENDBRANCH  72  89
ENDBRANCH  46  47
ENDBRANCH  38  41
ENDBRANCH  36  37
ENDBRANCH  35  36
ENDBRANCH  34  35
ENDBRANCH  33  34
ENDBRANCH  32  33
ENDBRANCH  31  32
ENDBRANCH   3  31
TORSDOF 22
ENDMDL
MODEL 3
REMARK VINA RESULT:      -8.6      3.835     10.312
REMARK SMILES CCCCCCNC(=O)Oc1cccc(-c2ccc([C@@H](C)C(=O)NCCCCCCNC(=O)c3ccc(-c4c5nc(c(-c6c(F)cccc6F)c6ccc([nH]6)c(-c6c(F)cccc6F)c6nc(c(-c7c(F)cccc7F)c7ccc4[nH]7)C=C6)C=C5)cc3)cc2C)c1
REMARK SMILES IDX 22 1 23 2 24 3 20 5 21 6 19 7 16 8 17 9 89 10 18 11 88 12
REMARK SMILES IDX 90 13 15 14 11 15 12 16 91 17 13 18 14 19 10 20 8 21 7 22
REMARK SMILES IDX 9 24 6 25 5 26 4 27 3 28 2 29 1 30 25 31 26 32 27 33 28 34
REMARK SMILES IDX 29 35 30 36 31 37 32 38 33 40 34 41 35 42 87 43 36 44 86 45
REMARK SMILES IDX 37 46 38 47 39 48 80 49 40 50 85 51 79 52 81 53 41 54 84 55
REMARK SMILES IDX 78 56 77 57 42 59 68 60 51 61 67 62 52 63 55 64 66 65 82 66
REMARK SMILES IDX 53 67 54 68 65 70 83 71 56 72 43 73 44 74 49 75 45 76 46 77
REMARK SMILES IDX 48 78 50 79 47 80 69 81 70 82 75 83 71 84 72 85 74 86 76 87
REMARK SMILES IDX 73 88 57 89 58 90 63 91 59 92 60 93 62 94 64 95 61 96
REMARK H PARENT 24 4 7 23 31 39 81 58 55 69
REMARK Flexibility Score: inf
ROOT
ATOM      1  C   UNL A   1      41.043  30.671  32.073  1.00  0.00     0.227 C 
ATOM      2  O   UNL A   1      40.962  30.839  33.296  1.00  0.00    -0.274 OA
ATOM      3  N   UNL A   1      41.142  29.380  31.651  1.00  0.00    -0.356 N 
ATOM      4  H   UNL A   1      41.058  28.715  32.371  1.00  0.00     0.163 HD
ENDROOT
BRANCH   1   5
ATOM      5  C   UNL A   1      40.999  31.882  31.130  1.00  0.00     0.105 C 
ATOM      6  C   UNL A   1      41.747  33.111  31.648  1.00  0.00     0.023 C 
BRANCH   5   7
ATOM      7  C   UNL A   1      39.629  32.154  30.529  1.00  0.00    -0.036 A 
ATOM      8  C   UNL A   1      36.978  32.680  29.582  1.00  0.00    -0.015 A 
ATOM      9  C   UNL A   1      38.070  33.500  29.244  1.00  0.00     0.009 A 
ATOM     10  C   UNL A   1      37.252  31.522  30.341  1.00  0.00    -0.043 A 
ATOM     11  C   UNL A   1      39.372  33.218  29.669  1.00  0.00     0.005 A 
ATOM     12  C   UNL A   1      38.556  31.308  30.844  1.00  0.00     0.008 A 
ATOM     13  C   UNL A   1      36.233  30.454  30.641  1.00  0.00     0.045 C 
BRANCH   8  14
ATOM     14  C   UNL A   1      35.627  33.080  29.128  1.00  0.00    -0.014 A 
ATOM     15  C   UNL A   1      33.688  34.543  29.234  1.00  0.00     0.133 A 
ATOM     16  C   UNL A   1      33.050  33.826  28.227  1.00  0.00     0.047 A 
ATOM     17  C   UNL A   1      34.965  34.194  29.676  1.00  0.00     0.056 A 
ATOM     18  C   UNL A   1      33.701  32.744  27.648  1.00  0.00     0.004 A 
ATOM     19  C   UNL A   1      34.970  32.369  28.104  1.00  0.00     0.009 A 
BRANCH  15  20
ATOM     20  O   UNL A   1      32.921  35.524  29.886  1.00  0.00    -0.410 OA
BRANCH  20  21
ATOM     21  C   UNL A   1      33.258  36.862  29.755  1.00  0.00     0.412 C 
ATOM     22  N   UNL A   1      33.348  37.506  30.960  1.00  0.00    -0.321 N 
ATOM     23  H   UNL A   1      33.564  38.466  30.931  1.00  0.00     0.167 HD
ATOM     24  O   UNL A   1      33.452  37.455  28.703  1.00  0.00    -0.224 OA
BRANCH  22  25
ATOM     25  C   UNL A   1      33.159  36.921  32.273  1.00  0.00     0.119 C 
BRANCH  25  26
ATOM     26  C   UNL A   1      34.452  36.322  32.827  1.00  0.00     0.021 C 
BRANCH  26  27
ATOM     27  C   UNL A   1      34.373  34.833  33.184  1.00  0.00     0.002 C 
BRANCH  27  28
ATOM     28  C   UNL A   1      35.484  34.315  34.105  1.00  0.00    -0.000 C 
BRANCH  28  29
ATOM     29  C   UNL A   1      36.615  33.554  33.410  1.00  0.00    -0.003 C 
ATOM     30  C   UNL A   1      37.676  34.466  32.813  1.00  0.00     0.004 C 
ENDBRANCH  28  29
ENDBRANCH  27  28
ENDBRANCH  26  27
ENDBRANCH  25  26
ENDBRANCH  22  25
ENDBRANCH  20  21
ENDBRANCH  15  20
ENDBRANCH   8  14
ENDBRANCH   5   7
ENDBRANCH   1   5
BRANCH   3  31
ATOM     31  C   UNL A   1      41.348  28.809  30.338  1.00  0.00     0.116 C 
BRANCH  31  32
ATOM     32  C   UNL A   1      40.085  28.117  29.820  1.00  0.00     0.021 C 
BRANCH  32  33
ATOM     33  C   UNL A   1      39.790  28.387  28.342  1.00  0.00     0.002 C 
BRANCH  33  34
ATOM     34  C   UNL A   1      40.381  27.364  27.363  1.00  0.00     0.002 C 
BRANCH  34  35
ATOM     35  C   UNL A   1      39.619  26.038  27.255  1.00  0.00     0.021 C 
BRANCH  35  36
ATOM     36  C   UNL A   1      40.132  24.928  28.168  1.00  0.00     0.116 C 
BRANCH  36  37
ATOM     37  N   UNL A   1      40.654  23.801  27.409  1.00  0.00    -0.352 N 
ATOM     38  C   UNL A   1      41.748  23.725  26.587  1.00  0.00     0.251 C 
ATOM     39  H   UNL A   1      40.142  22.966  27.500  1.00  0.00     0.163 HD
ATOM     40  O   UNL A   1      41.898  22.754  25.851  1.00  0.00    -0.269 OA
BRANCH  38  41
ATOM     41  C   UNL A   1      42.752  24.813  26.575  1.00  0.00     0.039 A 
ATOM     42  C   UNL A   1      43.418  25.127  27.763  1.00  0.00     0.014 A 
ATOM     43  C   UNL A   1      43.003  25.549  25.414  1.00  0.00     0.014 A 
ATOM     44  C   UNL A   1      44.372  26.147  27.774  1.00  0.00     0.010 A 
ATOM     45  C   UNL A   1      44.000  26.522  25.411  1.00  0.00     0.010 A 
ATOM     46  C   UNL A   1      44.690  26.834  26.591  1.00  0.00    -0.014 A 
BRANCH  46  47
ATOM     47  C   UNL A   1      45.739  27.884  26.576  1.00  0.00     0.031 A 
ATOM     48  C   UNL A   1      45.367  29.334  26.720  1.00  0.00     0.074 A 
ATOM     49  C   UNL A   1      47.024  27.535  26.373  1.00  0.00     0.049 A 
ATOM     50  N   UNL A   1      46.134  30.393  26.678  1.00  0.00    -0.248 NA
ATOM     51  C   UNL A   1      43.939  29.634  26.912  1.00  0.00     0.031 C 
ATOM     52  C   UNL A   1      47.508  26.169  26.172  1.00  0.00     0.029 A 
ATOM     53  N   UNL A   1      48.158  28.304  26.294  1.00  0.00    -0.354 N 
ATOM     54  C   UNL A   1      45.285  31.482  26.824  1.00  0.00     0.074 A 
ATOM     55  C   UNL A   1      43.938  30.958  26.906  1.00  0.00     0.031 C 
ATOM     56  C   UNL A   1      48.841  26.193  26.015  1.00  0.00     0.029 A 
ATOM     57  C   UNL A   1      49.302  27.576  26.071  1.00  0.00     0.049 A 
ATOM     58  H   UNL A   1      48.153  29.284  26.389  1.00  0.00     0.167 HD
ATOM     59  C   UNL A   1      45.599  32.797  26.904  1.00  0.00     0.037 A 
ATOM     60  C   UNL A   1      50.578  27.981  25.926  1.00  0.00     0.037 A 
ATOM     61  C   UNL A   1      46.942  33.314  26.847  1.00  0.00     0.049 A 
ATOM     62  C   UNL A   1      50.901  29.444  26.022  1.00  0.00     0.074 A 
ATOM     63  C   UNL A   1      47.368  34.624  26.979  1.00  0.00     0.029 A 
ATOM     64  N   UNL A   1      48.075  32.543  26.638  1.00  0.00    -0.354 N 
ATOM     65  N   UNL A   1      50.094  30.458  26.226  1.00  0.00    -0.248 NA
ATOM     66  C   UNL A   1      52.315  29.821  25.875  1.00  0.00     0.031 C 
ATOM     67  C   UNL A   1      48.757  34.652  26.812  1.00  0.00     0.029 A 
ATOM     68  C   UNL A   1      49.200  33.353  26.618  1.00  0.00     0.049 A 
ATOM     69  H   UNL A   1      48.081  31.566  26.520  1.00  0.00     0.167 HD
ATOM     70  C   UNL A   1      50.902  31.587  26.257  1.00  0.00     0.074 A 
ATOM     71  C   UNL A   1      52.264  31.132  26.066  1.00  0.00     0.031 C 
ATOM     72  C   UNL A   1      50.549  32.883  26.429  1.00  0.00     0.037 A 
BRANCH  59  73
ATOM     73  C   UNL A   1      44.467  33.769  27.066  1.00  0.00     0.057 A 
ATOM     74  C   UNL A   1      43.873  34.400  25.964  1.00  0.00     0.134 A 
ATOM     75  C   UNL A   1      43.945  34.057  28.333  1.00  0.00     0.134 A 
ATOM     76  F   UNL A   1      44.333  34.175  24.723  1.00  0.00    -0.206 F 
ATOM     77  C   UNL A   1      42.819  35.302  26.119  1.00  0.00     0.040 A 
ATOM     78  C   UNL A   1      42.874  34.939  28.498  1.00  0.00     0.040 A 
ATOM     79  F   UNL A   1      44.462  33.484  29.430  1.00  0.00    -0.206 F 
ATOM     80  C   UNL A   1      42.313  35.569  27.389  1.00  0.00     0.006 A 
ENDBRANCH  59  73
BRANCH  60  81
ATOM     81  C   UNL A   1      51.650  26.980  25.702  1.00  0.00     0.057 A 
ATOM     82  C   UNL A   1      52.070  26.651  24.409  1.00  0.00     0.134 A 
ATOM     83  C   UNL A   1      52.278  26.329  26.770  1.00  0.00     0.134 A 
ATOM     84  F   UNL A   1      51.492  27.229  23.345  1.00  0.00    -0.206 F 
ATOM     85  C   UNL A   1      53.066  25.701  24.182  1.00  0.00     0.040 A 
ATOM     86  C   UNL A   1      53.292  25.393  26.560  1.00  0.00     0.040 A 
ATOM     87  F   UNL A   1      51.926  26.606  28.034  1.00  0.00    -0.206 F 
ATOM     88  C   UNL A   1      53.683  25.071  25.262  1.00  0.00     0.006 A 
ENDBRANCH  60  81
BRANCH  72  89
ATOM     89  C   UNL A   1      51.655  33.898  26.444  1.00  0.00     0.057 A 
ATOM     90  C   UNL A   1      52.327  34.239  27.623  1.00  0.00     0.134 A 
ATOM     91  C   UNL A   1      52.069  34.517  25.258  1.00  0.00     0.134 A 
ATOM     92  F   UNL A   1      51.968  33.692  28.794  1.00  0.00    -0.206 F 
ATOM     93  C   UNL A   1      53.359  35.179  27.626  1.00  0.00     0.040 A 
ATOM     94  C   UNL A   1      53.116  35.440  25.244  1.00  0.00     0.040 A 
ATOM     95  F   UNL A   1      51.470  34.228  24.092  1.00  0.00    -0.206 F 
ATOM     96  C   UNL A   1      53.759  35.778  26.433  1.00  0.00     0.006 A 
ENDBRANCH  72  89
ENDBRANCH  46  47
ENDBRANCH  38  41
ENDBRANCH  36  37
ENDBRANCH  35  36
ENDBRANCH  34  35
ENDBRANCH  33  34
ENDBRANCH  32  33
ENDBRANCH  31  32
ENDBRANCH   3  31
TORSDOF 22
ENDMDL
