MODEL 1
REMARK VINA RESULT:     -11.7      0.000      0.000
REMARK SMILES CC1(C)[C@H](C(=O)NCCCCCCNC(=O)c2ccc(-c3c4nc(c(-c5c(F)cccc5F)c5ccc([nH]5)c(-c5c(F)cccc5F)c5nc(c(-c6c(F)cccc6F)c6ccc3[nH]6)C=C5)C=C4)cc2)[C@@H]1c1nc2ccc(F)cc2s1
REMARK SMILES IDX 11 1 10 2 9 3 8 4 7 5 5 6 6 7 4 9 1 10 2 11 3 12 71 13 72 14
REMARK SMILES IDX 73 15 81 16 74 17 80 18 75 19 79 20 76 21 77 22 78 23 12 24
REMARK SMILES IDX 13 25 14 26 15 27 16 29 17 30 18 31 70 32 19 33 69 34 20 35
REMARK SMILES IDX 21 36 22 37 63 38 23 39 68 40 62 41 64 42 24 43 67 44 61 45
REMARK SMILES IDX 60 46 25 48 51 49 34 50 50 51 35 52 38 53 49 54 65 55 36 56
REMARK SMILES IDX 37 57 48 59 66 60 39 61 26 62 27 63 32 64 28 65 29 66 31 67
REMARK SMILES IDX 33 68 30 69 52 70 53 71 58 72 54 73 55 74 57 75 59 76 56 77
REMARK SMILES IDX 40 78 41 79 46 80 42 81 43 82 45 83 47 84 44 85
REMARK H PARENT 7 8 14 28 64 47 38 58
REMARK Flexibility Score: inf
ROOT
ATOM      1  C   UNL A   1      36.309  20.367  25.032  1.00  0.00     0.002 C 
ENDROOT
BRANCH   1   2
ATOM      2  C   UNL A   1      35.075  19.490  24.788  1.00  0.00     0.002 C 
BRANCH   2   3
ATOM      3  C   UNL A   1      33.734  20.223  24.815  1.00  0.00     0.021 C 
BRANCH   3   4
ATOM      4  C   UNL A   1      33.359  20.800  26.176  1.00  0.00     0.116 C 
BRANCH   4   5
ATOM      5  N   UNL A   1      32.437  21.895  26.085  1.00  0.00    -0.356 N 
ATOM      6  C   UNL A   1      32.593  23.250  26.051  1.00  0.00     0.224 C 
ATOM      7  O   UNL A   1      31.541  23.890  25.966  1.00  0.00    -0.275 OA
ATOM      8  H   UNL A   1      31.496  21.610  26.037  1.00  0.00     0.163 HD
BRANCH   6   9
ATOM      9  C   UNL A   1      33.847  24.050  26.111  1.00  0.00     0.095 C 
ATOM     10  C   UNL A   1      36.388  23.917  25.770  1.00  0.00     0.013 C 
ATOM     11  C   UNL A   1      35.024  24.090  25.125  1.00  0.00    -0.013 C 
ATOM     12  C   UNL A   1      34.952  23.379  23.798  1.00  0.00     0.013 C 
ATOM     13  C   UNL A   1      34.242  25.349  25.482  1.00  0.00     0.068 C 
BRANCH  13  14
ATOM     14  C   UNL A   1      33.278  26.216  24.691  1.00  0.00     0.098 A 
ATOM     15  N   UNL A   1      32.945  27.388  25.185  1.00  0.00    -0.241 NA
ATOM     16  S   UNL A   1      32.702  25.906  23.108  1.00  0.00    -0.118 S 
ATOM     17  C   UNL A   1      31.970  27.970  24.398  1.00  0.00     0.082 A 
ATOM     18  C   UNL A   1      31.633  27.254  23.245  1.00  0.00     0.057 A 
ATOM     19  C   UNL A   1      31.287  29.170  24.683  1.00  0.00     0.033 A 
ATOM     20  C   UNL A   1      30.587  27.659  22.402  1.00  0.00     0.060 A 
ATOM     21  C   UNL A   1      30.244  29.585  23.850  1.00  0.00     0.041 A 
ATOM     22  C   UNL A   1      29.898  28.822  22.743  1.00  0.00     0.124 A 
ATOM     23  F   UNL A   1      28.870  29.214  21.978  1.00  0.00    -0.207 F 
ENDBRANCH  13  14
ENDBRANCH   6   9
ENDBRANCH   4   5
ENDBRANCH   3   4
ENDBRANCH   2   3
ENDBRANCH   1   2
BRANCH   1  24
ATOM     24  C   UNL A   1      37.662  19.696  24.779  1.00  0.00     0.021 C 
BRANCH  24  25
ATOM     25  C   UNL A   1      38.825  20.255  25.594  1.00  0.00     0.116 C 
BRANCH  25  26
ATOM     26  N   UNL A   1      39.921  19.310  25.711  1.00  0.00    -0.352 N 
ATOM     27  C   UNL A   1      41.228  19.520  26.071  1.00  0.00     0.251 C 
ATOM     28  H   UNL A   1      39.692  18.376  25.499  1.00  0.00     0.163 HD
ATOM     29  O   UNL A   1      42.053  18.622  25.935  1.00  0.00    -0.269 OA
BRANCH  27  30
ATOM     30  C   UNL A   1      41.650  20.829  26.611  1.00  0.00     0.039 A 
ATOM     31  C   UNL A   1      42.064  21.821  25.717  1.00  0.00     0.014 A 
ATOM     32  C   UNL A   1      41.677  21.071  27.988  1.00  0.00     0.014 A 
ATOM     33  C   UNL A   1      42.460  23.069  26.201  1.00  0.00     0.010 A 
ATOM     34  C   UNL A   1      42.007  22.338  28.464  1.00  0.00     0.010 A 
ATOM     35  C   UNL A   1      42.410  23.347  27.576  1.00  0.00    -0.014 A 
BRANCH  35  36
ATOM     36  C   UNL A   1      42.789  24.683  28.101  1.00  0.00     0.031 A 
ATOM     37  C   UNL A   1      41.738  25.736  28.322  1.00  0.00     0.074 A 
ATOM     38  C   UNL A   1      44.086  24.964  28.329  1.00  0.00     0.049 A 
ATOM     39  N   UNL A   1      41.881  26.974  28.724  1.00  0.00    -0.248 NA
ATOM     40  C   UNL A   1      40.347  25.357  28.029  1.00  0.00     0.031 C 
ATOM     41  C   UNL A   1      45.203  24.044  28.110  1.00  0.00     0.029 A 
ATOM     42  N   UNL A   1      44.686  26.110  28.789  1.00  0.00    -0.354 N 
ATOM     43  C   UNL A   1      40.605  27.523  28.717  1.00  0.00     0.074 A 
ATOM     44  C   UNL A   1      39.708  26.501  28.222  1.00  0.00     0.031 C 
ATOM     45  C   UNL A   1      46.349  24.652  28.455  1.00  0.00     0.029 A 
ATOM     46  C   UNL A   1      46.052  26.015  28.888  1.00  0.00     0.049 A 
ATOM     47  H   UNL A   1      44.183  26.923  29.026  1.00  0.00     0.167 HD
ATOM     48  C   UNL A   1      40.211  28.758  29.109  1.00  0.00     0.037 A 
ATOM     49  C   UNL A   1      46.964  26.924  29.280  1.00  0.00     0.037 A 
ATOM     50  C   UNL A   1      41.102  29.764  29.626  1.00  0.00     0.049 A 
ATOM     51  C   UNL A   1      46.501  28.286  29.716  1.00  0.00     0.074 A 
ATOM     52  C   UNL A   1      40.794  31.027  30.104  1.00  0.00     0.029 A 
ATOM     53  N   UNL A   1      42.478  29.622  29.734  1.00  0.00    -0.354 N 
ATOM     54  N   UNL A   1      45.283  28.770  29.766  1.00  0.00    -0.248 NA
ATOM     55  C   UNL A   1      47.539  29.227  30.159  1.00  0.00     0.031 C 
ATOM     56  C   UNL A   1      41.987  31.663  30.462  1.00  0.00     0.029 A 
ATOM     57  C   UNL A   1      43.034  30.779  30.253  1.00  0.00     0.049 A 
ATOM     58  H   UNL A   1      42.984  28.817  29.478  1.00  0.00     0.167 HD
ATOM     59  C   UNL A   1      45.405  30.056  30.275  1.00  0.00     0.074 A 
ATOM     60  C   UNL A   1      46.814  30.273  30.530  1.00  0.00     0.031 C 
ATOM     61  C   UNL A   1      44.437  30.975  30.510  1.00  0.00     0.037 A 
BRANCH  48  62
ATOM     62  C   UNL A   1      38.751  29.091  28.997  1.00  0.00     0.057 A 
ATOM     63  C   UNL A   1      37.884  28.981  30.092  1.00  0.00     0.134 A 
ATOM     64  C   UNL A   1      38.214  29.561  27.793  1.00  0.00     0.134 A 
ATOM     65  F   UNL A   1      38.332  28.526  31.273  1.00  0.00    -0.206 F 
ATOM     66  C   UNL A   1      36.529  29.303  29.986  1.00  0.00     0.040 A 
ATOM     67  C   UNL A   1      36.867  29.912  27.682  1.00  0.00     0.040 A 
ATOM     68  F   UNL A   1      38.989  29.695  26.707  1.00  0.00    -0.206 F 
ATOM     69  C   UNL A   1      36.019  29.776  28.780  1.00  0.00     0.006 A 
ENDBRANCH  48  62
BRANCH  49  70
ATOM     70  C   UNL A   1      48.405  26.571  29.303  1.00  0.00     0.057 A 
ATOM     71  C   UNL A   1      49.238  26.863  28.216  1.00  0.00     0.134 A 
ATOM     72  C   UNL A   1      48.982  25.922  30.402  1.00  0.00     0.134 A 
ATOM     73  F   UNL A   1      48.740  27.468  27.128  1.00  0.00    -0.206 F 
ATOM     74  C   UNL A   1      50.587  26.505  28.212  1.00  0.00     0.040 A 
ATOM     75  C   UNL A   1      50.336  25.581  30.420  1.00  0.00     0.040 A 
ATOM     76  F   UNL A   1      48.239  25.621  31.477  1.00  0.00    -0.206 F 
ATOM     77  C   UNL A   1      51.141  25.865  29.319  1.00  0.00     0.006 A 
ENDBRANCH  49  70
BRANCH  61  78
ATOM     78  C   UNL A   1      44.866  32.283  31.108  1.00  0.00     0.057 A 
ATOM     79  C   UNL A   1      45.206  33.386  30.315  1.00  0.00     0.134 A 
ATOM     80  C   UNL A   1      44.910  32.449  32.498  1.00  0.00     0.134 A 
ATOM     81  F   UNL A   1      45.197  33.290  28.976  1.00  0.00    -0.206 F 
ATOM     82  C   UNL A   1      45.600  34.598  30.883  1.00  0.00     0.040 A 
ATOM     83  C   UNL A   1      45.275  33.664  33.079  1.00  0.00     0.040 A 
ATOM     84  F   UNL A   1      44.586  31.434  33.316  1.00  0.00    -0.206 F 
ATOM     85  C   UNL A   1      45.629  34.741  32.270  1.00  0.00     0.006 A 
ENDBRANCH  61  78
ENDBRANCH  35  36
ENDBRANCH  27  30
ENDBRANCH  25  26
ENDBRANCH  24  25
ENDBRANCH   1  24
TORSDOF 14
ENDMDL
MODEL 2
REMARK VINA RESULT:     -11.7      0.373      6.239
REMARK SMILES CC1(C)[C@H](C(=O)NCCCCCCNC(=O)c2ccc(-c3c4nc(c(-c5c(F)cccc5F)c5ccc([nH]5)c(-c5c(F)cccc5F)c5nc(c(-c6c(F)cccc6F)c6ccc3[nH]6)C=C5)C=C4)cc2)[C@@H]1c1nc2ccc(F)cc2s1
REMARK SMILES IDX 11 1 10 2 9 3 8 4 7 5 5 6 6 7 4 9 1 10 2 11 3 12 71 13 72 14
REMARK SMILES IDX 73 15 81 16 74 17 80 18 75 19 79 20 76 21 77 22 78 23 12 24
REMARK SMILES IDX 13 25 14 26 15 27 16 29 17 30 18 31 70 32 19 33 69 34 20 35
REMARK SMILES IDX 21 36 22 37 63 38 23 39 68 40 62 41 64 42 24 43 67 44 61 45
REMARK SMILES IDX 60 46 25 48 51 49 34 50 50 51 35 52 38 53 49 54 65 55 36 56
REMARK SMILES IDX 37 57 48 59 66 60 39 61 26 62 27 63 32 64 28 65 29 66 31 67
REMARK SMILES IDX 33 68 30 69 52 70 53 71 58 72 54 73 55 74 57 75 59 76 56 77
REMARK SMILES IDX 40 78 41 79 46 80 42 81 43 82 45 83 47 84 44 85
REMARK H PARENT 7 8 14 28 64 47 38 58
REMARK Flexibility Score: inf
ROOT
ATOM      1  C   UNL A   1      36.293  20.192  25.010  1.00  0.00     0.002 C 
ENDROOT
BRANCH   1   2
ATOM      2  C   UNL A   1      35.078  19.329  24.650  1.00  0.00     0.002 C 
BRANCH   2   3
ATOM      3  C   UNL A   1      33.717  19.988  24.870  1.00  0.00     0.021 C 
BRANCH   3   4
ATOM      4  C   UNL A   1      33.588  20.745  26.187  1.00  0.00     0.116 C 
BRANCH   4   5
ATOM      5  N   UNL A   1      32.662  21.839  26.116  1.00  0.00    -0.356 N 
ATOM      6  C   UNL A   1      32.816  23.193  26.058  1.00  0.00     0.224 C 
ATOM      7  O   UNL A   1      31.762  23.832  26.004  1.00  0.00    -0.275 OA
ATOM      8  H   UNL A   1      31.721  21.553  26.107  1.00  0.00     0.163 HD
BRANCH   6   9
ATOM      9  C   UNL A   1      34.071  23.994  26.060  1.00  0.00     0.095 C 
ATOM     10  C   UNL A   1      36.598  23.856  25.628  1.00  0.00     0.013 C 
ATOM     11  C   UNL A   1      35.211  24.020  25.031  1.00  0.00    -0.013 C 
ATOM     12  C   UNL A   1      35.092  23.290  23.719  1.00  0.00     0.013 C 
ATOM     13  C   UNL A   1      34.442  25.284  25.399  1.00  0.00     0.068 C 
BRANCH  13  14
ATOM     14  C   UNL A   1      33.450  26.139  24.631  1.00  0.00     0.098 A 
ATOM     15  N   UNL A   1      33.108  27.303  25.137  1.00  0.00    -0.241 NA
ATOM     16  S   UNL A   1      32.849  25.828  23.057  1.00  0.00    -0.118 S 
ATOM     17  C   UNL A   1      32.108  27.873  24.372  1.00  0.00     0.082 A 
ATOM     18  C   UNL A   1      31.761  27.158  23.222  1.00  0.00     0.057 A 
ATOM     19  C   UNL A   1      31.412  29.060  24.676  1.00  0.00     0.033 A 
ATOM     20  C   UNL A   1      30.692  27.550  22.401  1.00  0.00     0.060 A 
ATOM     21  C   UNL A   1      30.347  29.462  23.866  1.00  0.00     0.041 A 
ATOM     22  C   UNL A   1      29.991  28.700  22.761  1.00  0.00     0.124 A 
ATOM     23  F   UNL A   1      28.943  29.079  22.018  1.00  0.00    -0.207 F 
ENDBRANCH  13  14
ENDBRANCH   6   9
ENDBRANCH   4   5
ENDBRANCH   3   4
ENDBRANCH   2   3
ENDBRANCH   1   2
BRANCH   1  24
ATOM     24  C   UNL A   1      37.660  19.530  24.816  1.00  0.00     0.021 C 
BRANCH  24  25
ATOM     25  C   UNL A   1      38.795  20.132  25.641  1.00  0.00     0.116 C 
BRANCH  25  26
ATOM     26  N   UNL A   1      39.945  19.250  25.723  1.00  0.00    -0.352 N 
ATOM     27  C   UNL A   1      41.246  19.531  26.054  1.00  0.00     0.251 C 
ATOM     28  H   UNL A   1      39.764  18.306  25.507  1.00  0.00     0.163 HD
ATOM     29  O   UNL A   1      42.117  18.683  25.890  1.00  0.00    -0.269 OA
BRANCH  27  30
ATOM     30  C   UNL A   1      41.606  20.858  26.596  1.00  0.00     0.039 A 
ATOM     31  C   UNL A   1      42.032  21.852  25.709  1.00  0.00     0.014 A 
ATOM     32  C   UNL A   1      41.564  21.116  27.970  1.00  0.00     0.014 A 
ATOM     33  C   UNL A   1      42.370  23.116  26.194  1.00  0.00     0.010 A 
ATOM     34  C   UNL A   1      41.836  22.397  28.444  1.00  0.00     0.010 A 
ATOM     35  C   UNL A   1      42.250  23.407  27.562  1.00  0.00    -0.014 A 
BRANCH  35  36
ATOM     36  C   UNL A   1      42.567  24.760  28.087  1.00  0.00     0.031 A 
ATOM     37  C   UNL A   1      43.975  25.105  28.488  1.00  0.00     0.074 A 
ATOM     38  C   UNL A   1      41.578  25.659  28.249  1.00  0.00     0.049 A 
ATOM     39  N   UNL A   1      44.437  26.213  29.012  1.00  0.00    -0.248 NA
ATOM     40  C   UNL A   1      44.994  24.061  28.299  1.00  0.00     0.031 C 
ATOM     41  C   UNL A   1      40.166  25.429  27.940  1.00  0.00     0.029 A 
ATOM     42  N   UNL A   1      41.609  26.947  28.722  1.00  0.00    -0.354 N 
ATOM     43  C   UNL A   1      45.791  25.993  29.229  1.00  0.00     0.074 A 
ATOM     44  C   UNL A   1      46.067  24.630  28.828  1.00  0.00     0.031 C 
ATOM     45  C   UNL A   1      39.469  26.543  28.212  1.00  0.00     0.029 A 
ATOM     46  C   UNL A   1      40.378  27.555  28.743  1.00  0.00     0.049 A 
ATOM     47  H   UNL A   1      42.436  27.392  29.018  1.00  0.00     0.167 HD
ATOM     48  C   UNL A   1      46.725  26.854  29.697  1.00  0.00     0.037 A 
ATOM     49  C   UNL A   1      40.021  28.788  29.150  1.00  0.00     0.037 A 
ATOM     50  C   UNL A   1      46.454  28.218  30.070  1.00  0.00     0.049 A 
ATOM     51  C   UNL A   1      41.078  29.727  29.660  1.00  0.00     0.074 A 
ATOM     52  C   UNL A   1      47.341  29.188  30.502  1.00  0.00     0.029 A 
ATOM     53  N   UNL A   1      45.197  28.805  30.055  1.00  0.00    -0.354 N 
ATOM     54  N   UNL A   1      42.367  29.527  29.798  1.00  0.00    -0.248 NA
ATOM     55  C   UNL A   1      40.633  31.069  30.062  1.00  0.00     0.031 C 
ATOM     56  C   UNL A   1      46.616  30.350  30.786  1.00  0.00     0.029 A 
ATOM     57  C   UNL A   1      45.284  30.118  30.486  1.00  0.00     0.049 A 
ATOM     58  H   UNL A   1      44.366  28.355  29.779  1.00  0.00     0.167 HD
ATOM     59  C   UNL A   1      42.889  30.724  30.271  1.00  0.00     0.074 A 
ATOM     60  C   UNL A   1      41.780  31.648  30.384  1.00  0.00     0.031 C 
ATOM     61  C   UNL A   1      44.172  31.029  30.584  1.00  0.00     0.037 A 
BRANCH  48  62
ATOM     62  C   UNL A   1      48.133  26.347  29.829  1.00  0.00     0.057 A 
ATOM     63  C   UNL A   1      49.063  26.472  28.789  1.00  0.00     0.134 A 
ATOM     64  C   UNL A   1      48.575  25.763  31.023  1.00  0.00     0.134 A 
ATOM     65  F   UNL A   1      48.701  27.013  27.615  1.00  0.00    -0.206 F 
ATOM     66  C   UNL A   1      50.374  26.011  28.921  1.00  0.00     0.040 A 
ATOM     67  C   UNL A   1      49.891  25.322  31.177  1.00  0.00     0.040 A 
ATOM     68  F   UNL A   1      47.739  25.618  32.061  1.00  0.00    -0.206 F 
ATOM     69  C   UNL A   1      50.793  25.440  30.121  1.00  0.00     0.006 A 
ENDBRANCH  48  62
BRANCH  49  70
ATOM     70  C   UNL A   1      38.602  29.217  29.067  1.00  0.00     0.057 A 
ATOM     71  C   UNL A   1      37.760  29.144  30.183  1.00  0.00     0.134 A 
ATOM     72  C   UNL A   1      38.052  29.696  27.873  1.00  0.00     0.134 A 
ATOM     73  F   UNL A   1      38.226  28.677  31.351  1.00  0.00    -0.206 F 
ATOM     74  C   UNL A   1      36.416  29.511  30.109  1.00  0.00     0.040 A 
ATOM     75  C   UNL A   1      36.714  30.091  27.792  1.00  0.00     0.040 A 
ATOM     76  F   UNL A   1      38.808  29.798  26.770  1.00  0.00    -0.206 F 
ATOM     77  C   UNL A   1      35.890  29.991  28.912  1.00  0.00     0.006 A 
ENDBRANCH  49  70
BRANCH  61  78
ATOM     78  C   UNL A   1      44.450  32.432  31.040  1.00  0.00     0.057 A 
ATOM     79  C   UNL A   1      44.759  33.457  30.137  1.00  0.00     0.134 A 
ATOM     80  C   UNL A   1      44.376  32.765  32.398  1.00  0.00     0.134 A 
ATOM     81  F   UNL A   1      44.857  33.201  28.824  1.00  0.00    -0.206 F 
ATOM     82  C   UNL A   1      45.012  34.759  30.573  1.00  0.00     0.040 A 
ATOM     83  C   UNL A   1      44.600  34.069  32.844  1.00  0.00     0.040 A 
ATOM     84  F   UNL A   1      44.075  31.832  33.314  1.00  0.00    -0.206 F 
ATOM     85  C   UNL A   1      44.926  35.068  31.930  1.00  0.00     0.006 A 
ENDBRANCH  61  78
ENDBRANCH  35  36
ENDBRANCH  27  30
ENDBRANCH  25  26
ENDBRANCH  24  25
ENDBRANCH   1  24
TORSDOF 14
ENDMDL
MODEL 3
REMARK VINA RESULT:     -11.5      2.757      7.870
REMARK SMILES CC1(C)[C@H](C(=O)NCCCCCCNC(=O)c2ccc(-c3c4nc(c(-c5c(F)cccc5F)c5ccc([nH]5)c(-c5c(F)cccc5F)c5nc(c(-c6c(F)cccc6F)c6ccc3[nH]6)C=C5)C=C4)cc2)[C@@H]1c1nc2ccc(F)cc2s1
REMARK SMILES IDX 11 1 10 2 9 3 8 4 7 5 5 6 6 7 4 9 1 10 2 11 3 12 71 13 72 14
REMARK SMILES IDX 73 15 81 16 74 17 80 18 75 19 79 20 76 21 77 22 78 23 12 24
REMARK SMILES IDX 13 25 14 26 15 27 16 29 17 30 18 31 70 32 19 33 69 34 20 35
REMARK SMILES IDX 21 36 22 37 63 38 23 39 68 40 62 41 64 42 24 43 67 44 61 45
REMARK SMILES IDX 60 46 25 48 51 49 34 50 50 51 35 52 38 53 49 54 65 55 36 56
REMARK SMILES IDX 37 57 48 59 66 60 39 61 26 62 27 63 32 64 28 65 29 66 31 67
REMARK SMILES IDX 33 68 30 69 52 70 53 71 58 72 54 73 55 74 57 75 59 76 56 77
REMARK SMILES IDX 40 78 41 79 46 80 42 81 43 82 45 83 47 84 44 85
REMARK H PARENT 7 8 14 28 64 47 38 58
REMARK Flexibility Score: inf
ROOT
ATOM      1  C   UNL A   1      32.647  29.260  25.084  1.00  0.00     0.002 C 
ENDROOT
BRANCH   1   2
ATOM      2  C   UNL A   1      32.067  28.749  23.760  1.00  0.00     0.002 C 
BRANCH   2   3
ATOM      3  C   UNL A   1      33.063  28.054  22.832  1.00  0.00     0.021 C 
BRANCH   3   4
ATOM      4  C   UNL A   1      32.548  26.764  22.206  1.00  0.00     0.116 C 
BRANCH   4   5
ATOM      5  N   UNL A   1      33.517  25.706  22.224  1.00  0.00    -0.356 N 
ATOM      6  C   UNL A   1      33.902  24.804  23.172  1.00  0.00     0.224 C 
ATOM      7  O   UNL A   1      34.790  24.025  22.815  1.00  0.00    -0.275 OA
ATOM      8  H   UNL A   1      34.006  25.612  21.374  1.00  0.00     0.163 HD
BRANCH   6   9
ATOM      9  C   UNL A   1      33.406  24.642  24.565  1.00  0.00     0.095 C 
ATOM     10  C   UNL A   1      31.547  25.365  26.183  1.00  0.00     0.013 C 
ATOM     11  C   UNL A   1      31.971  24.424  25.069  1.00  0.00    -0.013 C 
ATOM     12  C   UNL A   1      30.839  24.171  24.107  1.00  0.00     0.013 C 
ATOM     13  C   UNL A   1      33.085  23.431  25.384  1.00  0.00     0.068 C 
BRANCH  13  14
ATOM     14  C   UNL A   1      33.358  22.014  24.913  1.00  0.00     0.098 A 
ATOM     15  N   UNL A   1      32.576  21.504  23.986  1.00  0.00    -0.241 NA
ATOM     16  S   UNL A   1      34.708  21.048  25.334  1.00  0.00    -0.118 S 
ATOM     17  C   UNL A   1      32.894  20.175  23.782  1.00  0.00     0.082 A 
ATOM     18  C   UNL A   1      33.995  19.710  24.509  1.00  0.00     0.057 A 
ATOM     19  C   UNL A   1      32.192  19.277  22.953  1.00  0.00     0.033 A 
ATOM     20  C   UNL A   1      34.375  18.360  24.492  1.00  0.00     0.060 A 
ATOM     21  C   UNL A   1      32.563  17.929  22.926  1.00  0.00     0.041 A 
ATOM     22  C   UNL A   1      33.626  17.488  23.703  1.00  0.00     0.124 A 
ATOM     23  F   UNL A   1      33.942  16.186  23.695  1.00  0.00    -0.207 F 
ENDBRANCH  13  14
ENDBRANCH   6   9
ENDBRANCH   4   5
ENDBRANCH   3   4
ENDBRANCH   2   3
ENDBRANCH   1   2
BRANCH   1  24
ATOM     24  C   UNL A   1      33.730  28.382  25.719  1.00  0.00     0.021 C 
BRANCH  24  25
ATOM     25  C   UNL A   1      33.862  28.510  27.234  1.00  0.00     0.116 C 
BRANCH  25  26
ATOM     26  N   UNL A   1      33.763  29.888  27.682  1.00  0.00    -0.352 N 
ATOM     27  C   UNL A   1      34.676  30.661  28.353  1.00  0.00     0.251 C 
ATOM     28  H   UNL A   1      32.912  30.336  27.471  1.00  0.00     0.163 HD
ATOM     29  O   UNL A   1      34.340  31.750  28.807  1.00  0.00    -0.269 OA
BRANCH  27  30
ATOM     30  C   UNL A   1      36.061  30.181  28.545  1.00  0.00     0.039 A 
ATOM     31  C   UNL A   1      36.966  30.305  27.486  1.00  0.00     0.014 A 
ATOM     32  C   UNL A   1      36.460  29.580  29.742  1.00  0.00     0.014 A 
ATOM     33  C   UNL A   1      38.281  29.867  27.644  1.00  0.00     0.010 A 
ATOM     34  C   UNL A   1      37.791  29.207  29.921  1.00  0.00     0.010 A 
ATOM     35  C   UNL A   1      38.712  29.338  28.871  1.00  0.00    -0.014 A 
BRANCH  35  36
ATOM     36  C   UNL A   1      40.119  28.907  29.066  1.00  0.00     0.031 A 
ATOM     37  C   UNL A   1      41.124  29.849  29.671  1.00  0.00     0.074 A 
ATOM     38  C   UNL A   1      40.503  27.684  28.652  1.00  0.00     0.049 A 
ATOM     39  N   UNL A   1      42.405  29.672  29.873  1.00  0.00    -0.248 NA
ATOM     40  C   UNL A   1      40.629  31.174  30.078  1.00  0.00     0.031 C 
ATOM     41  C   UNL A   1      39.635  26.697  28.009  1.00  0.00     0.029 A 
ATOM     42  N   UNL A   1      41.728  27.067  28.702  1.00  0.00    -0.354 N 
ATOM     43  C   UNL A   1      42.870  30.864  30.415  1.00  0.00     0.074 A 
ATOM     44  C   UNL A   1      41.746  31.774  30.462  1.00  0.00     0.031 C 
ATOM     45  C   UNL A   1      40.347  25.591  27.745  1.00  0.00     0.029 A 
ATOM     46  C   UNL A   1      41.728  25.802  28.168  1.00  0.00     0.049 A 
ATOM     47  H   UNL A   1      42.529  27.491  29.085  1.00  0.00     0.167 HD
ATOM     48  C   UNL A   1      44.115  31.166  30.855  1.00  0.00     0.037 A 
ATOM     49  C   UNL A   1      42.731  24.913  28.031  1.00  0.00     0.037 A 
ATOM     50  C   UNL A   1      45.225  30.250  30.832  1.00  0.00     0.049 A 
ATOM     51  C   UNL A   1      44.102  25.270  28.533  1.00  0.00     0.074 A 
ATOM     52  C   UNL A   1      46.511  30.440  31.307  1.00  0.00     0.029 A 
ATOM     53  N   UNL A   1      45.180  28.967  30.305  1.00  0.00    -0.354 N 
ATOM     54  N   UNL A   1      44.512  26.378  29.103  1.00  0.00    -0.248 NA
ATOM     55  C   UNL A   1      45.149  24.250  28.382  1.00  0.00     0.031 C 
ATOM     56  C   UNL A   1      47.256  29.289  31.030  1.00  0.00     0.029 A 
ATOM     57  C   UNL A   1      46.420  28.363  30.427  1.00  0.00     0.049 A 
ATOM     58  H   UNL A   1      44.385  28.549  29.903  1.00  0.00     0.167 HD
ATOM     59  C   UNL A   1      45.852  26.176  29.407  1.00  0.00     0.074 A 
ATOM     60  C   UNL A   1      46.182  24.835  28.969  1.00  0.00     0.031 C 
ATOM     61  C   UNL A   1      46.730  27.024  29.994  1.00  0.00     0.037 A 
BRANCH  48  62
ATOM     62  C   UNL A   1      44.342  32.545  31.404  1.00  0.00     0.057 A 
ATOM     63  C   UNL A   1      44.682  33.623  30.577  1.00  0.00     0.134 A 
ATOM     64  C   UNL A   1      44.182  32.807  32.771  1.00  0.00     0.134 A 
ATOM     65  F   UNL A   1      44.861  33.438  29.259  1.00  0.00    -0.206 F 
ATOM     66  C   UNL A   1      44.880  34.906  31.091  1.00  0.00     0.040 A 
ATOM     67  C   UNL A   1      44.350  34.091  33.293  1.00  0.00     0.040 A 
ATOM     68  F   UNL A   1      43.851  31.822  33.619  1.00  0.00    -0.206 F 
ATOM     69  C   UNL A   1      44.707  35.143  32.452  1.00  0.00     0.006 A 
ENDBRANCH  48  62
BRANCH  49  70
ATOM     70  C   UNL A   1      42.471  23.588  27.414  1.00  0.00     0.057 A 
ATOM     71  C   UNL A   1      42.125  22.482  28.198  1.00  0.00     0.134 A 
ATOM     72  C   UNL A   1      42.575  23.393  26.031  1.00  0.00     0.134 A 
ATOM     73  F   UNL A   1      42.027  22.603  29.530  1.00  0.00    -0.206 F 
ATOM     74  C   UNL A   1      41.912  21.223  27.634  1.00  0.00     0.040 A 
ATOM     75  C   UNL A   1      42.339  22.144  25.451  1.00  0.00     0.040 A 
ATOM     76  F   UNL A   1      42.895  24.414  25.224  1.00  0.00    -0.206 F 
ATOM     77  C   UNL A   1      42.015  21.053  26.255  1.00  0.00     0.006 A 
ENDBRANCH  49  70
BRANCH  61  78
ATOM     78  C   UNL A   1      48.121  26.512  30.234  1.00  0.00     0.057 A 
ATOM     79  C   UNL A   1      49.147  26.688  29.298  1.00  0.00     0.134 A 
ATOM     80  C   UNL A   1      48.442  25.862  31.432  1.00  0.00     0.134 A 
ATOM     81  F   UNL A   1      48.903  27.292  28.125  1.00  0.00    -0.206 F 
ATOM     82  C   UNL A   1      50.437  26.211  29.534  1.00  0.00     0.040 A 
ATOM     83  C   UNL A   1      49.734  25.404  31.692  1.00  0.00     0.040 A 
ATOM     84  F   UNL A   1      47.507  25.670  32.376  1.00  0.00    -0.206 F 
ATOM     85  C   UNL A   1      50.735  25.572  30.737  1.00  0.00     0.006 A 
ENDBRANCH  61  78
ENDBRANCH  35  36
ENDBRANCH  27  30
ENDBRANCH  25  26
ENDBRANCH  24  25
ENDBRANCH   1  24
TORSDOF 14
ENDMDL
