MODEL 1
REMARK VINA RESULT:     -12.6      0.000      0.000
REMARK SMILES CCc1ccc(C[NH+]2CCC3(CC2)[C@@H](C(=O)NCCCCCCNC(=O)c2ccc(-c4c5nc(c(-c6c(F)cccc6F)c6ccc([nH]6)c(-c6c(F)cccc6F)c6nc(c(-c7c(F)cccc7F)c7ccc4[nH]7)C=C6)C=C5)cc2)CC(=O)N3C)nc1
REMARK SMILES IDX 20 1 19 2 18 3 17 4 15 5 16 6 14 8 8 9 9 10 13 11 10 13
REMARK SMILES IDX 12 14 11 15 84 16 81 17 82 18 85 19 83 20 7 21 6 22 3 23
REMARK SMILES IDX 4 24 87 25 5 26 86 27 2 28 1 29 21 30 22 31 23 32 24 33
REMARK SMILES IDX 25 34 26 36 27 37 28 38 80 39 29 40 79 41 30 42 31 43 32 44
REMARK SMILES IDX 73 45 33 46 78 47 72 48 74 49 34 50 77 51 71 52 70 53 35 55
REMARK SMILES IDX 61 56 44 57 60 58 45 59 48 60 59 61 75 62 46 63 47 64 58 66
REMARK SMILES IDX 76 67 49 68 36 69 37 70 42 71 38 72 39 73 41 74 43 75 40 76
REMARK SMILES IDX 62 77 63 78 68 79 64 80 65 81 67 82 69 83 66 84 50 85 51 86
REMARK SMILES IDX 56 87 52 88 53 89 55 90 57 91 54 92
REMARK H PARENT 17 7 8 12 24 35 74 54 48 65
REMARK Flexibility Score: inf
ROOT
ATOM      1  C   UNL A   1      32.450  29.974  26.803  1.00  0.00     0.002 C 
ENDROOT
BRANCH   1   2
ATOM      2  C   UNL A   1      31.855  28.806  27.588  1.00  0.00     0.021 C 
BRANCH   2   3
ATOM      3  C   UNL A   1      32.080  27.448  26.910  1.00  0.00     0.116 C 
BRANCH   3   4
ATOM      4  N   UNL A   1      30.888  26.619  26.963  1.00  0.00    -0.356 N 
ATOM      5  C   UNL A   1      30.188  25.844  26.101  1.00  0.00     0.226 C 
ATOM      6  O   UNL A   1      29.273  25.221  26.658  1.00  0.00    -0.275 OA
ATOM      7  H   UNL A   1      30.483  26.621  27.861  1.00  0.00     0.163 HD
BRANCH   5   8
ATOM      8  C   UNL A   1      30.532  25.578  24.615  1.00  0.00     0.114 C 
ATOM      9  N   UNL A   1      33.088  22.583  23.478  1.00  0.00    -0.330 N 
ATOM     10  C   UNL A   1      32.866  23.482  22.371  1.00  0.00     0.265 C 
ATOM     11  C   UNL A   1      33.611  23.267  24.640  1.00  0.00     0.265 C 
ATOM     12  H   UNL A   1      33.856  21.985  23.170  1.00  0.00     0.348 HD
ATOM     13  C   UNL A   1      31.837  24.556  22.692  1.00  0.00     0.091 C 
ATOM     14  C   UNL A   1      32.902  24.549  25.078  1.00  0.00     0.091 C 
ATOM     15  C   UNL A   1      31.984  25.271  24.080  1.00  0.00     0.065 C 
ATOM     16  N   UNL A   1      32.490  26.628  23.800  1.00  0.00    -0.339 N 
ATOM     17  C   UNL A   1      30.158  26.854  23.799  1.00  0.00     0.116 C 
ATOM     18  C   UNL A   1      31.478  27.543  23.577  1.00  0.00     0.223 C 
ATOM     19  C   UNL A   1      33.887  26.956  23.586  1.00  0.00     0.147 C 
ATOM     20  O   UNL A   1      31.621  28.697  23.188  1.00  0.00    -0.275 OA
BRANCH   9  21
ATOM     21  C   UNL A   1      32.218  21.408  23.650  1.00  0.00     0.319 C 
BRANCH  21  22
ATOM     22  C   UNL A   1      32.836  20.017  23.650  1.00  0.00     0.095 A 
ATOM     23  C   UNL A   1      33.712  17.406  24.024  1.00  0.00    -0.030 A 
ATOM     24  C   UNL A   1      32.778  17.692  23.028  1.00  0.00     0.007 A 
ATOM     25  C   UNL A   1      34.276  18.499  24.657  1.00  0.00     0.115 A 
ATOM     26  C   UNL A   1      32.344  19.006  22.828  1.00  0.00     0.030 A 
ATOM     27  N   UNL A   1      33.858  19.780  24.501  1.00  0.00    -0.255 NA
BRANCH  23  28
ATOM     28  C   UNL A   1      34.089  15.992  24.376  1.00  0.00     0.034 C 
ATOM     29  C   UNL A   1      35.327  15.872  25.268  1.00  0.00     0.009 C 
ENDBRANCH  23  28
ENDBRANCH  21  22
ENDBRANCH   9  21
ENDBRANCH   5   8
ENDBRANCH   3   4
ENDBRANCH   2   3
ENDBRANCH   1   2
BRANCH   1  30
ATOM     30  C   UNL A   1      31.440  30.826  26.028  1.00  0.00     0.002 C 
BRANCH  30  31
ATOM     31  C   UNL A   1      31.305  32.276  26.492  1.00  0.00     0.021 C 
BRANCH  31  32
ATOM     32  C   UNL A   1      32.503  32.826  27.256  1.00  0.00     0.116 C 
BRANCH  32  33
ATOM     33  N   UNL A   1      32.335  34.224  27.622  1.00  0.00    -0.352 N 
ATOM     34  C   UNL A   1      32.973  34.966  28.579  1.00  0.00     0.251 C 
ATOM     35  H   UNL A   1      31.656  34.712  27.101  1.00  0.00     0.163 HD
ATOM     36  O   UNL A   1      32.560  36.084  28.873  1.00  0.00    -0.269 OA
BRANCH  34  37
ATOM     37  C   UNL A   1      34.156  34.414  29.265  1.00  0.00     0.039 A 
ATOM     38  C   UNL A   1      33.986  33.779  30.497  1.00  0.00     0.014 A 
ATOM     39  C   UNL A   1      35.429  34.536  28.700  1.00  0.00     0.014 A 
ATOM     40  C   UNL A   1      35.089  33.225  31.142  1.00  0.00     0.010 A 
ATOM     41  C   UNL A   1      36.513  33.910  29.301  1.00  0.00     0.010 A 
ATOM     42  C   UNL A   1      36.356  33.262  30.535  1.00  0.00    -0.014 A 
BRANCH  42  43
ATOM     43  C   UNL A   1      37.536  32.652  31.193  1.00  0.00     0.031 A 
ATOM     44  C   UNL A   1      38.222  31.474  30.557  1.00  0.00     0.074 A 
ATOM     45  C   UNL A   1      37.960  33.132  32.378  1.00  0.00     0.049 A 
ATOM     46  N   UNL A   1      39.228  30.765  30.999  1.00  0.00    -0.248 NA
ATOM     47  C   UNL A   1      37.689  31.017  29.262  1.00  0.00     0.031 C 
ATOM     48  C   UNL A   1      37.350  34.247  33.108  1.00  0.00     0.029 A 
ATOM     49  N   UNL A   1      39.002  32.741  33.179  1.00  0.00    -0.354 N 
ATOM     50  C   UNL A   1      39.449  29.785  30.040  1.00  0.00     0.074 A 
ATOM     51  C   UNL A   1      38.426  29.941  29.029  1.00  0.00     0.031 C 
ATOM     52  C   UNL A   1      38.047  34.466  34.235  1.00  0.00     0.029 A 
ATOM     53  C   UNL A   1      39.122  33.485  34.329  1.00  0.00     0.049 A 
ATOM     54  H   UNL A   1      39.608  31.999  32.952  1.00  0.00     0.167 HD
ATOM     55  C   UNL A   1      40.435  28.859  29.988  1.00  0.00     0.037 A 
ATOM     56  C   UNL A   1      39.996  33.376  35.347  1.00  0.00     0.037 A 
ATOM     57  C   UNL A   1      41.455  28.715  30.992  1.00  0.00     0.049 A 
ATOM     58  C   UNL A   1      41.053  32.306  35.285  1.00  0.00     0.074 A 
ATOM     59  C   UNL A   1      42.511  27.823  31.027  1.00  0.00     0.029 A 
ATOM     60  N   UNL A   1      41.543  29.487  32.141  1.00  0.00    -0.354 N 
ATOM     61  N   UNL A   1      41.284  31.421  34.345  1.00  0.00    -0.248 NA
ATOM     62  C   UNL A   1      41.977  32.224  36.425  1.00  0.00     0.031 C 
ATOM     63  C   UNL A   1      43.214  28.025  32.219  1.00  0.00     0.029 A 
ATOM     64  C   UNL A   1      42.628  29.081  32.900  1.00  0.00     0.049 A 
ATOM     65  H   UNL A   1      40.926  30.216  32.382  1.00  0.00     0.167 HD
ATOM     66  C   UNL A   1      42.399  30.705  34.761  1.00  0.00     0.074 A 
ATOM     67  C   UNL A   1      42.808  31.271  36.030  1.00  0.00     0.031 C 
ATOM     68  C   UNL A   1      43.029  29.672  34.151  1.00  0.00     0.037 A 
BRANCH  55  69
ATOM     69  C   UNL A   1      40.465  27.944  28.798  1.00  0.00     0.057 A 
ATOM     70  C   UNL A   1      39.740  26.744  28.776  1.00  0.00     0.134 A 
ATOM     71  C   UNL A   1      41.192  28.278  27.650  1.00  0.00     0.134 A 
ATOM     72  F   UNL A   1      39.032  26.357  29.849  1.00  0.00    -0.206 F 
ATOM     73  C   UNL A   1      39.757  25.899  27.665  1.00  0.00     0.040 A 
ATOM     74  C   UNL A   1      41.193  27.456  26.520  1.00  0.00     0.040 A 
ATOM     75  F   UNL A   1      41.905  29.413  27.599  1.00  0.00    -0.206 F 
ATOM     76  C   UNL A   1      40.479  26.259  26.529  1.00  0.00     0.006 A 
ENDBRANCH  55  69
BRANCH  56  77
ATOM     77  C   UNL A   1      39.924  34.301  36.507  1.00  0.00     0.057 A 
ATOM     78  C   UNL A   1      39.225  33.952  37.669  1.00  0.00     0.134 A 
ATOM     79  C   UNL A   1      40.510  35.573  36.468  1.00  0.00     0.134 A 
ATOM     80  F   UNL A   1      38.627  32.755  37.762  1.00  0.00    -0.206 F 
ATOM     81  C   UNL A   1      39.080  34.844  38.733  1.00  0.00     0.040 A 
ATOM     82  C   UNL A   1      40.401  36.463  37.538  1.00  0.00     0.040 A 
ATOM     83  F   UNL A   1      41.204  35.967  35.390  1.00  0.00    -0.206 F 
ATOM     84  C   UNL A   1      39.671  36.104  38.669  1.00  0.00     0.006 A 
ENDBRANCH  56  77
BRANCH  68  85
ATOM     85  C   UNL A   1      44.256  29.124  34.820  1.00  0.00     0.057 A 
ATOM     86  C   UNL A   1      44.188  28.100  35.774  1.00  0.00     0.134 A 
ATOM     87  C   UNL A   1      45.526  29.605  34.476  1.00  0.00     0.134 A 
ATOM     88  F   UNL A   1      43.001  27.605  36.158  1.00  0.00    -0.206 F 
ATOM     89  C   UNL A   1      45.338  27.595  36.382  1.00  0.00     0.040 A 
ATOM     90  C   UNL A   1      46.684  29.084  35.054  1.00  0.00     0.040 A 
ATOM     91  F   UNL A   1      45.662  30.577  33.562  1.00  0.00    -0.206 F 
ATOM     92  C   UNL A   1      46.592  28.081  36.016  1.00  0.00     0.006 A 
ENDBRANCH  68  85
ENDBRANCH  42  43
ENDBRANCH  34  37
ENDBRANCH  32  33
ENDBRANCH  31  32
ENDBRANCH  30  31
ENDBRANCH   1  30
TORSDOF 16
ENDMDL
MODEL 2
REMARK VINA RESULT:     -12.4      1.872      3.512
REMARK SMILES CCc1ccc(C[NH+]2CCC3(CC2)[C@@H](C(=O)NCCCCCCNC(=O)c2ccc(-c4c5nc(c(-c6c(F)cccc6F)c6ccc([nH]6)c(-c6c(F)cccc6F)c6nc(c(-c7c(F)cccc7F)c7ccc4[nH]7)C=C6)C=C5)cc2)CC(=O)N3C)nc1
REMARK SMILES IDX 20 1 19 2 18 3 17 4 15 5 16 6 14 8 8 9 9 10 13 11 10 13
REMARK SMILES IDX 12 14 11 15 84 16 81 17 82 18 85 19 83 20 7 21 6 22 3 23
REMARK SMILES IDX 4 24 87 25 5 26 86 27 2 28 1 29 21 30 22 31 23 32 24 33
REMARK SMILES IDX 25 34 26 36 27 37 28 38 80 39 29 40 79 41 30 42 31 43 32 44
REMARK SMILES IDX 73 45 33 46 78 47 72 48 74 49 34 50 77 51 71 52 70 53 35 55
REMARK SMILES IDX 61 56 44 57 60 58 45 59 48 60 59 61 75 62 46 63 47 64 58 66
REMARK SMILES IDX 76 67 49 68 36 69 37 70 42 71 38 72 39 73 41 74 43 75 40 76
REMARK SMILES IDX 62 77 63 78 68 79 64 80 65 81 67 82 69 83 66 84 50 85 51 86
REMARK SMILES IDX 56 87 52 88 53 89 55 90 57 91 54 92
REMARK H PARENT 17 7 8 12 24 35 74 54 48 65
REMARK Flexibility Score: inf
ROOT
ATOM      1  C   UNL A   1      31.809  29.271  26.753  1.00  0.00     0.002 C 
ENDROOT
BRANCH   1   2
ATOM      2  C   UNL A   1      33.226  28.699  26.738  1.00  0.00     0.021 C 
BRANCH   2   3
ATOM      3  C   UNL A   1      33.755  28.438  25.322  1.00  0.00     0.116 C 
BRANCH   3   4
ATOM      4  N   UNL A   1      32.896  27.524  24.588  1.00  0.00    -0.356 N 
ATOM      5  C   UNL A   1      32.562  26.214  24.661  1.00  0.00     0.226 C 
ATOM      6  O   UNL A   1      31.670  25.906  23.857  1.00  0.00    -0.275 OA
ATOM      7  H   UNL A   1      32.436  27.976  23.843  1.00  0.00     0.163 HD
BRANCH   5   8
ATOM      8  C   UNL A   1      33.062  25.193  25.711  1.00  0.00     0.114 C 
ATOM      9  N   UNL A   1      35.779  22.270  24.780  1.00  0.00    -0.330 N 
ATOM     10  C   UNL A   1      35.167  21.980  26.054  1.00  0.00     0.265 C 
ATOM     11  C   UNL A   1      34.802  22.394  23.721  1.00  0.00     0.265 C 
ATOM     12  H   UNL A   1      36.296  21.421  24.547  1.00  0.00     0.348 HD
ATOM     13  C   UNL A   1      34.228  23.085  26.514  1.00  0.00     0.091 C 
ATOM     14  C   UNL A   1      33.587  23.284  23.988  1.00  0.00     0.091 C 
ATOM     15  C   UNL A   1      33.236  23.649  25.438  1.00  0.00     0.065 C 
ATOM     16  N   UNL A   1      31.899  23.133  25.792  1.00  0.00    -0.339 N 
ATOM     17  C   UNL A   1      32.052  25.192  26.900  1.00  0.00     0.116 C 
ATOM     18  C   UNL A   1      31.220  23.959  26.669  1.00  0.00     0.223 C 
ATOM     19  C   UNL A   1      31.402  21.819  25.428  1.00  0.00     0.147 C 
ATOM     20  O   UNL A   1      30.160  23.701  27.228  1.00  0.00    -0.275 OA
BRANCH   9  21
ATOM     21  C   UNL A   1      37.018  23.062  24.728  1.00  0.00     0.319 C 
BRANCH  21  22
ATOM     22  C   UNL A   1      38.115  22.797  25.751  1.00  0.00     0.095 A 
ATOM     23  C   UNL A   1      40.404  22.403  27.276  1.00  0.00    -0.030 A 
ATOM     24  C   UNL A   1      39.666  23.579  27.418  1.00  0.00     0.007 A 
ATOM     25  C   UNL A   1      39.832  21.419  26.489  1.00  0.00     0.115 A 
ATOM     26  C   UNL A   1      38.507  23.775  26.661  1.00  0.00     0.030 A 
ATOM     27  N   UNL A   1      38.724  21.592  25.727  1.00  0.00    -0.255 NA
BRANCH  23  28
ATOM     28  C   UNL A   1      41.737  22.216  27.952  1.00  0.00     0.034 C 
ATOM     29  C   UNL A   1      42.418  23.520  28.375  1.00  0.00     0.009 C 
ENDBRANCH  23  28
ENDBRANCH  21  22
ENDBRANCH   9  21
ENDBRANCH   5   8
ENDBRANCH   3   4
ENDBRANCH   2   3
ENDBRANCH   1   2
BRANCH   1  30
ATOM     30  C   UNL A   1      31.568  30.452  25.808  1.00  0.00     0.002 C 
BRANCH  30  31
ATOM     31  C   UNL A   1      31.392  31.813  26.482  1.00  0.00     0.021 C 
BRANCH  31  32
ATOM     32  C   UNL A   1      32.674  32.441  27.018  1.00  0.00     0.116 C 
BRANCH  32  33
ATOM     33  N   UNL A   1      32.485  33.824  27.428  1.00  0.00    -0.352 N 
ATOM     34  C   UNL A   1      33.083  34.532  28.436  1.00  0.00     0.251 C 
ATOM     35  H   UNL A   1      31.825  34.328  26.899  1.00  0.00     0.163 HD
ATOM     36  O   UNL A   1      32.654  35.637  28.754  1.00  0.00    -0.269 OA
BRANCH  34  37
ATOM     37  C   UNL A   1      34.241  33.958  29.145  1.00  0.00     0.039 A 
ATOM     38  C   UNL A   1      34.029  32.915  30.049  1.00  0.00     0.014 A 
ATOM     39  C   UNL A   1      35.528  34.459  28.930  1.00  0.00     0.014 A 
ATOM     40  C   UNL A   1      35.117  32.342  30.703  1.00  0.00     0.010 A 
ATOM     41  C   UNL A   1      36.619  33.833  29.518  1.00  0.00     0.010 A 
ATOM     42  C   UNL A   1      36.423  32.778  30.422  1.00  0.00    -0.014 A 
BRANCH  42  43
ATOM     43  C   UNL A   1      37.595  32.160  31.087  1.00  0.00     0.031 A 
ATOM     44  C   UNL A   1      38.474  31.209  30.322  1.00  0.00     0.074 A 
ATOM     45  C   UNL A   1      37.839  32.424  32.385  1.00  0.00     0.049 A 
ATOM     46  N   UNL A   1      39.507  30.523  30.737  1.00  0.00    -0.248 NA
ATOM     47  C   UNL A   1      38.130  30.980  28.908  1.00  0.00     0.031 C 
ATOM     48  C   UNL A   1      37.033  33.301  33.238  1.00  0.00     0.029 A 
ATOM     49  N   UNL A   1      38.834  31.977  33.215  1.00  0.00    -0.354 N 
ATOM     50  C   UNL A   1      39.936  29.787  29.640  1.00  0.00     0.074 A 
ATOM     51  C   UNL A   1      39.008  30.051  28.562  1.00  0.00     0.031 C 
ATOM     52  C   UNL A   1      37.583  33.349  34.462  1.00  0.00     0.029 A 
ATOM     53  C   UNL A   1      38.751  32.476  34.494  1.00  0.00     0.049 A 
ATOM     54  H   UNL A   1      39.542  31.358  32.924  1.00  0.00     0.167 HD
ATOM     55  C   UNL A   1      41.024  28.990  29.530  1.00  0.00     0.037 A 
ATOM     56  C   UNL A   1      39.526  32.243  35.569  1.00  0.00     0.037 A 
ATOM     57  C   UNL A   1      41.948  28.739  30.603  1.00  0.00     0.049 A 
ATOM     58  C   UNL A   1      40.701  31.314  35.430  1.00  0.00     0.074 A 
ATOM     59  C   UNL A   1      43.094  27.964  30.592  1.00  0.00     0.029 A 
ATOM     60  N   UNL A   1      41.830  29.263  31.882  1.00  0.00    -0.354 N 
ATOM     61  N   UNL A   1      41.127  30.667  34.371  1.00  0.00    -0.248 NA
ATOM     62  C   UNL A   1      41.510  31.087  36.636  1.00  0.00     0.031 C 
ATOM     63  C   UNL A   1      43.645  27.982  31.877  1.00  0.00     0.029 A 
ATOM     64  C   UNL A   1      42.874  28.813  32.674  1.00  0.00     0.049 A 
ATOM     65  H   UNL A   1      41.111  29.865  32.183  1.00  0.00     0.167 HD
ATOM     66  C   UNL A   1      42.271  29.990  34.772  1.00  0.00     0.074 A 
ATOM     67  C   UNL A   1      42.482  30.319  36.167  1.00  0.00     0.031 C 
ATOM     68  C   UNL A   1      43.076  29.170  34.054  1.00  0.00     0.037 A 
BRANCH  55  69
ATOM     69  C   UNL A   1      41.280  28.346  28.198  1.00  0.00     0.057 A 
ATOM     70  C   UNL A   1      42.108  28.947  27.238  1.00  0.00     0.134 A 
ATOM     71  C   UNL A   1      40.727  27.100  27.881  1.00  0.00     0.134 A 
ATOM     72  F   UNL A   1      42.659  30.148  27.471  1.00  0.00    -0.206 F 
ATOM     73  C   UNL A   1      42.356  28.343  26.004  1.00  0.00     0.040 A 
ATOM     74  C   UNL A   1      40.992  26.471  26.662  1.00  0.00     0.040 A 
ATOM     75  F   UNL A   1      39.930  26.465  28.753  1.00  0.00    -0.206 F 
ATOM     76  C   UNL A   1      41.804  27.096  25.717  1.00  0.00     0.006 A 
ENDBRANCH  55  69
BRANCH  56  77
ATOM     77  C   UNL A   1      39.229  32.898  36.870  1.00  0.00     0.057 A 
ATOM     78  C   UNL A   1      38.308  32.345  37.766  1.00  0.00     0.134 A 
ATOM     79  C   UNL A   1      39.825  34.114  37.230  1.00  0.00     0.134 A 
ATOM     80  F   UNL A   1      37.691  31.190  37.472  1.00  0.00    -0.206 F 
ATOM     81  C   UNL A   1      37.959  32.992  38.953  1.00  0.00     0.040 A 
ATOM     82  C   UNL A   1      39.511  34.756  38.429  1.00  0.00     0.040 A 
ATOM     83  F   UNL A   1      40.726  34.694  36.423  1.00  0.00    -0.206 F 
ATOM     84  C   UNL A   1      38.564  34.202  39.288  1.00  0.00     0.006 A 
ENDBRANCH  56  77
BRANCH  68  85
ATOM     85  C   UNL A   1      44.286  28.614  34.749  1.00  0.00     0.057 A 
ATOM     86  C   UNL A   1      45.484  29.333  34.846  1.00  0.00     0.134 A 
ATOM     87  C   UNL A   1      44.235  27.354  35.361  1.00  0.00     0.134 A 
ATOM     88  F   UNL A   1      45.602  30.539  34.270  1.00  0.00    -0.206 F 
ATOM     89  C   UNL A   1      46.597  28.807  35.502  1.00  0.00     0.040 A 
ATOM     90  C   UNL A   1      45.332  26.833  36.047  1.00  0.00     0.040 A 
ATOM     91  F   UNL A   1      43.115  26.618  35.314  1.00  0.00    -0.206 F 
ATOM     92  C   UNL A   1      46.520  27.556  36.113  1.00  0.00     0.006 A 
ENDBRANCH  68  85
ENDBRANCH  42  43
ENDBRANCH  34  37
ENDBRANCH  32  33
ENDBRANCH  31  32
ENDBRANCH  30  31
ENDBRANCH   1  30
TORSDOF 16
ENDMDL
MODEL 3
REMARK VINA RESULT:     -12.4      2.090      6.641
REMARK SMILES CCc1ccc(C[NH+]2CCC3(CC2)[C@@H](C(=O)NCCCCCCNC(=O)c2ccc(-c4c5nc(c(-c6c(F)cccc6F)c6ccc([nH]6)c(-c6c(F)cccc6F)c6nc(c(-c7c(F)cccc7F)c7ccc4[nH]7)C=C6)C=C5)cc2)CC(=O)N3C)nc1
REMARK SMILES IDX 20 1 19 2 18 3 17 4 15 5 16 6 14 8 8 9 9 10 13 11 10 13
REMARK SMILES IDX 12 14 11 15 84 16 81 17 82 18 85 19 83 20 7 21 6 22 3 23
REMARK SMILES IDX 4 24 87 25 5 26 86 27 2 28 1 29 21 30 22 31 23 32 24 33
REMARK SMILES IDX 25 34 26 36 27 37 28 38 80 39 29 40 79 41 30 42 31 43 32 44
REMARK SMILES IDX 73 45 33 46 78 47 72 48 74 49 34 50 77 51 71 52 70 53 35 55
REMARK SMILES IDX 61 56 44 57 60 58 45 59 48 60 59 61 75 62 46 63 47 64 58 66
REMARK SMILES IDX 76 67 49 68 36 69 37 70 42 71 38 72 39 73 41 74 43 75 40 76
REMARK SMILES IDX 62 77 63 78 68 79 64 80 65 81 67 82 69 83 66 84 50 85 51 86
REMARK SMILES IDX 56 87 52 88 53 89 55 90 57 91 54 92
REMARK H PARENT 17 7 8 12 24 35 74 54 48 65
REMARK Flexibility Score: inf
ROOT
ATOM      1  C   UNL A   1      29.966  30.867  24.262  1.00  0.00     0.002 C 
ENDROOT
BRANCH   1   2
ATOM      2  C   UNL A   1      29.984  29.670  23.312  1.00  0.00     0.021 C 
BRANCH   2   3
ATOM      3  C   UNL A   1      30.849  28.510  23.821  1.00  0.00     0.116 C 
BRANCH   3   4
ATOM      4  N   UNL A   1      32.248  28.691  23.474  1.00  0.00    -0.356 N 
ATOM      5  C   UNL A   1      33.439  28.209  23.900  1.00  0.00     0.226 C 
ATOM      6  O   UNL A   1      34.385  28.588  23.193  1.00  0.00    -0.275 OA
ATOM      7  H   UNL A   1      32.359  29.333  22.734  1.00  0.00     0.163 HD
BRANCH   5   8
ATOM      8  C   UNL A   1      33.662  27.167  25.022  1.00  0.00     0.114 C 
ATOM      9  N   UNL A   1      34.100  23.171  24.222  1.00  0.00    -0.330 N 
ATOM     10  C   UNL A   1      33.861  23.364  25.632  1.00  0.00     0.265 C 
ATOM     11  C   UNL A   1      33.042  23.727  23.408  1.00  0.00     0.265 C 
ATOM     12  H   UNL A   1      34.020  22.163  24.086  1.00  0.00     0.348 HD
ATOM     13  C   UNL A   1      33.800  24.835  26.017  1.00  0.00     0.091 C 
ATOM     14  C   UNL A   1      32.590  25.154  23.722  1.00  0.00     0.091 C 
ATOM     15  C   UNL A   1      32.944  25.764  25.087  1.00  0.00     0.065 C 
ATOM     16  N   UNL A   1      31.718  26.092  25.840  1.00  0.00    -0.339 N 
ATOM     17  C   UNL A   1      33.218  27.811  26.372  1.00  0.00     0.116 C 
ATOM     18  C   UNL A   1      31.858  27.220  26.628  1.00  0.00     0.223 C 
ATOM     19  C   UNL A   1      30.546  25.240  25.914  1.00  0.00     0.147 C 
ATOM     20  O   UNL A   1      31.049  27.629  27.453  1.00  0.00    -0.275 OA
BRANCH   9  21
ATOM     21  C   UNL A   1      35.481  23.150  23.712  1.00  0.00     0.319 C 
BRANCH  21  22
ATOM     22  C   UNL A   1      36.605  22.683  24.626  1.00  0.00     0.095 A 
ATOM     23  C   UNL A   1      38.917  21.844  25.921  1.00  0.00    -0.030 A 
ATOM     24  C   UNL A   1      38.470  23.157  26.075  1.00  0.00     0.007 A 
ATOM     25  C   UNL A   1      38.061  20.986  25.253  1.00  0.00     0.115 A 
ATOM     26  C   UNL A   1      37.300  23.579  25.435  1.00  0.00     0.030 A 
ATOM     27  N   UNL A   1      36.935  21.373  24.605  1.00  0.00    -0.255 NA
BRANCH  23  28
ATOM     28  C   UNL A   1      40.247  21.391  26.461  1.00  0.00     0.034 C 
ATOM     29  C   UNL A   1      40.692  22.115  27.734  1.00  0.00     0.009 C 
ENDBRANCH  23  28
ENDBRANCH  21  22
ENDBRANCH   9  21
ENDBRANCH   5   8
ENDBRANCH   3   4
ENDBRANCH   2   3
ENDBRANCH   1   2
BRANCH   1  30
ATOM     30  C   UNL A   1      31.024  30.841  25.369  1.00  0.00     0.002 C 
BRANCH  30  31
ATOM     31  C   UNL A   1      31.004  32.031  26.329  1.00  0.00     0.021 C 
BRANCH  31  32
ATOM     32  C   UNL A   1      32.344  32.365  26.974  1.00  0.00     0.116 C 
BRANCH  32  33
ATOM     33  N   UNL A   1      32.435  33.761  27.374  1.00  0.00    -0.352 N 
ATOM     34  C   UNL A   1      33.278  34.368  28.266  1.00  0.00     0.251 C 
ATOM     35  H   UNL A   1      31.790  34.362  26.936  1.00  0.00     0.163 HD
ATOM     36  O   UNL A   1      33.078  35.527  28.617  1.00  0.00    -0.269 OA
BRANCH  34  37
ATOM     37  C   UNL A   1      34.426  33.620  28.813  1.00  0.00     0.039 A 
ATOM     38  C   UNL A   1      35.693  34.206  28.774  1.00  0.00     0.014 A 
ATOM     39  C   UNL A   1      34.253  32.340  29.347  1.00  0.00     0.014 A 
ATOM     40  C   UNL A   1      36.781  33.525  29.315  1.00  0.00     0.010 A 
ATOM     41  C   UNL A   1      35.321  31.699  29.960  1.00  0.00     0.010 A 
ATOM     42  C   UNL A   1      36.598  32.279  29.937  1.00  0.00    -0.014 A 
BRANCH  42  43
ATOM     43  C   UNL A   1      37.740  31.553  30.543  1.00  0.00     0.031 A 
ATOM     44  C   UNL A   1      38.134  31.834  31.967  1.00  0.00     0.074 A 
ATOM     45  C   UNL A   1      38.441  30.676  29.799  1.00  0.00     0.049 A 
ATOM     46  N   UNL A   1      39.132  31.351  32.659  1.00  0.00    -0.248 NA
ATOM     47  C   UNL A   1      37.309  32.808  32.703  1.00  0.00     0.031 C 
ATOM     48  C   UNL A   1      38.174  30.350  28.396  1.00  0.00     0.029 A 
ATOM     49  N   UNL A   1      39.526  29.900  30.120  1.00  0.00    -0.354 N 
ATOM     50  C   UNL A   1      39.054  31.957  33.907  1.00  0.00     0.074 A 
ATOM     51  C   UNL A   1      37.959  32.899  33.854  1.00  0.00     0.031 C 
ATOM     52  C   UNL A   1      39.054  29.422  27.987  1.00  0.00     0.029 A 
ATOM     53  C   UNL A   1      39.971  29.119  29.080  1.00  0.00     0.049 A 
ATOM     54  H   UNL A   1      39.946  29.902  31.010  1.00  0.00     0.167 HD
ATOM     55  C   UNL A   1      39.807  31.725  35.008  1.00  0.00     0.037 A 
ATOM     56  C   UNL A   1      41.009  28.265  29.018  1.00  0.00     0.037 A 
ATOM     57  C   UNL A   1      40.889  30.780  35.057  1.00  0.00     0.049 A 
ATOM     58  C   UNL A   1      41.857  28.062  30.244  1.00  0.00     0.074 A 
ATOM     59  C   UNL A   1      41.702  30.453  36.127  1.00  0.00     0.029 A 
ATOM     60  N   UNL A   1      41.309  30.007  33.984  1.00  0.00    -0.354 N 
ATOM     61  N   UNL A   1      41.739  28.602  31.434  1.00  0.00    -0.248 NA
ATOM     62  C   UNL A   1      42.983  27.125  30.121  1.00  0.00     0.031 C 
ATOM     63  C   UNL A   1      42.643  29.516  35.691  1.00  0.00     0.029 A 
ATOM     64  C   UNL A   1      42.381  29.216  34.363  1.00  0.00     0.049 A 
ATOM     65  H   UNL A   1      40.904  30.019  33.086  1.00  0.00     0.167 HD
ATOM     66  C   UNL A   1      42.746  28.043  32.208  1.00  0.00     0.074 A 
ATOM     67  C   UNL A   1      43.456  27.109  31.358  1.00  0.00     0.031 C 
ATOM     68  C   UNL A   1      43.059  28.278  33.506  1.00  0.00     0.037 A 
BRANCH  55  69
ATOM     69  C   UNL A   1      39.470  32.496  36.252  1.00  0.00     0.057 A 
ATOM     70  C   UNL A   1      38.507  32.039  37.162  1.00  0.00     0.134 A 
ATOM     71  C   UNL A   1      40.138  33.686  36.565  1.00  0.00     0.134 A 
ATOM     72  F   UNL A   1      37.820  30.912  36.917  1.00  0.00    -0.206 F 
ATOM     73  C   UNL A   1      38.204  32.749  38.325  1.00  0.00     0.040 A 
ATOM     74  C   UNL A   1      39.865  34.390  37.740  1.00  0.00     0.040 A 
ATOM     75  F   UNL A   1      41.075  34.180  35.741  1.00  0.00    -0.206 F 
ATOM     76  C   UNL A   1      38.890  33.925  38.621  1.00  0.00     0.006 A 
ENDBRANCH  55  69
BRANCH  56  77
ATOM     77  C   UNL A   1      41.307  27.528  27.762  1.00  0.00     0.057 A 
ATOM     78  C   UNL A   1      42.080  28.107  26.749  1.00  0.00     0.134 A 
ATOM     79  C   UNL A   1      40.790  26.247  27.524  1.00  0.00     0.134 A 
ATOM     80  F   UNL A   1      42.590  29.337  26.909  1.00  0.00    -0.206 F 
ATOM     81  C   UNL A   1      42.298  27.458  25.532  1.00  0.00     0.040 A 
ATOM     82  C   UNL A   1      41.028  25.574  26.325  1.00  0.00     0.040 A 
ATOM     83  F   UNL A   1      40.051  25.629  28.457  1.00  0.00    -0.206 F 
ATOM     84  C   UNL A   1      41.772  26.186  25.318  1.00  0.00     0.006 A 
ENDBRANCH  56  77
BRANCH  68  85
ATOM     85  C   UNL A   1      44.182  27.478  34.098  1.00  0.00     0.057 A 
ATOM     86  C   UNL A   1      43.986  26.193  34.620  1.00  0.00     0.134 A 
ATOM     87  C   UNL A   1      45.487  27.989  34.111  1.00  0.00     0.134 A 
ATOM     88  F   UNL A   1      42.759  25.651  34.650  1.00  0.00    -0.206 F 
ATOM     89  C   UNL A   1      45.042  25.457  35.159  1.00  0.00     0.040 A 
ATOM     90  C   UNL A   1      46.556  27.249  34.618  1.00  0.00     0.040 A 
ATOM     91  F   UNL A   1      45.746  29.209  33.617  1.00  0.00    -0.206 F 
ATOM     92  C   UNL A   1      46.333  25.982  35.152  1.00  0.00     0.006 A 
ENDBRANCH  68  85
ENDBRANCH  42  43
ENDBRANCH  34  37
ENDBRANCH  32  33
ENDBRANCH  31  32
ENDBRANCH  30  31
ENDBRANCH   1  30
TORSDOF 16
ENDMDL
