MODEL 1
REMARK VINA RESULT:      -9.3      0.000      0.000
REMARK SMILES COc1ccccc1N1CC[NH+]([C@@H](C(=O)NCCCCCCNC(=O)c2ccc(-c3c4nc(c(-c5c(F)cccc5F)c5ccc([nH]5)c(-c5c(F)cccc5F)c5nc(c(-c6c(F)cccc6F)c6ccc3[nH]6)C=C5)C=C4)cc2)c2c[nH]c3ccc(OCC#N)cc23)CC1
REMARK SMILES IDX 18 1 17 2 16 3 14 4 15 5 13 7 12 8 9 9 10 10 94 11 11 12
REMARK SMILES IDX 93 13 8 15 3 16 4 17 5 18 7 19 6 20 2 21 1 22 80 23 81 24
REMARK SMILES IDX 92 25 82 26 83 27 91 28 84 30 86 31 85 32 87 33 88 34 89 35
REMARK SMILES IDX 90 36 19 37 20 38 21 39 22 40 23 41 24 42 25 44 26 45 27 46
REMARK SMILES IDX 79 47 28 48 78 49 29 50 30 51 31 52 72 53 32 54 77 55 71 56
REMARK SMILES IDX 73 57 33 58 76 59 70 60 69 61 34 63 60 64 43 65 59 66 44 67
REMARK SMILES IDX 47 68 58 69 74 70 45 71 46 72 57 74 75 75 48 76 35 77 36 78
REMARK SMILES IDX 41 79 37 80 38 81 40 82 42 83 39 84 61 85 62 86 67 87 63 88
REMARK SMILES IDX 64 89 66 90 68 91 65 92 49 93 50 94 55 95 51 96 52 97 54 98
REMARK SMILES IDX 56 99 53 100
REMARK H PARENT 16 6 12 14 82 29 23 43 73 62 47 73
REMARK Flexibility Score: inf
ROOT
ATOM      1  C   UNL A   1      45.401  25.217  31.820  1.00  0.00     0.021 C 
ENDROOT
BRANCH   1   2
ATOM      2  C   UNL A   1      44.904  25.028  30.340  1.00  0.00     0.116 C 
BRANCH   2   3
ATOM      3  N   UNL A   1      45.931  24.953  29.269  1.00  0.00    -0.351 N 
ATOM      4  C   UNL A   1      46.097  25.101  27.899  1.00  0.00     0.283 C 
ATOM      5  O   UNL A   1      47.286  25.022  27.551  1.00  0.00    -0.268 OA
ATOM      6  H   UNL A   1      46.797  24.715  29.672  1.00  0.00     0.163 HD
BRANCH   4   7
ATOM      7  C   UNL A   1      44.985  25.422  26.827  1.00  0.00     0.307 C 
BRANCH   7   8
ATOM      8  N   UNL A   1      45.045  24.744  25.473  1.00  0.00    -0.318 N 
ATOM      9  N   UNL A   1      44.093  21.964  25.498  1.00  0.00    -0.357 N 
ATOM     10  C   UNL A   1      45.415  22.299  26.027  1.00  0.00     0.178 C 
ATOM     11  C   UNL A   1      43.129  23.068  25.473  1.00  0.00     0.178 C 
ATOM     12  C   UNL A   1      45.889  23.550  25.278  1.00  0.00     0.284 C 
ATOM     13  C   UNL A   1      43.752  24.365  24.891  1.00  0.00     0.284 C 
ATOM     14  H   UNL A   1      45.492  25.534  25.007  1.00  0.00     0.349 HD
BRANCH   9  15
ATOM     15  C   UNL A   1      43.501  20.738  25.792  1.00  0.00     0.080 A 
ATOM     16  C   UNL A   1      42.662  20.575  26.915  1.00  0.00     0.142 A 
ATOM     17  C   UNL A   1      42.217  19.296  27.274  1.00  0.00     0.048 A 
ATOM     18  C   UNL A   1      42.586  18.176  26.531  1.00  0.00     0.004 A 
ATOM     19  C   UNL A   1      43.855  19.594  25.053  1.00  0.00     0.030 A 
ATOM     20  C   UNL A   1      43.408  18.324  25.421  1.00  0.00     0.002 A 
BRANCH  16  21
ATOM     21  O   UNL A   1      42.259  21.552  27.796  1.00  0.00    -0.495 OA
ATOM     22  C   UNL A   1      40.900  21.970  27.730  1.00  0.00     0.278 C 
ENDBRANCH  16  21
ENDBRANCH   9  15
ENDBRANCH   7   8
BRANCH   7  23
ATOM     23  C   UNL A   1      44.523  26.991  26.714  1.00  0.00     0.044 A 
ATOM     24  C   UNL A   1      44.514  27.597  25.453  1.00  0.00     0.094 A 
ATOM     25  C   UNL A   1      44.843  28.215  27.496  1.00  0.00     0.013 A 
ATOM     26  N   UNL A   1      45.671  28.337  25.443  1.00  0.00    -0.361 N 
ATOM     27  C   UNL A   1      45.784  28.884  26.703  1.00  0.00     0.046 A 
ATOM     28  C   UNL A   1      44.321  29.025  28.573  1.00  0.00     0.057 A 
ATOM     29  H   UNL A   1      46.294  28.454  24.689  1.00  0.00     0.166 HD
ATOM     30  C   UNL A   1      46.603  29.908  27.180  1.00  0.00     0.030 A 
ATOM     31  C   UNL A   1      44.944  30.283  28.893  1.00  0.00     0.121 A 
ATOM     32  C   UNL A   1      46.174  30.582  28.320  1.00  0.00     0.048 A 
BRANCH  31  33
ATOM     33  O   UNL A   1      44.323  31.210  29.736  1.00  0.00    -0.479 OA
BRANCH  33  34
ATOM     34  C   UNL A   1      42.849  31.501  29.519  1.00  0.00     0.349 C 
BRANCH  34  35
ATOM     35  C   UNL A   1      42.317  32.278  30.713  1.00  0.00     0.104 C 
ATOM     36  N   UNL A   1      41.875  32.922  31.702  1.00  0.00    -0.195 NA
ENDBRANCH  34  35
ENDBRANCH  33  34
ENDBRANCH  31  33
ENDBRANCH   7  23
ENDBRANCH   4   7
ENDBRANCH   2   3
ENDBRANCH   1   2
BRANCH   1  37
ATOM     37  C   UNL A   1      44.482  24.711  32.953  1.00  0.00     0.002 C 
BRANCH  37  38
ATOM     38  C   UNL A   1      44.904  23.389  33.610  1.00  0.00     0.002 C 
BRANCH  38  39
ATOM     39  C   UNL A   1      45.782  23.499  34.863  1.00  0.00     0.021 C 
BRANCH  39  40
ATOM     40  C   UNL A   1      46.950  24.486  34.775  1.00  0.00     0.116 C 
BRANCH  40  41
ATOM     41  N   UNL A   1      47.184  25.189  36.030  1.00  0.00    -0.352 N 
ATOM     42  C   UNL A   1      46.683  26.395  36.470  1.00  0.00     0.251 C 
ATOM     43  H   UNL A   1      47.790  24.733  36.658  1.00  0.00     0.163 HD
ATOM     44  O   UNL A   1      47.150  26.938  37.460  1.00  0.00    -0.269 OA
BRANCH  42  45
ATOM     45  C   UNL A   1      45.577  27.047  35.731  1.00  0.00     0.039 A 
ATOM     46  C   UNL A   1      44.258  26.691  36.022  1.00  0.00     0.014 A 
ATOM     47  C   UNL A   1      45.844  27.990  34.735  1.00  0.00     0.014 A 
ATOM     48  C   UNL A   1      43.205  27.334  35.365  1.00  0.00     0.010 A 
ATOM     49  C   UNL A   1      44.794  28.677  34.129  1.00  0.00     0.010 A 
ATOM     50  C   UNL A   1      43.462  28.358  34.437  1.00  0.00    -0.014 A 
BRANCH  50  51
ATOM     51  C   UNL A   1      42.350  29.108  33.795  1.00  0.00     0.031 A 
ATOM     52  C   UNL A   1      41.843  28.709  32.436  1.00  0.00     0.074 A 
ATOM     53  C   UNL A   1      41.833  30.188  34.414  1.00  0.00     0.049 A 
ATOM     54  N   UNL A   1      40.906  29.263  31.708  1.00  0.00    -0.248 NA
ATOM     55  C   UNL A   1      42.489  27.551  31.801  1.00  0.00     0.031 C 
ATOM     56  C   UNL A   1      42.276  30.715  35.707  1.00  0.00     0.029 A 
ATOM     57  N   UNL A   1      40.830  31.045  34.035  1.00  0.00    -0.354 N 
ATOM     58  C   UNL A   1      40.858  28.530  30.529  1.00  0.00     0.074 A 
ATOM     59  C   UNL A   1      41.895  27.525  30.616  1.00  0.00     0.031 C 
ATOM     60  C   UNL A   1      41.532  31.787  36.023  1.00  0.00     0.029 A 
ATOM     61  C   UNL A   1      40.585  32.047  34.943  1.00  0.00     0.049 A 
ATOM     62  H   UNL A   1      40.330  30.950  33.191  1.00  0.00     0.167 HD
ATOM     63  C   UNL A   1      40.013  28.666  29.479  1.00  0.00     0.037 A 
ATOM     64  C   UNL A   1      39.703  33.064  34.909  1.00  0.00     0.037 A 
ATOM     65  C   UNL A   1      38.968  29.654  29.403  1.00  0.00     0.049 A 
ATOM     66  C   UNL A   1      38.776  33.192  33.732  1.00  0.00     0.074 A 
ATOM     67  C   UNL A   1      38.016  29.827  28.413  1.00  0.00     0.029 A 
ATOM     68  N   UNL A   1      38.743  30.641  30.350  1.00  0.00    -0.354 N 
ATOM     69  N   UNL A   1      38.686  32.438  32.663  1.00  0.00    -0.248 NA
ATOM     70  C   UNL A   1      37.821  34.308  33.760  1.00  0.00     0.031 C 
ATOM     71  C   UNL A   1      37.248  30.951  28.736  1.00  0.00     0.029 A 
ATOM     72  C   UNL A   1      37.686  31.444  29.954  1.00  0.00     0.049 A 
ATOM     73  H   UNL A   1      39.258  30.755  31.181  1.00  0.00     0.167 HD
ATOM     74  C   UNL A   1      37.652  32.973  31.905  1.00  0.00     0.074 A 
ATOM     75  C   UNL A   1      37.131  34.102  32.647  1.00  0.00     0.031 C 
ATOM     76  C   UNL A   1      37.178  32.567  30.702  1.00  0.00     0.037 A 
BRANCH  63  77
ATOM     77  C   UNL A   1      40.180  27.720  28.324  1.00  0.00     0.057 A 
ATOM     78  C   UNL A   1      40.867  28.088  27.158  1.00  0.00     0.134 A 
ATOM     79  C   UNL A   1      39.687  26.411  28.395  1.00  0.00     0.134 A 
ATOM     80  F   UNL A   1      41.356  29.329  27.022  1.00  0.00    -0.206 F 
ATOM     81  C   UNL A   1      41.034  27.197  26.097  1.00  0.00     0.040 A 
ATOM     82  C   UNL A   1      39.874  25.503  27.351  1.00  0.00     0.040 A 
ATOM     83  F   UNL A   1      39.027  25.988  29.484  1.00  0.00    -0.206 F 
ATOM     84  C   UNL A   1      40.543  25.897  26.195  1.00  0.00     0.006 A 
ENDBRANCH  63  77
BRANCH  64  85
ATOM     85  C   UNL A   1      39.640  34.034  36.032  1.00  0.00     0.057 A 
ATOM     86  C   UNL A   1      38.903  33.756  37.190  1.00  0.00     0.134 A 
ATOM     87  C   UNL A   1      40.299  35.267  35.971  1.00  0.00     0.134 A 
ATOM     88  F   UNL A   1      38.232  32.600  37.302  1.00  0.00    -0.206 F 
ATOM     89  C   UNL A   1      38.805  34.676  38.235  1.00  0.00     0.040 A 
ATOM     90  C   UNL A   1      40.235  36.186  37.019  1.00  0.00     0.040 A 
ATOM     91  F   UNL A   1      41.029  35.592  34.892  1.00  0.00    -0.206 F 
ATOM     92  C   UNL A   1      39.477  35.894  38.153  1.00  0.00     0.006 A 
ENDBRANCH  64  85
BRANCH  76  93
ATOM     93  C   UNL A   1      36.022  33.334  30.127  1.00  0.00     0.057 A 
ATOM     94  C   UNL A   1      34.726  33.221  30.647  1.00  0.00     0.134 A 
ATOM     95  C   UNL A   1      36.214  34.218  29.057  1.00  0.00     0.134 A 
ATOM     96  F   UNL A   1      34.471  32.383  31.663  1.00  0.00    -0.206 F 
ATOM     97  C   UNL A   1      33.658  33.938  30.105  1.00  0.00     0.040 A 
ATOM     98  C   UNL A   1      35.159  34.962  28.527  1.00  0.00     0.040 A 
ATOM     99  F   UNL A   1      37.432  34.382  28.518  1.00  0.00    -0.206 F 
ATOM    100  C   UNL A   1      33.875  34.817  29.046  1.00  0.00     0.006 A 
ENDBRANCH  76  93
ENDBRANCH  50  51
ENDBRANCH  42  45
ENDBRANCH  40  41
ENDBRANCH  39  40
ENDBRANCH  38  39
ENDBRANCH  37  38
ENDBRANCH   1  37
TORSDOF 20
ENDMDL
MODEL 2
REMARK VINA RESULT:      -9.2      5.573     12.785
REMARK SMILES COc1ccccc1N1CC[NH+]([C@@H](C(=O)NCCCCCCNC(=O)c2ccc(-c3c4nc(c(-c5c(F)cccc5F)c5ccc([nH]5)c(-c5c(F)cccc5F)c5nc(c(-c6c(F)cccc6F)c6ccc3[nH]6)C=C5)C=C4)cc2)c2c[nH]c3ccc(OCC#N)cc23)CC1
REMARK SMILES IDX 18 1 17 2 16 3 14 4 15 5 13 7 12 8 9 9 10 10 94 11 11 12
REMARK SMILES IDX 93 13 8 15 3 16 4 17 5 18 7 19 6 20 2 21 1 22 80 23 81 24
REMARK SMILES IDX 92 25 82 26 83 27 91 28 84 30 86 31 85 32 87 33 88 34 89 35
REMARK SMILES IDX 90 36 19 37 20 38 21 39 22 40 23 41 24 42 25 44 26 45 27 46
REMARK SMILES IDX 79 47 28 48 78 49 29 50 30 51 31 52 72 53 32 54 77 55 71 56
REMARK SMILES IDX 73 57 33 58 76 59 70 60 69 61 34 63 60 64 43 65 59 66 44 67
REMARK SMILES IDX 47 68 58 69 74 70 45 71 46 72 57 74 75 75 48 76 35 77 36 78
REMARK SMILES IDX 41 79 37 80 38 81 40 82 42 83 39 84 61 85 62 86 67 87 63 88
REMARK SMILES IDX 64 89 66 90 68 91 65 92 49 93 50 94 55 95 51 96 52 97 54 98
REMARK SMILES IDX 56 99 53 100
REMARK H PARENT 16 6 12 14 82 29 23 43 73 62 47 73
REMARK Flexibility Score: inf
ROOT
ATOM      1  C   UNL A   1      40.205  28.922  27.758  1.00  0.00     0.021 C 
ENDROOT
BRANCH   1   2
ATOM      2  C   UNL A   1      38.747  29.322  27.324  1.00  0.00     0.116 C 
BRANCH   2   3
ATOM      3  N   UNL A   1      37.729  29.495  28.393  1.00  0.00    -0.351 N 
ATOM      4  C   UNL A   1      36.444  29.967  28.614  1.00  0.00     0.283 C 
ATOM      5  O   UNL A   1      36.041  29.735  29.766  1.00  0.00    -0.268 OA
ATOM      6  H   UNL A   1      38.096  29.157  29.241  1.00  0.00     0.163 HD
BRANCH   4   7
ATOM      7  C   UNL A   1      35.481  30.653  27.570  1.00  0.00     0.307 C 
BRANCH   7   8
ATOM      8  N   UNL A   1      35.336  32.162  27.577  1.00  0.00    -0.318 N 
ATOM      9  N   UNL A   1      35.192  33.325  30.272  1.00  0.00    -0.357 N 
ATOM     10  C   UNL A   1      34.033  32.643  29.695  1.00  0.00     0.178 C 
ATOM     11  C   UNL A   1      36.490  32.940  29.709  1.00  0.00     0.178 C 
ATOM     12  C   UNL A   1      34.143  32.790  28.174  1.00  0.00     0.284 C 
ATOM     13  C   UNL A   1      36.459  32.908  28.157  1.00  0.00     0.284 C 
ATOM     14  H   UNL A   1      35.270  32.240  26.562  1.00  0.00     0.349 HD
BRANCH   9  15
ATOM     15  C   UNL A   1      35.254  33.588  31.638  1.00  0.00     0.080 A 
ATOM     16  C   UNL A   1      34.677  34.752  32.192  1.00  0.00     0.142 A 
ATOM     17  C   UNL A   1      34.898  35.067  33.538  1.00  0.00     0.048 A 
ATOM     18  C   UNL A   1      35.678  34.242  34.347  1.00  0.00     0.004 A 
ATOM     19  C   UNL A   1      36.032  32.767  32.475  1.00  0.00     0.030 A 
ATOM     20  C   UNL A   1      36.248  33.092  33.815  1.00  0.00     0.002 A 
BRANCH  16  21
ATOM     21  O   UNL A   1      33.944  35.708  31.528  1.00  0.00    -0.495 OA
ATOM     22  C   UNL A   1      33.618  36.894  32.244  1.00  0.00     0.278 C 
ENDBRANCH  16  21
ENDBRANCH   9  15
ENDBRANCH   7   8
BRANCH   7  23
ATOM     23  C   UNL A   1      34.051  29.896  27.300  1.00  0.00     0.044 A 
ATOM     24  C   UNL A   1      33.943  28.537  27.614  1.00  0.00     0.094 A 
ATOM     25  C   UNL A   1      33.089  29.893  26.166  1.00  0.00     0.013 A 
ATOM     26  N   UNL A   1      34.064  27.915  26.394  1.00  0.00    -0.361 N 
ATOM     27  C   UNL A   1      33.358  28.690  25.500  1.00  0.00     0.046 A 
ATOM     28  C   UNL A   1      31.863  30.526  25.734  1.00  0.00     0.057 A 
ATOM     29  H   UNL A   1      34.554  27.083  26.200  1.00  0.00     0.166 HD
ATOM     30  C   UNL A   1      32.928  28.417  24.202  1.00  0.00     0.030 A 
ATOM     31  C   UNL A   1      31.184  30.048  24.557  1.00  0.00     0.121 A 
ATOM     32  C   UNL A   1      31.842  29.148  23.728  1.00  0.00     0.048 A 
BRANCH  31  33
ATOM     33  O   UNL A   1      29.879  30.448  24.257  1.00  0.00    -0.479 OA
BRANCH  33  34
ATOM     34  C   UNL A   1      29.407  30.335  22.818  1.00  0.00     0.349 C 
BRANCH  34  35
ATOM     35  C   UNL A   1      28.657  31.603  22.442  1.00  0.00     0.104 C 
ATOM     36  N   UNL A   1      28.036  32.655  22.132  1.00  0.00    -0.195 NA
ENDBRANCH  34  35
ENDBRANCH  33  34
ENDBRANCH  31  33
ENDBRANCH   7  23
ENDBRANCH   4   7
ENDBRANCH   2   3
ENDBRANCH   1   2
BRANCH   1  37
ATOM     37  C   UNL A   1      40.650  27.465  27.506  1.00  0.00     0.002 C 
BRANCH  37  38
ATOM     38  C   UNL A   1      40.116  26.425  28.502  1.00  0.00     0.002 C 
BRANCH  38  39
ATOM     39  C   UNL A   1      39.370  25.226  27.902  1.00  0.00     0.021 C 
BRANCH  39  40
ATOM     40  C   UNL A   1      39.808  24.802  26.497  1.00  0.00     0.116 C 
BRANCH  40  41
ATOM     41  N   UNL A   1      40.611  23.586  26.505  1.00  0.00    -0.352 N 
ATOM     42  C   UNL A   1      41.970  23.428  26.344  1.00  0.00     0.251 C 
ATOM     43  H   UNL A   1      40.106  22.753  26.648  1.00  0.00     0.163 HD
ATOM     44  O   UNL A   1      42.450  22.318  26.166  1.00  0.00    -0.269 OA
BRANCH  42  45
ATOM     45  C   UNL A   1      42.859  24.612  26.373  1.00  0.00     0.039 A 
ATOM     46  C   UNL A   1      43.404  25.027  27.592  1.00  0.00     0.014 A 
ATOM     47  C   UNL A   1      43.132  25.327  25.204  1.00  0.00     0.014 A 
ATOM     48  C   UNL A   1      44.282  26.114  27.623  1.00  0.00     0.010 A 
ATOM     49  C   UNL A   1      44.058  26.369  25.227  1.00  0.00     0.010 A 
ATOM     50  C   UNL A   1      44.644  26.774  26.436  1.00  0.00    -0.014 A 
BRANCH  50  51
ATOM     51  C   UNL A   1      45.642  27.877  26.446  1.00  0.00     0.031 A 
ATOM     52  C   UNL A   1      47.114  27.576  26.365  1.00  0.00     0.074 A 
ATOM     53  C   UNL A   1      45.224  29.150  26.588  1.00  0.00     0.049 A 
ATOM     54  N   UNL A   1      48.129  28.404  26.393  1.00  0.00    -0.248 NA
ATOM     55  C   UNL A   1      47.498  26.160  26.262  1.00  0.00     0.031 C 
ATOM     56  C   UNL A   1      43.829  29.570  26.736  1.00  0.00     0.029 A 
ATOM     57  N   UNL A   1      45.931  30.326  26.639  1.00  0.00    -0.354 N 
ATOM     58  C   UNL A   1      49.267  27.609  26.322  1.00  0.00     0.074 A 
ATOM     59  C   UNL A   1      48.820  26.234  26.304  1.00  0.00     0.031 C 
ATOM     60  C   UNL A   1      43.781  30.909  26.838  1.00  0.00     0.029 A 
ATOM     61  C   UNL A   1      45.140  31.439  26.798  1.00  0.00     0.049 A 
ATOM     62  H   UNL A   1      46.912  30.369  26.569  1.00  0.00     0.167 HD
ATOM     63  C   UNL A   1      50.566  27.991  26.256  1.00  0.00     0.037 A 
ATOM     64  C   UNL A   1      45.472  32.740  26.905  1.00  0.00     0.037 A 
ATOM     65  C   UNL A   1      51.007  29.362  26.253  1.00  0.00     0.049 A 
ATOM     66  C   UNL A   1      46.920  33.138  26.828  1.00  0.00     0.074 A 
ATOM     67  C   UNL A   1      52.295  29.852  26.119  1.00  0.00     0.029 A 
ATOM     68  N   UNL A   1      50.175  30.462  26.400  1.00  0.00    -0.354 N 
ATOM     69  N   UNL A   1      47.979  32.380  26.675  1.00  0.00    -0.248 NA
ATOM     70  C   UNL A   1      47.219  34.573  26.929  1.00  0.00     0.031 C 
ATOM     71  C   UNL A   1      52.248  31.245  26.237  1.00  0.00     0.029 A 
ATOM     72  C   UNL A   1      50.924  31.626  26.388  1.00  0.00     0.049 A 
ATOM     73  H   UNL A   1      49.197  30.420  26.498  1.00  0.00     0.167 HD
ATOM     74  C   UNL A   1      49.065  33.246  26.638  1.00  0.00     0.074 A 
ATOM     75  C   UNL A   1      48.534  34.587  26.762  1.00  0.00     0.031 C 
ATOM     76  C   UNL A   1      50.384  32.956  26.514  1.00  0.00     0.037 A 
BRANCH  63  77
ATOM     77  C   UNL A   1      51.606  26.910  26.177  1.00  0.00     0.057 A 
ATOM     78  C   UNL A   1      51.964  26.314  24.960  1.00  0.00     0.134 A 
ATOM     79  C   UNL A   1      52.290  26.491  27.325  1.00  0.00     0.134 A 
ATOM     80  F   UNL A   1      51.342  26.663  23.823  1.00  0.00    -0.206 F 
ATOM     81  C   UNL A   1      52.945  25.324  24.892  1.00  0.00     0.040 A 
ATOM     82  C   UNL A   1      53.293  25.522  27.265  1.00  0.00     0.040 A 
ATOM     83  F   UNL A   1      52.005  27.025  28.522  1.00  0.00    -0.206 F 
ATOM     84  C   UNL A   1      53.619  24.931  26.046  1.00  0.00     0.006 A 
ENDBRANCH  63  77
BRANCH  64  85
ATOM     85  C   UNL A   1      44.413  33.768  27.079  1.00  0.00     0.057 A 
ATOM     86  C   UNL A   1      43.936  34.109  28.350  1.00  0.00     0.134 A 
ATOM     87  C   UNL A   1      43.842  34.422  25.981  1.00  0.00     0.134 A 
ATOM     88  F   UNL A   1      44.429  33.504  29.441  1.00  0.00    -0.206 F 
ATOM     89  C   UNL A   1      42.915  35.045  28.523  1.00  0.00     0.040 A 
ATOM     90  C   UNL A   1      42.840  35.381  26.140  1.00  0.00     0.040 A 
ATOM     91  F   UNL A   1      44.259  34.146  24.736  1.00  0.00    -0.206 F 
ATOM     92  C   UNL A   1      42.367  35.688  27.415  1.00  0.00     0.006 A 
ENDBRANCH  64  85
BRANCH  76  93
ATOM     93  C   UNL A   1      51.339  34.114  26.482  1.00  0.00     0.057 A 
ATOM     94  C   UNL A   1      51.931  34.618  27.647  1.00  0.00     0.134 A 
ATOM     95  C   UNL A   1      51.692  34.714  25.266  1.00  0.00     0.134 A 
ATOM     96  F   UNL A   1      51.627  34.098  28.845  1.00  0.00    -0.206 F 
ATOM     97  C   UNL A   1      52.818  35.696  27.607  1.00  0.00     0.040 A 
ATOM     98  C   UNL A   1      52.600  35.772  25.211  1.00  0.00     0.040 A 
ATOM     99  F   UNL A   1      51.170  34.273  24.111  1.00  0.00    -0.206 F 
ATOM    100  C   UNL A   1      53.159  36.272  26.384  1.00  0.00     0.006 A 
ENDBRANCH  76  93
ENDBRANCH  50  51
ENDBRANCH  42  45
ENDBRANCH  40  41
ENDBRANCH  39  40
ENDBRANCH  38  39
ENDBRANCH  37  38
ENDBRANCH   1  37
TORSDOF 20
ENDMDL
MODEL 3
REMARK VINA RESULT:      -9.2      5.630     13.564
REMARK SMILES COc1ccccc1N1CC[NH+]([C@@H](C(=O)NCCCCCCNC(=O)c2ccc(-c3c4nc(c(-c5c(F)cccc5F)c5ccc([nH]5)c(-c5c(F)cccc5F)c5nc(c(-c6c(F)cccc6F)c6ccc3[nH]6)C=C5)C=C4)cc2)c2c[nH]c3ccc(OCC#N)cc23)CC1
REMARK SMILES IDX 18 1 17 2 16 3 14 4 15 5 13 7 12 8 9 9 10 10 94 11 11 12
REMARK SMILES IDX 93 13 8 15 3 16 4 17 5 18 7 19 6 20 2 21 1 22 80 23 81 24
REMARK SMILES IDX 92 25 82 26 83 27 91 28 84 30 86 31 85 32 87 33 88 34 89 35
REMARK SMILES IDX 90 36 19 37 20 38 21 39 22 40 23 41 24 42 25 44 26 45 27 46
REMARK SMILES IDX 79 47 28 48 78 49 29 50 30 51 31 52 72 53 32 54 77 55 71 56
REMARK SMILES IDX 73 57 33 58 76 59 70 60 69 61 34 63 60 64 43 65 59 66 44 67
REMARK SMILES IDX 47 68 58 69 74 70 45 71 46 72 57 74 75 75 48 76 35 77 36 78
REMARK SMILES IDX 41 79 37 80 38 81 40 82 42 83 39 84 61 85 62 86 67 87 63 88
REMARK SMILES IDX 64 89 66 90 68 91 65 92 49 93 50 94 55 95 51 96 52 97 54 98
REMARK SMILES IDX 56 99 53 100
REMARK H PARENT 16 6 12 14 82 29 23 43 73 62 47 73
REMARK Flexibility Score: inf
ROOT
ATOM      1  C   UNL A   1      40.164  29.100  27.511  1.00  0.00     0.021 C 
ENDROOT
BRANCH   1   2
ATOM      2  C   UNL A   1      38.657  29.348  27.135  1.00  0.00     0.116 C 
BRANCH   2   3
ATOM      3  N   UNL A   1      37.693  29.565  28.246  1.00  0.00    -0.351 N 
ATOM      4  C   UNL A   1      36.424  30.057  28.513  1.00  0.00     0.283 C 
ATOM      5  O   UNL A   1      36.076  29.866  29.689  1.00  0.00    -0.268 OA
ATOM      6  H   UNL A   1      38.097  29.250  29.086  1.00  0.00     0.163 HD
BRANCH   4   7
ATOM      7  C   UNL A   1      35.419  30.721  27.495  1.00  0.00     0.307 C 
BRANCH   7   8
ATOM      8  N   UNL A   1      35.225  32.224  27.520  1.00  0.00    -0.318 N 
ATOM      9  N   UNL A   1      35.262  33.377  30.224  1.00  0.00    -0.357 N 
ATOM     10  C   UNL A   1      34.083  32.657  29.740  1.00  0.00     0.178 C 
ATOM     11  C   UNL A   1      36.521  33.037  29.556  1.00  0.00     0.178 C 
ATOM     12  C   UNL A   1      34.064  32.811  28.216  1.00  0.00     0.284 C 
ATOM     13  C   UNL A   1      36.366  33.007  28.011  1.00  0.00     0.284 C 
ATOM     14  H   UNL A   1      35.073  32.302  26.515  1.00  0.00     0.349 HD
BRANCH   9  15
ATOM     15  C   UNL A   1      35.426  33.639  31.581  1.00  0.00     0.080 A 
ATOM     16  C   UNL A   1      34.638  34.604  32.246  1.00  0.00     0.142 A 
ATOM     17  C   UNL A   1      34.937  34.959  33.567  1.00  0.00     0.048 A 
ATOM     18  C   UNL A   1      36.004  34.368  34.242  1.00  0.00     0.004 A 
ATOM     19  C   UNL A   1      36.492  33.051  32.285  1.00  0.00     0.030 A 
ATOM     20  C   UNL A   1      36.784  33.414  33.601  1.00  0.00     0.002 A 
BRANCH  16  21
ATOM     21  O   UNL A   1      33.600  35.334  31.714  1.00  0.00    -0.495 OA
ATOM     22  C   UNL A   1      33.158  36.470  32.449  1.00  0.00     0.278 C 
ENDBRANCH  16  21
ENDBRANCH   9  15
ENDBRANCH   7   8
BRANCH   7  23
ATOM     23  C   UNL A   1      34.010  29.920  27.245  1.00  0.00     0.044 A 
ATOM     24  C   UNL A   1      33.912  28.590  27.668  1.00  0.00     0.094 A 
ATOM     25  C   UNL A   1      33.087  29.805  26.085  1.00  0.00     0.013 A 
ATOM     26  N   UNL A   1      34.081  27.870  26.510  1.00  0.00    -0.361 N 
ATOM     27  C   UNL A   1      33.395  28.556  25.531  1.00  0.00     0.046 A 
ATOM     28  C   UNL A   1      31.866  30.378  25.562  1.00  0.00     0.057 A 
ATOM     29  H   UNL A   1      34.590  27.034  26.401  1.00  0.00     0.166 HD
ATOM     30  C   UNL A   1      33.012  28.167  24.248  1.00  0.00     0.030 A 
ATOM     31  C   UNL A   1      31.234  29.792  24.409  1.00  0.00     0.121 A 
ATOM     32  C   UNL A   1      31.932  28.837  23.679  1.00  0.00     0.048 A 
BRANCH  31  33
ATOM     33  O   UNL A   1      29.933  30.143  24.035  1.00  0.00    -0.479 OA
BRANCH  33  34
ATOM     34  C   UNL A   1      29.138  29.158  23.196  1.00  0.00     0.349 C 
BRANCH  34  35
ATOM     35  C   UNL A   1      28.612  29.872  21.961  1.00  0.00     0.104 C 
ATOM     36  N   UNL A   1      28.177  30.465  20.937  1.00  0.00    -0.195 NA
ENDBRANCH  34  35
ENDBRANCH  33  34
ENDBRANCH  31  33
ENDBRANCH   7  23
ENDBRANCH   4   7
ENDBRANCH   2   3
ENDBRANCH   1   2
BRANCH   1  37
ATOM     37  C   UNL A   1      40.672  27.642  27.502  1.00  0.00     0.002 C 
BRANCH  37  38
ATOM     38  C   UNL A   1      40.165  26.755  28.649  1.00  0.00     0.002 C 
BRANCH  38  39
ATOM     39  C   UNL A   1      39.531  25.417  28.248  1.00  0.00     0.021 C 
BRANCH  39  40
ATOM     40  C   UNL A   1      39.651  25.039  26.768  1.00  0.00     0.116 C 
BRANCH  40  41
ATOM     41  N   UNL A   1      40.371  23.788  26.568  1.00  0.00    -0.352 N 
ATOM     42  C   UNL A   1      41.696  23.576  26.253  1.00  0.00     0.251 C 
ATOM     43  H   UNL A   1      39.831  22.972  26.674  1.00  0.00     0.163 HD
ATOM     44  O   UNL A   1      42.085  22.469  25.912  1.00  0.00    -0.269 OA
BRANCH  42  45
ATOM     45  C   UNL A   1      42.657  24.702  26.314  1.00  0.00     0.039 A 
ATOM     46  C   UNL A   1      43.280  25.002  27.529  1.00  0.00     0.014 A 
ATOM     47  C   UNL A   1      42.923  25.474  25.181  1.00  0.00     0.014 A 
ATOM     48  C   UNL A   1      44.224  26.031  27.587  1.00  0.00     0.010 A 
ATOM     49  C   UNL A   1      43.912  26.456  25.224  1.00  0.00     0.010 A 
ATOM     50  C   UNL A   1      44.574  26.745  26.428  1.00  0.00    -0.014 A 
BRANCH  50  51
ATOM     51  C   UNL A   1      45.638  27.784  26.459  1.00  0.00     0.031 A 
ATOM     52  C   UNL A   1      45.284  29.237  26.624  1.00  0.00     0.074 A 
ATOM     53  C   UNL A   1      46.925  27.423  26.281  1.00  0.00     0.049 A 
ATOM     54  N   UNL A   1      46.072  30.283  26.642  1.00  0.00    -0.248 NA
ATOM     55  C   UNL A   1      43.856  29.560  26.763  1.00  0.00     0.031 C 
ATOM     56  C   UNL A   1      47.395  26.055  26.052  1.00  0.00     0.029 A 
ATOM     57  N   UNL A   1      48.072  28.176  26.254  1.00  0.00    -0.354 N 
ATOM     58  C   UNL A   1      45.237  31.384  26.783  1.00  0.00     0.074 A 
ATOM     59  C   UNL A   1      43.879  30.884  26.792  1.00  0.00     0.031 C 
ATOM     60  C   UNL A   1      48.733  26.064  25.933  1.00  0.00     0.029 A 
ATOM     61  C   UNL A   1      49.212  27.438  26.040  1.00  0.00     0.049 A 
ATOM     62  H   UNL A   1      48.079  29.153  26.377  1.00  0.00     0.167 HD
ATOM     63  C   UNL A   1      45.570  32.691  26.915  1.00  0.00     0.037 A 
ATOM     64  C   UNL A   1      50.498  27.824  25.937  1.00  0.00     0.037 A 
ATOM     65  C   UNL A   1      46.923  33.184  26.926  1.00  0.00     0.049 A 
ATOM     66  C   UNL A   1      50.842  29.281  26.087  1.00  0.00     0.074 A 
ATOM     67  C   UNL A   1      47.366  34.480  27.124  1.00  0.00     0.029 A 
ATOM     68  N   UNL A   1      48.052  32.403  26.722  1.00  0.00    -0.354 N 
ATOM     69  N   UNL A   1      50.047  30.301  26.306  1.00  0.00    -0.248 NA
ATOM     70  C   UNL A   1      52.263  29.639  25.986  1.00  0.00     0.031 C 
ATOM     71  C   UNL A   1      48.759  34.493  26.988  1.00  0.00     0.029 A 
ATOM     72  C   UNL A   1      49.187  33.195  26.760  1.00  0.00     0.049 A 
ATOM     73  H   UNL A   1      48.045  31.431  26.571  1.00  0.00     0.167 HD
ATOM     74  C   UNL A   1      50.872  31.415  26.392  1.00  0.00     0.074 A 
ATOM     75  C   UNL A   1      52.231  30.943  26.224  1.00  0.00     0.031 C 
ATOM     76  C   UNL A   1      50.534  32.713  26.590  1.00  0.00     0.037 A 
BRANCH  63  77
ATOM     77  C   UNL A   1      44.452  33.683  27.062  1.00  0.00     0.057 A 
ATOM     78  C   UNL A   1      43.840  34.280  25.951  1.00  0.00     0.134 A 
ATOM     79  C   UNL A   1      43.952  34.013  28.328  1.00  0.00     0.134 A 
ATOM     80  F   UNL A   1      44.276  34.014  24.711  1.00  0.00    -0.206 F 
ATOM     81  C   UNL A   1      42.789  35.188  26.096  1.00  0.00     0.040 A 
ATOM     82  C   UNL A   1      42.883  34.897  28.483  1.00  0.00     0.040 A 
ATOM     83  F   UNL A   1      44.485  33.474  29.435  1.00  0.00    -0.206 F 
ATOM     84  C   UNL A   1      42.302  35.492  27.365  1.00  0.00     0.006 A 
ENDBRANCH  63  77
BRANCH  64  85
ATOM     85  C   UNL A   1      51.562  26.817  25.693  1.00  0.00     0.057 A 
ATOM     86  C   UNL A   1      52.163  26.126  26.752  1.00  0.00     0.134 A 
ATOM     87  C   UNL A   1      52.015  26.530  24.400  1.00  0.00     0.134 A 
ATOM     88  F   UNL A   1      51.788  26.371  28.017  1.00  0.00    -0.206 F 
ATOM     89  C   UNL A   1      53.190  25.205  26.538  1.00  0.00     0.040 A 
ATOM     90  C   UNL A   1      53.021  25.591  24.167  1.00  0.00     0.040 A 
ATOM     91  F   UNL A   1      51.475  27.151  23.340  1.00  0.00    -0.206 F 
ATOM     92  C   UNL A   1      53.619  24.932  25.241  1.00  0.00     0.006 A 
ENDBRANCH  64  85
BRANCH  76  93
ATOM     93  C   UNL A   1      51.656  33.709  26.661  1.00  0.00     0.057 A 
ATOM     94  C   UNL A   1      52.307  34.007  27.865  1.00  0.00     0.134 A 
ATOM     95  C   UNL A   1      52.109  34.357  25.504  1.00  0.00     0.134 A 
ATOM     96  F   UNL A   1      51.915  33.431  29.011  1.00  0.00    -0.206 F 
ATOM     97  C   UNL A   1      53.348  34.935  27.921  1.00  0.00     0.040 A 
ATOM     98  C   UNL A   1      53.169  35.264  25.543  1.00  0.00     0.040 A 
ATOM     99  F   UNL A   1      51.537  34.110  24.316  1.00  0.00    -0.206 F 
ATOM    100  C   UNL A   1      53.786  35.562  26.756  1.00  0.00     0.006 A 
ENDBRANCH  76  93
ENDBRANCH  50  51
ENDBRANCH  42  45
ENDBRANCH  40  41
ENDBRANCH  39  40
ENDBRANCH  38  39
ENDBRANCH  37  38
ENDBRANCH   1  37
TORSDOF 20
ENDMDL
