MODEL 1
REMARK VINA RESULT:     -10.9      0.000      0.000
REMARK SMILES COc1ncccc1Cn1ccc(C(=O)NCCCCCCNC(=O)c2ccc(-c3c4nc(c(-c5c(F)cccc5F)c5ccc([nH]5)c(-c5c(F)cccc5F)c5nc(c(-c6c(F)cccc6F)c6ccc3[nH]6)C=C5)C=C4)cc2)n1
REMARK SMILES IDX 19 1 18 2 17 3 16 4 14 5 15 6 13 8 10 9 11 10 80 11 12 12
REMARK SMILES IDX 9 13 8 14 3 15 4 16 5 17 7 18 6 19 2 20 1 21 20 22 21 23
REMARK SMILES IDX 22 24 23 25 24 26 25 28 26 29 27 30 79 31 28 32 78 33 29 34
REMARK SMILES IDX 30 35 31 36 72 37 32 38 77 39 71 40 73 41 33 42 76 43 70 44
REMARK SMILES IDX 69 45 34 47 60 48 43 49 59 50 44 51 47 52 58 53 74 54 45 55
REMARK SMILES IDX 46 56 57 58 75 59 48 60 35 61 36 62 41 63 37 64 38 65 40 66
REMARK SMILES IDX 42 67 39 68 61 69 62 70 67 71 63 72 64 73 66 74 68 75 65 76
REMARK SMILES IDX 49 77 50 78 55 79 51 80 52 81 54 82 56 83 53 84
REMARK H PARENT 16 7 23 27 73 46 47 57
REMARK Flexibility Score: inf
ROOT
ATOM      1  C   UNL A   1      39.902  21.717  26.332  1.00  0.00     0.002 C 
ENDROOT
BRANCH   1   2
ATOM      2  C   UNL A   1      38.965  22.921  26.498  1.00  0.00     0.021 C 
BRANCH   2   3
ATOM      3  C   UNL A   1      37.742  22.849  25.590  1.00  0.00     0.116 C 
BRANCH   3   4
ATOM      4  N   UNL A   1      36.660  22.174  26.274  1.00  0.00    -0.351 N 
ATOM      5  C   UNL A   1      35.308  22.396  26.242  1.00  0.00     0.271 C 
ATOM      6  O   UNL A   1      34.612  21.754  27.031  1.00  0.00    -0.267 OA
ATOM      7  H   UNL A   1      36.941  21.432  26.857  1.00  0.00     0.163 HD
BRANCH   5   8
ATOM      8  C   UNL A   1      34.709  23.292  25.243  1.00  0.00     0.150 A 
ATOM      9  N   UNL A   1      33.975  25.058  24.287  1.00  0.00    -0.267 N 
ATOM     10  C   UNL A   1      34.256  24.193  23.271  1.00  0.00     0.110 A 
ATOM     11  N   UNL A   1      34.150  24.491  25.495  1.00  0.00    -0.167 NA
ATOM     12  C   UNL A   1      34.711  23.037  23.851  1.00  0.00     0.056 A 
BRANCH   9  13
ATOM     13  C   UNL A   1      33.782  26.509  24.217  1.00  0.00     0.185 C 
BRANCH  13  14
ATOM     14  C   UNL A   1      33.137  27.089  25.439  1.00  0.00     0.036 A 
ATOM     15  C   UNL A   1      31.808  26.832  25.768  1.00  0.00     0.218 A 
ATOM     16  N   UNL A   1      31.192  27.307  26.871  1.00  0.00    -0.222 NA
ATOM     17  C   UNL A   1      31.915  28.124  27.668  1.00  0.00     0.115 A 
ATOM     18  C   UNL A   1      33.841  27.967  26.277  1.00  0.00     0.013 A 
ATOM     19  C   UNL A   1      33.216  28.509  27.397  1.00  0.00     0.021 A 
BRANCH  15  20
ATOM     20  O   UNL A   1      30.965  26.333  24.807  1.00  0.00    -0.481 OA
ATOM     21  C   UNL A   1      30.470  25.044  25.136  1.00  0.00     0.280 C 
ENDBRANCH  15  20
ENDBRANCH  13  14
ENDBRANCH   9  13
ENDBRANCH   5   8
ENDBRANCH   3   4
ENDBRANCH   2   3
ENDBRANCH   1   2
BRANCH   1  22
ATOM     22  C   UNL A   1      40.836  21.445  27.524  1.00  0.00     0.002 C 
BRANCH  22  23
ATOM     23  C   UNL A   1      41.931  20.391  27.300  1.00  0.00     0.021 C 
BRANCH  23  24
ATOM     24  C   UNL A   1      42.045  19.954  25.855  1.00  0.00     0.116 C 
BRANCH  24  25
ATOM     25  N   UNL A   1      43.424  19.660  25.466  1.00  0.00    -0.352 N 
ATOM     26  C   UNL A   1      44.408  20.557  25.082  1.00  0.00     0.251 C 
ATOM     27  H   UNL A   1      43.685  18.711  25.479  1.00  0.00     0.163 HD
ATOM     28  O   UNL A   1      45.391  20.205  24.460  1.00  0.00    -0.269 OA
BRANCH  26  29
ATOM     29  C   UNL A   1      44.225  21.966  25.472  1.00  0.00     0.039 A 
ATOM     30  C   UNL A   1      43.327  22.811  24.821  1.00  0.00     0.014 A 
ATOM     31  C   UNL A   1      44.938  22.396  26.583  1.00  0.00     0.014 A 
ATOM     32  C   UNL A   1      43.113  24.080  25.353  1.00  0.00     0.010 A 
ATOM     33  C   UNL A   1      44.535  23.522  27.236  1.00  0.00     0.010 A 
ATOM     34  C   UNL A   1      43.714  24.421  26.577  1.00  0.00    -0.014 A 
BRANCH  34  35
ATOM     35  C   UNL A   1      43.469  25.699  27.231  1.00  0.00     0.031 A 
ATOM     36  C   UNL A   1      44.437  26.771  26.881  1.00  0.00     0.074 A 
ATOM     37  C   UNL A   1      42.348  25.941  27.949  1.00  0.00     0.049 A 
ATOM     38  N   UNL A   1      45.311  27.320  27.657  1.00  0.00    -0.248 NA
ATOM     39  C   UNL A   1      44.548  27.187  25.472  1.00  0.00     0.031 C 
ATOM     40  C   UNL A   1      41.166  25.089  28.152  1.00  0.00     0.029 A 
ATOM     41  N   UNL A   1      41.994  27.079  28.601  1.00  0.00    -0.354 N 
ATOM     42  C   UNL A   1      45.951  28.292  26.894  1.00  0.00     0.074 A 
ATOM     43  C   UNL A   1      45.559  28.057  25.528  1.00  0.00     0.031 C 
ATOM     44  C   UNL A   1      40.147  25.822  28.652  1.00  0.00     0.029 A 
ATOM     45  C   UNL A   1      40.661  27.130  28.996  1.00  0.00     0.049 A 
ATOM     46  H   UNL A   1      42.629  27.809  28.779  1.00  0.00     0.167 HD
ATOM     47  C   UNL A   1      46.575  29.347  27.485  1.00  0.00     0.037 A 
ATOM     48  C   UNL A   1      40.031  28.186  29.565  1.00  0.00     0.037 A 
ATOM     49  C   UNL A   1      46.795  29.102  28.888  1.00  0.00     0.049 A 
ATOM     50  C   UNL A   1      41.084  29.058  30.138  1.00  0.00     0.074 A 
ATOM     51  C   UNL A   1      47.515  28.167  29.606  1.00  0.00     0.029 A 
ATOM     52  N   UNL A   1      45.898  29.643  29.776  1.00  0.00    -0.354 N 
ATOM     53  N   UNL A   1      41.845  28.703  31.137  1.00  0.00    -0.248 NA
ATOM     54  C   UNL A   1      41.621  30.105  29.282  1.00  0.00     0.031 C 
ATOM     55  C   UNL A   1      46.682  27.842  30.718  1.00  0.00     0.029 A 
ATOM     56  C   UNL A   1      45.548  28.654  30.659  1.00  0.00     0.049 A 
ATOM     57  H   UNL A   1      45.566  30.571  29.778  1.00  0.00     0.167 HD
ATOM     58  C   UNL A   1      43.112  29.157  30.797  1.00  0.00     0.074 A 
ATOM     59  C   UNL A   1      42.898  30.069  29.673  1.00  0.00     0.031 C 
ATOM     60  C   UNL A   1      44.238  28.534  31.257  1.00  0.00     0.037 A 
BRANCH  47  61
ATOM     61  C   UNL A   1      46.649  30.732  26.900  1.00  0.00     0.057 A 
ATOM     62  C   UNL A   1      47.880  31.411  26.889  1.00  0.00     0.134 A 
ATOM     63  C   UNL A   1      45.519  31.531  26.633  1.00  0.00     0.134 A 
ATOM     64  F   UNL A   1      49.027  30.760  27.139  1.00  0.00    -0.206 F 
ATOM     65  C   UNL A   1      47.972  32.796  26.706  1.00  0.00     0.040 A 
ATOM     66  C   UNL A   1      45.604  32.907  26.401  1.00  0.00     0.040 A 
ATOM     67  F   UNL A   1      44.272  31.050  26.687  1.00  0.00    -0.206 F 
ATOM     68  C   UNL A   1      46.829  33.550  26.471  1.00  0.00     0.006 A 
ENDBRANCH  47  61
BRANCH  48  69
ATOM     69  C   UNL A   1      38.649  28.655  29.310  1.00  0.00     0.057 A 
ATOM     70  C   UNL A   1      37.711  28.759  30.344  1.00  0.00     0.134 A 
ATOM     71  C   UNL A   1      38.305  29.280  28.097  1.00  0.00     0.134 A 
ATOM     72  F   UNL A   1      37.970  28.235  31.551  1.00  0.00    -0.206 F 
ATOM     73  C   UNL A   1      36.507  29.462  30.189  1.00  0.00     0.040 A 
ATOM     74  C   UNL A   1      37.107  29.982  27.928  1.00  0.00     0.040 A 
ATOM     75  F   UNL A   1      39.164  29.308  27.066  1.00  0.00    -0.206 F 
ATOM     76  C   UNL A   1      36.208  30.086  28.981  1.00  0.00     0.006 A 
ENDBRANCH  48  69
BRANCH  60  77
ATOM     77  C   UNL A   1      44.080  27.473  32.314  1.00  0.00     0.057 A 
ATOM     78  C   UNL A   1      44.049  26.094  32.052  1.00  0.00     0.134 A 
ATOM     79  C   UNL A   1      44.149  27.856  33.657  1.00  0.00     0.134 A 
ATOM     80  F   UNL A   1      44.074  25.625  30.800  1.00  0.00    -0.206 F 
ATOM     81  C   UNL A   1      44.062  25.145  33.081  1.00  0.00     0.040 A 
ATOM     82  C   UNL A   1      44.192  26.918  34.692  1.00  0.00     0.040 A 
ATOM     83  F   UNL A   1      44.237  29.155  33.984  1.00  0.00    -0.206 F 
ATOM     84  C   UNL A   1      44.142  25.557  34.406  1.00  0.00     0.006 A 
ENDBRANCH  60  77
ENDBRANCH  34  35
ENDBRANCH  26  29
ENDBRANCH  24  25
ENDBRANCH  23  24
ENDBRANCH  22  23
ENDBRANCH   1  22
TORSDOF 16
ENDMDL
MODEL 2
REMARK VINA RESULT:     -10.3      2.619      8.179
REMARK SMILES COc1ncccc1Cn1ccc(C(=O)NCCCCCCNC(=O)c2ccc(-c3c4nc(c(-c5c(F)cccc5F)c5ccc([nH]5)c(-c5c(F)cccc5F)c5nc(c(-c6c(F)cccc6F)c6ccc3[nH]6)C=C5)C=C4)cc2)n1
REMARK SMILES IDX 19 1 18 2 17 3 16 4 14 5 15 6 13 8 10 9 11 10 80 11 12 12
REMARK SMILES IDX 9 13 8 14 3 15 4 16 5 17 7 18 6 19 2 20 1 21 20 22 21 23
REMARK SMILES IDX 22 24 23 25 24 26 25 28 26 29 27 30 79 31 28 32 78 33 29 34
REMARK SMILES IDX 30 35 31 36 72 37 32 38 77 39 71 40 73 41 33 42 76 43 70 44
REMARK SMILES IDX 69 45 34 47 60 48 43 49 59 50 44 51 47 52 58 53 74 54 45 55
REMARK SMILES IDX 46 56 57 58 75 59 48 60 35 61 36 62 41 63 37 64 38 65 40 66
REMARK SMILES IDX 42 67 39 68 61 69 62 70 67 71 63 72 64 73 66 74 68 75 65 76
REMARK SMILES IDX 49 77 50 78 55 79 51 80 52 81 54 82 56 83 53 84
REMARK H PARENT 16 7 23 27 73 46 47 57
REMARK Flexibility Score: inf
ROOT
ATOM      1  C   UNL A   1      33.974  28.566  26.086  1.00  0.00     0.002 C 
ENDROOT
BRANCH   1   2
ATOM      2  C   UNL A   1      33.088  29.071  24.940  1.00  0.00     0.021 C 
BRANCH   2   3
ATOM      3  C   UNL A   1      31.605  28.813  25.179  1.00  0.00     0.116 C 
BRANCH   3   4
ATOM      4  N   UNL A   1      30.848  29.146  23.991  1.00  0.00    -0.351 N 
ATOM      5  C   UNL A   1      30.540  28.392  22.889  1.00  0.00     0.271 C 
ATOM      6  O   UNL A   1      29.989  28.966  21.948  1.00  0.00    -0.267 OA
ATOM      7  H   UNL A   1      30.497  30.065  23.972  1.00  0.00     0.163 HD
BRANCH   5   8
ATOM      8  C   UNL A   1      30.774  26.941  22.873  1.00  0.00     0.150 A 
ATOM      9  N   UNL A   1      31.727  25.046  22.604  1.00  0.00    -0.267 N 
ATOM     10  C   UNL A   1      30.759  24.830  23.541  1.00  0.00     0.110 A 
ATOM     11  N   UNL A   1      31.684  26.299  22.115  1.00  0.00    -0.167 NA
ATOM     12  C   UNL A   1      30.112  26.024  23.723  1.00  0.00     0.056 A 
BRANCH   9  13
ATOM     13  C   UNL A   1      32.892  24.213  22.294  1.00  0.00     0.185 C 
BRANCH  13  14
ATOM     14  C   UNL A   1      33.719  23.866  23.495  1.00  0.00     0.036 A 
ATOM     15  C   UNL A   1      33.854  22.555  23.948  1.00  0.00     0.218 A 
ATOM     16  N   UNL A   1      34.609  22.191  25.005  1.00  0.00    -0.222 NA
ATOM     17  C   UNL A   1      35.226  23.182  25.685  1.00  0.00     0.115 A 
ATOM     18  C   UNL A   1      34.350  24.867  24.248  1.00  0.00     0.013 A 
ATOM     19  C   UNL A   1      35.099  24.524  25.371  1.00  0.00     0.021 A 
BRANCH  15  20
ATOM     20  O   UNL A   1      32.960  21.605  23.522  1.00  0.00    -0.481 OA
ATOM     21  C   UNL A   1      32.154  21.107  24.578  1.00  0.00     0.280 C 
ENDBRANCH  15  20
ENDBRANCH  13  14
ENDBRANCH   9  13
ENDBRANCH   5   8
ENDBRANCH   3   4
ENDBRANCH   2   3
ENDBRANCH   1   2
BRANCH   1  22
ATOM     22  C   UNL A   1      33.835  29.335  27.411  1.00  0.00     0.002 C 
BRANCH  22  23
ATOM     23  C   UNL A   1      33.403  30.805  27.299  1.00  0.00     0.021 C 
BRANCH  23  24
ATOM     24  C   UNL A   1      34.515  31.776  27.628  1.00  0.00     0.116 C 
BRANCH  24  25
ATOM     25  N   UNL A   1      34.405  32.316  28.983  1.00  0.00    -0.352 N 
ATOM     26  C   UNL A   1      35.135  31.954  30.103  1.00  0.00     0.251 C 
ATOM     27  H   UNL A   1      33.732  33.023  29.114  1.00  0.00     0.163 HD
ATOM     28  O   UNL A   1      34.749  32.201  31.229  1.00  0.00    -0.269 OA
BRANCH  26  29
ATOM     29  C   UNL A   1      36.417  31.264  29.879  1.00  0.00     0.039 A 
ATOM     30  C   UNL A   1      37.611  31.953  29.671  1.00  0.00     0.014 A 
ATOM     31  C   UNL A   1      36.394  29.878  29.963  1.00  0.00     0.014 A 
ATOM     32  C   UNL A   1      38.794  31.220  29.616  1.00  0.00     0.010 A 
ATOM     33  C   UNL A   1      37.562  29.206  30.167  1.00  0.00     0.010 A 
ATOM     34  C   UNL A   1      38.759  29.841  29.883  1.00  0.00    -0.014 A 
BRANCH  34  35
ATOM     35  C   UNL A   1      39.967  29.029  29.923  1.00  0.00     0.031 A 
ATOM     36  C   UNL A   1      40.537  28.829  31.281  1.00  0.00     0.074 A 
ATOM     37  C   UNL A   1      40.423  28.360  28.839  1.00  0.00     0.049 A 
ATOM     38  N   UNL A   1      41.654  29.288  31.735  1.00  0.00    -0.248 NA
ATOM     39  C   UNL A   1      39.710  28.161  32.299  1.00  0.00     0.031 C 
ATOM     40  C   UNL A   1      39.822  28.222  27.503  1.00  0.00     0.029 A 
ATOM     41  N   UNL A   1      41.524  27.570  28.738  1.00  0.00    -0.354 N 
ATOM     42  C   UNL A   1      41.772  28.805  33.035  1.00  0.00     0.074 A 
ATOM     43  C   UNL A   1      40.486  28.258  33.381  1.00  0.00     0.031 C 
ATOM     44  C   UNL A   1      40.421  27.217  26.827  1.00  0.00     0.029 A 
ATOM     45  C   UNL A   1      41.571  26.784  27.592  1.00  0.00     0.049 A 
ATOM     46  H   UNL A   1      42.231  27.553  29.423  1.00  0.00     0.167 HD
ATOM     47  C   UNL A   1      42.990  28.696  33.634  1.00  0.00     0.037 A 
ATOM     48  C   UNL A   1      42.499  25.840  27.300  1.00  0.00     0.037 A 
ATOM     49  C   UNL A   1      43.986  29.464  32.931  1.00  0.00     0.049 A 
ATOM     50  C   UNL A   1      43.688  26.133  28.136  1.00  0.00     0.074 A 
ATOM     51  C   UNL A   1      44.151  30.808  32.649  1.00  0.00     0.029 A 
ATOM     52  N   UNL A   1      44.800  28.797  32.049  1.00  0.00    -0.354 N 
ATOM     53  N   UNL A   1      44.422  27.202  27.990  1.00  0.00    -0.248 NA
ATOM     54  C   UNL A   1      43.755  25.499  29.445  1.00  0.00     0.031 C 
ATOM     55  C   UNL A   1      44.644  30.841  31.311  1.00  0.00     0.029 A 
ATOM     56  C   UNL A   1      44.828  29.523  30.886  1.00  0.00     0.049 A 
ATOM     57  H   UNL A   1      45.275  27.951  32.220  1.00  0.00     0.167 HD
ATOM     58  C   UNL A   1      44.701  27.620  29.284  1.00  0.00     0.074 A 
ATOM     59  C   UNL A   1      44.317  26.495  30.137  1.00  0.00     0.031 C 
ATOM     60  C   UNL A   1      44.938  28.935  29.571  1.00  0.00     0.037 A 
BRANCH  47  61
ATOM     61  C   UNL A   1      43.366  27.617  34.613  1.00  0.00     0.057 A 
ATOM     62  C   UNL A   1      43.423  26.281  34.177  1.00  0.00     0.134 A 
ATOM     63  C   UNL A   1      43.374  27.794  36.011  1.00  0.00     0.134 A 
ATOM     64  F   UNL A   1      43.412  25.982  32.869  1.00  0.00    -0.206 F 
ATOM     65  C   UNL A   1      43.407  25.200  35.067  1.00  0.00     0.040 A 
ATOM     66  C   UNL A   1      43.406  26.724  36.909  1.00  0.00     0.040 A 
ATOM     67  F   UNL A   1      43.244  28.998  36.581  1.00  0.00    -0.206 F 
ATOM     68  C   UNL A   1      43.388  25.421  36.439  1.00  0.00     0.006 A 
ENDBRANCH  47  61
BRANCH  48  69
ATOM     69  C   UNL A   1      42.275  24.527  26.652  1.00  0.00     0.057 A 
ATOM     70  C   UNL A   1      43.036  24.119  25.550  1.00  0.00     0.134 A 
ATOM     71  C   UNL A   1      41.504  23.529  27.276  1.00  0.00     0.134 A 
ATOM     72  F   UNL A   1      43.837  24.989  24.918  1.00  0.00    -0.206 F 
ATOM     73  C   UNL A   1      43.046  22.789  25.104  1.00  0.00     0.040 A 
ATOM     74  C   UNL A   1      41.504  22.199  26.841  1.00  0.00     0.040 A 
ATOM     75  F   UNL A   1      40.800  23.794  28.387  1.00  0.00    -0.206 F 
ATOM     76  C   UNL A   1      42.287  21.822  25.758  1.00  0.00     0.006 A 
ENDBRANCH  48  69
BRANCH  60  77
ATOM     77  C   UNL A   1      45.101  29.894  28.421  1.00  0.00     0.057 A 
ATOM     78  C   UNL A   1      44.051  30.628  27.849  1.00  0.00     0.134 A 
ATOM     79  C   UNL A   1      46.395  30.220  28.006  1.00  0.00     0.134 A 
ATOM     80  F   UNL A   1      42.786  30.454  28.246  1.00  0.00    -0.206 F 
ATOM     81  C   UNL A   1      44.279  31.623  26.891  1.00  0.00     0.040 A 
ATOM     82  C   UNL A   1      46.639  31.230  27.072  1.00  0.00     0.040 A 
ATOM     83  F   UNL A   1      47.454  29.599  28.548  1.00  0.00    -0.206 F 
ATOM     84  C   UNL A   1      45.579  31.932  26.506  1.00  0.00     0.006 A 
ENDBRANCH  60  77
ENDBRANCH  34  35
ENDBRANCH  26  29
ENDBRANCH  24  25
ENDBRANCH  23  24
ENDBRANCH  22  23
ENDBRANCH   1  22
TORSDOF 16
ENDMDL
MODEL 3
REMARK VINA RESULT:     -10.3      2.243      8.066
REMARK SMILES COc1ncccc1Cn1ccc(C(=O)NCCCCCCNC(=O)c2ccc(-c3c4nc(c(-c5c(F)cccc5F)c5ccc([nH]5)c(-c5c(F)cccc5F)c5nc(c(-c6c(F)cccc6F)c6ccc3[nH]6)C=C5)C=C4)cc2)n1
REMARK SMILES IDX 19 1 18 2 17 3 16 4 14 5 15 6 13 8 10 9 11 10 80 11 12 12
REMARK SMILES IDX 9 13 8 14 3 15 4 16 5 17 7 18 6 19 2 20 1 21 20 22 21 23
REMARK SMILES IDX 22 24 23 25 24 26 25 28 26 29 27 30 79 31 28 32 78 33 29 34
REMARK SMILES IDX 30 35 31 36 72 37 32 38 77 39 71 40 73 41 33 42 76 43 70 44
REMARK SMILES IDX 69 45 34 47 60 48 43 49 59 50 44 51 47 52 58 53 74 54 45 55
REMARK SMILES IDX 46 56 57 58 75 59 48 60 35 61 36 62 41 63 37 64 38 65 40 66
REMARK SMILES IDX 42 67 39 68 61 69 62 70 67 71 63 72 64 73 66 74 68 75 65 76
REMARK SMILES IDX 49 77 50 78 55 79 51 80 52 81 54 82 56 83 53 84
REMARK H PARENT 16 7 23 27 73 46 47 57
REMARK Flexibility Score: inf
ROOT
ATOM      1  C   UNL A   1      32.907  26.545  26.272  1.00  0.00     0.002 C 
ENDROOT
BRANCH   1   2
ATOM      2  C   UNL A   1      31.383  26.723  26.256  1.00  0.00     0.021 C 
BRANCH   2   3
ATOM      3  C   UNL A   1      30.666  25.626  25.475  1.00  0.00     0.116 C 
BRANCH   3   4
ATOM      4  N   UNL A   1      30.019  24.712  26.391  1.00  0.00    -0.351 N 
ATOM      5  C   UNL A   1      30.426  23.497  26.877  1.00  0.00     0.271 C 
ATOM      6  O   UNL A   1      29.615  22.856  27.548  1.00  0.00    -0.267 OA
ATOM      7  H   UNL A   1      29.140  25.013  26.720  1.00  0.00     0.163 HD
BRANCH   5   8
ATOM      8  C   UNL A   1      31.805  23.026  26.682  1.00  0.00     0.150 A 
ATOM      9  N   UNL A   1      33.718  22.670  25.795  1.00  0.00    -0.267 N 
ATOM     10  C   UNL A   1      33.919  22.551  27.140  1.00  0.00     0.110 A 
ATOM     11  N   UNL A   1      32.419  22.860  25.495  1.00  0.00    -0.167 NA
ATOM     12  C   UNL A   1      32.703  22.753  27.740  1.00  0.00     0.056 A 
BRANCH   9  13
ATOM     13  C   UNL A   1      34.716  22.874  24.743  1.00  0.00     0.185 C 
BRANCH  13  14
ATOM     14  C   UNL A   1      36.129  22.854  25.243  1.00  0.00     0.036 A 
ATOM     15  C   UNL A   1      36.904  21.696  25.226  1.00  0.00     0.218 A 
ATOM     16  N   UNL A   1      38.188  21.635  25.639  1.00  0.00    -0.222 NA
ATOM     17  C   UNL A   1      38.721  22.769  26.143  1.00  0.00     0.115 A 
ATOM     18  C   UNL A   1      36.710  24.000  25.804  1.00  0.00     0.013 A 
ATOM     19  C   UNL A   1      38.018  23.954  26.279  1.00  0.00     0.021 A 
BRANCH  15  20
ATOM     20  O   UNL A   1      36.287  20.479  25.080  1.00  0.00    -0.481 OA
ATOM     21  C   UNL A   1      37.208  19.432  24.821  1.00  0.00     0.280 C 
ENDBRANCH  15  20
ENDBRANCH  13  14
ENDBRANCH   9  13
ENDBRANCH   5   8
ENDBRANCH   3   4
ENDBRANCH   2   3
ENDBRANCH   1   2
BRANCH   1  22
ATOM     22  C   UNL A   1      33.703  27.646  25.550  1.00  0.00     0.002 C 
BRANCH  22  23
ATOM     23  C   UNL A   1      33.538  29.072  26.099  1.00  0.00     0.021 C 
BRANCH  23  24
ATOM     24  C   UNL A   1      34.347  29.321  27.353  1.00  0.00     0.116 C 
BRANCH  24  25
ATOM     25  N   UNL A   1      34.251  30.705  27.816  1.00  0.00    -0.352 N 
ATOM     26  C   UNL A   1      34.967  31.310  28.836  1.00  0.00     0.251 C 
ATOM     27  H   UNL A   1      33.601  31.275  27.346  1.00  0.00     0.163 HD
ATOM     28  O   UNL A   1      34.586  32.335  29.368  1.00  0.00    -0.269 OA
BRANCH  26  29
ATOM     29  C   UNL A   1      36.226  30.668  29.250  1.00  0.00     0.039 A 
ATOM     30  C   UNL A   1      36.270  29.652  30.204  1.00  0.00     0.014 A 
ATOM     31  C   UNL A   1      37.373  31.070  28.579  1.00  0.00     0.014 A 
ATOM     32  C   UNL A   1      37.483  29.003  30.421  1.00  0.00     0.010 A 
ATOM     33  C   UNL A   1      38.475  30.269  28.607  1.00  0.00     0.010 A 
ATOM     34  C   UNL A   1      38.582  29.311  29.601  1.00  0.00    -0.014 A 
BRANCH  34  35
ATOM     35  C   UNL A   1      39.855  28.615  29.719  1.00  0.00     0.031 A 
ATOM     36  C   UNL A   1      40.392  28.531  31.102  1.00  0.00     0.074 A 
ATOM     37  C   UNL A   1      40.408  27.942  28.685  1.00  0.00     0.049 A 
ATOM     38  N   UNL A   1      41.446  29.110  31.569  1.00  0.00    -0.248 NA
ATOM     39  C   UNL A   1      39.591  27.838  32.126  1.00  0.00     0.031 C 
ATOM     40  C   UNL A   1      39.870  27.687  27.339  1.00  0.00     0.029 A 
ATOM     41  N   UNL A   1      41.578  27.251  28.658  1.00  0.00    -0.354 N 
ATOM     42  C   UNL A   1      41.560  28.701  32.894  1.00  0.00     0.074 A 
ATOM     43  C   UNL A   1      40.317  28.056  33.226  1.00  0.00     0.031 C 
ATOM     44  C   UNL A   1      40.581  26.711  26.732  1.00  0.00     0.029 A 
ATOM     45  C   UNL A   1      41.737  26.420  27.553  1.00  0.00     0.049 A 
ATOM     46  H   UNL A   1      42.259  27.330  29.364  1.00  0.00     0.167 HD
ATOM     47  C   UNL A   1      42.760  28.732  33.535  1.00  0.00     0.037 A 
ATOM     48  C   UNL A   1      42.755  25.552  27.338  1.00  0.00     0.037 A 
ATOM     49  C   UNL A   1      43.708  29.554  32.827  1.00  0.00     0.049 A 
ATOM     50  C   UNL A   1      43.883  25.991  28.197  1.00  0.00     0.074 A 
ATOM     51  C   UNL A   1      43.762  30.892  32.485  1.00  0.00     0.029 A 
ATOM     52  N   UNL A   1      44.610  28.923  32.006  1.00  0.00    -0.354 N 
ATOM     53  N   UNL A   1      44.523  27.115  28.021  1.00  0.00    -0.248 NA
ATOM     54  C   UNL A   1      43.959  25.428  29.536  1.00  0.00     0.031 C 
ATOM     55  C   UNL A   1      44.298  30.908  31.163  1.00  0.00     0.029 A 
ATOM     56  C   UNL A   1      44.614  29.595  30.810  1.00  0.00     0.049 A 
ATOM     57  H   UNL A   1      45.152  28.134  32.234  1.00  0.00     0.167 HD
ATOM     58  C   UNL A   1      44.716  27.616  29.301  1.00  0.00     0.074 A 
ATOM     59  C   UNL A   1      44.404  26.501  30.196  1.00  0.00     0.031 C 
ATOM     60  C   UNL A   1      44.824  28.959  29.530  1.00  0.00     0.037 A 
BRANCH  47  61
ATOM     61  C   UNL A   1      43.196  27.738  34.578  1.00  0.00     0.057 A 
ATOM     62  C   UNL A   1      43.455  26.409  34.197  1.00  0.00     0.134 A 
ATOM     63  C   UNL A   1      43.076  27.953  35.966  1.00  0.00     0.134 A 
ATOM     64  F   UNL A   1      43.581  26.076  32.903  1.00  0.00    -0.206 F 
ATOM     65  C   UNL A   1      43.510  25.360  35.123  1.00  0.00     0.040 A 
ATOM     66  C   UNL A   1      43.177  26.921  36.903  1.00  0.00     0.040 A 
ATOM     67  F   UNL A   1      42.751  29.145  36.481  1.00  0.00    -0.206 F 
ATOM     68  C   UNL A   1      43.360  25.614  36.481  1.00  0.00     0.006 A 
ENDBRANCH  47  61
BRANCH  48  69
ATOM     69  C   UNL A   1      42.673  24.196  26.749  1.00  0.00     0.057 A 
ATOM     70  C   UNL A   1      43.330  23.879  25.554  1.00  0.00     0.134 A 
ATOM     71  C   UNL A   1      42.184  23.107  27.494  1.00  0.00     0.134 A 
ATOM     72  F   UNL A   1      43.870  24.847  24.799  1.00  0.00    -0.206 F 
ATOM     73  C   UNL A   1      43.508  22.554  25.131  1.00  0.00     0.040 A 
ATOM     74  C   UNL A   1      42.353  21.781  27.083  1.00  0.00     0.040 A 
ATOM     75  F   UNL A   1      41.608  23.292  28.692  1.00  0.00    -0.206 F 
ATOM     76  C   UNL A   1      43.028  21.499  25.902  1.00  0.00     0.006 A 
ENDBRANCH  48  69
BRANCH  60  77
ATOM     77  C   UNL A   1      44.942  29.874  28.340  1.00  0.00     0.057 A 
ATOM     78  C   UNL A   1      43.855  30.512  27.722  1.00  0.00     0.134 A 
ATOM     79  C   UNL A   1      46.218  30.265  27.926  1.00  0.00     0.134 A 
ATOM     80  F   UNL A   1      42.598  30.274  28.111  1.00  0.00    -0.206 F 
ATOM     81  C   UNL A   1      44.033  31.476  26.722  1.00  0.00     0.040 A 
ATOM     82  C   UNL A   1      46.410  31.247  26.950  1.00  0.00     0.040 A 
ATOM     83  F   UNL A   1      47.307  29.740  28.508  1.00  0.00    -0.206 F 
ATOM     84  C   UNL A   1      45.316  31.853  26.341  1.00  0.00     0.006 A 
ENDBRANCH  60  77
ENDBRANCH  34  35
ENDBRANCH  26  29
ENDBRANCH  24  25
ENDBRANCH  23  24
ENDBRANCH  22  23
ENDBRANCH   1  22
TORSDOF 16
ENDMDL
