MODEL 1
REMARK VINA RESULT:     -13.3      0.000      0.000
REMARK SMILES O=C(NCCCCCCNC(=O)c1ccc([C@H]2Nc3ccc(Cl)cc3[C@@H]3C=CC[C@@H]23)cc1)c1ccc(-c2c3nc(c(-c4c(F)cccc4F)c4ccc([nH]4)c(-c4c(F)cccc4F)c4nc(c(-c5c(F)cccc5F)c5ccc2[nH]5)C=C4)C=C3)cc1
REMARK SMILES IDX 6 1 5 2 4 3 3 4 1 5 2 6 33 8 34 9 86 10 35 11 85 12 36 13
REMARK SMILES IDX 37 14 38 15 79 16 39 17 84 18 78 19 80 20 40 21 83 22 77 23
REMARK SMILES IDX 76 24 41 26 67 27 50 28 66 29 51 30 54 31 65 32 81 33 52 34
REMARK SMILES IDX 53 35 64 37 82 38 55 39 42 40 43 41 48 42 44 43 45 44 47 45
REMARK SMILES IDX 49 46 46 47 68 48 69 49 74 50 70 51 71 52 73 53 75 54 72 55
REMARK SMILES IDX 56 56 57 57 62 58 58 59 59 60 61 61 63 62 60 63 7 64 8 65
REMARK SMILES IDX 9 66 10 67 11 68 12 70 13 71 14 72 32 73 15 74 31 75 16 76
REMARK SMILES IDX 17 77 18 78 30 79 19 80 26 82 29 83 20 84 25 85 27 86 28 87
REMARK SMILES IDX 21 88 24 89 22 90 23 91
REMARK H PARENT 3 7 80 25 54 36 10 69 18 81
REMARK Flexibility Score: inf
ROOT
ATOM      1  C   UNL A   1      31.809  30.460  26.788  1.00  0.00     0.002 C 
ENDROOT
BRANCH   1   2
ATOM      2  C   UNL A   1      31.560  31.962  26.914  1.00  0.00     0.021 C 
BRANCH   2   3
ATOM      3  C   UNL A   1      32.812  32.824  27.035  1.00  0.00     0.116 C 
BRANCH   3   4
ATOM      4  N   UNL A   1      32.551  34.121  27.641  1.00  0.00    -0.352 N 
ATOM      5  O   UNL A   1      32.706  35.751  29.199  1.00  0.00    -0.269 OA
ATOM      6  C   UNL A   1      33.158  34.709  28.724  1.00  0.00     0.251 C 
ATOM      7  H   UNL A   1      31.841  34.653  27.213  1.00  0.00     0.163 HD
BRANCH   6   8
ATOM      8  C   UNL A   1      34.350  34.085  29.336  1.00  0.00     0.039 A 
ATOM      9  C   UNL A   1      34.212  33.131  30.350  1.00  0.00     0.014 A 
ATOM     10  C   UNL A   1      35.623  34.430  28.871  1.00  0.00     0.014 A 
ATOM     11  C   UNL A   1      35.341  32.610  30.972  1.00  0.00     0.010 A 
ATOM     12  C   UNL A   1      36.757  33.842  29.441  1.00  0.00     0.010 A 
ATOM     13  C   UNL A   1      36.624  32.933  30.502  1.00  0.00    -0.014 A 
BRANCH  13  14
ATOM     14  C   UNL A   1      37.800  32.202  31.037  1.00  0.00     0.031 A 
ATOM     15  C   UNL A   1      38.470  31.108  30.257  1.00  0.00     0.074 A 
ATOM     16  C   UNL A   1      38.245  32.534  32.266  1.00  0.00     0.049 A 
ATOM     17  N   UNL A   1      39.479  30.351  30.608  1.00  0.00    -0.248 NA
ATOM     18  C   UNL A   1      37.944  30.820  28.914  1.00  0.00     0.031 C 
ATOM     19  C   UNL A   1      37.657  33.570  33.122  1.00  0.00     0.029 A 
ATOM     20  N   UNL A   1      39.283  32.041  33.013  1.00  0.00    -0.354 N 
ATOM     21  C   UNL A   1      39.695  29.484  29.546  1.00  0.00     0.074 A 
ATOM     22  C   UNL A   1      38.707  29.800  28.537  1.00  0.00     0.031 C 
ATOM     23  C   UNL A   1      38.351  33.645  34.265  1.00  0.00     0.029 A 
ATOM     24  C   UNL A   1      39.385  32.618  34.256  1.00  0.00     0.049 A 
ATOM     25  H   UNL A   1      39.897  31.341  32.691  1.00  0.00     0.167 HD
ATOM     26  C   UNL A   1      40.634  28.514  29.432  1.00  0.00     0.037 A 
ATOM     27  C   UNL A   1      40.188  32.326  35.296  1.00  0.00     0.037 A 
ATOM     28  C   UNL A   1      41.624  28.221  30.439  1.00  0.00     0.049 A 
ATOM     29  C   UNL A   1      41.186  31.214  35.149  1.00  0.00     0.074 A 
ATOM     30  C   UNL A   1      42.668  27.313  30.379  1.00  0.00     0.029 A 
ATOM     31  N   UNL A   1      41.681  28.812  31.692  1.00  0.00    -0.354 N 
ATOM     32  N   UNL A   1      41.433  30.460  34.106  1.00  0.00    -0.248 NA
ATOM     33  C   UNL A   1      42.009  30.904  36.326  1.00  0.00     0.031 C 
ATOM     34  C   UNL A   1      43.312  27.304  31.619  1.00  0.00     0.029 A 
ATOM     35  C   UNL A   1      42.708  28.249  32.432  1.00  0.00     0.049 A 
ATOM     36  H   UNL A   1      41.080  29.526  32.008  1.00  0.00     0.167 HD
ATOM     37  C   UNL A   1      42.447  29.596  34.496  1.00  0.00     0.074 A 
ATOM     38  C   UNL A   1      42.789  29.939  35.861  1.00  0.00     0.031 C 
ATOM     39  C   UNL A   1      43.035  28.600  33.790  1.00  0.00     0.037 A 
BRANCH  26  40
ATOM     40  C   UNL A   1      40.641  27.667  28.192  1.00  0.00     0.057 A 
ATOM     41  C   UNL A   1      41.375  28.021  27.053  1.00  0.00     0.134 A 
ATOM     42  C   UNL A   1      39.992  26.425  28.181  1.00  0.00     0.134 A 
ATOM     43  F   UNL A   1      42.017  29.196  26.995  1.00  0.00    -0.206 F 
ATOM     44  C   UNL A   1      41.458  27.171  25.947  1.00  0.00     0.040 A 
ATOM     45  C   UNL A   1      40.086  25.558  27.092  1.00  0.00     0.040 A 
ATOM     46  F   UNL A   1      39.280  26.020  29.244  1.00  0.00    -0.206 F 
ATOM     47  C   UNL A   1      40.823  25.930  25.970  1.00  0.00     0.006 A 
ENDBRANCH  26  40
BRANCH  27  48
ATOM     48  C   UNL A   1      40.042  33.056  36.580  1.00  0.00     0.057 A 
ATOM     49  C   UNL A   1      39.091  32.676  37.532  1.00  0.00     0.134 A 
ATOM     50  C   UNL A   1      40.836  34.173  36.874  1.00  0.00     0.134 A 
ATOM     51  F   UNL A   1      38.289  31.624  37.303  1.00  0.00    -0.206 F 
ATOM     52  C   UNL A   1      38.914  33.394  38.716  1.00  0.00     0.040 A 
ATOM     53  C   UNL A   1      40.694  34.880  38.067  1.00  0.00     0.040 A 
ATOM     54  F   UNL A   1      41.772  34.587  36.007  1.00  0.00    -0.206 F 
ATOM     55  C   UNL A   1      39.720  34.498  38.988  1.00  0.00     0.006 A 
ENDBRANCH  27  48
BRANCH  39  56
ATOM     56  C   UNL A   1      44.114  27.820  34.478  1.00  0.00     0.057 A 
ATOM     57  C   UNL A   1      43.844  26.608  35.128  1.00  0.00     0.134 A 
ATOM     58  C   UNL A   1      45.443  28.259  34.453  1.00  0.00     0.134 A 
ATOM     59  F   UNL A   1      42.588  26.142  35.204  1.00  0.00    -0.206 F 
ATOM     60  C   UNL A   1      44.857  25.871  35.743  1.00  0.00     0.040 A 
ATOM     61  C   UNL A   1      46.469  27.516  35.038  1.00  0.00     0.040 A 
ATOM     62  F   UNL A   1      45.770  29.407  33.840  1.00  0.00    -0.206 F 
ATOM     63  C   UNL A   1      46.175  26.320  35.690  1.00  0.00     0.006 A 
ENDBRANCH  39  56
ENDBRANCH  13  14
ENDBRANCH   6   8
ENDBRANCH   3   4
ENDBRANCH   2   3
ENDBRANCH   1   2
BRANCH   1  64
ATOM     64  C   UNL A   1      31.777  29.890  25.364  1.00  0.00     0.002 C 
BRANCH  64  65
ATOM     65  C   UNL A   1      33.097  29.325  24.814  1.00  0.00     0.021 C 
BRANCH  65  66
ATOM     66  C   UNL A   1      33.155  29.050  23.302  1.00  0.00     0.116 C 
BRANCH  66  67
ATOM     67  N   UNL A   1      31.905  29.365  22.622  1.00  0.00    -0.352 N 
ATOM     68  C   UNL A   1      30.777  28.620  22.357  1.00  0.00     0.251 C 
ATOM     69  H   UNL A   1      31.857  30.290  22.288  1.00  0.00     0.163 HD
ATOM     70  O   UNL A   1      29.918  29.100  21.619  1.00  0.00    -0.269 OA
BRANCH  68  71
ATOM     71  C   UNL A   1      30.575  27.249  22.890  1.00  0.00     0.039 A 
ATOM     72  C   UNL A   1      31.099  26.165  22.171  1.00  0.00     0.014 A 
ATOM     73  C   UNL A   1      29.851  26.996  24.052  1.00  0.00     0.014 A 
ATOM     74  C   UNL A   1      31.102  24.875  22.724  1.00  0.00     0.006 A 
ATOM     75  C   UNL A   1      29.842  25.705  24.596  1.00  0.00     0.006 A 
ATOM     76  C   UNL A   1      30.620  24.677  24.024  1.00  0.00    -0.025 A 
BRANCH  76  77
ATOM     77  C   UNL A   1      31.222  23.629  24.978  1.00  0.00     0.114 C 
ATOM     78  N   UNL A   1      31.461  22.280  24.387  1.00  0.00    -0.378 N 
ATOM     79  C   UNL A   1      32.581  24.149  25.513  1.00  0.00     0.031 C 
ATOM     80  C   UNL A   1      32.748  21.706  24.422  1.00  0.00     0.038 A 
ATOM     81  H   UNL A   1      30.716  21.788  23.972  1.00  0.00     0.161 HD
ATOM     82  C   UNL A   1      33.581  24.005  24.348  1.00  0.00     0.049 C 
ATOM     83  C   UNL A   1      32.818  25.527  26.128  1.00  0.00     0.034 C 
ATOM     84  C   UNL A   1      32.944  20.343  24.644  1.00  0.00     0.027 A 
ATOM     85  C   UNL A   1      33.899  22.547  24.394  1.00  0.00    -0.016 A 
ATOM     86  C   UNL A   1      34.550  25.104  24.574  1.00  0.00    -0.023 C 
ATOM     87  C   UNL A   1      34.087  25.981  25.474  1.00  0.00    -0.030 C 
ATOM     88  C   UNL A   1      34.241  19.837  24.839  1.00  0.00     0.022 A 
ATOM     89  C   UNL A   1      35.191  22.040  24.534  1.00  0.00     0.027 A 
ATOM     90  C   UNL A   1      35.351  20.682  24.774  1.00  0.00     0.041 A 
ATOM     91  Cl  UNL A   1      36.931  20.057  25.057  1.00  0.00    -0.084 Cl
ENDBRANCH  76  77
ENDBRANCH  68  71
ENDBRANCH  66  67
ENDBRANCH  65  66
ENDBRANCH  64  65
ENDBRANCH   1  64
TORSDOF 14
ENDMDL
MODEL 2
REMARK VINA RESULT:     -13.3      4.895      9.579
REMARK SMILES O=C(NCCCCCCNC(=O)c1ccc([C@H]2Nc3ccc(Cl)cc3[C@@H]3C=CC[C@@H]23)cc1)c1ccc(-c2c3nc(c(-c4c(F)cccc4F)c4ccc([nH]4)c(-c4c(F)cccc4F)c4nc(c(-c5c(F)cccc5F)c5ccc2[nH]5)C=C4)C=C3)cc1
REMARK SMILES IDX 6 1 5 2 4 3 3 4 1 5 2 6 33 8 34 9 86 10 35 11 85 12 36 13
REMARK SMILES IDX 37 14 38 15 79 16 39 17 84 18 78 19 80 20 40 21 83 22 77 23
REMARK SMILES IDX 76 24 41 26 67 27 50 28 66 29 51 30 54 31 65 32 81 33 52 34
REMARK SMILES IDX 53 35 64 37 82 38 55 39 42 40 43 41 48 42 44 43 45 44 47 45
REMARK SMILES IDX 49 46 46 47 68 48 69 49 74 50 70 51 71 52 73 53 75 54 72 55
REMARK SMILES IDX 56 56 57 57 62 58 58 59 59 60 61 61 63 62 60 63 7 64 8 65
REMARK SMILES IDX 9 66 10 67 11 68 12 70 13 71 14 72 32 73 15 74 31 75 16 76
REMARK SMILES IDX 17 77 18 78 30 79 19 80 26 82 29 83 20 84 25 85 27 86 28 87
REMARK SMILES IDX 21 88 24 89 22 90 23 91
REMARK H PARENT 3 7 80 25 54 36 10 69 18 81
REMARK Flexibility Score: inf
ROOT
ATOM      1  C   UNL A   1      36.309  20.025  25.000  1.00  0.00     0.002 C 
ENDROOT
BRANCH   1   2
ATOM      2  C   UNL A   1      37.782  19.939  24.599  1.00  0.00     0.021 C 
BRANCH   2   3
ATOM      3  C   UNL A   1      38.781  20.212  25.717  1.00  0.00     0.116 C 
BRANCH   3   4
ATOM      4  N   UNL A   1      39.870  19.248  25.753  1.00  0.00    -0.352 N 
ATOM      5  O   UNL A   1      42.014  18.545  25.880  1.00  0.00    -0.269 OA
ATOM      6  C   UNL A   1      41.196  19.450  26.048  1.00  0.00     0.251 C 
ATOM      7  H   UNL A   1      39.621  18.320  25.537  1.00  0.00     0.163 HD
BRANCH   6   8
ATOM      8  C   UNL A   1      41.652  20.761  26.557  1.00  0.00     0.039 A 
ATOM      9  C   UNL A   1      42.043  21.770  25.670  1.00  0.00     0.014 A 
ATOM     10  C   UNL A   1      41.658  21.001  27.935  1.00  0.00     0.014 A 
ATOM     11  C   UNL A   1      42.545  22.970  26.161  1.00  0.00     0.010 A 
ATOM     12  C   UNL A   1      42.084  22.240  28.425  1.00  0.00     0.010 A 
ATOM     13  C   UNL A   1      42.538  23.231  27.541  1.00  0.00    -0.014 A 
BRANCH  13  14
ATOM     14  C   UNL A   1      42.875  24.594  28.025  1.00  0.00     0.031 A 
ATOM     15  C   UNL A   1      41.811  25.617  28.299  1.00  0.00     0.074 A 
ATOM     16  C   UNL A   1      44.177  24.901  28.196  1.00  0.00     0.049 A 
ATOM     17  N   UNL A   1      41.951  26.861  28.685  1.00  0.00    -0.248 NA
ATOM     18  C   UNL A   1      40.413  25.201  28.115  1.00  0.00     0.031 C 
ATOM     19  C   UNL A   1      45.296  23.988  27.941  1.00  0.00     0.029 A 
ATOM     20  N   UNL A   1      44.784  26.056  28.614  1.00  0.00    -0.354 N 
ATOM     21  C   UNL A   1      40.667  27.383  28.768  1.00  0.00     0.074 A 
ATOM     22  C   UNL A   1      39.757  26.324  28.384  1.00  0.00     0.031 C 
ATOM     23  C   UNL A   1      46.447  24.611  28.224  1.00  0.00     0.029 A 
ATOM     24  C   UNL A   1      46.156  25.986  28.609  1.00  0.00     0.049 A 
ATOM     25  H   UNL A   1      44.285  26.859  28.892  1.00  0.00     0.167 HD
ATOM     26  C   UNL A   1      40.291  28.633  29.130  1.00  0.00     0.037 A 
ATOM     27  C   UNL A   1      47.083  26.934  28.840  1.00  0.00     0.037 A 
ATOM     28  C   UNL A   1      41.208  29.672  29.527  1.00  0.00     0.049 A 
ATOM     29  C   UNL A   1      46.629  28.320  29.195  1.00  0.00     0.074 A 
ATOM     30  C   UNL A   1      40.916  30.944  29.990  1.00  0.00     0.029 A 
ATOM     31  N   UNL A   1      42.590  29.570  29.487  1.00  0.00    -0.354 N 
ATOM     32  N   UNL A   1      45.410  28.773  29.352  1.00  0.00    -0.248 NA
ATOM     33  C   UNL A   1      47.679  29.328  29.395  1.00  0.00     0.031 C 
ATOM     34  C   UNL A   1      42.119  31.634  30.163  1.00  0.00     0.029 A 
ATOM     35  C   UNL A   1      43.163  30.773  29.866  1.00  0.00     0.049 A 
ATOM     36  H   UNL A   1      43.090  28.761  29.228  1.00  0.00     0.167 HD
ATOM     37  C   UNL A   1      45.545  30.115  29.679  1.00  0.00     0.074 A 
ATOM     38  C   UNL A   1      46.965  30.394  29.730  1.00  0.00     0.031 C 
ATOM     39  C   UNL A   1      44.579  31.036  29.909  1.00  0.00     0.037 A 
BRANCH  26  40
ATOM     40  C   UNL A   1      38.829  28.977  29.100  1.00  0.00     0.057 A 
ATOM     41  C   UNL A   1      38.018  28.879  30.236  1.00  0.00     0.134 A 
ATOM     42  C   UNL A   1      38.256  29.521  27.942  1.00  0.00     0.134 A 
ATOM     43  F   UNL A   1      38.501  28.364  31.376  1.00  0.00    -0.206 F 
ATOM     44  C   UNL A   1      36.687  29.304  30.219  1.00  0.00     0.040 A 
ATOM     45  C   UNL A   1      36.935  29.970  27.919  1.00  0.00     0.040 A 
ATOM     46  F   UNL A   1      38.982  29.653  26.821  1.00  0.00    -0.206 F 
ATOM     47  C   UNL A   1      36.146  29.863  29.062  1.00  0.00     0.006 A 
ENDBRANCH  26  40
BRANCH  27  48
ATOM     48  C   UNL A   1      48.526  26.618  28.687  1.00  0.00     0.057 A 
ATOM     49  C   UNL A   1      49.171  26.728  27.451  1.00  0.00     0.134 A 
ATOM     50  C   UNL A   1      49.291  26.172  29.775  1.00  0.00     0.134 A 
ATOM     51  F   UNL A   1      48.489  27.134  26.369  1.00  0.00    -0.206 F 
ATOM     52  C   UNL A   1      50.513  26.380  27.293  1.00  0.00     0.040 A 
ATOM     53  C   UNL A   1      50.641  25.853  29.639  1.00  0.00     0.040 A 
ATOM     54  F   UNL A   1      48.736  26.052  30.990  1.00  0.00    -0.206 F 
ATOM     55  C   UNL A   1      51.253  25.945  28.391  1.00  0.00     0.006 A 
ENDBRANCH  27  48
BRANCH  39  56
ATOM     56  C   UNL A   1      45.026  32.427  30.245  1.00  0.00     0.057 A 
ATOM     57  C   UNL A   1      45.172  33.410  29.257  1.00  0.00     0.134 A 
ATOM     58  C   UNL A   1      45.268  32.801  31.572  1.00  0.00     0.134 A 
ATOM     59  F   UNL A   1      44.973  33.111  27.965  1.00  0.00    -0.206 F 
ATOM     60  C   UNL A   1      45.562  34.711  29.578  1.00  0.00     0.040 A 
ATOM     61  C   UNL A   1      45.629  34.106  31.909  1.00  0.00     0.040 A 
ATOM     62  F   UNL A   1      45.138  31.909  32.566  1.00  0.00    -0.206 F 
ATOM     63  C   UNL A   1      45.782  35.064  30.908  1.00  0.00     0.006 A 
ENDBRANCH  39  56
ENDBRANCH  13  14
ENDBRANCH   6   8
ENDBRANCH   3   4
ENDBRANCH   2   3
ENDBRANCH   1   2
BRANCH   1  64
ATOM     64  C   UNL A   1      35.744  21.439  25.184  1.00  0.00     0.002 C 
BRANCH  64  65
ATOM     65  C   UNL A   1      35.428  21.876  26.624  1.00  0.00     0.021 C 
BRANCH  65  66
ATOM     66  C   UNL A   1      34.045  21.490  27.176  1.00  0.00     0.116 C 
BRANCH  66  67
ATOM     67  N   UNL A   1      33.498  20.297  26.547  1.00  0.00    -0.352 N 
ATOM     68  C   UNL A   1      32.618  20.114  25.502  1.00  0.00     0.251 C 
ATOM     69  H   UNL A   1      33.821  19.455  26.944  1.00  0.00     0.163 HD
ATOM     70  O   UNL A   1      32.205  18.979  25.275  1.00  0.00    -0.269 OA
BRANCH  68  71
ATOM     71  C   UNL A   1      32.119  21.237  24.668  1.00  0.00     0.039 A 
ATOM     72  C   UNL A   1      31.191  22.127  25.226  1.00  0.00     0.014 A 
ATOM     73  C   UNL A   1      32.503  21.413  23.341  1.00  0.00     0.014 A 
ATOM     74  C   UNL A   1      30.835  23.304  24.551  1.00  0.00     0.006 A 
ATOM     75  C   UNL A   1      32.136  22.582  22.663  1.00  0.00     0.006 A 
ATOM     76  C   UNL A   1      31.446  23.616  23.330  1.00  0.00    -0.025 A 
BRANCH  76  77
ATOM     77  C   UNL A   1      31.755  25.063  22.905  1.00  0.00     0.114 C 
ATOM     78  N   UNL A   1      30.627  26.031  23.040  1.00  0.00    -0.378 N 
ATOM     79  C   UNL A   1      32.933  25.603  23.757  1.00  0.00     0.031 C 
ATOM     80  C   UNL A   1      30.779  27.199  23.814  1.00  0.00     0.038 A 
ATOM     81  H   UNL A   1      29.772  25.852  22.585  1.00  0.00     0.161 HD
ATOM     82  C   UNL A   1      32.351  25.890  25.156  1.00  0.00     0.049 C 
ATOM     83  C   UNL A   1      34.265  24.888  23.973  1.00  0.00     0.034 C 
ATOM     84  C   UNL A   1      30.224  28.419  23.429  1.00  0.00     0.027 A 
ATOM     85  C   UNL A   1      31.655  27.193  24.939  1.00  0.00    -0.016 A 
ATOM     86  C   UNL A   1      33.498  25.669  26.069  1.00  0.00    -0.023 C 
ATOM     87  C   UNL A   1      34.500  25.038  25.445  1.00  0.00    -0.030 C 
ATOM     88  C   UNL A   1      30.536  29.594  24.134  1.00  0.00     0.022 A 
ATOM     89  C   UNL A   1      31.926  28.348  25.673  1.00  0.00     0.027 A 
ATOM     90  C   UNL A   1      31.374  29.550  25.252  1.00  0.00     0.041 A 
ATOM     91  Cl  UNL A   1      31.783  31.002  26.083  1.00  0.00    -0.084 Cl
ENDBRANCH  76  77
ENDBRANCH  68  71
ENDBRANCH  66  67
ENDBRANCH  65  66
ENDBRANCH  64  65
ENDBRANCH   1  64
TORSDOF 14
ENDMDL
MODEL 3
REMARK VINA RESULT:     -13.2      5.225     10.107
REMARK SMILES O=C(NCCCCCCNC(=O)c1ccc([C@H]2Nc3ccc(Cl)cc3[C@@H]3C=CC[C@@H]23)cc1)c1ccc(-c2c3nc(c(-c4c(F)cccc4F)c4ccc([nH]4)c(-c4c(F)cccc4F)c4nc(c(-c5c(F)cccc5F)c5ccc2[nH]5)C=C4)C=C3)cc1
REMARK SMILES IDX 6 1 5 2 4 3 3 4 1 5 2 6 33 8 34 9 86 10 35 11 85 12 36 13
REMARK SMILES IDX 37 14 38 15 79 16 39 17 84 18 78 19 80 20 40 21 83 22 77 23
REMARK SMILES IDX 76 24 41 26 67 27 50 28 66 29 51 30 54 31 65 32 81 33 52 34
REMARK SMILES IDX 53 35 64 37 82 38 55 39 42 40 43 41 48 42 44 43 45 44 47 45
REMARK SMILES IDX 49 46 46 47 68 48 69 49 74 50 70 51 71 52 73 53 75 54 72 55
REMARK SMILES IDX 56 56 57 57 62 58 58 59 59 60 61 61 63 62 60 63 7 64 8 65
REMARK SMILES IDX 9 66 10 67 11 68 12 70 13 71 14 72 32 73 15 74 31 75 16 76
REMARK SMILES IDX 17 77 18 78 30 79 19 80 26 82 29 83 20 84 25 85 27 86 28 87
REMARK SMILES IDX 21 88 24 89 22 90 23 91
REMARK H PARENT 3 7 80 25 54 36 10 69 18 81
REMARK Flexibility Score: inf
ROOT
ATOM      1  C   UNL A   1      37.224  21.294  24.575  1.00  0.00     0.002 C 
ENDROOT
BRANCH   1   2
ATOM      2  C   UNL A   1      37.915  19.998  25.001  1.00  0.00     0.021 C 
BRANCH   2   3
ATOM      3  C   UNL A   1      38.977  20.149  26.084  1.00  0.00     0.116 C 
BRANCH   3   4
ATOM      4  N   UNL A   1      40.045  19.168  25.973  1.00  0.00    -0.352 N 
ATOM      5  O   UNL A   1      42.170  18.432  25.751  1.00  0.00    -0.269 OA
ATOM      6  C   UNL A   1      41.404  19.358  26.018  1.00  0.00     0.251 C 
ATOM      7  H   UNL A   1      39.752  18.236  25.849  1.00  0.00     0.163 HD
BRANCH   6   8
ATOM      8  C   UNL A   1      41.957  20.683  26.374  1.00  0.00     0.039 A 
ATOM      9  C   UNL A   1      42.213  21.635  25.382  1.00  0.00     0.014 A 
ATOM     10  C   UNL A   1      42.192  20.992  27.717  1.00  0.00     0.014 A 
ATOM     11  C   UNL A   1      42.807  22.847  25.720  1.00  0.00     0.010 A 
ATOM     12  C   UNL A   1      42.711  22.243  28.064  1.00  0.00     0.010 A 
ATOM     13  C   UNL A   1      43.029  23.177  27.066  1.00  0.00    -0.014 A 
BRANCH  13  14
ATOM     14  C   UNL A   1      43.461  24.555  27.415  1.00  0.00     0.031 A 
ATOM     15  C   UNL A   1      42.479  25.597  27.867  1.00  0.00     0.074 A 
ATOM     16  C   UNL A   1      44.770  24.857  27.294  1.00  0.00     0.049 A 
ATOM     17  N   UNL A   1      42.697  26.853  28.165  1.00  0.00    -0.248 NA
ATOM     18  C   UNL A   1      41.074  25.186  27.998  1.00  0.00     0.031 C 
ATOM     19  C   UNL A   1      45.809  23.926  26.846  1.00  0.00     0.029 A 
ATOM     20  N   UNL A   1      45.452  26.023  27.530  1.00  0.00    -0.354 N 
ATOM     21  C   UNL A   1      41.460  27.389  28.497  1.00  0.00     0.074 A 
ATOM     22  C   UNL A   1      40.490  26.324  28.355  1.00  0.00     0.031 C 
ATOM     23  C   UNL A   1      46.994  24.549  26.854  1.00  0.00     0.029 A 
ATOM     24  C   UNL A   1      46.791  25.940  27.238  1.00  0.00     0.049 A 
ATOM     25  H   UNL A   1      45.023  26.839  27.875  1.00  0.00     0.167 HD
ATOM     26  C   UNL A   1      41.170  28.655  28.881  1.00  0.00     0.037 A 
ATOM     27  C   UNL A   1      47.747  26.888  27.231  1.00  0.00     0.037 A 
ATOM     28  C   UNL A   1      42.150  29.701  29.035  1.00  0.00     0.049 A 
ATOM     29  C   UNL A   1      47.379  28.290  27.619  1.00  0.00     0.074 A 
ATOM     30  C   UNL A   1      41.963  30.992  29.499  1.00  0.00     0.029 A 
ATOM     31  N   UNL A   1      43.492  29.585  28.708  1.00  0.00    -0.354 N 
ATOM     32  N   UNL A   1      46.220  28.760  28.012  1.00  0.00    -0.248 NA
ATOM     33  C   UNL A   1      48.447  29.297  27.554  1.00  0.00     0.031 C 
ATOM     34  C   UNL A   1      43.175  31.677  29.388  1.00  0.00     0.029 A 
ATOM     35  C   UNL A   1      44.133  30.797  28.911  1.00  0.00     0.049 A 
ATOM     36  H   UNL A   1      43.926  28.763  28.381  1.00  0.00     0.167 HD
ATOM     37  C   UNL A   1      46.422  30.112  28.251  1.00  0.00     0.074 A 
ATOM     38  C   UNL A   1      47.820  30.381  27.990  1.00  0.00     0.031 C 
ATOM     39  C   UNL A   1      45.526  31.049  28.644  1.00  0.00     0.037 A 
BRANCH  26  40
ATOM     40  C   UNL A   1      39.735  29.010  29.147  1.00  0.00     0.057 A 
ATOM     41  C   UNL A   1      38.866  29.414  28.126  1.00  0.00     0.134 A 
ATOM     42  C   UNL A   1      39.190  28.837  30.427  1.00  0.00     0.134 A 
ATOM     43  F   UNL A   1      39.322  29.602  26.879  1.00  0.00    -0.206 F 
ATOM     44  C   UNL A   1      37.509  29.637  28.370  1.00  0.00     0.040 A 
ATOM     45  C   UNL A   1      37.832  29.036  30.678  1.00  0.00     0.040 A 
ATOM     46  F   UNL A   1      39.966  28.442  31.448  1.00  0.00    -0.206 F 
ATOM     47  C   UNL A   1      36.986  29.436  29.647  1.00  0.00     0.006 A 
ENDBRANCH  26  40
BRANCH  27  48
ATOM     48  C   UNL A   1      49.125  26.555  26.790  1.00  0.00     0.057 A 
ATOM     49  C   UNL A   1      50.112  26.173  27.703  1.00  0.00     0.134 A 
ATOM     50  C   UNL A   1      49.494  26.636  25.440  1.00  0.00     0.134 A 
ATOM     51  F   UNL A   1      49.826  26.092  29.012  1.00  0.00    -0.206 F 
ATOM     52  C   UNL A   1      51.423  25.913  27.299  1.00  0.00     0.040 A 
ATOM     53  C   UNL A   1      50.790  26.347  25.016  1.00  0.00     0.040 A 
ATOM     54  F   UNL A   1      48.594  26.989  24.510  1.00  0.00    -0.206 F 
ATOM     55  C   UNL A   1      51.763  25.995  25.949  1.00  0.00     0.006 A 
ENDBRANCH  27  48
BRANCH  39  56
ATOM     56  C   UNL A   1      46.034  32.448  28.823  1.00  0.00     0.057 A 
ATOM     57  C   UNL A   1      45.973  33.390  27.788  1.00  0.00     0.134 A 
ATOM     58  C   UNL A   1      46.548  32.871  30.055  1.00  0.00     0.134 A 
ATOM     59  F   UNL A   1      45.508  33.043  26.578  1.00  0.00    -0.206 F 
ATOM     60  C   UNL A   1      46.422  34.699  27.968  1.00  0.00     0.040 A 
ATOM     61  C   UNL A   1      46.972  34.186  30.256  1.00  0.00     0.040 A 
ATOM     62  F   UNL A   1      46.627  32.020  31.089  1.00  0.00    -0.206 F 
ATOM     63  C   UNL A   1      46.913  35.102  29.208  1.00  0.00     0.006 A 
ENDBRANCH  39  56
ENDBRANCH  13  14
ENDBRANCH   6   8
ENDBRANCH   3   4
ENDBRANCH   2   3
ENDBRANCH   1   2
BRANCH   1  64
ATOM     64  C   UNL A   1      35.758  21.444  25.000  1.00  0.00     0.002 C 
BRANCH  64  65
ATOM     65  C   UNL A   1      35.497  21.842  26.462  1.00  0.00     0.021 C 
BRANCH  65  66
ATOM     66  C   UNL A   1      34.126  21.462  27.047  1.00  0.00     0.116 C 
BRANCH  66  67
ATOM     67  N   UNL A   1      33.541  20.294  26.405  1.00  0.00    -0.352 N 
ATOM     68  C   UNL A   1      32.636  20.152  25.376  1.00  0.00     0.251 C 
ATOM     69  H   UNL A   1      33.854  19.437  26.778  1.00  0.00     0.163 HD
ATOM     70  O   UNL A   1      32.194  19.030  25.134  1.00  0.00    -0.269 OA
BRANCH  68  71
ATOM     71  C   UNL A   1      32.142  21.302  24.576  1.00  0.00     0.039 A 
ATOM     72  C   UNL A   1      31.226  22.185  25.164  1.00  0.00     0.014 A 
ATOM     73  C   UNL A   1      32.521  21.511  23.253  1.00  0.00     0.014 A 
ATOM     74  C   UNL A   1      30.878  23.384  24.524  1.00  0.00     0.006 A 
ATOM     75  C   UNL A   1      32.161  22.702  22.609  1.00  0.00     0.006 A 
ATOM     76  C   UNL A   1      31.485  23.724  23.309  1.00  0.00    -0.025 A 
BRANCH  76  77
ATOM     77  C   UNL A   1      31.806  25.179  22.923  1.00  0.00     0.114 C 
ATOM     78  N   UNL A   1      30.679  26.147  23.063  1.00  0.00    -0.378 N 
ATOM     79  C   UNL A   1      32.972  25.695  23.805  1.00  0.00     0.031 C 
ATOM     80  C   UNL A   1      30.823  27.296  23.866  1.00  0.00     0.038 A 
ATOM     81  H   UNL A   1      29.830  25.983  22.590  1.00  0.00     0.161 HD
ATOM     82  C   UNL A   1      32.369  25.951  25.201  1.00  0.00     0.049 C 
ATOM     83  C   UNL A   1      34.298  24.970  24.025  1.00  0.00     0.034 C 
ATOM     84  C   UNL A   1      30.278  28.527  23.500  1.00  0.00     0.027 A 
ATOM     85  C   UNL A   1      31.682  27.262  25.003  1.00  0.00    -0.016 A 
ATOM     86  C   UNL A   1      33.501  25.705  26.126  1.00  0.00    -0.023 C 
ATOM     87  C   UNL A   1      34.511  25.085  25.503  1.00  0.00    -0.030 C 
ATOM     88  C   UNL A   1      30.584  29.684  24.238  1.00  0.00     0.022 A 
ATOM     89  C   UNL A   1      31.944  28.398  25.768  1.00  0.00     0.027 A 
ATOM     90  C   UNL A   1      31.403  29.611  25.367  1.00  0.00     0.041 A 
ATOM     91  Cl  UNL A   1      31.804  31.042  26.237  1.00  0.00    -0.084 Cl
ENDBRANCH  76  77
ENDBRANCH  68  71
ENDBRANCH  66  67
ENDBRANCH  65  66
ENDBRANCH  64  65
ENDBRANCH   1  64
TORSDOF 14
ENDMDL
