MODEL 1
REMARK VINA RESULT:     -12.1      0.000      0.000
REMARK SMILES Cc1cc2c(c(C)c1Cl)C=C(C(=O)NCCCCCCNC(=O)c1ccc(-c3c4nc(c(-c5c(F)cccc5F)c5ccc([nH]5)c(-c5c(F)cccc5F)c5nc(c(-c6c(F)cccc6F)c6ccc3[nH]6)C=C5)C=C4)cc1)[C@H](C(F)(F)F)O2
REMARK SMILES IDX 18 1 17 2 16 3 15 4 14 5 12 6 13 7 11 9 1 10 2 11 3 12 8 13
REMARK SMILES IDX 4 14 6 15 9 16 5 17 83 18 7 19 10 20 78 21 79 22 80 23 81 24
REMARK SMILES IDX 82 25 19 26 20 27 21 28 22 29 23 31 24 32 25 33 77 34 26 35
REMARK SMILES IDX 76 36 27 37 28 38 29 39 70 40 30 41 75 42 69 43 71 44 31 45
REMARK SMILES IDX 74 46 68 47 67 48 32 50 58 51 41 52 57 53 42 54 45 55 56 56
REMARK SMILES IDX 72 57 43 58 44 59 55 61 73 62 46 63 33 64 34 65 39 66 35 67
REMARK SMILES IDX 36 68 38 69 40 70 37 71 59 72 60 73 65 74 61 75 62 76 64 77
REMARK SMILES IDX 66 78 63 79 47 80 48 81 53 82 49 83 50 84 52 85 54 86 51 87
REMARK H PARENT 14 8 21 30 71 49 45 60
REMARK Flexibility Score: inf
ROOT
ATOM      1  C   UNL A   1      36.924  20.414  24.900  1.00  0.00     0.002 C 
ENDROOT
BRANCH   1   2
ATOM      2  C   UNL A   1      37.086  21.827  24.326  1.00  0.00     0.002 C 
BRANCH   2   3
ATOM      3  C   UNL A   1      37.667  22.855  25.298  1.00  0.00     0.021 C 
BRANCH   3   4
ATOM      4  C   UNL A   1      36.619  23.779  25.912  1.00  0.00     0.116 C 
BRANCH   4   5
ATOM      5  N   UNL A   1      35.686  23.042  26.744  1.00  0.00    -0.352 N 
ATOM      6  C   UNL A   1      34.346  22.927  26.876  1.00  0.00     0.251 C 
ATOM      7  O   UNL A   1      33.975  22.151  27.763  1.00  0.00    -0.270 OA
ATOM      8  H   UNL A   1      36.159  22.468  27.388  1.00  0.00     0.163 HD
BRANCH   6   9
ATOM      9  C   UNL A   1      33.327  23.638  26.044  1.00  0.00     0.067 C 
ATOM     10  C   UNL A   1      29.186  27.828  23.265  1.00  0.00     0.046 C 
ATOM     11  C   UNL A   1      30.289  27.147  24.028  1.00  0.00    -0.028 A 
ATOM     12  C   UNL A   1      30.351  25.752  24.004  1.00  0.00     0.052 A 
ATOM     13  C   UNL A   1      31.242  27.857  24.786  1.00  0.00     0.047 A 
ATOM     14  C   UNL A   1      31.340  25.076  24.707  1.00  0.00     0.128 A 
ATOM     15  C   UNL A   1      32.255  27.180  25.510  1.00  0.00    -0.021 A 
ATOM     16  Cl  UNL A   1      31.135  29.592  24.823  1.00  0.00    -0.084 Cl
ATOM     17  C   UNL A   1      32.288  25.765  25.469  1.00  0.00     0.022 A 
ATOM     18  O   UNL A   1      31.271  23.717  24.631  1.00  0.00    -0.475 OA
ATOM     19  C   UNL A   1      33.282  27.924  26.332  1.00  0.00     0.047 C 
ATOM     20  C   UNL A   1      33.250  24.967  26.236  1.00  0.00     0.026 C 
ATOM     21  C   UNL A   1      32.444  22.970  25.033  1.00  0.00     0.314 C 
BRANCH  21  22
ATOM     22  C   UNL A   1      33.202  22.487  23.783  1.00  0.00     0.429 C 
ATOM     23  F   UNL A   1      33.734  21.253  23.931  1.00  0.00    -0.167 F 
ATOM     24  F   UNL A   1      32.359  22.420  22.720  1.00  0.00    -0.167 F 
ATOM     25  F   UNL A   1      34.218  23.310  23.437  1.00  0.00    -0.167 F 
ENDBRANCH  21  22
ENDBRANCH   6   9
ENDBRANCH   4   5
ENDBRANCH   3   4
ENDBRANCH   2   3
ENDBRANCH   1   2
BRANCH   1  26
ATOM     26  C   UNL A   1      38.195  19.561  24.887  1.00  0.00     0.021 C 
BRANCH  26  27
ATOM     27  C   UNL A   1      39.181  19.895  26.001  1.00  0.00     0.116 C 
BRANCH  27  28
ATOM     28  N   UNL A   1      40.400  19.110  25.886  1.00  0.00    -0.352 N 
ATOM     29  C   UNL A   1      41.702  19.523  25.974  1.00  0.00     0.251 C 
ATOM     30  H   UNL A   1      40.270  18.148  25.724  1.00  0.00     0.163 HD
ATOM     31  O   UNL A   1      42.616  18.787  25.604  1.00  0.00    -0.269 OA
BRANCH  29  32
ATOM     32  C   UNL A   1      42.006  20.862  26.512  1.00  0.00     0.039 A 
ATOM     33  C   UNL A   1      42.323  21.894  25.628  1.00  0.00     0.014 A 
ATOM     34  C   UNL A   1      41.988  21.088  27.893  1.00  0.00     0.014 A 
ATOM     35  C   UNL A   1      42.582  23.171  26.128  1.00  0.00     0.010 A 
ATOM     36  C   UNL A   1      42.171  22.376  28.382  1.00  0.00     0.010 A 
ATOM     37  C   UNL A   1      42.487  23.425  27.507  1.00  0.00    -0.014 A 
BRANCH  37  38
ATOM     38  C   UNL A   1      42.757  24.775  28.056  1.00  0.00     0.031 A 
ATOM     39  C   UNL A   1      44.157  25.151  28.451  1.00  0.00     0.074 A 
ATOM     40  C   UNL A   1      41.743  25.642  28.230  1.00  0.00     0.049 A 
ATOM     41  N   UNL A   1      44.592  26.260  28.991  1.00  0.00    -0.248 NA
ATOM     42  C   UNL A   1      45.205  24.141  28.230  1.00  0.00     0.031 C 
ATOM     43  C   UNL A   1      40.339  25.379  27.906  1.00  0.00     0.029 A 
ATOM     44  N   UNL A   1      41.736  26.922  28.721  1.00  0.00    -0.354 N 
ATOM     45  C   UNL A   1      45.957  26.079  29.174  1.00  0.00     0.074 A 
ATOM     46  C   UNL A   1      46.269  24.733  28.750  1.00  0.00     0.031 C 
ATOM     47  C   UNL A   1      39.614  26.475  28.177  1.00  0.00     0.029 A 
ATOM     48  C   UNL A   1      40.491  27.503  28.730  1.00  0.00     0.049 A 
ATOM     49  H   UNL A   1      42.547  27.383  29.038  1.00  0.00     0.167 HD
ATOM     50  C   UNL A   1      46.873  26.968  29.624  1.00  0.00     0.037 A 
ATOM     51  C   UNL A   1      40.103  28.726  29.139  1.00  0.00     0.037 A 
ATOM     52  C   UNL A   1      46.560  28.313  30.026  1.00  0.00     0.049 A 
ATOM     53  C   UNL A   1      41.134  29.680  29.677  1.00  0.00     0.074 A 
ATOM     54  C   UNL A   1      47.422  29.303  30.461  1.00  0.00     0.029 A 
ATOM     55  N   UNL A   1      45.284  28.856  30.040  1.00  0.00    -0.354 N 
ATOM     56  N   UNL A   1      42.429  29.513  29.798  1.00  0.00    -0.248 NA
ATOM     57  C   UNL A   1      40.651  30.990  30.133  1.00  0.00     0.031 C 
ATOM     58  C   UNL A   1      46.663  30.430  30.786  1.00  0.00     0.029 A 
ATOM     59  C   UNL A   1      45.333  30.161  30.504  1.00  0.00     0.049 A 
ATOM     60  H   UNL A   1      44.465  28.385  29.764  1.00  0.00     0.167 HD
ATOM     61  C   UNL A   1      42.919  30.703  30.324  1.00  0.00     0.074 A 
ATOM     62  C   UNL A   1      41.784  31.588  30.480  1.00  0.00     0.031 C 
ATOM     63  C   UNL A   1      44.193  31.029  30.652  1.00  0.00     0.037 A 
BRANCH  50  64
ATOM     64  C   UNL A   1      48.304  26.520  29.689  1.00  0.00     0.057 A 
ATOM     65  C   UNL A   1      49.200  26.770  28.641  1.00  0.00     0.134 A 
ATOM     66  C   UNL A   1      48.806  25.884  30.831  1.00  0.00     0.134 A 
ATOM     67  F   UNL A   1      48.779  27.362  27.513  1.00  0.00    -0.206 F 
ATOM     68  C   UNL A   1      50.540  26.387  28.719  1.00  0.00     0.040 A 
ATOM     69  C   UNL A   1      50.151  25.523  30.931  1.00  0.00     0.040 A 
ATOM     70  F   UNL A   1      48.004  25.619  31.872  1.00  0.00    -0.206 F 
ATOM     71  C   UNL A   1      51.021  25.772  29.872  1.00  0.00     0.006 A 
ENDBRANCH  50  64
BRANCH  51  72
ATOM     72  C   UNL A   1      38.677  29.126  29.025  1.00  0.00     0.057 A 
ATOM     73  C   UNL A   1      38.151  29.570  27.807  1.00  0.00     0.134 A 
ATOM     74  C   UNL A   1      37.805  29.063  30.119  1.00  0.00     0.134 A 
ATOM     75  F   UNL A   1      38.941  29.671  26.727  1.00  0.00    -0.206 F 
ATOM     76  C   UNL A   1      36.812  29.947  27.681  1.00  0.00     0.040 A 
ATOM     77  C   UNL A   1      36.459  29.411  30.001  1.00  0.00     0.040 A 
ATOM     78  F   UNL A   1      38.245  28.640  31.313  1.00  0.00    -0.206 F 
ATOM     79  C   UNL A   1      35.960  29.860  28.780  1.00  0.00     0.006 A 
ENDBRANCH  51  72
BRANCH  63  80
ATOM     80  C   UNL A   1      44.437  32.403  31.202  1.00  0.00     0.057 A 
ATOM     81  C   UNL A   1      44.672  33.500  30.363  1.00  0.00     0.134 A 
ATOM     82  C   UNL A   1      44.360  32.648  32.580  1.00  0.00     0.134 A 
ATOM     83  F   UNL A   1      44.767  33.332  29.035  1.00  0.00    -0.206 F 
ATOM     84  C   UNL A   1      44.833  34.789  30.875  1.00  0.00     0.040 A 
ATOM     85  C   UNL A   1      44.491  33.935  33.101  1.00  0.00     0.040 A 
ATOM     86  F   UNL A   1      44.126  31.643  33.438  1.00  0.00    -0.206 F 
ATOM     87  C   UNL A   1      44.731  35.010  32.248  1.00  0.00     0.006 A 
ENDBRANCH  63  80
ENDBRANCH  37  38
ENDBRANCH  29  32
ENDBRANCH  27  28
ENDBRANCH  26  27
ENDBRANCH   1  26
TORSDOF 14
ENDMDL
MODEL 2
REMARK VINA RESULT:     -12.0      4.498      9.227
REMARK SMILES Cc1cc2c(c(C)c1Cl)C=C(C(=O)NCCCCCCNC(=O)c1ccc(-c3c4nc(c(-c5c(F)cccc5F)c5ccc([nH]5)c(-c5c(F)cccc5F)c5nc(c(-c6c(F)cccc6F)c6ccc3[nH]6)C=C5)C=C4)cc1)[C@H](C(F)(F)F)O2
REMARK SMILES IDX 18 1 17 2 16 3 15 4 14 5 12 6 13 7 11 9 1 10 2 11 3 12 8 13
REMARK SMILES IDX 4 14 6 15 9 16 5 17 83 18 7 19 10 20 78 21 79 22 80 23 81 24
REMARK SMILES IDX 82 25 19 26 20 27 21 28 22 29 23 31 24 32 25 33 77 34 26 35
REMARK SMILES IDX 76 36 27 37 28 38 29 39 70 40 30 41 75 42 69 43 71 44 31 45
REMARK SMILES IDX 74 46 68 47 67 48 32 50 58 51 41 52 57 53 42 54 45 55 56 56
REMARK SMILES IDX 72 57 43 58 44 59 55 61 73 62 46 63 33 64 34 65 39 66 35 67
REMARK SMILES IDX 36 68 38 69 40 70 37 71 59 72 60 73 65 74 61 75 62 76 64 77
REMARK SMILES IDX 66 78 63 79 47 80 48 81 53 82 49 83 50 84 52 85 54 86 51 87
REMARK H PARENT 14 8 21 30 71 49 45 60
REMARK Flexibility Score: inf
ROOT
ATOM      1  C   UNL A   1      31.398  30.974  26.075  1.00  0.00     0.002 C 
ENDROOT
BRANCH   1   2
ATOM      2  C   UNL A   1      31.803  29.723  26.864  1.00  0.00     0.002 C 
BRANCH   2   3
ATOM      3  C   UNL A   1      33.288  29.638  27.222  1.00  0.00     0.021 C 
BRANCH   3   4
ATOM      4  C   UNL A   1      34.070  28.648  26.362  1.00  0.00     0.116 C 
BRANCH   4   5
ATOM      5  N   UNL A   1      33.977  28.981  24.954  1.00  0.00    -0.352 N 
ATOM      6  C   UNL A   1      33.615  28.365  23.806  1.00  0.00     0.251 C 
ATOM      7  O   UNL A   1      33.703  29.063  22.790  1.00  0.00    -0.270 OA
ATOM      8  H   UNL A   1      34.252  29.912  24.788  1.00  0.00     0.163 HD
BRANCH   6   9
ATOM      9  C   UNL A   1      33.122  26.958  23.695  1.00  0.00     0.067 C 
ATOM     10  C   UNL A   1      32.337  20.498  23.411  1.00  0.00     0.046 C 
ATOM     11  C   UNL A   1      32.813  21.907  23.633  1.00  0.00    -0.028 A 
ATOM     12  C   UNL A   1      32.012  22.958  23.184  1.00  0.00     0.052 A 
ATOM     13  C   UNL A   1      34.044  22.207  24.253  1.00  0.00     0.047 A 
ATOM     14  C   UNL A   1      32.416  24.277  23.350  1.00  0.00     0.128 A 
ATOM     15  C   UNL A   1      34.469  23.548  24.427  1.00  0.00    -0.021 A 
ATOM     16  Cl  UNL A   1      35.038  20.885  24.785  1.00  0.00    -0.084 Cl
ATOM     17  C   UNL A   1      33.636  24.591  23.955  1.00  0.00     0.022 A 
ATOM     18  O   UNL A   1      31.562  25.208  22.838  1.00  0.00    -0.475 OA
ATOM     19  C   UNL A   1      35.788  23.888  25.082  1.00  0.00     0.047 C 
ATOM     20  C   UNL A   1      34.013  26.006  24.023  1.00  0.00     0.026 C 
ATOM     21  C   UNL A   1      31.734  26.578  23.274  1.00  0.00     0.314 C 
BRANCH  21  22
ATOM     22  C   UNL A   1      30.661  26.923  24.323  1.00  0.00     0.429 C 
ATOM     23  F   UNL A   1      31.065  26.678  25.591  1.00  0.00    -0.167 F 
ATOM     24  F   UNL A   1      30.355  28.245  24.264  1.00  0.00    -0.167 F 
ATOM     25  F   UNL A   1      29.511  26.236  24.140  1.00  0.00    -0.167 F 
ENDBRANCH  21  22
ENDBRANCH   6   9
ENDBRANCH   4   5
ENDBRANCH   3   4
ENDBRANCH   2   3
ENDBRANCH   1   2
BRANCH   1  26
ATOM     26  C   UNL A   1      31.353  32.267  26.893  1.00  0.00     0.021 C 
BRANCH  26  27
ATOM     27  C   UNL A   1      32.700  32.968  27.025  1.00  0.00     0.116 C 
BRANCH  27  28
ATOM     28  N   UNL A   1      32.562  34.276  27.645  1.00  0.00    -0.352 N 
ATOM     29  C   UNL A   1      33.169  34.766  28.770  1.00  0.00     0.251 C 
ATOM     30  H   UNL A   1      31.945  34.896  27.192  1.00  0.00     0.163 HD
ATOM     31  O   UNL A   1      32.756  35.794  29.304  1.00  0.00    -0.269 OA
BRANCH  29  32
ATOM     32  C   UNL A   1      34.324  34.049  29.343  1.00  0.00     0.039 A 
ATOM     33  C   UNL A   1      34.098  32.981  30.211  1.00  0.00     0.014 A 
ATOM     34  C   UNL A   1      35.628  34.446  29.027  1.00  0.00     0.014 A 
ATOM     35  C   UNL A   1      35.185  32.279  30.734  1.00  0.00     0.010 A 
ATOM     36  C   UNL A   1      36.705  33.699  29.487  1.00  0.00     0.010 A 
ATOM     37  C   UNL A   1      36.495  32.621  30.358  1.00  0.00    -0.014 A 
BRANCH  37  38
ATOM     38  C   UNL A   1      37.662  31.886  30.902  1.00  0.00     0.031 A 
ATOM     39  C   UNL A   1      38.160  32.197  32.285  1.00  0.00     0.074 A 
ATOM     40  C   UNL A   1      38.290  30.970  30.141  1.00  0.00     0.049 A 
ATOM     41  N   UNL A   1      39.189  31.701  32.922  1.00  0.00    -0.248 NA
ATOM     42  C   UNL A   1      37.416  33.214  33.046  1.00  0.00     0.031 C 
ATOM     43  C   UNL A   1      37.914  30.603  28.774  1.00  0.00     0.029 A 
ATOM     44  N   UNL A   1      39.379  30.181  30.409  1.00  0.00    -0.354 N 
ATOM     45  C   UNL A   1      39.214  32.346  34.153  1.00  0.00     0.074 A 
ATOM     46  C   UNL A   1      38.141  33.313  34.149  1.00  0.00     0.031 C 
ATOM     47  C   UNL A   1      38.737  29.637  28.337  1.00  0.00     0.029 A 
ATOM     48  C   UNL A   1      39.722  29.345  29.374  1.00  0.00     0.049 A 
ATOM     49  H   UNL A   1      39.869  30.209  31.263  1.00  0.00     0.167 HD
ATOM     50  C   UNL A   1      40.039  32.126  35.203  1.00  0.00     0.037 A 
ATOM     51  C   UNL A   1      40.721  28.447  29.274  1.00  0.00     0.037 A 
ATOM     52  C   UNL A   1      41.093  31.147  35.208  1.00  0.00     0.049 A 
ATOM     53  C   UNL A   1      41.652  28.253  30.440  1.00  0.00     0.074 A 
ATOM     54  C   UNL A   1      41.959  30.823  36.236  1.00  0.00     0.029 A 
ATOM     55  N   UNL A   1      41.423  30.336  34.133  1.00  0.00    -0.354 N 
ATOM     56  N   UNL A   1      41.634  28.834  31.616  1.00  0.00    -0.248 NA
ATOM     57  C   UNL A   1      42.738  27.280  30.266  1.00  0.00     0.031 C 
ATOM     58  C   UNL A   1      42.845  29.849  35.768  1.00  0.00     0.029 A 
ATOM     59  C   UNL A   1      42.498  29.529  34.465  1.00  0.00     0.049 A 
ATOM     60  H   UNL A   1      40.961  30.335  33.263  1.00  0.00     0.167 HD
ATOM     61  C   UNL A   1      42.692  28.282  32.328  1.00  0.00     0.074 A 
ATOM     62  C   UNL A   1      43.317  27.308  31.459  1.00  0.00     0.031 C 
ATOM     63  C   UNL A   1      43.109  28.563  33.588  1.00  0.00     0.037 A 
BRANCH  50  64
ATOM     64  C   UNL A   1      39.822  32.946  36.441  1.00  0.00     0.057 A 
ATOM     65  C   UNL A   1      40.538  34.128  36.674  1.00  0.00     0.134 A 
ATOM     66  C   UNL A   1      38.851  32.583  37.382  1.00  0.00     0.134 A 
ATOM     67  F   UNL A   1      41.493  34.524  35.819  1.00  0.00    -0.206 F 
ATOM     68  C   UNL A   1      40.308  34.910  37.807  1.00  0.00     0.040 A 
ATOM     69  C   UNL A   1      38.592  33.373  38.504  1.00  0.00     0.040 A 
ATOM     70  F   UNL A   1      38.126  31.466  37.218  1.00  0.00    -0.206 F 
ATOM     71  C   UNL A   1      39.324  34.539  38.720  1.00  0.00     0.006 A 
ENDBRANCH  50  64
BRANCH  51  72
ATOM     72  C   UNL A   1      40.870  27.642  28.035  1.00  0.00     0.057 A 
ATOM     73  C   UNL A   1      41.643  28.109  26.965  1.00  0.00     0.134 A 
ATOM     74  C   UNL A   1      40.262  26.390  27.891  1.00  0.00     0.134 A 
ATOM     75  F   UNL A   1      42.236  29.310  27.034  1.00  0.00    -0.206 F 
ATOM     76  C   UNL A   1      41.798  27.365  25.793  1.00  0.00     0.040 A 
ATOM     77  C   UNL A   1      40.429  25.623  26.736  1.00  0.00     0.040 A 
ATOM     78  F   UNL A   1      39.513  25.882  28.882  1.00  0.00    -0.206 F 
ATOM     79  C   UNL A   1      41.195  26.114  25.681  1.00  0.00     0.006 A 
ENDBRANCH  51  72
BRANCH  63  80
ATOM     80  C   UNL A   1      44.290  27.801  34.113  1.00  0.00     0.057 A 
ATOM     81  C   UNL A   1      44.146  26.544  34.714  1.00  0.00     0.134 A 
ATOM     82  C   UNL A   1      45.591  28.293  33.945  1.00  0.00     0.134 A 
ATOM     83  F   UNL A   1      42.926  26.021  34.913  1.00  0.00    -0.206 F 
ATOM     84  C   UNL A   1      45.253  25.810  35.142  1.00  0.00     0.040 A 
ATOM     85  C   UNL A   1      46.707  27.555  34.342  1.00  0.00     0.040 A 
ATOM     86  F   UNL A   1      45.800  29.485  33.365  1.00  0.00    -0.206 F 
ATOM     87  C   UNL A   1      46.539  26.310  34.945  1.00  0.00     0.006 A 
ENDBRANCH  63  80
ENDBRANCH  37  38
ENDBRANCH  29  32
ENDBRANCH  27  28
ENDBRANCH  26  27
ENDBRANCH   1  26
TORSDOF 14
ENDMDL
MODEL 3
REMARK VINA RESULT:     -11.8      0.778      1.539
REMARK SMILES Cc1cc2c(c(C)c1Cl)C=C(C(=O)NCCCCCCNC(=O)c1ccc(-c3c4nc(c(-c5c(F)cccc5F)c5ccc([nH]5)c(-c5c(F)cccc5F)c5nc(c(-c6c(F)cccc6F)c6ccc3[nH]6)C=C5)C=C4)cc1)[C@H](C(F)(F)F)O2
REMARK SMILES IDX 18 1 17 2 16 3 15 4 14 5 12 6 13 7 11 9 1 10 2 11 3 12 8 13
REMARK SMILES IDX 4 14 6 15 9 16 5 17 83 18 7 19 10 20 78 21 79 22 80 23 81 24
REMARK SMILES IDX 82 25 19 26 20 27 21 28 22 29 23 31 24 32 25 33 77 34 26 35
REMARK SMILES IDX 76 36 27 37 28 38 29 39 70 40 30 41 75 42 69 43 71 44 31 45
REMARK SMILES IDX 74 46 68 47 67 48 32 50 58 51 41 52 57 53 42 54 45 55 56 56
REMARK SMILES IDX 72 57 43 58 44 59 55 61 73 62 46 63 33 64 34 65 39 66 35 67
REMARK SMILES IDX 36 68 38 69 40 70 37 71 59 72 60 73 65 74 61 75 62 76 64 77
REMARK SMILES IDX 66 78 63 79 47 80 48 81 53 82 49 83 50 84 52 85 54 86 51 87
REMARK H PARENT 14 8 21 30 71 49 45 60
REMARK Flexibility Score: inf
ROOT
ATOM      1  C   UNL A   1      37.317  20.514  24.605  1.00  0.00     0.002 C 
ENDROOT
BRANCH   1   2
ATOM      2  C   UNL A   1      37.787  21.948  24.873  1.00  0.00     0.002 C 
BRANCH   2   3
ATOM      3  C   UNL A   1      36.708  23.021  24.714  1.00  0.00     0.021 C 
BRANCH   3   4
ATOM      4  C   UNL A   1      36.390  23.767  26.008  1.00  0.00     0.116 C 
BRANCH   4   5
ATOM      5  N   UNL A   1      35.430  23.038  26.815  1.00  0.00    -0.352 N 
ATOM      6  C   UNL A   1      34.086  22.948  26.926  1.00  0.00     0.251 C 
ATOM      7  O   UNL A   1      33.686  22.167  27.797  1.00  0.00    -0.270 OA
ATOM      8  H   UNL A   1      35.882  22.446  27.459  1.00  0.00     0.163 HD
BRANCH   6   9
ATOM      9  C   UNL A   1      33.095  23.690  26.088  1.00  0.00     0.067 C 
ATOM     10  C   UNL A   1      29.109  28.010  23.281  1.00  0.00     0.046 C 
ATOM     11  C   UNL A   1      30.185  27.294  24.050  1.00  0.00    -0.028 A 
ATOM     12  C   UNL A   1      30.198  25.898  24.033  1.00  0.00     0.052 A 
ATOM     13  C   UNL A   1      31.162  27.974  24.806  1.00  0.00     0.047 A 
ATOM     14  C   UNL A   1      31.162  25.191  24.741  1.00  0.00     0.128 A 
ATOM     15  C   UNL A   1      32.149  27.265  25.535  1.00  0.00    -0.021 A 
ATOM     16  Cl  UNL A   1      31.117  29.711  24.834  1.00  0.00    -0.084 Cl
ATOM     17  C   UNL A   1      32.132  25.849  25.501  1.00  0.00     0.022 A 
ATOM     18  O   UNL A   1      31.045  23.834  24.671  1.00  0.00    -0.475 OA
ATOM     19  C   UNL A   1      33.200  27.976  26.355  1.00  0.00     0.047 C 
ATOM     20  C   UNL A   1      33.064  25.022  26.273  1.00  0.00     0.026 C 
ATOM     21  C   UNL A   1      32.190  23.048  25.080  1.00  0.00     0.314 C 
BRANCH  21  22
ATOM     22  C   UNL A   1      32.932  22.533  23.833  1.00  0.00     0.429 C 
ATOM     23  F   UNL A   1      33.717  21.463  24.091  1.00  0.00    -0.167 F 
ATOM     24  F   UNL A   1      32.041  22.140  22.886  1.00  0.00    -0.167 F 
ATOM     25  F   UNL A   1      33.725  23.473  23.271  1.00  0.00    -0.167 F 
ENDBRANCH  21  22
ENDBRANCH   6   9
ENDBRANCH   4   5
ENDBRANCH   3   4
ENDBRANCH   2   3
ENDBRANCH   1   2
BRANCH   1  26
ATOM     26  C   UNL A   1      38.319  19.423  24.990  1.00  0.00     0.021 C 
BRANCH  26  27
ATOM     27  C   UNL A   1      39.352  19.860  26.022  1.00  0.00     0.116 C 
BRANCH  27  28
ATOM     28  N   UNL A   1      40.553  19.044  25.953  1.00  0.00    -0.352 N 
ATOM     29  C   UNL A   1      41.865  19.435  25.996  1.00  0.00     0.251 C 
ATOM     30  H   UNL A   1      40.402  18.075  25.863  1.00  0.00     0.163 HD
ATOM     31  O   UNL A   1      42.759  18.656  25.672  1.00  0.00    -0.269 OA
BRANCH  29  32
ATOM     32  C   UNL A   1      42.201  20.804  26.432  1.00  0.00     0.039 A 
ATOM     33  C   UNL A   1      42.473  21.776  25.469  1.00  0.00     0.014 A 
ATOM     34  C   UNL A   1      42.257  21.116  27.794  1.00  0.00     0.014 A 
ATOM     35  C   UNL A   1      42.763  23.080  25.873  1.00  0.00     0.010 A 
ATOM     36  C   UNL A   1      42.471  22.431  28.191  1.00  0.00     0.010 A 
ATOM     37  C   UNL A   1      42.743  23.420  27.236  1.00  0.00    -0.014 A 
BRANCH  37  38
ATOM     38  C   UNL A   1      43.046  24.801  27.684  1.00  0.00     0.031 A 
ATOM     39  C   UNL A   1      44.476  25.245  27.809  1.00  0.00     0.074 A 
ATOM     40  C   UNL A   1      42.042  25.635  28.009  1.00  0.00     0.049 A 
ATOM     41  N   UNL A   1      44.950  26.390  28.226  1.00  0.00    -0.248 NA
ATOM     42  C   UNL A   1      45.511  24.267  27.436  1.00  0.00     0.031 C 
ATOM     43  C   UNL A   1      40.616  25.306  27.952  1.00  0.00     0.029 A 
ATOM     44  N   UNL A   1      42.066  26.933  28.452  1.00  0.00    -0.354 N 
ATOM     45  C   UNL A   1      46.333  26.269  28.166  1.00  0.00     0.074 A 
ATOM     46  C   UNL A   1      46.624  24.920  27.736  1.00  0.00     0.031 C 
ATOM     47  C   UNL A   1      39.903  26.384  28.313  1.00  0.00     0.029 A 
ATOM     48  C   UNL A   1      40.818  27.465  28.666  1.00  0.00     0.049 A 
ATOM     49  H   UNL A   1      42.899  27.436  28.603  1.00  0.00     0.167 HD
ATOM     50  C   UNL A   1      47.274  27.209  28.415  1.00  0.00     0.037 A 
ATOM     51  C   UNL A   1      40.455  28.688  29.098  1.00  0.00     0.037 A 
ATOM     52  C   UNL A   1      46.978  28.556  28.823  1.00  0.00     0.049 A 
ATOM     53  C   UNL A   1      41.522  29.701  29.411  1.00  0.00     0.074 A 
ATOM     54  C   UNL A   1      47.860  29.594  29.064  1.00  0.00     0.029 A 
ATOM     55  N   UNL A   1      45.703  29.051  29.049  1.00  0.00    -0.354 N 
ATOM     56  N   UNL A   1      42.824  29.589  29.303  1.00  0.00    -0.248 NA
ATOM     57  C   UNL A   1      41.071  31.009  29.905  1.00  0.00     0.031 C 
ATOM     58  C   UNL A   1      47.122  30.703  29.484  1.00  0.00     0.029 A 
ATOM     59  C   UNL A   1      45.775  30.373  29.454  1.00  0.00     0.049 A 
ATOM     60  H   UNL A   1      44.870  28.537  28.940  1.00  0.00     0.167 HD
ATOM     61  C   UNL A   1      43.346  30.816  29.694  1.00  0.00     0.074 A 
ATOM     62  C   UNL A   1      42.219  31.663  30.023  1.00  0.00     0.031 C 
ATOM     63  C   UNL A   1      44.643  31.203  29.777  1.00  0.00     0.037 A 
BRANCH  50  64
ATOM     64  C   UNL A   1      48.712  26.818  28.236  1.00  0.00     0.057 A 
ATOM     65  C   UNL A   1      49.464  26.278  29.288  1.00  0.00     0.134 A 
ATOM     66  C   UNL A   1      49.336  26.929  26.987  1.00  0.00     0.134 A 
ATOM     67  F   UNL A   1      48.930  26.159  30.513  1.00  0.00    -0.206 F 
ATOM     68  C   UNL A   1      50.790  25.880  29.109  1.00  0.00     0.040 A 
ATOM     69  C   UNL A   1      50.652  26.507  26.789  1.00  0.00     0.040 A 
ATOM     70  F   UNL A   1      48.672  27.433  25.935  1.00  0.00    -0.206 F 
ATOM     71  C   UNL A   1      51.383  25.983  27.854  1.00  0.00     0.006 A 
ENDBRANCH  50  64
BRANCH  51  72
ATOM     72  C   UNL A   1      39.016  29.029  29.230  1.00  0.00     0.057 A 
ATOM     73  C   UNL A   1      38.347  28.860  30.448  1.00  0.00     0.134 A 
ATOM     74  C   UNL A   1      38.278  29.540  28.156  1.00  0.00     0.134 A 
ATOM     75  F   UNL A   1      38.994  28.356  31.509  1.00  0.00    -0.206 F 
ATOM     76  C   UNL A   1      36.995  29.179  30.592  1.00  0.00     0.040 A 
ATOM     77  C   UNL A   1      36.932  29.887  28.292  1.00  0.00     0.040 A 
ATOM     78  F   UNL A   1      38.861  29.732  26.963  1.00  0.00    -0.206 F 
ATOM     79  C   UNL A   1      36.286  29.701  29.512  1.00  0.00     0.006 A 
ENDBRANCH  51  72
BRANCH  63  80
ATOM     80  C   UNL A   1      44.920  32.606  30.229  1.00  0.00     0.057 A 
ATOM     81  C   UNL A   1      44.944  33.678  29.328  1.00  0.00     0.134 A 
ATOM     82  C   UNL A   1      45.087  32.901  31.589  1.00  0.00     0.134 A 
ATOM     83  F   UNL A   1      44.801  33.463  28.011  1.00  0.00    -0.206 F 
ATOM     84  C   UNL A   1      45.137  34.991  29.761  1.00  0.00     0.040 A 
ATOM     85  C   UNL A   1      45.252  34.211  32.037  1.00  0.00     0.040 A 
ATOM     86  F   UNL A   1      45.063  31.921  32.506  1.00  0.00    -0.206 F 
ATOM     87  C   UNL A   1      45.280  35.261  31.121  1.00  0.00     0.006 A 
ENDBRANCH  63  80
ENDBRANCH  37  38
ENDBRANCH  29  32
ENDBRANCH  27  28
ENDBRANCH  26  27
ENDBRANCH   1  26
TORSDOF 14
ENDMDL
