MODEL 1
REMARK VINA RESULT:     -12.3      0.000      0.000
REMARK SMILES O=C(NCCCCCCNC(=O)c1cn(C2CC2)c2cc(N3CC[NH2+]CC3)ccc2c1=O)c1ccc(-c2c3nc(c(-c4c(F)cccc4F)c4ccc([nH]4)c(-c4c(F)cccc4F)c4nc(c(-c5c(F)cccc5F)c5ccc2[nH]5)C=C4)C=C3)cc1
REMARK SMILES IDX 6 1 5 2 4 3 3 4 1 5 2 6 33 8 34 9 86 10 35 11 85 12 36 13
REMARK SMILES IDX 37 14 38 15 79 16 39 17 84 18 78 19 80 20 40 21 83 22 77 23
REMARK SMILES IDX 76 24 41 26 67 27 50 28 66 29 51 30 54 31 65 32 81 33 52 34
REMARK SMILES IDX 53 35 64 37 82 38 55 39 42 40 43 41 48 42 44 43 45 44 47 45
REMARK SMILES IDX 49 46 46 47 68 48 69 49 74 50 70 51 71 52 73 53 75 54 72 55
REMARK SMILES IDX 56 56 57 57 62 58 58 59 59 60 61 61 63 62 60 63 7 64 8 65
REMARK SMILES IDX 9 66 10 67 11 68 12 70 13 71 14 72 31 73 15 74 30 75 32 76
REMARK SMILES IDX 19 77 29 78 20 79 28 80 21 81 16 82 17 83 18 84 22 85 23 86
REMARK SMILES IDX 27 87 24 88 26 89 25 90
REMARK H PARENT 3 7 80 25 54 36 10 69 25 91 25 92
REMARK Flexibility Score: inf
ROOT
ATOM      1  C   UNL A   1      31.690  30.445  26.251  1.00  0.00     0.002 C 
ENDROOT
BRANCH   1   2
ATOM      2  C   UNL A   1      31.494  31.839  26.851  1.00  0.00     0.021 C 
BRANCH   2   3
ATOM      3  C   UNL A   1      32.738  32.719  26.876  1.00  0.00     0.116 C 
BRANCH   3   4
ATOM      4  N   UNL A   1      32.516  33.979  27.564  1.00  0.00    -0.352 N 
ATOM      5  O   UNL A   1      32.694  35.515  29.198  1.00  0.00    -0.269 OA
ATOM      6  C   UNL A   1      33.133  34.491  28.674  1.00  0.00     0.251 C 
ATOM      7  H   UNL A   1      31.817  34.551  27.172  1.00  0.00     0.163 HD
BRANCH   6   8
ATOM      8  C   UNL A   1      34.312  33.819  29.264  1.00  0.00     0.039 A 
ATOM      9  C   UNL A   1      35.585  34.256  28.890  1.00  0.00     0.014 A 
ATOM     10  C   UNL A   1      34.177  32.734  30.137  1.00  0.00     0.014 A 
ATOM     11  C   UNL A   1      36.719  33.625  29.407  1.00  0.00     0.010 A 
ATOM     12  C   UNL A   1      35.307  32.157  30.714  1.00  0.00     0.010 A 
ATOM     13  C   UNL A   1      36.589  32.577  30.333  1.00  0.00    -0.014 A 
BRANCH  13  14
ATOM     14  C   UNL A   1      37.792  31.882  30.859  1.00  0.00     0.031 A 
ATOM     15  C   UNL A   1      38.290  32.180  32.248  1.00  0.00     0.074 A 
ATOM     16  C   UNL A   1      38.441  30.989  30.089  1.00  0.00     0.049 A 
ATOM     17  N   UNL A   1      39.299  31.654  32.898  1.00  0.00    -0.248 NA
ATOM     18  C   UNL A   1      37.575  33.225  32.998  1.00  0.00     0.031 C 
ATOM     19  C   UNL A   1      38.087  30.641  28.712  1.00  0.00     0.029 A 
ATOM     20  N   UNL A   1      39.531  30.201  30.362  1.00  0.00    -0.354 N 
ATOM     21  C   UNL A   1      39.343  32.309  34.122  1.00  0.00     0.074 A 
ATOM     22  C   UNL A   1      38.304  33.315  34.099  1.00  0.00     0.031 C 
ATOM     23  C   UNL A   1      38.910  29.673  28.280  1.00  0.00     0.029 A 
ATOM     24  C   UNL A   1      39.865  29.354  29.335  1.00  0.00     0.049 A 
ATOM     25  H   UNL A   1      40.024  30.239  31.213  1.00  0.00     0.167 HD
ATOM     26  C   UNL A   1      40.153  32.076  35.183  1.00  0.00     0.037 A 
ATOM     27  C   UNL A   1      40.826  28.413  29.262  1.00  0.00     0.037 A 
ATOM     28  C   UNL A   1      41.173  31.062  35.215  1.00  0.00     0.049 A 
ATOM     29  C   UNL A   1      41.721  28.181  30.448  1.00  0.00     0.074 A 
ATOM     30  C   UNL A   1      42.007  30.706  36.261  1.00  0.00     0.029 A 
ATOM     31  N   UNL A   1      41.497  30.239  34.147  1.00  0.00    -0.354 N 
ATOM     32  N   UNL A   1      41.707  28.760  31.624  1.00  0.00    -0.248 NA
ATOM     33  C   UNL A   1      42.762  27.156  30.293  1.00  0.00     0.031 C 
ATOM     34  C   UNL A   1      42.866  29.696  35.810  1.00  0.00     0.029 A 
ATOM     35  C   UNL A   1      42.537  29.393  34.499  1.00  0.00     0.049 A 
ATOM     36  H   UNL A   1      41.055  30.254  33.268  1.00  0.00     0.167 HD
ATOM     37  C   UNL A   1      42.719  28.155  32.357  1.00  0.00     0.074 A 
ATOM     38  C   UNL A   1      43.311  27.149  31.499  1.00  0.00     0.031 C 
ATOM     39  C   UNL A   1      43.123  28.406  33.627  1.00  0.00     0.037 A 
BRANCH  26  40
ATOM     40  C   UNL A   1      39.960  32.949  36.391  1.00  0.00     0.057 A 
ATOM     41  C   UNL A   1      38.984  32.644  37.347  1.00  0.00     0.134 A 
ATOM     42  C   UNL A   1      40.751  34.085  36.617  1.00  0.00     0.134 A 
ATOM     43  F   UNL A   1      38.189  31.575  37.192  1.00  0.00    -0.206 F 
ATOM     44  C   UNL A   1      38.810  33.428  38.489  1.00  0.00     0.040 A 
ATOM     45  C   UNL A   1      40.607  34.860  37.770  1.00  0.00     0.040 A 
ATOM     46  F   UNL A   1      41.715  34.426  35.748  1.00  0.00    -0.206 F 
ATOM     47  C   UNL A   1      39.632  34.533  38.709  1.00  0.00     0.006 A 
ENDBRANCH  26  40
BRANCH  27  48
ATOM     48  C   UNL A   1      40.962  27.579  28.042  1.00  0.00     0.057 A 
ATOM     49  C   UNL A   1      41.789  27.960  26.979  1.00  0.00     0.134 A 
ATOM     50  C   UNL A   1      40.273  26.367  27.923  1.00  0.00     0.134 A 
ATOM     51  F   UNL A   1      42.472  29.112  27.031  1.00  0.00    -0.206 F 
ATOM     52  C   UNL A   1      41.924  27.166  25.840  1.00  0.00     0.040 A 
ATOM     53  C   UNL A   1      40.416  25.552  26.800  1.00  0.00     0.040 A 
ATOM     54  F   UNL A   1      39.480  25.941  28.918  1.00  0.00    -0.206 F 
ATOM     55  C   UNL A   1      41.240  25.954  25.751  1.00  0.00     0.006 A 
ENDBRANCH  27  48
BRANCH  39  56
ATOM     56  C   UNL A   1      44.244  27.562  34.159  1.00  0.00     0.057 A 
ATOM     57  C   UNL A   1      43.984  26.337  34.784  1.00  0.00     0.134 A 
ATOM     58  C   UNL A   1      45.584  27.958  34.047  1.00  0.00     0.134 A 
ATOM     59  F   UNL A   1      42.723  25.901  34.931  1.00  0.00    -0.206 F 
ATOM     60  C   UNL A   1      45.015  25.531  35.269  1.00  0.00     0.040 A 
ATOM     61  C   UNL A   1      46.626  27.149  34.503  1.00  0.00     0.040 A 
ATOM     62  F   UNL A   1      45.903  29.115  33.444  1.00  0.00    -0.206 F 
ATOM     63  C   UNL A   1      46.341  25.932  35.119  1.00  0.00     0.006 A 
ENDBRANCH  39  56
ENDBRANCH  13  14
ENDBRANCH   6   8
ENDBRANCH   3   4
ENDBRANCH   2   3
ENDBRANCH   1   2
BRANCH   1  64
ATOM     64  C   UNL A   1      32.084  29.346  27.242  1.00  0.00     0.002 C 
BRANCH  64  65
ATOM     65  C   UNL A   1      31.428  27.983  27.017  1.00  0.00     0.021 C 
BRANCH  65  66
ATOM     66  C   UNL A   1      32.338  26.912  26.427  1.00  0.00     0.116 C 
BRANCH  66  67
ATOM     67  N   UNL A   1      32.950  27.316  25.171  1.00  0.00    -0.352 N 
ATOM     68  C   UNL A   1      33.587  26.542  24.237  1.00  0.00     0.256 C 
ATOM     69  H   UNL A   1      32.899  28.276  24.963  1.00  0.00     0.163 HD
ATOM     70  O   UNL A   1      34.028  27.048  23.208  1.00  0.00    -0.269 OA
BRANCH  68  71
ATOM     71  C   UNL A   1      33.674  25.095  24.490  1.00  0.00     0.104 A 
ATOM     72  C   UNL A   1      34.618  24.648  25.330  1.00  0.00     0.104 A 
ATOM     73  C   UNL A   1      32.826  24.106  23.795  1.00  0.00     0.202 A 
ATOM     74  N   UNL A   1      34.933  23.326  25.564  1.00  0.00    -0.343 N 
ATOM     75  C   UNL A   1      33.044  22.677  24.135  1.00  0.00     0.047 A 
ATOM     76  O   UNL A   1      32.003  24.431  22.945  1.00  0.00    -0.288 OA
ATOM     77  C   UNL A   1      34.076  22.319  25.023  1.00  0.00     0.054 A 
ATOM     78  C   UNL A   1      32.244  21.703  23.528  1.00  0.00     0.016 A 
ATOM     79  C   UNL A   1      34.235  20.956  25.320  1.00  0.00     0.053 A 
ATOM     80  C   UNL A   1      32.471  20.354  23.799  1.00  0.00     0.027 A 
ATOM     81  C   UNL A   1      33.463  19.960  24.701  1.00  0.00     0.039 A 
BRANCH  74  82
ATOM     82  C   UNL A   1      36.261  22.965  26.124  1.00  0.00     0.087 C 
ATOM     83  C   UNL A   1      37.428  22.410  25.345  1.00  0.00     0.027 C 
ATOM     84  C   UNL A   1      37.476  23.814  25.871  1.00  0.00     0.027 C 
ENDBRANCH  74  82
BRANCH  81  85
ATOM     85  N   UNL A   1      33.702  18.633  24.985  1.00  0.00    -0.360 N 
ATOM     86  C   UNL A   1      32.749  17.887  25.812  1.00  0.00     0.178 C 
ATOM     87  C   UNL A   1      34.698  17.854  24.244  1.00  0.00     0.178 C 
ATOM     88  C   UNL A   1      32.153  16.710  25.003  1.00  0.00     0.282 C 
ATOM     89  C   UNL A   1      34.041  16.662  23.518  1.00  0.00     0.282 C 
ATOM     90  N   UNL A   1      33.177  15.836  24.389  1.00  0.00    -0.343 N 
ATOM     91  H   UNL A   1      32.722  15.111  23.834  1.00  0.00     0.346 HD
ATOM     92  H   UNL A   1      33.739  15.391  25.116  1.00  0.00     0.346 HD
ENDBRANCH  81  85
ENDBRANCH  68  71
ENDBRANCH  66  67
ENDBRANCH  65  66
ENDBRANCH  64  65
ENDBRANCH   1  64
TORSDOF 15
ENDMDL
MODEL 2
REMARK VINA RESULT:     -12.0      4.476      7.883
REMARK SMILES O=C(NCCCCCCNC(=O)c1cn(C2CC2)c2cc(N3CC[NH2+]CC3)ccc2c1=O)c1ccc(-c2c3nc(c(-c4c(F)cccc4F)c4ccc([nH]4)c(-c4c(F)cccc4F)c4nc(c(-c5c(F)cccc5F)c5ccc2[nH]5)C=C4)C=C3)cc1
REMARK SMILES IDX 6 1 5 2 4 3 3 4 1 5 2 6 33 8 34 9 86 10 35 11 85 12 36 13
REMARK SMILES IDX 37 14 38 15 79 16 39 17 84 18 78 19 80 20 40 21 83 22 77 23
REMARK SMILES IDX 76 24 41 26 67 27 50 28 66 29 51 30 54 31 65 32 81 33 52 34
REMARK SMILES IDX 53 35 64 37 82 38 55 39 42 40 43 41 48 42 44 43 45 44 47 45
REMARK SMILES IDX 49 46 46 47 68 48 69 49 74 50 70 51 71 52 73 53 75 54 72 55
REMARK SMILES IDX 56 56 57 57 62 58 58 59 59 60 61 61 63 62 60 63 7 64 8 65
REMARK SMILES IDX 9 66 10 67 11 68 12 70 13 71 14 72 31 73 15 74 30 75 32 76
REMARK SMILES IDX 19 77 29 78 20 79 28 80 21 81 16 82 17 83 18 84 22 85 23 86
REMARK SMILES IDX 27 87 24 88 26 89 25 90
REMARK H PARENT 3 7 80 25 54 36 10 69 25 91 25 92
REMARK Flexibility Score: inf
ROOT
ATOM      1  C   UNL A   1      32.305  28.522  27.214  1.00  0.00     0.002 C 
ENDROOT
BRANCH   1   2
ATOM      2  C   UNL A   1      33.553  29.103  26.545  1.00  0.00     0.021 C 
BRANCH   2   3
ATOM      3  C   UNL A   1      34.828  29.043  27.378  1.00  0.00     0.116 C 
BRANCH   3   4
ATOM      4  N   UNL A   1      34.847  30.031  28.442  1.00  0.00    -0.352 N 
ATOM      5  O   UNL A   1      35.652  31.169  30.207  1.00  0.00    -0.269 OA
ATOM      6  C   UNL A   1      35.877  30.420  29.256  1.00  0.00     0.251 C 
ATOM      7  H   UNL A   1      33.991  30.490  28.601  1.00  0.00     0.163 HD
BRANCH   6   8
ATOM      8  C   UNL A   1      37.256  29.938  29.019  1.00  0.00     0.039 A 
ATOM      9  C   UNL A   1      37.982  29.435  30.101  1.00  0.00     0.014 A 
ATOM     10  C   UNL A   1      37.855  30.023  27.758  1.00  0.00     0.014 A 
ATOM     11  C   UNL A   1      39.296  28.997  29.916  1.00  0.00     0.010 A 
ATOM     12  C   UNL A   1      39.137  29.513  27.557  1.00  0.00     0.010 A 
ATOM     13  C   UNL A   1      39.880  29.021  28.639  1.00  0.00    -0.014 A 
BRANCH  13  14
ATOM     14  C   UNL A   1      41.287  28.588  28.446  1.00  0.00     0.031 A 
ATOM     15  C   UNL A   1      41.596  27.156  28.097  1.00  0.00     0.074 A 
ATOM     16  C   UNL A   1      42.289  29.475  28.590  1.00  0.00     0.049 A 
ATOM     17  N   UNL A   1      42.754  26.592  27.855  1.00  0.00    -0.248 NA
ATOM     18  C   UNL A   1      40.455  26.229  28.036  1.00  0.00     0.031 C 
ATOM     19  C   UNL A   1      42.128  30.880  28.967  1.00  0.00     0.029 A 
ATOM     20  N   UNL A   1      43.643  29.327  28.423  1.00  0.00    -0.354 N 
ATOM     21  C   UNL A   1      42.479  25.250  27.624  1.00  0.00     0.074 A 
ATOM     22  C   UNL A   1      41.058  25.070  27.819  1.00  0.00     0.031 C 
ATOM     23  C   UNL A   1      43.330  31.478  28.952  1.00  0.00     0.029 A 
ATOM     24  C   UNL A   1      44.347  30.494  28.594  1.00  0.00     0.049 A 
ATOM     25  H   UNL A   1      44.068  28.468  28.202  1.00  0.00     0.167 HD
ATOM     26  C   UNL A   1      43.327  24.261  27.252  1.00  0.00     0.037 A 
ATOM     27  C   UNL A   1      45.663  30.742  28.459  1.00  0.00     0.037 A 
ATOM     28  C   UNL A   1      44.738  24.442  27.036  1.00  0.00     0.049 A 
ATOM     29  C   UNL A   1      46.586  29.626  28.057  1.00  0.00     0.074 A 
ATOM     30  C   UNL A   1      45.673  23.519  26.601  1.00  0.00     0.029 A 
ATOM     31  N   UNL A   1      45.418  25.633  27.241  1.00  0.00    -0.354 N 
ATOM     32  N   UNL A   1      46.303  28.377  27.774  1.00  0.00    -0.248 NA
ATOM     33  C   UNL A   1      48.012  29.960  27.950  1.00  0.00     0.031 C 
ATOM     34  C   UNL A   1      46.927  24.142  26.586  1.00  0.00     0.029 A 
ATOM     35  C   UNL A   1      46.766  25.463  26.967  1.00  0.00     0.049 A 
ATOM     36  H   UNL A   1      45.004  26.475  27.539  1.00  0.00     0.167 HD
ATOM     37  C   UNL A   1      47.512  27.783  27.433  1.00  0.00     0.074 A 
ATOM     38  C   UNL A   1      48.524  28.814  27.524  1.00  0.00     0.031 C 
ATOM     39  C   UNL A   1      47.762  26.499  27.075  1.00  0.00     0.037 A 
BRANCH  26  40
ATOM     40  C   UNL A   1      42.735  22.892  27.063  1.00  0.00     0.057 A 
ATOM     41  C   UNL A   1      42.516  22.377  25.781  1.00  0.00     0.134 A 
ATOM     42  C   UNL A   1      42.395  22.077  28.153  1.00  0.00     0.134 A 
ATOM     43  F   UNL A   1      42.813  23.104  24.694  1.00  0.00    -0.206 F 
ATOM     44  C   UNL A   1      41.992  21.097  25.587  1.00  0.00     0.040 A 
ATOM     45  C   UNL A   1      41.899  20.784  27.973  1.00  0.00     0.040 A 
ATOM     46  F   UNL A   1      42.593  22.503  29.409  1.00  0.00    -0.206 F 
ATOM     47  C   UNL A   1      41.694  20.292  26.686  1.00  0.00     0.006 A 
ENDBRANCH  26  40
BRANCH  27  48
ATOM     48  C   UNL A   1      46.186  32.117  28.653  1.00  0.00     0.057 A 
ATOM     49  C   UNL A   1      46.287  33.023  27.591  1.00  0.00     0.134 A 
ATOM     50  C   UNL A   1      46.582  32.561  29.921  1.00  0.00     0.134 A 
ATOM     51  F   UNL A   1      45.928  32.657  26.353  1.00  0.00    -0.206 F 
ATOM     52  C   UNL A   1      46.767  34.320  27.782  1.00  0.00     0.040 A 
ATOM     53  C   UNL A   1      47.042  33.860  30.130  1.00  0.00     0.040 A 
ATOM     54  F   UNL A   1      46.490  31.743  30.980  1.00  0.00    -0.206 F 
ATOM     55  C   UNL A   1      47.140  34.743  29.056  1.00  0.00     0.006 A 
ENDBRANCH  27  48
BRANCH  39  56
ATOM     56  C   UNL A   1      49.184  26.156  26.740  1.00  0.00     0.057 A 
ATOM     57  C   UNL A   1      49.683  26.359  25.447  1.00  0.00     0.134 A 
ATOM     58  C   UNL A   1      50.064  25.632  27.697  1.00  0.00     0.134 A 
ATOM     59  F   UNL A   1      48.893  26.850  24.480  1.00  0.00    -0.206 F 
ATOM     60  C   UNL A   1      51.008  26.062  25.121  1.00  0.00     0.040 A 
ATOM     61  C   UNL A   1      51.398  25.358  27.391  1.00  0.00     0.040 A 
ATOM     62  F   UNL A   1      49.652  25.430  28.959  1.00  0.00    -0.206 F 
ATOM     63  C   UNL A   1      51.872  25.570  26.098  1.00  0.00     0.006 A 
ENDBRANCH  39  56
ENDBRANCH  13  14
ENDBRANCH   6   8
ENDBRANCH   3   4
ENDBRANCH   2   3
ENDBRANCH   1   2
BRANCH   1  64
ATOM     64  C   UNL A   1      31.942  27.091  26.811  1.00  0.00     0.002 C 
BRANCH  64  65
ATOM     65  C   UNL A   1      30.667  26.939  25.979  1.00  0.00     0.021 C 
BRANCH  65  66
ATOM     66  C   UNL A   1      30.877  26.451  24.550  1.00  0.00     0.116 C 
BRANCH  66  67
ATOM     67  N   UNL A   1      32.067  27.012  23.928  1.00  0.00    -0.352 N 
ATOM     68  C   UNL A   1      33.262  26.402  23.654  1.00  0.00     0.256 C 
ATOM     69  H   UNL A   1      32.003  27.959  23.669  1.00  0.00     0.163 HD
ATOM     70  O   UNL A   1      34.162  27.024  23.095  1.00  0.00    -0.269 OA
BRANCH  68  71
ATOM     71  C   UNL A   1      33.402  24.979  24.004  1.00  0.00     0.104 A 
ATOM     72  C   UNL A   1      34.303  24.637  24.936  1.00  0.00     0.104 A 
ATOM     73  C   UNL A   1      32.658  23.906  23.315  1.00  0.00     0.202 A 
ATOM     74  N   UNL A   1      34.666  23.350  25.275  1.00  0.00    -0.343 N 
ATOM     75  C   UNL A   1      32.921  22.514  23.761  1.00  0.00     0.047 A 
ATOM     76  O   UNL A   1      31.885  24.134  22.391  1.00  0.00    -0.288 OA
ATOM     77  C   UNL A   1      33.902  22.267  24.740  1.00  0.00     0.054 A 
ATOM     78  C   UNL A   1      32.218  21.463  23.163  1.00  0.00     0.016 A 
ATOM     79  C   UNL A   1      34.106  20.935  25.135  1.00  0.00     0.053 A 
ATOM     80  C   UNL A   1      32.492  20.147  23.535  1.00  0.00     0.027 A 
ATOM     81  C   UNL A   1      33.433  19.862  24.528  1.00  0.00     0.039 A 
BRANCH  74  82
ATOM     82  C   UNL A   1      35.964  23.096  25.950  1.00  0.00     0.087 C 
ATOM     83  C   UNL A   1      37.215  22.567  25.291  1.00  0.00     0.027 C 
ATOM     84  C   UNL A   1      37.148  23.999  25.737  1.00  0.00     0.027 C 
ENDBRANCH  74  82
BRANCH  81  85
ATOM     85  N   UNL A   1      33.716  18.570  24.913  1.00  0.00    -0.360 N 
ATOM     86  C   UNL A   1      32.834  17.889  25.864  1.00  0.00     0.178 C 
ATOM     87  C   UNL A   1      34.677  17.742  24.179  1.00  0.00     0.178 C 
ATOM     88  C   UNL A   1      32.210  16.635  25.206  1.00  0.00     0.282 C 
ATOM     89  C   UNL A   1      33.998  16.480  23.607  1.00  0.00     0.282 C 
ATOM     90  N   UNL A   1      33.209  15.724  24.604  1.00  0.00    -0.343 N 
ATOM     91  H   UNL A   1      32.733  14.945  24.148  1.00  0.00     0.346 HD
ATOM     92  H   UNL A   1      33.826  15.355  25.329  1.00  0.00     0.346 HD
ENDBRANCH  81  85
ENDBRANCH  68  71
ENDBRANCH  66  67
ENDBRANCH  65  66
ENDBRANCH  64  65
ENDBRANCH   1  64
TORSDOF 15
ENDMDL
MODEL 3
REMARK VINA RESULT:     -12.0      4.724     10.347
REMARK SMILES O=C(NCCCCCCNC(=O)c1cn(C2CC2)c2cc(N3CC[NH2+]CC3)ccc2c1=O)c1ccc(-c2c3nc(c(-c4c(F)cccc4F)c4ccc([nH]4)c(-c4c(F)cccc4F)c4nc(c(-c5c(F)cccc5F)c5ccc2[nH]5)C=C4)C=C3)cc1
REMARK SMILES IDX 6 1 5 2 4 3 3 4 1 5 2 6 33 8 34 9 86 10 35 11 85 12 36 13
REMARK SMILES IDX 37 14 38 15 79 16 39 17 84 18 78 19 80 20 40 21 83 22 77 23
REMARK SMILES IDX 76 24 41 26 67 27 50 28 66 29 51 30 54 31 65 32 81 33 52 34
REMARK SMILES IDX 53 35 64 37 82 38 55 39 42 40 43 41 48 42 44 43 45 44 47 45
REMARK SMILES IDX 49 46 46 47 68 48 69 49 74 50 70 51 71 52 73 53 75 54 72 55
REMARK SMILES IDX 56 56 57 57 62 58 58 59 59 60 61 61 63 62 60 63 7 64 8 65
REMARK SMILES IDX 9 66 10 67 11 68 12 70 13 71 14 72 31 73 15 74 30 75 32 76
REMARK SMILES IDX 19 77 29 78 20 79 28 80 21 81 16 82 17 83 18 84 22 85 23 86
REMARK SMILES IDX 27 87 24 88 26 89 25 90
REMARK H PARENT 3 7 80 25 54 36 10 69 25 91 25 92
REMARK Flexibility Score: inf
ROOT
ATOM      1  C   UNL A   1      37.312  21.362  24.449  1.00  0.00     0.002 C 
ENDROOT
BRANCH   1   2
ATOM      2  C   UNL A   1      37.943  20.033  24.869  1.00  0.00     0.021 C 
BRANCH   2   3
ATOM      3  C   UNL A   1      38.867  20.103  26.079  1.00  0.00     0.116 C 
BRANCH   3   4
ATOM      4  N   UNL A   1      40.001  19.203  25.968  1.00  0.00    -0.352 N 
ATOM      5  O   UNL A   1      42.155  18.590  25.749  1.00  0.00    -0.269 OA
ATOM      6  C   UNL A   1      41.343  19.475  26.019  1.00  0.00     0.251 C 
ATOM      7  H   UNL A   1      39.771  18.254  25.837  1.00  0.00     0.163 HD
BRANCH   6   8
ATOM      8  C   UNL A   1      41.829  20.826  26.378  1.00  0.00     0.039 A 
ATOM      9  C   UNL A   1      42.052  21.118  27.726  1.00  0.00     0.014 A 
ATOM     10  C   UNL A   1      42.018  21.818  25.411  1.00  0.00     0.014 A 
ATOM     11  C   UNL A   1      42.485  22.392  28.101  1.00  0.00     0.010 A 
ATOM     12  C   UNL A   1      42.526  23.064  25.777  1.00  0.00     0.010 A 
ATOM     13  C   UNL A   1      42.737  23.372  27.128  1.00  0.00    -0.014 A 
BRANCH  13  14
ATOM     14  C   UNL A   1      43.165  24.737  27.527  1.00  0.00     0.031 A 
ATOM     15  C   UNL A   1      44.609  25.145  27.399  1.00  0.00     0.074 A 
ATOM     16  C   UNL A   1      42.261  25.610  28.010  1.00  0.00     0.049 A 
ATOM     17  N   UNL A   1      45.171  26.298  27.661  1.00  0.00    -0.248 NA
ATOM     18  C   UNL A   1      45.549  24.111  26.939  1.00  0.00     0.031 C 
ATOM     19  C   UNL A   1      40.841  25.328  28.223  1.00  0.00     0.029 A 
ATOM     20  N   UNL A   1      42.402  26.918  28.397  1.00  0.00    -0.354 N 
ATOM     21  C   UNL A   1      46.526  26.124  27.407  1.00  0.00     0.074 A 
ATOM     22  C   UNL A   1      46.711  24.739  27.035  1.00  0.00     0.031 C 
ATOM     23  C   UNL A   1      40.232  26.444  28.653  1.00  0.00     0.029 A 
ATOM     24  C   UNL A   1      41.222  27.510  28.773  1.00  0.00     0.049 A 
ATOM     25  H   UNL A   1      43.267  27.388  28.404  1.00  0.00     0.167 HD
ATOM     26  C   UNL A   1      47.524  27.040  27.448  1.00  0.00     0.037 A 
ATOM     27  C   UNL A   1      40.966  28.775  29.156  1.00  0.00     0.037 A 
ATOM     28  C   UNL A   1      47.338  28.424  27.797  1.00  0.00     0.049 A 
ATOM     29  C   UNL A   1      42.092  29.771  29.206  1.00  0.00     0.074 A 
ATOM     30  C   UNL A   1      48.272  29.445  27.812  1.00  0.00     0.029 A 
ATOM     31  N   UNL A   1      46.132  28.980  28.194  1.00  0.00    -0.354 N 
ATOM     32  N   UNL A   1      43.356  29.610  28.897  1.00  0.00    -0.248 NA
ATOM     33  C   UNL A   1      41.748  31.127  29.653  1.00  0.00     0.031 C 
ATOM     34  C   UNL A   1      47.638  30.610  28.261  1.00  0.00     0.029 A 
ATOM     35  C   UNL A   1      46.301  30.325  28.483  1.00  0.00     0.049 A 
ATOM     36  H   UNL A   1      45.281  28.490  28.263  1.00  0.00     0.167 HD
ATOM     37  C   UNL A   1      43.953  30.849  29.089  1.00  0.00     0.074 A 
ATOM     38  C   UNL A   1      42.908  31.754  29.520  1.00  0.00     0.031 C 
ATOM     39  C   UNL A   1      45.251  31.208  28.923  1.00  0.00     0.037 A 
BRANCH  26  40
ATOM     40  C   UNL A   1      48.906  26.557  27.110  1.00  0.00     0.057 A 
ATOM     41  C   UNL A   1      49.766  26.088  28.109  1.00  0.00     0.134 A 
ATOM     42  C   UNL A   1      49.382  26.543  25.790  1.00  0.00     0.134 A 
ATOM     43  F   UNL A   1      49.378  26.077  29.393  1.00  0.00    -0.206 F 
ATOM     44  C   UNL A   1      51.043  25.609  27.809  1.00  0.00     0.040 A 
ATOM     45  C   UNL A   1      50.645  26.039  25.474  1.00  0.00     0.040 A 
ATOM     46  F   UNL A   1      48.604  26.965  24.782  1.00  0.00    -0.206 F 
ATOM     47  C   UNL A   1      51.481  25.573  26.486  1.00  0.00     0.006 A 
ENDBRANCH  26  40
BRANCH  27  48
ATOM     48  C   UNL A   1      39.578  29.192  29.473  1.00  0.00     0.057 A 
ATOM     49  C   UNL A   1      39.085  29.174  30.782  1.00  0.00     0.134 A 
ATOM     50  C   UNL A   1      38.716  29.637  28.463  1.00  0.00     0.134 A 
ATOM     51  F   UNL A   1      39.859  28.754  31.792  1.00  0.00    -0.206 F 
ATOM     52  C   UNL A   1      37.782  29.581  31.076  1.00  0.00     0.040 A 
ATOM     53  C   UNL A   1      37.420  30.067  28.745  1.00  0.00     0.040 A 
ATOM     54  F   UNL A   1      39.140  29.694  27.192  1.00  0.00    -0.206 F 
ATOM     55  C   UNL A   1      36.948  30.035  30.056  1.00  0.00     0.006 A 
ENDBRANCH  27  48
BRANCH  39  56
ATOM     56  C   UNL A   1      45.594  32.643  29.192  1.00  0.00     0.057 A 
ATOM     57  C   UNL A   1      45.467  33.611  28.188  1.00  0.00     0.134 A 
ATOM     58  C   UNL A   1      46.045  33.072  30.449  1.00  0.00     0.134 A 
ATOM     59  F   UNL A   1      45.049  33.267  26.960  1.00  0.00    -0.206 F 
ATOM     60  C   UNL A   1      45.766  34.953  28.425  1.00  0.00     0.040 A 
ATOM     61  C   UNL A   1      46.320  34.416  30.706  1.00  0.00     0.040 A 
ATOM     62  F   UNL A   1      46.173  32.198  31.459  1.00  0.00    -0.206 F 
ATOM     63  C   UNL A   1      46.183  35.361  29.690  1.00  0.00     0.006 A 
ENDBRANCH  39  56
ENDBRANCH  13  14
ENDBRANCH   6   8
ENDBRANCH   3   4
ENDBRANCH   2   3
ENDBRANCH   1   2
BRANCH   1  64
ATOM     64  C   UNL A   1      37.177  22.411  25.556  1.00  0.00     0.002 C 
BRANCH  64  65
ATOM     65  C   UNL A   1      36.442  23.695  25.167  1.00  0.00     0.021 C 
BRANCH  65  66
ATOM     66  C   UNL A   1      34.955  23.531  24.874  1.00  0.00     0.116 C 
BRANCH  66  67
ATOM     67  N   UNL A   1      34.181  23.167  26.052  1.00  0.00    -0.352 N 
ATOM     68  C   UNL A   1      33.096  23.801  26.597  1.00  0.00     0.256 C 
ATOM     69  H   UNL A   1      34.479  22.355  26.521  1.00  0.00     0.163 HD
ATOM     70  O   UNL A   1      32.542  23.338  27.590  1.00  0.00    -0.269 OA
BRANCH  68  71
ATOM     71  C   UNL A   1      32.599  25.011  25.923  1.00  0.00     0.104 A 
ATOM     72  C   UNL A   1      33.353  26.119  25.959  1.00  0.00     0.104 A 
ATOM     73  C   UNL A   1      31.270  25.085  25.283  1.00  0.00     0.202 A 
ATOM     74  N   UNL A   1      32.977  27.368  25.513  1.00  0.00    -0.343 N 
ATOM     75  C   UNL A   1      30.894  26.381  24.663  1.00  0.00     0.047 A 
ATOM     76  O   UNL A   1      30.486  24.141  25.290  1.00  0.00    -0.288 OA
ATOM     77  C   UNL A   1      31.759  27.486  24.774  1.00  0.00     0.054 A 
ATOM     78  C   UNL A   1      29.659  26.493  24.016  1.00  0.00     0.016 A 
ATOM     79  C   UNL A   1      31.363  28.686  24.162  1.00  0.00     0.053 A 
ATOM     80  C   UNL A   1      29.271  27.718  23.474  1.00  0.00     0.027 A 
ATOM     81  C   UNL A   1      30.116  28.830  23.533  1.00  0.00     0.039 A 
BRANCH  74  82
ATOM     82  C   UNL A   1      33.673  28.580  26.016  1.00  0.00     0.087 C 
ATOM     83  C   UNL A   1      33.236  29.429  27.185  1.00  0.00     0.027 C 
ATOM     84  C   UNL A   1      34.453  28.558  27.303  1.00  0.00     0.027 C 
ENDBRANCH  74  82
BRANCH  81  85
ATOM     85  N   UNL A   1      29.754  30.048  23.001  1.00  0.00    -0.360 N 
ATOM     86  C   UNL A   1      29.503  30.164  21.562  1.00  0.00     0.178 C 
ATOM     87  C   UNL A   1      29.305  31.155  23.850  1.00  0.00     0.178 C 
ATOM     88  C   UNL A   1      28.038  30.595  21.311  1.00  0.00     0.282 C 
ATOM     89  C   UNL A   1      27.861  31.573  23.499  1.00  0.00     0.282 C 
ATOM     90  N   UNL A   1      27.644  31.812  22.056  1.00  0.00    -0.343 N 
ATOM     91  H   UNL A   1      26.659  32.015  21.885  1.00  0.00     0.346 HD
ATOM     92  H   UNL A   1      28.204  32.607  21.747  1.00  0.00     0.346 HD
ENDBRANCH  81  85
ENDBRANCH  68  71
ENDBRANCH  66  67
ENDBRANCH  65  66
ENDBRANCH  64  65
ENDBRANCH   1  64
TORSDOF 15
ENDMDL
