MODEL 1
REMARK VINA RESULT:     -12.3      0.000      0.000
REMARK SMILES CCc1cc(C[NH+]2CCC(C(=O)NCCCCCCNC(=O)c3ccc(-c4c5nc(c(-c6c(F)cccc6F)c6ccc([nH]6)c(-c6c(F)cccc6F)c6nc(c(-c7c(F)cccc7F)c7ccc4[nH]7)C=C6)C=C5)cc3)(n3ccc(-c4ccco4)n3)CC2)on1
REMARK SMILES IDX 16 1 15 2 14 3 13 4 11 5 12 6 10 8 7 9 8 10 88 11 9 13 87 14
REMARK SMILES IDX 6 15 5 16 3 17 4 18 90 19 89 20 2 21 1 22 77 23 78 24 86 25
REMARK SMILES IDX 79 26 80 27 81 28 82 29 85 30 83 31 84 32 17 33 18 34 19 35
REMARK SMILES IDX 20 36 21 37 22 39 23 40 24 41 76 42 25 43 75 44 26 45 27 46
REMARK SMILES IDX 28 47 69 48 29 49 74 50 68 51 70 52 30 53 73 54 67 55 66 56
REMARK SMILES IDX 31 58 57 59 40 60 56 61 41 62 44 63 55 64 71 65 42 66 43 67
REMARK SMILES IDX 54 69 72 70 45 71 32 72 33 73 38 74 34 75 35 76 37 77 39 78
REMARK SMILES IDX 36 79 58 80 59 81 64 82 60 83 61 84 63 85 65 86 62 87 46 88
REMARK SMILES IDX 47 89 52 90 48 91 49 92 51 93 53 94 50 95
REMARK H PARENT 13 7 7 12 20 38 70 57 44 68
REMARK Flexibility Score: inf
ROOT
ATOM      1  C   UNL A   1      32.528  29.981  27.281  1.00  0.00     0.002 C 
ENDROOT
BRANCH   1   2
ATOM      2  C   UNL A   1      32.779  28.500  26.980  1.00  0.00     0.021 C 
BRANCH   2   3
ATOM      3  C   UNL A   1      33.883  28.257  25.956  1.00  0.00     0.116 C 
BRANCH   3   4
ATOM      4  N   UNL A   1      34.400  26.898  26.043  1.00  0.00    -0.354 N 
ATOM      5  C   UNL A   1      34.021  25.714  25.455  1.00  0.00     0.248 C 
ATOM      6  O   UNL A   1      34.833  24.799  25.618  1.00  0.00    -0.272 OA
ATOM      7  H   UNL A   1      35.176  26.810  26.642  1.00  0.00     0.163 HD
BRANCH   5   8
ATOM      8  C   UNL A   1      32.750  25.616  24.559  1.00  0.00     0.151 C 
ATOM      9  N   UNL A   1      30.451  27.346  23.856  1.00  0.00    -0.328 N 
ATOM     10  C   UNL A   1      30.252  26.123  24.640  1.00  0.00     0.265 C 
ATOM     11  C   UNL A   1      31.608  27.334  22.961  1.00  0.00     0.265 C 
ATOM     12  H   UNL A   1      30.656  28.061  24.554  1.00  0.00     0.348 HD
ATOM     13  C   UNL A   1      31.478  25.682  25.426  1.00  0.00     0.102 C 
ATOM     14  C   UNL A   1      32.898  26.809  23.572  1.00  0.00     0.102 C 
BRANCH   9  15
ATOM     15  C   UNL A   1      29.220  27.708  23.098  1.00  0.00     0.341 C 
BRANCH  15  16
ATOM     16  C   UNL A   1      29.111  29.152  22.734  1.00  0.00     0.191 A 
ATOM     17  C   UNL A   1      28.730  31.306  22.462  1.00  0.00     0.084 A 
ATOM     18  C   UNL A   1      28.805  30.290  23.442  1.00  0.00     0.078 A 
ATOM     19  N   UNL A   1      29.022  30.828  21.246  1.00  0.00    -0.085 NA
ATOM     20  O   UNL A   1      29.282  29.481  21.424  1.00  0.00    -0.355 OA
BRANCH  17  21
ATOM     21  C   UNL A   1      28.361  32.737  22.649  1.00  0.00     0.056 C 
ATOM     22  C   UNL A   1      29.454  33.529  23.348  1.00  0.00     0.011 C 
ENDBRANCH  17  21
ENDBRANCH  15  16
ENDBRANCH   9  15
BRANCH   8  23
ATOM     23  N   UNL A   1      32.681  24.331  23.788  1.00  0.00    -0.256 N 
ATOM     24  C   UNL A   1      32.830  24.178  22.427  1.00  0.00     0.111 A 
ATOM     25  N   UNL A   1      32.259  23.167  24.350  1.00  0.00    -0.169 NA
ATOM     26  C   UNL A   1      32.832  22.835  22.176  1.00  0.00     0.054 A 
ATOM     27  C   UNL A   1      32.510  22.245  23.408  1.00  0.00     0.128 A 
BRANCH  27  28
ATOM     28  C   UNL A   1      32.444  20.770  23.595  1.00  0.00     0.154 A 
ATOM     29  C   UNL A   1      32.678  20.056  24.752  1.00  0.00     0.052 A 
ATOM     30  O   UNL A   1      32.134  19.901  22.581  1.00  0.00    -0.463 OA
ATOM     31  C   UNL A   1      32.508  18.685  24.425  1.00  0.00     0.043 A 
ATOM     32  C   UNL A   1      32.210  18.645  23.084  1.00  0.00     0.196 A 
ENDBRANCH  27  28
ENDBRANCH   8  23
ENDBRANCH   5   8
ENDBRANCH   3   4
ENDBRANCH   2   3
ENDBRANCH   1   2
BRANCH   1  33
ATOM     33  C   UNL A   1      31.581  30.689  26.307  1.00  0.00     0.002 C 
BRANCH  33  34
ATOM     34  C   UNL A   1      31.445  32.199  26.520  1.00  0.00     0.021 C 
BRANCH  34  35
ATOM     35  C   UNL A   1      32.595  32.828  27.297  1.00  0.00     0.116 C 
BRANCH  35  36
ATOM     36  N   UNL A   1      32.347  34.228  27.604  1.00  0.00    -0.352 N 
ATOM     37  C   UNL A   1      32.949  35.021  28.547  1.00  0.00     0.251 C 
ATOM     38  H   UNL A   1      31.652  34.667  27.060  1.00  0.00     0.163 HD
ATOM     39  O   UNL A   1      32.495  36.131  28.814  1.00  0.00    -0.269 OA
BRANCH  37  40
ATOM     40  C   UNL A   1      34.143  34.520  29.255  1.00  0.00     0.039 A 
ATOM     41  C   UNL A   1      33.994  33.932  30.513  1.00  0.00     0.014 A 
ATOM     42  C   UNL A   1      35.405  34.618  28.664  1.00  0.00     0.014 A 
ATOM     43  C   UNL A   1      35.108  33.390  31.157  1.00  0.00     0.010 A 
ATOM     44  C   UNL A   1      36.498  34.008  29.269  1.00  0.00     0.010 A 
ATOM     45  C   UNL A   1      36.362  33.396  30.526  1.00  0.00    -0.014 A 
BRANCH  45  46
ATOM     46  C   UNL A   1      37.561  32.798  31.165  1.00  0.00     0.031 A 
ATOM     47  C   UNL A   1      38.213  31.596  30.541  1.00  0.00     0.074 A 
ATOM     48  C   UNL A   1      38.014  33.283  32.339  1.00  0.00     0.049 A 
ATOM     49  N   UNL A   1      39.183  30.847  31.000  1.00  0.00    -0.248 NA
ATOM     50  C   UNL A   1      37.682  31.160  29.239  1.00  0.00     0.031 C 
ATOM     51  C   UNL A   1      37.451  34.426  33.058  1.00  0.00     0.029 A 
ATOM     52  N   UNL A   1      39.043  32.858  33.141  1.00  0.00    -0.354 N 
ATOM     53  C   UNL A   1      39.363  29.845  30.055  1.00  0.00     0.074 A 
ATOM     54  C   UNL A   1      38.366  30.046  29.028  1.00  0.00     0.031 C 
ATOM     55  C   UNL A   1      38.151  34.623  34.186  1.00  0.00     0.029 A 
ATOM     56  C   UNL A   1      39.180  33.593  34.295  1.00  0.00     0.049 A 
ATOM     57  H   UNL A   1      39.627  32.100  32.913  1.00  0.00     0.167 HD
ATOM     58  C   UNL A   1      40.292  28.859  30.034  1.00  0.00     0.037 A 
ATOM     59  C   UNL A   1      40.029  33.441  35.329  1.00  0.00     0.037 A 
ATOM     60  C   UNL A   1      41.295  28.677  31.048  1.00  0.00     0.049 A 
ATOM     61  C   UNL A   1      41.031  32.318  35.298  1.00  0.00     0.074 A 
ATOM     62  C   UNL A   1      42.309  27.737  31.097  1.00  0.00     0.029 A 
ATOM     63  N   UNL A   1      41.412  29.454  32.191  1.00  0.00    -0.354 N 
ATOM     64  N   UNL A   1      41.224  31.406  34.376  1.00  0.00    -0.248 NA
ATOM     65  C   UNL A   1      41.938  32.205  36.450  1.00  0.00     0.031 C 
ATOM     66  C   UNL A   1      43.007  27.911  32.295  1.00  0.00     0.029 A 
ATOM     67  C   UNL A   1      42.468  28.999  32.962  1.00  0.00     0.049 A 
ATOM     68  H   UNL A   1      40.830  30.214  32.420  1.00  0.00     0.167 HD
ATOM     69  C   UNL A   1      42.298  30.641  34.813  1.00  0.00     0.074 A 
ATOM     70  C   UNL A   1      42.716  31.196  36.084  1.00  0.00     0.031 C 
ATOM     71  C   UNL A   1      42.887  29.579  34.213  1.00  0.00     0.037 A 
BRANCH  58  72
ATOM     72  C   UNL A   1      40.261  27.902  28.876  1.00  0.00     0.057 A 
ATOM     73  C   UNL A   1      40.976  28.145  27.696  1.00  0.00     0.134 A 
ATOM     74  C   UNL A   1      39.534  26.708  28.955  1.00  0.00     0.134 A 
ATOM     75  F   UNL A   1      41.683  29.276  27.549  1.00  0.00    -0.206 F 
ATOM     76  C   UNL A   1      40.944  27.251  26.625  1.00  0.00     0.040 A 
ATOM     77  C   UNL A   1      39.520  25.790  27.903  1.00  0.00     0.040 A 
ATOM     78  F   UNL A   1      38.832  26.408  30.059  1.00  0.00    -0.206 F 
ATOM     79  C   UNL A   1      40.221  26.065  26.731  1.00  0.00     0.006 A 
ENDBRANCH  58  72
BRANCH  59  80
ATOM     80  C   UNL A   1      39.983  34.382  36.478  1.00  0.00     0.057 A 
ATOM     81  C   UNL A   1      39.216  34.097  37.614  1.00  0.00     0.134 A 
ATOM     82  C   UNL A   1      40.685  35.593  36.464  1.00  0.00     0.134 A 
ATOM     83  F   UNL A   1      38.506  32.962  37.681  1.00  0.00    -0.206 F 
ATOM     84  C   UNL A   1      39.128  34.991  38.682  1.00  0.00     0.040 A 
ATOM     85  C   UNL A   1      40.630  36.484  37.538  1.00  0.00     0.040 A 
ATOM     86  F   UNL A   1      41.446  35.924  35.409  1.00  0.00    -0.206 F 
ATOM     87  C   UNL A   1      39.840  36.188  38.646  1.00  0.00     0.006 A 
ENDBRANCH  59  80
BRANCH  71  88
ATOM     88  C   UNL A   1      44.091  28.981  34.882  1.00  0.00     0.057 A 
ATOM     89  C   UNL A   1      43.988  27.939  35.809  1.00  0.00     0.134 A 
ATOM     90  C   UNL A   1      45.379  29.414  34.534  1.00  0.00     0.134 A 
ATOM     91  F   UNL A   1      42.786  27.485  36.194  1.00  0.00    -0.206 F 
ATOM     92  C   UNL A   1      45.123  27.355  36.378  1.00  0.00     0.040 A 
ATOM     93  C   UNL A   1      46.520  28.821  35.074  1.00  0.00     0.040 A 
ATOM     94  F   UNL A   1      45.547  30.404  33.644  1.00  0.00    -0.206 F 
ATOM     95  C   UNL A   1      46.393  27.790  36.002  1.00  0.00     0.006 A 
ENDBRANCH  71  88
ENDBRANCH  45  46
ENDBRANCH  37  40
ENDBRANCH  35  36
ENDBRANCH  34  35
ENDBRANCH  33  34
ENDBRANCH   1  33
TORSDOF 18
ENDMDL
MODEL 2
REMARK VINA RESULT:     -12.1      2.400      7.223
REMARK SMILES CCc1cc(C[NH+]2CCC(C(=O)NCCCCCCNC(=O)c3ccc(-c4c5nc(c(-c6c(F)cccc6F)c6ccc([nH]6)c(-c6c(F)cccc6F)c6nc(c(-c7c(F)cccc7F)c7ccc4[nH]7)C=C6)C=C5)cc3)(n3ccc(-c4ccco4)n3)CC2)on1
REMARK SMILES IDX 16 1 15 2 14 3 13 4 11 5 12 6 10 8 7 9 8 10 88 11 9 13 87 14
REMARK SMILES IDX 6 15 5 16 3 17 4 18 90 19 89 20 2 21 1 22 77 23 78 24 86 25
REMARK SMILES IDX 79 26 80 27 81 28 82 29 85 30 83 31 84 32 17 33 18 34 19 35
REMARK SMILES IDX 20 36 21 37 22 39 23 40 24 41 76 42 25 43 75 44 26 45 27 46
REMARK SMILES IDX 28 47 69 48 29 49 74 50 68 51 70 52 30 53 73 54 67 55 66 56
REMARK SMILES IDX 31 58 57 59 40 60 56 61 41 62 44 63 55 64 71 65 42 66 43 67
REMARK SMILES IDX 54 69 72 70 45 71 32 72 33 73 38 74 34 75 35 76 37 77 39 78
REMARK SMILES IDX 36 79 58 80 59 81 64 82 60 83 61 84 63 85 65 86 62 87 46 88
REMARK SMILES IDX 47 89 52 90 48 91 49 92 51 93 53 94 50 95
REMARK H PARENT 13 7 7 12 20 38 70 57 44 68
REMARK Flexibility Score: inf
ROOT
ATOM      1  C   UNL A   1      39.909  21.128  26.252  1.00  0.00     0.002 C 
ENDROOT
BRANCH   1   2
ATOM      2  C   UNL A   1      39.019  22.373  26.177  1.00  0.00     0.021 C 
BRANCH   2   3
ATOM      3  C   UNL A   1      37.586  22.082  25.741  1.00  0.00     0.116 C 
BRANCH   3   4
ATOM      4  N   UNL A   1      37.390  22.374  24.328  1.00  0.00    -0.354 N 
ATOM      5  C   UNL A   1      36.306  22.812  23.605  1.00  0.00     0.248 C 
ATOM      6  O   UNL A   1      36.582  23.139  22.448  1.00  0.00    -0.272 OA
ATOM      7  H   UNL A   1      38.195  22.228  23.781  1.00  0.00     0.163 HD
BRANCH   5   8
ATOM      8  C   UNL A   1      34.905  22.997  24.263  1.00  0.00     0.151 C 
ATOM      9  N   UNL A   1      33.319  25.224  25.403  1.00  0.00    -0.328 N 
ATOM     10  C   UNL A   1      33.815  24.145  26.263  1.00  0.00     0.265 C 
ATOM     11  C   UNL A   1      33.092  24.857  24.006  1.00  0.00     0.265 C 
ATOM     12  H   UNL A   1      34.083  25.900  25.385  1.00  0.00     0.348 HD
ATOM     13  C   UNL A   1      35.056  23.446  25.729  1.00  0.00     0.102 C 
ATOM     14  C   UNL A   1      34.206  24.049  23.355  1.00  0.00     0.102 C 
BRANCH   9  15
ATOM     15  C   UNL A   1      32.094  25.851  25.974  1.00  0.00     0.341 C 
BRANCH  15  16
ATOM     16  C   UNL A   1      31.563  27.011  25.199  1.00  0.00     0.191 A 
ATOM     17  C   UNL A   1      30.612  28.487  23.867  1.00  0.00     0.084 A 
ATOM     18  C   UNL A   1      30.422  27.219  24.462  1.00  0.00     0.078 A 
ATOM     19  N   UNL A   1      31.768  29.037  24.259  1.00  0.00    -0.085 NA
ATOM     20  O   UNL A   1      32.352  28.117  25.112  1.00  0.00    -0.355 OA
BRANCH  17  21
ATOM     21  C   UNL A   1      29.721  29.194  22.904  1.00  0.00     0.056 C 
ATOM     22  C   UNL A   1      29.200  30.510  23.459  1.00  0.00     0.011 C 
ENDBRANCH  17  21
ENDBRANCH  15  16
ENDBRANCH   9  15
BRANCH   8  23
ATOM     23  N   UNL A   1      34.100  21.732  24.278  1.00  0.00    -0.256 N 
ATOM     24  C   UNL A   1      32.808  21.572  23.827  1.00  0.00     0.111 A 
ATOM     25  N   UNL A   1      34.510  20.617  24.940  1.00  0.00    -0.169 NA
ATOM     26  C   UNL A   1      32.522  20.238  23.905  1.00  0.00     0.054 A 
ATOM     27  C   UNL A   1      33.625  19.679  24.568  1.00  0.00     0.128 A 
BRANCH  27  28
ATOM     28  C   UNL A   1      33.745  18.219  24.829  1.00  0.00     0.154 A 
ATOM     29  C   UNL A   1      34.761  17.373  24.435  1.00  0.00     0.052 A 
ATOM     30  O   UNL A   1      32.803  17.503  25.521  1.00  0.00    -0.463 OA
ATOM     31  C   UNL A   1      34.419  16.078  24.906  1.00  0.00     0.043 A 
ATOM     32  C   UNL A   1      33.202  16.208  25.532  1.00  0.00     0.196 A 
ENDBRANCH  27  28
ENDBRANCH   8  23
ENDBRANCH   5   8
ENDBRANCH   3   4
ENDBRANCH   2   3
ENDBRANCH   1   2
BRANCH   1  33
ATOM     33  C   UNL A   1      41.048  21.206  27.274  1.00  0.00     0.002 C 
BRANCH  33  34
ATOM     34  C   UNL A   1      41.110  22.509  28.075  1.00  0.00     0.021 C 
BRANCH  34  35
ATOM     35  C   UNL A   1      42.326  23.374  27.772  1.00  0.00     0.116 C 
BRANCH  35  36
ATOM     36  N   UNL A   1      42.228  24.023  26.474  1.00  0.00    -0.352 N 
ATOM     37  C   UNL A   1      41.727  25.263  26.169  1.00  0.00     0.251 C 
ATOM     38  H   UNL A   1      42.568  23.502  25.710  1.00  0.00     0.163 HD
ATOM     39  O   UNL A   1      41.537  25.591  25.000  1.00  0.00    -0.269 OA
BRANCH  37  40
ATOM     40  C   UNL A   1      41.399  26.199  27.262  1.00  0.00     0.039 A 
ATOM     41  C   UNL A   1      40.257  25.974  28.034  1.00  0.00     0.014 A 
ATOM     42  C   UNL A   1      42.233  27.286  27.532  1.00  0.00     0.014 A 
ATOM     43  C   UNL A   1      39.980  26.812  29.116  1.00  0.00     0.010 A 
ATOM     44  C   UNL A   1      42.001  28.070  28.655  1.00  0.00     0.010 A 
ATOM     45  C   UNL A   1      40.867  27.847  29.453  1.00  0.00    -0.014 A 
BRANCH  45  46
ATOM     46  C   UNL A   1      40.623  28.736  30.616  1.00  0.00     0.031 A 
ATOM     47  C   UNL A   1      39.553  29.789  30.534  1.00  0.00     0.074 A 
ATOM     48  C   UNL A   1      41.407  28.650  31.709  1.00  0.00     0.049 A 
ATOM     49  N   UNL A   1      39.265  30.746  31.379  1.00  0.00    -0.248 NA
ATOM     50  C   UNL A   1      38.717  29.786  29.323  1.00  0.00     0.031 C 
ATOM     51  C   UNL A   1      42.494  27.689  31.899  1.00  0.00     0.029 A 
ATOM     52  N   UNL A   1      41.419  29.397  32.860  1.00  0.00    -0.354 N 
ATOM     53  C   UNL A   1      38.230  31.465  30.794  1.00  0.00     0.074 A 
ATOM     54  C   UNL A   1      37.980  30.872  29.499  1.00  0.00     0.031 C 
ATOM     55  C   UNL A   1      43.057  27.894  33.101  1.00  0.00     0.029 A 
ATOM     56  C   UNL A   1      42.403  29.029  33.746  1.00  0.00     0.049 A 
ATOM     57  H   UNL A   1      40.783  30.128  33.035  1.00  0.00     0.167 HD
ATOM     58  C   UNL A   1      37.534  32.510  31.301  1.00  0.00     0.037 A 
ATOM     59  C   UNL A   1      42.749  29.560  34.934  1.00  0.00     0.037 A 
ATOM     60  C   UNL A   1      37.773  33.082  32.600  1.00  0.00     0.049 A 
ATOM     61  C   UNL A   1      41.982  30.742  35.463  1.00  0.00     0.074 A 
ATOM     62  C   UNL A   1      37.094  34.114  33.224  1.00  0.00     0.029 A 
ATOM     63  N   UNL A   1      38.767  32.668  33.473  1.00  0.00    -0.354 N 
ATOM     64  N   UNL A   1      40.973  31.382  34.922  1.00  0.00    -0.248 NA
ATOM     65  C   UNL A   1      42.398  31.274  36.768  1.00  0.00     0.031 C 
ATOM     66  C   UNL A   1      37.712  34.359  34.453  1.00  0.00     0.029 A 
ATOM     67  C   UNL A   1      38.734  33.440  34.622  1.00  0.00     0.049 A 
ATOM     68  H   UNL A   1      39.402  31.936  33.301  1.00  0.00     0.167 HD
ATOM     69  C   UNL A   1      40.607  32.360  35.837  1.00  0.00     0.074 A 
ATOM     70  C   UNL A   1      41.501  32.229  36.969  1.00  0.00     0.031 C 
ATOM     71  C   UNL A   1      39.615  33.279  35.751  1.00  0.00     0.037 A 
BRANCH  58  72
ATOM     72  C   UNL A   1      36.450  33.102  30.447  1.00  0.00     0.057 A 
ATOM     73  C   UNL A   1      36.738  33.939  29.361  1.00  0.00     0.134 A 
ATOM     74  C   UNL A   1      35.103  32.807  30.692  1.00  0.00     0.134 A 
ATOM     75  F   UNL A   1      38.007  34.273  29.076  1.00  0.00    -0.206 F 
ATOM     76  C   UNL A   1      35.726  34.485  28.569  1.00  0.00     0.040 A 
ATOM     77  C   UNL A   1      34.084  33.320  29.889  1.00  0.00     0.040 A 
ATOM     78  F   UNL A   1      34.756  32.007  31.713  1.00  0.00    -0.206 F 
ATOM     79  C   UNL A   1      34.394  34.169  28.828  1.00  0.00     0.006 A 
ENDBRANCH  58  72
BRANCH  59  80
ATOM     80  C   UNL A   1      43.866  28.971  35.718  1.00  0.00     0.057 A 
ATOM     81  C   UNL A   1      45.183  29.412  35.541  1.00  0.00     0.134 A 
ATOM     82  C   UNL A   1      43.652  27.945  36.646  1.00  0.00     0.134 A 
ATOM     83  F   UNL A   1      45.456  30.379  34.653  1.00  0.00    -0.206 F 
ATOM     84  C   UNL A   1      46.248  28.839  36.237  1.00  0.00     0.040 A 
ATOM     85  C   UNL A   1      44.703  27.382  37.372  1.00  0.00     0.040 A 
ATOM     86  F   UNL A   1      42.412  27.482  36.870  1.00  0.00    -0.206 F 
ATOM     87  C   UNL A   1      46.008  27.822  37.160  1.00  0.00     0.006 A 
ENDBRANCH  59  80
BRANCH  71  88
ATOM     88  C   UNL A   1      39.393  34.177  36.934  1.00  0.00     0.057 A 
ATOM     89  C   UNL A   1      38.708  33.750  38.077  1.00  0.00     0.134 A 
ATOM     90  C   UNL A   1      39.938  35.469  36.950  1.00  0.00     0.134 A 
ATOM     91  F   UNL A   1      38.153  32.530  38.121  1.00  0.00    -0.206 F 
ATOM     92  C   UNL A   1      38.561  34.579  39.190  1.00  0.00     0.040 A 
ATOM     93  C   UNL A   1      39.823  36.296  38.067  1.00  0.00     0.040 A 
ATOM     94  F   UNL A   1      40.614  35.937  35.890  1.00  0.00    -0.206 F 
ATOM     95  C   UNL A   1      39.129  35.853  39.191  1.00  0.00     0.006 A 
ENDBRANCH  71  88
ENDBRANCH  45  46
ENDBRANCH  37  40
ENDBRANCH  35  36
ENDBRANCH  34  35
ENDBRANCH  33  34
ENDBRANCH   1  33
TORSDOF 18
ENDMDL
MODEL 3
REMARK VINA RESULT:     -12.1      1.046      6.002
REMARK SMILES CCc1cc(C[NH+]2CCC(C(=O)NCCCCCCNC(=O)c3ccc(-c4c5nc(c(-c6c(F)cccc6F)c6ccc([nH]6)c(-c6c(F)cccc6F)c6nc(c(-c7c(F)cccc7F)c7ccc4[nH]7)C=C6)C=C5)cc3)(n3ccc(-c4ccco4)n3)CC2)on1
REMARK SMILES IDX 16 1 15 2 14 3 13 4 11 5 12 6 10 8 7 9 8 10 88 11 9 13 87 14
REMARK SMILES IDX 6 15 5 16 3 17 4 18 90 19 89 20 2 21 1 22 77 23 78 24 86 25
REMARK SMILES IDX 79 26 80 27 81 28 82 29 85 30 83 31 84 32 17 33 18 34 19 35
REMARK SMILES IDX 20 36 21 37 22 39 23 40 24 41 76 42 25 43 75 44 26 45 27 46
REMARK SMILES IDX 28 47 69 48 29 49 74 50 68 51 70 52 30 53 73 54 67 55 66 56
REMARK SMILES IDX 31 58 57 59 40 60 56 61 41 62 44 63 55 64 71 65 42 66 43 67
REMARK SMILES IDX 54 69 72 70 45 71 32 72 33 73 38 74 34 75 35 76 37 77 39 78
REMARK SMILES IDX 36 79 58 80 59 81 64 82 60 83 61 84 63 85 65 86 62 87 46 88
REMARK SMILES IDX 47 89 52 90 48 91 49 92 51 93 53 94 50 95
REMARK H PARENT 13 7 7 12 20 38 70 57 44 68
REMARK Flexibility Score: inf
ROOT
ATOM      1  C   UNL A   1      32.488  30.047  27.186  1.00  0.00     0.002 C 
ENDROOT
BRANCH   1   2
ATOM      2  C   UNL A   1      32.571  28.553  26.854  1.00  0.00     0.021 C 
BRANCH   2   3
ATOM      3  C   UNL A   1      33.507  28.232  25.692  1.00  0.00     0.116 C 
BRANCH   3   4
ATOM      4  N   UNL A   1      34.143  26.933  25.865  1.00  0.00    -0.354 N 
ATOM      5  C   UNL A   1      33.804  25.664  25.458  1.00  0.00     0.248 C 
ATOM      6  O   UNL A   1      34.703  24.835  25.623  1.00  0.00    -0.272 OA
ATOM      7  H   UNL A   1      34.984  26.971  26.376  1.00  0.00     0.163 HD
BRANCH   5   8
ATOM      8  C   UNL A   1      32.456  25.370  24.733  1.00  0.00     0.151 C 
ATOM      9  N   UNL A   1      29.939  26.823  24.159  1.00  0.00    -0.328 N 
ATOM     10  C   UNL A   1      29.945  25.672  25.067  1.00  0.00     0.265 C 
ATOM     11  C   UNL A   1      30.985  26.819  23.137  1.00  0.00     0.265 C 
ATOM     12  H   UNL A   1      30.152  27.618  24.761  1.00  0.00     0.348 HD
ATOM     13  C   UNL A   1      31.287  25.416  25.736  1.00  0.00     0.102 C 
ATOM     14  C   UNL A   1      32.380  26.468  23.633  1.00  0.00     0.102 C 
BRANCH   9  15
ATOM     15  C   UNL A   1      28.603  27.003  23.524  1.00  0.00     0.341 C 
BRANCH  15  16
ATOM     16  C   UNL A   1      28.288  28.404  23.114  1.00  0.00     0.191 A 
ATOM     17  C   UNL A   1      28.164  30.521  22.515  1.00  0.00     0.084 A 
ATOM     18  C   UNL A   1      28.980  29.371  22.424  1.00  0.00     0.078 A 
ATOM     19  N   UNL A   1      27.027  30.258  23.169  1.00  0.00    -0.085 NA
ATOM     20  O   UNL A   1      27.099  28.923  23.525  1.00  0.00    -0.355 OA
BRANCH  17  21
ATOM     21  C   UNL A   1      28.449  31.892  22.006  1.00  0.00     0.056 C 
ATOM     22  C   UNL A   1      28.856  32.847  23.116  1.00  0.00     0.011 C 
ENDBRANCH  17  21
ENDBRANCH  15  16
ENDBRANCH   9  15
BRANCH   8  23
ATOM     23  N   UNL A   1      32.425  24.014  24.093  1.00  0.00    -0.256 N 
ATOM     24  C   UNL A   1      32.437  23.740  22.744  1.00  0.00     0.111 A 
ATOM     25  N   UNL A   1      32.178  22.881  24.803  1.00  0.00    -0.169 NA
ATOM     26  C   UNL A   1      32.537  22.383  22.615  1.00  0.00     0.054 A 
ATOM     27  C   UNL A   1      32.410  21.894  23.924  1.00  0.00     0.128 A 
BRANCH  27  28
ATOM     28  C   UNL A   1      32.503  20.445  24.249  1.00  0.00     0.154 A 
ATOM     29  C   UNL A   1      32.308  19.376  23.398  1.00  0.00     0.052 A 
ATOM     30  O   UNL A   1      32.799  19.977  25.504  1.00  0.00    -0.463 OA
ATOM     31  C   UNL A   1      32.490  18.201  24.173  1.00  0.00     0.043 A 
ATOM     32  C   UNL A   1      32.755  18.623  25.454  1.00  0.00     0.196 A 
ENDBRANCH  27  28
ENDBRANCH   8  23
ENDBRANCH   5   8
ENDBRANCH   3   4
ENDBRANCH   2   3
ENDBRANCH   1   2
BRANCH   1  33
ATOM     33  C   UNL A   1      31.386  30.814  26.448  1.00  0.00     0.002 C 
BRANCH  33  34
ATOM     34  C   UNL A   1      31.412  32.331  26.646  1.00  0.00     0.021 C 
BRANCH  34  35
ATOM     35  C   UNL A   1      32.722  32.868  27.209  1.00  0.00     0.116 C 
BRANCH  35  36
ATOM     36  N   UNL A   1      32.585  34.225  27.716  1.00  0.00    -0.352 N 
ATOM     37  C   UNL A   1      33.228  34.816  28.774  1.00  0.00     0.251 C 
ATOM     38  H   UNL A   1      31.944  34.797  27.234  1.00  0.00     0.163 HD
ATOM     39  O   UNL A   1      32.862  35.910  29.196  1.00  0.00    -0.269 OA
BRANCH  37  40
ATOM     40  C   UNL A   1      34.356  34.114  29.416  1.00  0.00     0.039 A 
ATOM     41  C   UNL A   1      34.102  33.232  30.468  1.00  0.00     0.014 A 
ATOM     42  C   UNL A   1      35.662  34.319  28.963  1.00  0.00     0.014 A 
ATOM     43  C   UNL A   1      35.156  32.510  31.032  1.00  0.00     0.010 A 
ATOM     44  C   UNL A   1      36.696  33.541  29.470  1.00  0.00     0.010 A 
ATOM     45  C   UNL A   1      36.456  32.636  30.516  1.00  0.00    -0.014 A 
BRANCH  45  46
ATOM     46  C   UNL A   1      37.594  31.859  31.067  1.00  0.00     0.031 A 
ATOM     47  C   UNL A   1      38.133  32.197  32.429  1.00  0.00     0.074 A 
ATOM     48  C   UNL A   1      38.189  30.909  30.319  1.00  0.00     0.049 A 
ATOM     49  N   UNL A   1      39.193  31.733  33.040  1.00  0.00    -0.248 NA
ATOM     50  C   UNL A   1      37.397  33.217  33.194  1.00  0.00     0.031 C 
ATOM     51  C   UNL A   1      37.777  30.507  28.973  1.00  0.00     0.029 A 
ATOM     52  N   UNL A   1      39.281  30.121  30.581  1.00  0.00    -0.354 N 
ATOM     53  C   UNL A   1      39.261  32.417  34.247  1.00  0.00     0.074 A 
ATOM     54  C   UNL A   1      38.171  33.367  34.259  1.00  0.00     0.031 C 
ATOM     55  C   UNL A   1      38.595  29.538  28.535  1.00  0.00     0.029 A 
ATOM     56  C   UNL A   1      39.617  29.282  29.546  1.00  0.00     0.049 A 
ATOM     57  H   UNL A   1      39.778  30.154  31.430  1.00  0.00     0.167 HD
ATOM     58  C   UNL A   1      40.138  32.251  35.265  1.00  0.00     0.037 A 
ATOM     59  C   UNL A   1      40.643  28.419  29.421  1.00  0.00     0.037 A 
ATOM     60  C   UNL A   1      41.207  31.289  35.257  1.00  0.00     0.049 A 
ATOM     61  C   UNL A   1      41.624  28.275  30.553  1.00  0.00     0.074 A 
ATOM     62  C   UNL A   1      42.123  31.012  36.257  1.00  0.00     0.029 A 
ATOM     63  N   UNL A   1      41.502  30.446  34.197  1.00  0.00    -0.354 N 
ATOM     64  N   UNL A   1      41.649  28.891  31.710  1.00  0.00    -0.248 NA
ATOM     65  C   UNL A   1      42.719  27.312  30.365  1.00  0.00     0.031 C 
ATOM     66  C   UNL A   1      43.005  30.038  35.781  1.00  0.00     0.029 A 
ATOM     67  C   UNL A   1      42.601  29.663  34.510  1.00  0.00     0.049 A 
ATOM     68  H   UNL A   1      41.005  30.410  33.348  1.00  0.00     0.167 HD
ATOM     69  C   UNL A   1      42.730  28.362  32.403  1.00  0.00     0.074 A 
ATOM     70  C   UNL A   1      43.337  27.372  31.536  1.00  0.00     0.031 C 
ATOM     71  C   UNL A   1      43.176  28.664  33.646  1.00  0.00     0.037 A 
BRANCH  58  72
ATOM     72  C   UNL A   1      39.977  33.132  36.471  1.00  0.00     0.057 A 
ATOM     73  C   UNL A   1      39.068  32.829  37.493  1.00  0.00     0.134 A 
ATOM     74  C   UNL A   1      40.762  34.282  36.628  1.00  0.00     0.134 A 
ATOM     75  F   UNL A   1      38.276  31.749  37.402  1.00  0.00    -0.206 F 
ATOM     76  C   UNL A   1      38.924  33.651  38.612  1.00  0.00     0.040 A 
ATOM     77  C   UNL A   1      40.650  35.095  37.756  1.00  0.00     0.040 A 
ATOM     78  F   UNL A   1      41.657  34.629  35.689  1.00  0.00    -0.206 F 
ATOM     79  C   UNL A   1      39.723  34.784  38.749  1.00  0.00     0.006 A 
ENDBRANCH  58  72
BRANCH  59  80
ATOM     80  C   UNL A   1      40.791  27.608  28.184  1.00  0.00     0.057 A 
ATOM     81  C   UNL A   1      41.506  28.095  27.084  1.00  0.00     0.134 A 
ATOM     82  C   UNL A   1      40.208  26.341  28.062  1.00  0.00     0.134 A 
ATOM     83  F   UNL A   1      42.073  29.310  27.131  1.00  0.00    -0.206 F 
ATOM     84  C   UNL A   1      41.617  27.364  25.900  1.00  0.00     0.040 A 
ATOM     85  C   UNL A   1      40.335  25.586  26.894  1.00  0.00     0.040 A 
ATOM     86  F   UNL A   1      39.516  25.812  29.083  1.00  0.00    -0.206 F 
ATOM     87  C   UNL A   1      41.032  26.103  25.805  1.00  0.00     0.006 A 
ENDBRANCH  59  80
BRANCH  71  88
ATOM     88  C   UNL A   1      44.336  27.874  34.180  1.00  0.00     0.057 A 
ATOM     89  C   UNL A   1      44.168  26.643  34.822  1.00  0.00     0.134 A 
ATOM     90  C   UNL A   1      45.648  28.328  33.982  1.00  0.00     0.134 A 
ATOM     91  F   UNL A   1      42.939  26.158  35.053  1.00  0.00    -0.206 F 
ATOM     92  C   UNL A   1      45.263  25.895  35.261  1.00  0.00     0.040 A 
ATOM     93  C   UNL A   1      46.750  27.577  34.390  1.00  0.00     0.040 A 
ATOM     94  F   UNL A   1      45.879  29.497  33.365  1.00  0.00    -0.206 F 
ATOM     95  C   UNL A   1      46.558  26.358  35.036  1.00  0.00     0.006 A 
ENDBRANCH  71  88
ENDBRANCH  45  46
ENDBRANCH  37  40
ENDBRANCH  35  36
ENDBRANCH  34  35
ENDBRANCH  33  34
ENDBRANCH   1  33
TORSDOF 18
ENDMDL
