MODEL 1
REMARK VINA RESULT:     -10.6      0.000      0.000
REMARK SMILES Cc1cccc(S(=O)(=O)N[C@@H](CCC(N)=O)C(=O)NCCCCCCNC(=O)c2ccc(-c3c4nc(c(-c5c(F)cccc5F)c5ccc([nH]5)c(-c5c(F)cccc5F)c5nc(c(-c6c(F)cccc6F)c6ccc3[nH]6)C=C5)C=C4)cc2)c1
REMARK SMILES IDX 22 1 21 2 20 3 19 4 17 5 18 6 11 8 10 9 7 11 8 12 9 13 6 14
REMARK SMILES IDX 1 15 2 16 3 17 83 18 4 19 5 20 12 21 13 22 14 23 15 24 16 25
REMARK SMILES IDX 23 28 24 29 25 30 26 31 27 32 28 34 29 35 30 36 82 37 31 38
REMARK SMILES IDX 81 39 32 40 33 41 34 42 75 43 35 44 80 45 74 46 76 47 36 48
REMARK SMILES IDX 79 49 73 50 72 51 37 53 63 54 46 55 62 56 47 57 50 58 61 59
REMARK SMILES IDX 77 60 48 61 49 62 60 64 78 65 51 66 38 67 39 68 44 69 40 70
REMARK SMILES IDX 41 71 43 72 45 73 42 74 64 75 65 76 70 77 66 78 67 79 69 80
REMARK SMILES IDX 71 81 68 82 52 83 53 84 58 85 54 86 55 87 57 88 59 89 56 90
REMARK H PARENT 19 7 10 10 15 26 15 27 26 33 76 52 50 63
REMARK Flexibility Score: inf
ROOT
ATOM      1  C   UNL A   1      35.999  24.064  25.373  1.00  0.00     0.002 C 
ENDROOT
BRANCH   1   2
ATOM      2  C   UNL A   1      34.547  24.536  25.233  1.00  0.00     0.021 C 
BRANCH   2   3
ATOM      3  C   UNL A   1      34.321  26.030  25.439  1.00  0.00     0.116 C 
BRANCH   3   4
ATOM      4  N   UNL A   1      33.298  26.589  24.576  1.00  0.00    -0.355 N 
ATOM      5  C   UNL A   1      32.089  27.157  24.879  1.00  0.00     0.238 C 
ATOM      6  O   UNL A   1      31.441  27.648  23.950  1.00  0.00    -0.273 OA
ATOM      7  H   UNL A   1      33.506  26.554  23.614  1.00  0.00     0.163 HD
BRANCH   5   8
ATOM      8  C   UNL A   1      31.483  27.083  26.298  1.00  0.00     0.159 C 
BRANCH   8   9
ATOM      9  N   UNL A   1      31.393  25.649  26.649  1.00  0.00    -0.199 NA
ATOM     10  H   UNL A   1      32.303  25.259  26.406  1.00  0.00     0.142 HD
BRANCH   9  11
ATOM     11  S   UNL A   1      30.282  24.560  26.062  1.00  0.00     0.241 S 
ATOM     12  O   UNL A   1      29.364  25.287  25.218  1.00  0.00    -0.207 OA
ATOM     13  O   UNL A   1      29.820  23.835  27.228  1.00  0.00    -0.207 OA
BRANCH  11  14
ATOM     14  C   UNL A   1      31.153  23.395  25.050  1.00  0.00     0.082 A 
ATOM     15  C   UNL A   1      33.336  20.296  25.339  1.00  0.00     0.044 C 
ATOM     16  C   UNL A   1      32.560  21.442  24.761  1.00  0.00    -0.050 A 
ATOM     17  C   UNL A   1      32.651  21.731  23.393  1.00  0.00     0.003 A 
ATOM     18  C   UNL A   1      31.759  22.251  25.579  1.00  0.00     0.025 A 
ATOM     19  C   UNL A   1      31.983  22.831  22.853  1.00  0.00     0.002 A 
ATOM     20  C   UNL A   1      31.251  23.676  23.684  1.00  0.00     0.022 A 
ENDBRANCH  11  14
ENDBRANCH   9  11
ENDBRANCH   8   9
BRANCH   8  21
ATOM     21  C   UNL A   1      32.046  28.028  27.362  1.00  0.00     0.040 C 
BRANCH  21  22
ATOM     22  C   UNL A   1      32.354  29.477  27.002  1.00  0.00     0.102 C 
BRANCH  22  23
ATOM     23  C   UNL A   1      33.813  29.843  27.200  1.00  0.00     0.217 C 
ATOM     24  N   UNL A   1      34.033  30.885  28.050  1.00  0.00    -0.370 N 
ATOM     25  O   UNL A   1      34.753  29.266  26.672  1.00  0.00    -0.275 OA
ATOM     26  H   UNL A   1      33.273  31.346  28.472  1.00  0.00     0.159 HD
ATOM     27  H   UNL A   1      34.953  31.177  28.242  1.00  0.00     0.159 HD
ENDBRANCH  22  23
ENDBRANCH  21  22
ENDBRANCH   8  21
ENDBRANCH   5   8
ENDBRANCH   3   4
ENDBRANCH   2   3
ENDBRANCH   1   2
BRANCH   1  28
ATOM     28  C   UNL A   1      36.596  23.273  24.198  1.00  0.00     0.002 C 
BRANCH  28  29
ATOM     29  C   UNL A   1      37.438  22.047  24.544  1.00  0.00     0.021 C 
BRANCH  29  30
ATOM     30  C   UNL A   1      37.700  21.850  26.024  1.00  0.00     0.116 C 
BRANCH  30  31
ATOM     31  N   UNL A   1      39.103  21.803  26.398  1.00  0.00    -0.352 N 
ATOM     32  C   UNL A   1      40.008  22.831  26.597  1.00  0.00     0.251 C 
ATOM     33  H   UNL A   1      39.467  20.898  26.530  1.00  0.00     0.163 HD
ATOM     34  O   UNL A   1      41.188  22.554  26.798  1.00  0.00    -0.269 OA
BRANCH  32  35
ATOM     35  C   UNL A   1      39.547  24.237  26.773  1.00  0.00     0.039 A 
ATOM     36  C   UNL A   1      40.167  25.207  25.969  1.00  0.00     0.014 A 
ATOM     37  C   UNL A   1      38.868  24.631  27.915  1.00  0.00     0.014 A 
ATOM     38  C   UNL A   1      40.417  26.464  26.497  1.00  0.00     0.010 A 
ATOM     39  C   UNL A   1      39.266  25.793  28.519  1.00  0.00     0.010 A 
ATOM     40  C   UNL A   1      40.104  26.669  27.830  1.00  0.00    -0.014 A 
BRANCH  40  41
ATOM     41  C   UNL A   1      40.515  27.807  28.619  1.00  0.00     0.031 A 
ATOM     42  C   UNL A   1      39.604  28.959  28.639  1.00  0.00     0.074 A 
ATOM     43  C   UNL A   1      41.537  27.634  29.486  1.00  0.00     0.049 A 
ATOM     44  N   UNL A   1      39.867  30.078  29.204  1.00  0.00    -0.248 NA
ATOM     45  C   UNL A   1      38.303  28.947  27.965  1.00  0.00     0.031 C 
ATOM     46  C   UNL A   1      41.865  28.417  30.673  1.00  0.00     0.029 A 
ATOM     47  N   UNL A   1      42.644  26.790  29.319  1.00  0.00    -0.354 N 
ATOM     48  C   UNL A   1      38.689  30.785  29.265  1.00  0.00     0.074 A 
ATOM     49  C   UNL A   1      37.797  30.119  28.357  1.00  0.00     0.031 C 
ATOM     50  C   UNL A   1      43.173  28.260  30.949  1.00  0.00     0.029 A 
ATOM     51  C   UNL A   1      43.744  27.510  29.843  1.00  0.00     0.049 A 
ATOM     52  H   UNL A   1      42.654  25.890  28.922  1.00  0.00     0.167 HD
ATOM     53  C   UNL A   1      38.585  31.751  30.215  1.00  0.00     0.037 A 
ATOM     54  C   UNL A   1      44.708  27.996  29.002  1.00  0.00     0.037 A 
ATOM     55  C   UNL A   1      39.912  32.046  30.758  1.00  0.00     0.049 A 
ATOM     56  C   UNL A   1      44.777  29.506  29.019  1.00  0.00     0.074 A 
ATOM     57  C   UNL A   1      40.557  31.676  31.925  1.00  0.00     0.029 A 
ATOM     58  N   UNL A   1      40.898  32.510  29.888  1.00  0.00    -0.354 N 
ATOM     59  N   UNL A   1      43.765  30.281  29.311  1.00  0.00    -0.248 NA
ATOM     60  C   UNL A   1      46.003  30.257  28.768  1.00  0.00     0.031 C 
ATOM     61  C   UNL A   1      41.958  31.786  31.690  1.00  0.00     0.029 A 
ATOM     62  C   UNL A   1      42.156  32.273  30.408  1.00  0.00     0.049 A 
ATOM     63  H   UNL A   1      40.722  32.946  29.024  1.00  0.00     0.167 HD
ATOM     64  C   UNL A   1      44.180  31.587  29.328  1.00  0.00     0.074 A 
ATOM     65  C   UNL A   1      45.588  31.519  28.975  1.00  0.00     0.031 C 
ATOM     66  C   UNL A   1      43.351  32.625  29.650  1.00  0.00     0.037 A 
BRANCH  53  67
ATOM     67  C   UNL A   1      37.294  32.265  30.814  1.00  0.00     0.057 A 
ATOM     68  C   UNL A   1      36.765  31.640  31.961  1.00  0.00     0.134 A 
ATOM     69  C   UNL A   1      36.455  33.255  30.262  1.00  0.00     0.134 A 
ATOM     70  F   UNL A   1      37.436  30.671  32.600  1.00  0.00    -0.206 F 
ATOM     71  C   UNL A   1      35.508  31.960  32.497  1.00  0.00     0.040 A 
ATOM     72  C   UNL A   1      35.216  33.613  30.812  1.00  0.00     0.040 A 
ATOM     73  F   UNL A   1      36.744  33.899  29.128  1.00  0.00    -0.206 F 
ATOM     74  C   UNL A   1      34.729  32.955  31.927  1.00  0.00     0.006 A 
ENDBRANCH  53  67
BRANCH  54  75
ATOM     75  C   UNL A   1      44.901  27.115  27.810  1.00  0.00     0.057 A 
ATOM     76  C   UNL A   1      44.333  27.543  26.592  1.00  0.00     0.134 A 
ATOM     77  C   UNL A   1      45.971  26.219  27.728  1.00  0.00     0.134 A 
ATOM     78  F   UNL A   1      43.283  28.380  26.598  1.00  0.00    -0.206 F 
ATOM     79  C   UNL A   1      44.928  27.258  25.360  1.00  0.00     0.040 A 
ATOM     80  C   UNL A   1      46.549  25.897  26.492  1.00  0.00     0.040 A 
ATOM     81  F   UNL A   1      46.561  25.753  28.837  1.00  0.00    -0.206 F 
ATOM     82  C   UNL A   1      46.072  26.471  25.314  1.00  0.00     0.006 A 
ENDBRANCH  54  75
BRANCH  66  83
ATOM     83  C   UNL A   1      43.632  34.083  29.366  1.00  0.00     0.057 A 
ATOM     84  C   UNL A   1      43.658  34.644  28.081  1.00  0.00     0.134 A 
ATOM     85  C   UNL A   1      43.731  35.017  30.423  1.00  0.00     0.134 A 
ATOM     86  F   UNL A   1      43.438  33.907  26.984  1.00  0.00    -0.206 F 
ATOM     87  C   UNL A   1      43.851  36.014  27.859  1.00  0.00     0.040 A 
ATOM     88  C   UNL A   1      43.856  36.394  30.215  1.00  0.00     0.040 A 
ATOM     89  F   UNL A   1      43.679  34.643  31.710  1.00  0.00    -0.206 F 
ATOM     90  C   UNL A   1      43.940  36.896  28.927  1.00  0.00     0.006 A 
ENDBRANCH  66  83
ENDBRANCH  40  41
ENDBRANCH  32  35
ENDBRANCH  30  31
ENDBRANCH  29  30
ENDBRANCH  28  29
ENDBRANCH   1  28
TORSDOF 19
ENDMDL
MODEL 2
REMARK VINA RESULT:     -10.5      3.112      8.187
REMARK SMILES Cc1cccc(S(=O)(=O)N[C@@H](CCC(N)=O)C(=O)NCCCCCCNC(=O)c2ccc(-c3c4nc(c(-c5c(F)cccc5F)c5ccc([nH]5)c(-c5c(F)cccc5F)c5nc(c(-c6c(F)cccc6F)c6ccc3[nH]6)C=C5)C=C4)cc2)c1
REMARK SMILES IDX 22 1 21 2 20 3 19 4 17 5 18 6 11 8 10 9 7 11 8 12 9 13 6 14
REMARK SMILES IDX 1 15 2 16 3 17 83 18 4 19 5 20 12 21 13 22 14 23 15 24 16 25
REMARK SMILES IDX 23 28 24 29 25 30 26 31 27 32 28 34 29 35 30 36 82 37 31 38
REMARK SMILES IDX 81 39 32 40 33 41 34 42 75 43 35 44 80 45 74 46 76 47 36 48
REMARK SMILES IDX 79 49 73 50 72 51 37 53 63 54 46 55 62 56 47 57 50 58 61 59
REMARK SMILES IDX 77 60 48 61 49 62 60 64 78 65 51 66 38 67 39 68 44 69 40 70
REMARK SMILES IDX 41 71 43 72 45 73 42 74 64 75 65 76 70 77 66 78 67 79 69 80
REMARK SMILES IDX 71 81 68 82 52 83 53 84 58 85 54 86 55 87 57 88 59 89 56 90
REMARK H PARENT 19 7 10 10 15 26 15 27 26 33 76 52 50 63
REMARK Flexibility Score: inf
ROOT
ATOM      1  C   UNL A   1      32.233  28.699  25.854  1.00  0.00     0.002 C 
ENDROOT
BRANCH   1   2
ATOM      2  C   UNL A   1      31.656  27.483  26.589  1.00  0.00     0.021 C 
BRANCH   2   3
ATOM      3  C   UNL A   1      32.485  26.207  26.493  1.00  0.00     0.116 C 
BRANCH   3   4
ATOM      4  N   UNL A   1      31.689  25.001  26.371  1.00  0.00    -0.355 N 
ATOM      5  C   UNL A   1      31.124  24.414  25.269  1.00  0.00     0.238 C 
ATOM      6  O   UNL A   1      30.566  23.324  25.428  1.00  0.00    -0.273 OA
ATOM      7  H   UNL A   1      31.525  24.527  27.218  1.00  0.00     0.163 HD
BRANCH   5   8
ATOM      8  C   UNL A   1      31.062  25.130  23.901  1.00  0.00     0.159 C 
BRANCH   8   9
ATOM      9  N   UNL A   1      31.658  24.210  22.910  1.00  0.00    -0.199 NA
ATOM     10  H   UNL A   1      31.417  23.274  23.238  1.00  0.00     0.142 HD
BRANCH   9  11
ATOM     11  S   UNL A   1      33.264  24.123  22.490  1.00  0.00     0.241 S 
ATOM     12  O   UNL A   1      33.872  25.388  22.828  1.00  0.00    -0.207 OA
ATOM     13  O   UNL A   1      33.266  23.626  21.129  1.00  0.00    -0.207 OA
BRANCH  11  14
ATOM     14  C   UNL A   1      34.016  22.868  23.490  1.00  0.00     0.082 A 
ATOM     15  C   UNL A   1      37.403  21.844  24.879  1.00  0.00     0.044 C 
ATOM     16  C   UNL A   1      35.937  21.850  24.562  1.00  0.00    -0.050 A 
ATOM     17  C   UNL A   1      35.142  20.750  24.905  1.00  0.00     0.003 A 
ATOM     18  C   UNL A   1      35.351  22.937  23.899  1.00  0.00     0.025 A 
ATOM     19  C   UNL A   1      33.789  20.715  24.562  1.00  0.00     0.002 A 
ATOM     20  C   UNL A   1      33.230  21.764  23.836  1.00  0.00     0.022 A 
ENDBRANCH  11  14
ENDBRANCH   9  11
ENDBRANCH   8   9
BRANCH   8  21
ATOM     21  C   UNL A   1      29.748  25.815  23.517  1.00  0.00     0.040 C 
BRANCH  21  22
ATOM     22  C   UNL A   1      29.643  27.336  23.565  1.00  0.00     0.102 C 
BRANCH  22  23
ATOM     23  C   UNL A   1      30.321  28.016  22.390  1.00  0.00     0.217 C 
ATOM     24  N   UNL A   1      31.480  27.431  21.979  1.00  0.00    -0.370 N 
ATOM     25  O   UNL A   1      29.889  29.005  21.815  1.00  0.00    -0.275 OA
ATOM     26  H   UNL A   1      31.823  26.635  22.445  1.00  0.00     0.159 HD
ATOM     27  H   UNL A   1      31.975  27.804  21.214  1.00  0.00     0.159 HD
ENDBRANCH  22  23
ENDBRANCH  21  22
ENDBRANCH   8  21
ENDBRANCH   5   8
ENDBRANCH   3   4
ENDBRANCH   2   3
ENDBRANCH   1   2
BRANCH   1  28
ATOM     28  C   UNL A   1      31.633  30.073  26.196  1.00  0.00     0.002 C 
BRANCH  28  29
ATOM     29  C   UNL A   1      32.529  31.051  26.954  1.00  0.00     0.021 C 
BRANCH  29  30
ATOM     30  C   UNL A   1      33.994  30.667  27.003  1.00  0.00     0.116 C 
BRANCH  30  31
ATOM     31  N   UNL A   1      34.852  31.608  27.703  1.00  0.00    -0.352 N 
ATOM     32  C   UNL A   1      35.999  31.386  28.446  1.00  0.00     0.251 C 
ATOM     33  H   UNL A   1      34.573  32.549  27.640  1.00  0.00     0.163 HD
ATOM     34  O   UNL A   1      36.505  32.327  29.054  1.00  0.00    -0.269 OA
BRANCH  32  35
ATOM     35  C   UNL A   1      36.735  30.093  28.355  1.00  0.00     0.039 A 
ATOM     36  C   UNL A   1      36.680  29.260  29.483  1.00  0.00     0.014 A 
ATOM     37  C   UNL A   1      37.731  29.900  27.413  1.00  0.00     0.014 A 
ATOM     38  C   UNL A   1      37.801  28.523  29.835  1.00  0.00     0.010 A 
ATOM     39  C   UNL A   1      38.902  29.333  27.836  1.00  0.00     0.010 A 
ATOM     40  C   UNL A   1      38.949  28.712  29.084  1.00  0.00    -0.014 A 
BRANCH  40  41
ATOM     41  C   UNL A   1      40.267  28.239  29.439  1.00  0.00     0.031 A 
ATOM     42  C   UNL A   1      40.642  26.905  28.950  1.00  0.00     0.074 A 
ATOM     43  C   UNL A   1      41.144  29.138  29.937  1.00  0.00     0.049 A 
ATOM     44  N   UNL A   1      41.728  26.302  29.261  1.00  0.00    -0.248 NA
ATOM     45  C   UNL A   1      39.771  26.111  28.080  1.00  0.00     0.031 C 
ATOM     46  C   UNL A   1      42.601  29.068  29.963  1.00  0.00     0.029 A 
ATOM     47  N   UNL A   1      40.843  30.247  30.740  1.00  0.00    -0.354 N 
ATOM     48  C   UNL A   1      41.856  25.237  28.401  1.00  0.00     0.074 A 
ATOM     49  C   UNL A   1      40.561  25.071  27.802  1.00  0.00     0.031 C 
ATOM     50  C   UNL A   1      43.057  29.859  30.952  1.00  0.00     0.029 A 
ATOM     51  C   UNL A   1      41.890  30.316  31.689  1.00  0.00     0.049 A 
ATOM     52  H   UNL A   1      40.068  30.848  30.661  1.00  0.00     0.167 HD
ATOM     53  C   UNL A   1      43.106  24.744  28.193  1.00  0.00     0.037 A 
ATOM     54  C   UNL A   1      41.646  30.018  33.002  1.00  0.00     0.037 A 
ATOM     55  C   UNL A   1      44.012  25.268  29.217  1.00  0.00     0.049 A 
ATOM     56  C   UNL A   1      42.421  28.806  33.470  1.00  0.00     0.074 A 
ATOM     57  C   UNL A   1      44.957  26.278  29.211  1.00  0.00     0.029 A 
ATOM     58  N   UNL A   1      43.738  24.986  30.554  1.00  0.00    -0.354 N 
ATOM     59  N   UNL A   1      42.815  27.841  32.681  1.00  0.00    -0.248 NA
ATOM     60  C   UNL A   1      42.863  28.619  34.848  1.00  0.00     0.031 C 
ATOM     61  C   UNL A   1      45.137  26.701  30.560  1.00  0.00     0.029 A 
ATOM     62  C   UNL A   1      44.347  25.911  31.380  1.00  0.00     0.049 A 
ATOM     63  H   UNL A   1      43.188  24.233  30.867  1.00  0.00     0.167 HD
ATOM     64  C   UNL A   1      43.569  26.946  33.395  1.00  0.00     0.074 A 
ATOM     65  C   UNL A   1      43.563  27.475  34.748  1.00  0.00     0.031 C 
ATOM     66  C   UNL A   1      44.160  25.853  32.826  1.00  0.00     0.037 A 
BRANCH  53  67
ATOM     67  C   UNL A   1      43.565  23.988  26.966  1.00  0.00     0.057 A 
ATOM     68  C   UNL A   1      44.119  24.697  25.882  1.00  0.00     0.134 A 
ATOM     69  C   UNL A   1      43.377  22.612  26.715  1.00  0.00     0.134 A 
ATOM     70  F   UNL A   1      44.353  26.015  25.956  1.00  0.00    -0.206 F 
ATOM     71  C   UNL A   1      44.439  24.095  24.655  1.00  0.00     0.040 A 
ATOM     72  C   UNL A   1      43.732  21.991  25.510  1.00  0.00     0.040 A 
ATOM     73  F   UNL A   1      42.788  21.791  27.589  1.00  0.00    -0.206 F 
ATOM     74  C   UNL A   1      44.252  22.734  24.467  1.00  0.00     0.006 A 
ENDBRANCH  53  67
BRANCH  54  75
ATOM     75  C   UNL A   1      40.256  30.389  33.407  1.00  0.00     0.057 A 
ATOM     76  C   UNL A   1      39.989  31.758  33.617  1.00  0.00     0.134 A 
ATOM     77  C   UNL A   1      39.163  29.571  33.105  1.00  0.00     0.134 A 
ATOM     78  F   UNL A   1      40.988  32.595  33.939  1.00  0.00    -0.206 F 
ATOM     79  C   UNL A   1      38.739  32.317  33.339  1.00  0.00     0.040 A 
ATOM     80  C   UNL A   1      37.896  30.120  32.863  1.00  0.00     0.040 A 
ATOM     81  F   UNL A   1      39.326  28.257  32.902  1.00  0.00    -0.206 F 
ATOM     82  C   UNL A   1      37.699  31.500  32.912  1.00  0.00     0.006 A 
ENDBRANCH  54  75
BRANCH  66  83
ATOM     83  C   UNL A   1      44.705  24.666  33.585  1.00  0.00     0.057 A 
ATOM     84  C   UNL A   1      46.071  24.377  33.721  1.00  0.00     0.134 A 
ATOM     85  C   UNL A   1      43.846  23.847  34.356  1.00  0.00     0.134 A 
ATOM     86  F   UNL A   1      47.014  25.149  33.164  1.00  0.00    -0.206 F 
ATOM     87  C   UNL A   1      46.543  23.308  34.494  1.00  0.00     0.040 A 
ATOM     88  C   UNL A   1      44.312  22.821  35.183  1.00  0.00     0.040 A 
ATOM     89  F   UNL A   1      42.518  24.024  34.369  1.00  0.00    -0.206 F 
ATOM     90  C   UNL A   1      45.665  22.532  35.237  1.00  0.00     0.006 A 
ENDBRANCH  66  83
ENDBRANCH  40  41
ENDBRANCH  32  35
ENDBRANCH  30  31
ENDBRANCH  29  30
ENDBRANCH  28  29
ENDBRANCH   1  28
TORSDOF 19
ENDMDL
MODEL 3
REMARK VINA RESULT:     -10.3      2.331      4.105
REMARK SMILES Cc1cccc(S(=O)(=O)N[C@@H](CCC(N)=O)C(=O)NCCCCCCNC(=O)c2ccc(-c3c4nc(c(-c5c(F)cccc5F)c5ccc([nH]5)c(-c5c(F)cccc5F)c5nc(c(-c6c(F)cccc6F)c6ccc3[nH]6)C=C5)C=C4)cc2)c1
REMARK SMILES IDX 22 1 21 2 20 3 19 4 17 5 18 6 11 8 10 9 7 11 8 12 9 13 6 14
REMARK SMILES IDX 1 15 2 16 3 17 83 18 4 19 5 20 12 21 13 22 14 23 15 24 16 25
REMARK SMILES IDX 23 28 24 29 25 30 26 31 27 32 28 34 29 35 30 36 82 37 31 38
REMARK SMILES IDX 81 39 32 40 33 41 34 42 75 43 35 44 80 45 74 46 76 47 36 48
REMARK SMILES IDX 79 49 73 50 72 51 37 53 63 54 46 55 62 56 47 57 50 58 61 59
REMARK SMILES IDX 77 60 48 61 49 62 60 64 78 65 51 66 38 67 39 68 44 69 40 70
REMARK SMILES IDX 41 71 43 72 45 73 42 74 64 75 65 76 70 77 66 78 67 79 69 80
REMARK SMILES IDX 71 81 68 82 52 83 53 84 58 85 54 86 55 87 57 88 59 89 56 90
REMARK H PARENT 19 7 10 10 15 26 15 27 26 33 76 52 50 63
REMARK Flexibility Score: inf
ROOT
ATOM      1  C   UNL A   1      37.220  21.651  24.972  1.00  0.00     0.002 C 
ENDROOT
BRANCH   1   2
ATOM      2  C   UNL A   1      35.787  21.108  25.014  1.00  0.00     0.021 C 
BRANCH   2   3
ATOM      3  C   UNL A   1      34.708  22.071  24.529  1.00  0.00     0.116 C 
BRANCH   3   4
ATOM      4  N   UNL A   1      33.636  21.425  23.797  1.00  0.00    -0.355 N 
ATOM      5  C   UNL A   1      32.526  21.952  23.191  1.00  0.00     0.238 C 
ATOM      6  O   UNL A   1      31.810  21.182  22.544  1.00  0.00    -0.273 OA
ATOM      7  H   UNL A   1      33.719  20.446  23.723  1.00  0.00     0.163 HD
BRANCH   5   8
ATOM      8  C   UNL A   1      32.098  23.421  23.405  1.00  0.00     0.159 C 
BRANCH   8   9
ATOM      9  N   UNL A   1      32.393  24.139  22.147  1.00  0.00    -0.199 NA
ATOM     10  H   UNL A   1      32.895  23.466  21.568  1.00  0.00     0.142 HD
BRANCH   9  11
ATOM     11  S   UNL A   1      33.246  25.559  22.001  1.00  0.00     0.241 S 
ATOM     12  O   UNL A   1      33.277  25.906  20.599  1.00  0.00    -0.207 OA
ATOM     13  O   UNL A   1      34.466  25.340  22.750  1.00  0.00    -0.207 OA
BRANCH  11  14
ATOM     14  C   UNL A   1      32.343  26.821  22.858  1.00  0.00     0.082 A 
ATOM     15  C   UNL A   1      29.005  28.637  22.759  1.00  0.00     0.044 C 
ATOM     16  C   UNL A   1      30.386  28.217  23.168  1.00  0.00    -0.050 A 
ATOM     17  C   UNL A   1      31.081  28.946  24.142  1.00  0.00     0.003 A 
ATOM     18  C   UNL A   1      31.008  27.115  22.566  1.00  0.00     0.025 A 
ATOM     19  C   UNL A   1      32.389  28.603  24.487  1.00  0.00     0.002 A 
ATOM     20  C   UNL A   1      33.029  27.554  23.831  1.00  0.00     0.022 A 
ENDBRANCH  11  14
ENDBRANCH   9  11
ENDBRANCH   8   9
BRANCH   8  21
ATOM     21  C   UNL A   1      30.734  23.677  24.051  1.00  0.00     0.040 C 
BRANCH  21  22
ATOM     22  C   UNL A   1      30.653  24.429  25.376  1.00  0.00     0.102 C 
BRANCH  22  23
ATOM     23  C   UNL A   1      30.727  23.516  26.585  1.00  0.00     0.217 C 
ATOM     24  N   UNL A   1      29.870  22.457  26.556  1.00  0.00    -0.370 N 
ATOM     25  O   UNL A   1      31.491  23.668  27.527  1.00  0.00    -0.275 OA
ATOM     26  H   UNL A   1      29.258  22.338  25.795  1.00  0.00     0.159 HD
ATOM     27  H   UNL A   1      29.864  21.809  27.298  1.00  0.00     0.159 HD
ENDBRANCH  22  23
ENDBRANCH  21  22
ENDBRANCH   8  21
ENDBRANCH   5   8
ENDBRANCH   3   4
ENDBRANCH   2   3
ENDBRANCH   1   2
BRANCH   1  28
ATOM     28  C   UNL A   1      37.415  23.141  25.296  1.00  0.00     0.002 C 
BRANCH  28  29
ATOM     29  C   UNL A   1      38.242  23.480  26.533  1.00  0.00     0.021 C 
BRANCH  29  30
ATOM     30  C   UNL A   1      39.742  23.475  26.318  1.00  0.00     0.116 C 
BRANCH  30  31
ATOM     31  N   UNL A   1      40.325  22.164  26.087  1.00  0.00    -0.352 N 
ATOM     32  C   UNL A   1      41.647  21.755  26.131  1.00  0.00     0.251 C 
ATOM     33  H   UNL A   1      39.679  21.457  25.863  1.00  0.00     0.163 HD
ATOM     34  O   UNL A   1      41.927  20.610  25.783  1.00  0.00    -0.269 OA
BRANCH  32  35
ATOM     35  C   UNL A   1      42.690  22.599  26.779  1.00  0.00     0.039 A 
ATOM     36  C   UNL A   1      42.693  22.626  28.182  1.00  0.00     0.014 A 
ATOM     37  C   UNL A   1      43.340  23.601  26.077  1.00  0.00     0.014 A 
ATOM     38  C   UNL A   1      43.004  23.809  28.836  1.00  0.00     0.010 A 
ATOM     39  C   UNL A   1      43.468  24.820  26.685  1.00  0.00     0.010 A 
ATOM     40  C   UNL A   1      43.223  24.930  28.053  1.00  0.00    -0.014 A 
BRANCH  40  41
ATOM     41  C   UNL A   1      43.307  26.287  28.543  1.00  0.00     0.031 A 
ATOM     42  C   UNL A   1      42.053  27.053  28.578  1.00  0.00     0.074 A 
ATOM     43  C   UNL A   1      44.438  26.655  29.182  1.00  0.00     0.049 A 
ATOM     44  N   UNL A   1      41.974  28.293  28.887  1.00  0.00    -0.248 NA
ATOM     45  C   UNL A   1      40.760  26.467  28.215  1.00  0.00     0.031 C 
ATOM     46  C   UNL A   1      44.633  27.748  30.128  1.00  0.00     0.029 A 
ATOM     47  N   UNL A   1      45.738  26.202  28.913  1.00  0.00    -0.354 N 
ATOM     48  C   UNL A   1      40.644  28.574  29.090  1.00  0.00     0.074 A 
ATOM     49  C   UNL A   1      39.929  27.467  28.517  1.00  0.00     0.031 C 
ATOM     50  C   UNL A   1      45.935  28.091  30.134  1.00  0.00     0.029 A 
ATOM     51  C   UNL A   1      46.567  27.339  29.063  1.00  0.00     0.049 A 
ATOM     52  H   UNL A   1      46.014  25.289  28.671  1.00  0.00     0.167 HD
ATOM     53  C   UNL A   1      40.339  29.640  29.875  1.00  0.00     0.037 A 
ATOM     54  C   UNL A   1      47.153  27.910  27.965  1.00  0.00     0.037 A 
ATOM     55  C   UNL A   1      41.535  30.465  30.061  1.00  0.00     0.049 A 
ATOM     56  C   UNL A   1      46.671  29.323  27.727  1.00  0.00     0.074 A 
ATOM     57  C   UNL A   1      42.436  30.598  31.102  1.00  0.00     0.029 A 
ATOM     58  N   UNL A   1      42.144  31.016  28.935  1.00  0.00    -0.354 N 
ATOM     59  N   UNL A   1      45.503  29.771  28.106  1.00  0.00    -0.248 NA
ATOM     60  C   UNL A   1      47.491  30.355  27.099  1.00  0.00     0.031 C 
ATOM     61  C   UNL A   1      43.650  31.102  30.553  1.00  0.00     0.029 A 
ATOM     62  C   UNL A   1      43.464  31.325  29.198  1.00  0.00     0.049 A 
ATOM     63  H   UNL A   1      41.695  31.165  28.072  1.00  0.00     0.167 HD
ATOM     64  C   UNL A   1      45.415  31.110  27.825  1.00  0.00     0.074 A 
ATOM     65  C   UNL A   1      46.682  31.426  27.188  1.00  0.00     0.031 C 
ATOM     66  C   UNL A   1      44.323  31.866  28.151  1.00  0.00     0.037 A 
BRANCH  53  67
ATOM     67  C   UNL A   1      39.055  29.828  30.652  1.00  0.00     0.057 A 
ATOM     68  C   UNL A   1      38.328  31.027  30.512  1.00  0.00     0.134 A 
ATOM     69  C   UNL A   1      38.545  28.960  31.641  1.00  0.00     0.134 A 
ATOM     70  F   UNL A   1      38.689  31.962  29.622  1.00  0.00    -0.206 F 
ATOM     71  C   UNL A   1      37.208  31.340  31.298  1.00  0.00     0.040 A 
ATOM     72  C   UNL A   1      37.401  29.242  32.402  1.00  0.00     0.040 A 
ATOM     73  F   UNL A   1      39.143  27.814  31.977  1.00  0.00    -0.206 F 
ATOM     74  C   UNL A   1      36.735  30.444  32.243  1.00  0.00     0.006 A 
ENDBRANCH  53  67
BRANCH  54  75
ATOM     75  C   UNL A   1      47.472  26.895  26.916  1.00  0.00     0.057 A 
ATOM     76  C   UNL A   1      46.661  26.883  25.762  1.00  0.00     0.134 A 
ATOM     77  C   UNL A   1      48.751  26.345  26.794  1.00  0.00     0.134 A 
ATOM     78  F   UNL A   1      45.410  27.368  25.815  1.00  0.00    -0.206 F 
ATOM     79  C   UNL A   1      47.167  26.533  24.507  1.00  0.00     0.040 A 
ATOM     80  C   UNL A   1      49.254  25.954  25.545  1.00  0.00     0.040 A 
ATOM     81  F   UNL A   1      49.583  26.305  27.845  1.00  0.00    -0.206 F 
ATOM     82  C   UNL A   1      48.487  26.113  24.391  1.00  0.00     0.006 A 
ENDBRANCH  54  75
BRANCH  66  83
ATOM     83  C   UNL A   1      44.012  33.232  27.585  1.00  0.00     0.057 A 
ATOM     84  C   UNL A   1      43.783  33.488  26.225  1.00  0.00     0.134 A 
ATOM     85  C   UNL A   1      43.772  34.331  28.443  1.00  0.00     0.134 A 
ATOM     86  F   UNL A   1      43.835  32.515  25.305  1.00  0.00    -0.206 F 
ATOM     87  C   UNL A   1      43.425  34.755  25.745  1.00  0.00     0.040 A 
ATOM     88  C   UNL A   1      43.349  35.581  27.982  1.00  0.00     0.040 A 
ATOM     89  F   UNL A   1      43.904  34.235  29.774  1.00  0.00    -0.206 F 
ATOM     90  C   UNL A   1      43.197  35.804  26.624  1.00  0.00     0.006 A 
ENDBRANCH  66  83
ENDBRANCH  40  41
ENDBRANCH  32  35
ENDBRANCH  30  31
ENDBRANCH  29  30
ENDBRANCH  28  29
ENDBRANCH   1  28
TORSDOF 19
ENDMDL
