MODEL 1
REMARK VINA RESULT:     -12.5      0.000      0.000
REMARK SMILES Cc1cccc(O[C@H](C)C(=O)NNC(=O)[C@H]2[C@@H]3CC[C@@H](C3)[C@@H]2C(=O)NCCCCCCNC(=O)c2ccc(-c3c4nc(c(-c5c(F)cccc5F)c5ccc([nH]5)c(-c5c(F)cccc5F)c5nc(c(-c6c(F)cccc6F)c6ccc3[nH]6)C=C5)C=C4)cc2)c1
REMARK SMILES IDX 27 1 26 2 25 3 23 4 24 5 22 7 16 8 17 9 18 10 21 11 20 12
REMARK SMILES IDX 19 13 14 14 13 15 15 17 12 18 10 19 11 20 8 22 9 23 7 24
REMARK SMILES IDX 6 25 1 26 2 27 3 28 89 29 4 30 5 31 28 32 29 33 30 34 31 35
REMARK SMILES IDX 32 36 33 37 34 39 35 40 36 41 88 42 37 43 87 44 38 45 39 46
REMARK SMILES IDX 40 47 81 48 41 49 86 50 80 51 82 52 42 53 85 54 79 55 78 56
REMARK SMILES IDX 43 58 69 59 52 60 68 61 53 62 56 63 67 64 83 65 54 66 55 67
REMARK SMILES IDX 66 69 84 70 57 71 44 72 45 73 50 74 46 75 47 76 49 77 51 78
REMARK SMILES IDX 48 79 70 80 71 81 76 82 72 83 73 84 75 85 77 86 74 87 58 88
REMARK SMILES IDX 59 89 64 90 60 91 61 92 63 93 65 94 62 95
REMARK H PARENT 25 6 13 16 12 21 32 38 82 57 56 68
REMARK Flexibility Score: inf
ROOT
ATOM      1  C   UNL A   1      33.608  28.615  27.388  1.00  0.00     0.021 C 
ENDROOT
BRANCH   1   2
ATOM      2  C   UNL A   1      33.955  27.693  26.219  1.00  0.00     0.116 C 
BRANCH   2   3
ATOM      3  N   UNL A   1      34.213  28.426  24.994  1.00  0.00    -0.356 N 
ATOM      4  C   UNL A   1      33.588  28.330  23.783  1.00  0.00     0.224 C 
ATOM      5  O   UNL A   1      33.957  29.054  22.862  1.00  0.00    -0.275 OA
ATOM      6  H   UNL A   1      34.942  29.086  25.042  1.00  0.00     0.163 HD
BRANCH   4   7
ATOM      7  C   UNL A   1      32.450  27.332  23.655  1.00  0.00     0.094 C 
ATOM      8  C   UNL A   1      31.995  27.038  22.221  1.00  0.00     0.096 C 
ATOM      9  C   UNL A   1      30.460  27.239  22.285  1.00  0.00     0.002 C 
ATOM     10  C   UNL A   1      30.190  28.758  22.330  1.00  0.00     0.005 C 
ATOM     11  C   UNL A   1      30.097  26.862  23.719  1.00  0.00     0.009 C 
ATOM     12  C   UNL A   1      31.137  27.803  24.334  1.00  0.00     0.002 C 
ATOM     13  C   UNL A   1      30.659  29.146  23.743  1.00  0.00     0.005 C 
BRANCH   8  14
ATOM     14  C   UNL A   1      32.435  25.716  21.593  1.00  0.00     0.242 C 
ATOM     15  N   UNL A   1      32.148  24.468  22.065  1.00  0.00    -0.267 N 
ATOM     16  H   UNL A   1      32.584  23.729  21.584  1.00  0.00     0.191 HD
ATOM     17  O   UNL A   1      33.087  25.760  20.540  1.00  0.00    -0.273 OA
BRANCH  15  18
ATOM     18  N   UNL A   1      31.341  24.090  23.109  1.00  0.00    -0.264 N 
ATOM     19  C   UNL A   1      31.679  23.842  24.402  1.00  0.00     0.279 C 
ATOM     20  O   UNL A   1      30.714  23.756  25.182  1.00  0.00    -0.269 OA
ATOM     21  H   UNL A   1      30.387  23.983  22.892  1.00  0.00     0.191 HD
BRANCH  19  22
ATOM     22  C   UNL A   1      33.110  23.551  24.938  1.00  0.00     0.260 C 
ATOM     23  C   UNL A   1      33.048  22.884  26.318  1.00  0.00     0.064 C 
BRANCH  22  24
ATOM     24  O   UNL A   1      34.256  23.261  24.170  1.00  0.00    -0.481 OA
BRANCH  24  25
ATOM     25  C   UNL A   1      35.507  23.060  24.648  1.00  0.00     0.120 A 
ATOM     26  C   UNL A   1      37.664  19.915  24.820  1.00  0.00     0.044 C 
ATOM     27  C   UNL A   1      37.199  21.332  24.982  1.00  0.00    -0.047 A 
ATOM     28  C   UNL A   1      37.980  22.250  25.686  1.00  0.00     0.003 A 
ATOM     29  C   UNL A   1      35.969  21.750  24.462  1.00  0.00     0.049 A 
ATOM     30  C   UNL A   1      37.549  23.566  25.836  1.00  0.00     0.004 A 
ATOM     31  C   UNL A   1      36.323  23.976  25.303  1.00  0.00     0.046 A 
ENDBRANCH  24  25
ENDBRANCH  22  24
ENDBRANCH  19  22
ENDBRANCH  15  18
ENDBRANCH   8  14
ENDBRANCH   4   7
ENDBRANCH   2   3
ENDBRANCH   1   2
BRANCH   1  32
ATOM     32  C   UNL A   1      32.251  29.326  27.284  1.00  0.00     0.002 C 
BRANCH  32  33
ATOM     33  C   UNL A   1      32.267  30.741  26.684  1.00  0.00     0.002 C 
BRANCH  33  34
ATOM     34  C   UNL A   1      32.816  31.847  27.587  1.00  0.00     0.021 C 
BRANCH  34  35
ATOM     35  C   UNL A   1      34.317  31.781  27.819  1.00  0.00     0.116 C 
BRANCH  35  36
ATOM     36  N   UNL A   1      34.724  32.203  29.151  1.00  0.00    -0.352 N 
ATOM     37  C   UNL A   1      35.651  31.637  30.017  1.00  0.00     0.251 C 
ATOM     38  H   UNL A   1      34.275  33.011  29.490  1.00  0.00     0.163 HD
ATOM     39  O   UNL A   1      35.844  32.118  31.106  1.00  0.00    -0.269 OA
BRANCH  37  40
ATOM     40  C   UNL A   1      36.505  30.523  29.523  1.00  0.00     0.039 A 
ATOM     41  C   UNL A   1      36.663  29.418  30.366  1.00  0.00     0.014 A 
ATOM     42  C   UNL A   1      37.306  30.661  28.392  1.00  0.00     0.014 A 
ATOM     43  C   UNL A   1      37.790  28.613  30.230  1.00  0.00     0.010 A 
ATOM     44  C   UNL A   1      38.474  29.931  28.314  1.00  0.00     0.010 A 
ATOM     45  C   UNL A   1      38.751  28.962  29.284  1.00  0.00    -0.014 A 
BRANCH  45  46
ATOM     46  C   UNL A   1      40.128  28.487  29.349  1.00  0.00     0.031 A 
ATOM     47  C   UNL A   1      40.518  27.194  28.754  1.00  0.00     0.074 A 
ATOM     48  C   UNL A   1      41.070  29.294  29.887  1.00  0.00     0.049 A 
ATOM     49  N   UNL A   1      41.557  26.515  29.110  1.00  0.00    -0.248 NA
ATOM     50  C   UNL A   1      39.731  26.540  27.717  1.00  0.00     0.031 C 
ATOM     51  C   UNL A   1      42.520  29.151  29.796  1.00  0.00     0.029 A 
ATOM     52  N   UNL A   1      40.879  30.326  30.818  1.00  0.00    -0.354 N 
ATOM     53  C   UNL A   1      41.735  25.506  28.190  1.00  0.00     0.074 A 
ATOM     54  C   UNL A   1      40.535  25.527  27.384  1.00  0.00     0.031 C 
ATOM     55  C   UNL A   1      43.085  29.829  30.806  1.00  0.00     0.029 A 
ATOM     56  C   UNL A   1      42.012  30.309  31.659  1.00  0.00     0.049 A 
ATOM     57  H   UNL A   1      40.109  30.938  30.874  1.00  0.00     0.167 HD
ATOM     58  C   UNL A   1      42.937  24.861  28.126  1.00  0.00     0.037 A 
ATOM     59  C   UNL A   1      41.903  30.048  32.994  1.00  0.00     0.037 A 
ATOM     60  C   UNL A   1      43.848  25.333  29.167  1.00  0.00     0.049 A 
ATOM     61  C   UNL A   1      42.670  28.829  33.450  1.00  0.00     0.074 A 
ATOM     62  C   UNL A   1      44.875  26.264  29.157  1.00  0.00     0.029 A 
ATOM     63  N   UNL A   1      43.570  25.071  30.503  1.00  0.00    -0.354 N 
ATOM     64  N   UNL A   1      43.118  27.910  32.642  1.00  0.00    -0.248 NA
ATOM     65  C   UNL A   1      42.963  28.530  34.850  1.00  0.00     0.031 C 
ATOM     66  C   UNL A   1      45.176  26.605  30.497  1.00  0.00     0.029 A 
ATOM     67  C   UNL A   1      44.346  25.868  31.323  1.00  0.00     0.049 A 
ATOM     68  H   UNL A   1      42.912  24.411  30.821  1.00  0.00     0.167 HD
ATOM     69  C   UNL A   1      43.711  26.910  33.367  1.00  0.00     0.074 A 
ATOM     70  C   UNL A   1      43.611  27.356  34.744  1.00  0.00     0.031 C 
ATOM     71  C   UNL A   1      44.221  25.793  32.770  1.00  0.00     0.037 A 
BRANCH  58  72
ATOM     72  C   UNL A   1      43.385  24.047  26.929  1.00  0.00     0.057 A 
ATOM     73  C   UNL A   1      43.322  22.638  26.944  1.00  0.00     0.134 A 
ATOM     74  C   UNL A   1      43.949  24.584  25.760  1.00  0.00     0.134 A 
ATOM     75  F   UNL A   1      42.693  21.968  27.918  1.00  0.00    -0.206 F 
ATOM     76  C   UNL A   1      43.902  21.836  25.952  1.00  0.00     0.040 A 
ATOM     77  C   UNL A   1      44.581  23.796  24.786  1.00  0.00     0.040 A 
ATOM     78  F   UNL A   1      43.861  25.889  25.477  1.00  0.00    -0.206 F 
ATOM     79  C   UNL A   1      44.578  22.413  24.890  1.00  0.00     0.006 A 
ENDBRANCH  58  72
BRANCH  59  80
ATOM     80  C   UNL A   1      40.633  30.531  33.591  1.00  0.00     0.057 A 
ATOM     81  C   UNL A   1      40.528  31.888  33.938  1.00  0.00     0.134 A 
ATOM     82  C   UNL A   1      39.441  29.810  33.472  1.00  0.00     0.134 A 
ATOM     83  F   UNL A   1      41.636  32.638  34.066  1.00  0.00    -0.206 F 
ATOM     84  C   UNL A   1      39.292  32.529  34.057  1.00  0.00     0.040 A 
ATOM     85  C   UNL A   1      38.196  30.439  33.596  1.00  0.00     0.040 A 
ATOM     86  F   UNL A   1      39.459  28.517  33.119  1.00  0.00    -0.206 F 
ATOM     87  C   UNL A   1      38.120  31.807  33.852  1.00  0.00     0.006 A 
ENDBRANCH  59  80
BRANCH  71  88
ATOM     88  C   UNL A   1      44.719  24.561  33.476  1.00  0.00     0.057 A 
ATOM     89  C   UNL A   1      46.071  24.214  33.593  1.00  0.00     0.134 A 
ATOM     90  C   UNL A   1      43.823  23.751  34.210  1.00  0.00     0.134 A 
ATOM     91  F   UNL A   1      47.035  24.955  33.029  1.00  0.00    -0.206 F 
ATOM     92  C   UNL A   1      46.501  23.114  34.349  1.00  0.00     0.040 A 
ATOM     93  C   UNL A   1      44.244  22.683  35.007  1.00  0.00     0.040 A 
ATOM     94  F   UNL A   1      42.501  23.978  34.201  1.00  0.00    -0.206 F 
ATOM     95  C   UNL A   1      45.589  22.352  35.069  1.00  0.00     0.006 A 
ENDBRANCH  71  88
ENDBRANCH  45  46
ENDBRANCH  37  40
ENDBRANCH  35  36
ENDBRANCH  34  35
ENDBRANCH  33  34
ENDBRANCH  32  33
ENDBRANCH   1  32
TORSDOF 18
ENDMDL
MODEL 2
REMARK VINA RESULT:     -12.3      1.435      3.567
REMARK SMILES Cc1cccc(O[C@H](C)C(=O)NNC(=O)[C@H]2[C@@H]3CC[C@@H](C3)[C@@H]2C(=O)NCCCCCCNC(=O)c2ccc(-c3c4nc(c(-c5c(F)cccc5F)c5ccc([nH]5)c(-c5c(F)cccc5F)c5nc(c(-c6c(F)cccc6F)c6ccc3[nH]6)C=C5)C=C4)cc2)c1
REMARK SMILES IDX 27 1 26 2 25 3 23 4 24 5 22 7 16 8 17 9 18 10 21 11 20 12
REMARK SMILES IDX 19 13 14 14 13 15 15 17 12 18 10 19 11 20 8 22 9 23 7 24
REMARK SMILES IDX 6 25 1 26 2 27 3 28 89 29 4 30 5 31 28 32 29 33 30 34 31 35
REMARK SMILES IDX 32 36 33 37 34 39 35 40 36 41 88 42 37 43 87 44 38 45 39 46
REMARK SMILES IDX 40 47 81 48 41 49 86 50 80 51 82 52 42 53 85 54 79 55 78 56
REMARK SMILES IDX 43 58 69 59 52 60 68 61 53 62 56 63 67 64 83 65 54 66 55 67
REMARK SMILES IDX 66 69 84 70 57 71 44 72 45 73 50 74 46 75 47 76 49 77 51 78
REMARK SMILES IDX 48 79 70 80 71 81 76 82 72 83 73 84 75 85 77 86 74 87 58 88
REMARK SMILES IDX 59 89 64 90 60 91 61 92 63 93 65 94 62 95
REMARK H PARENT 25 6 13 16 12 21 32 38 82 57 56 68
REMARK Flexibility Score: inf
ROOT
ATOM      1  C   UNL A   1      33.781  28.064  24.975  1.00  0.00     0.021 C 
ENDROOT
BRANCH   1   2
ATOM      2  C   UNL A   1      34.033  26.575  24.741  1.00  0.00     0.116 C 
BRANCH   2   3
ATOM      3  N   UNL A   1      33.852  25.787  25.947  1.00  0.00    -0.356 N 
ATOM      4  C   UNL A   1      33.933  24.434  26.114  1.00  0.00     0.224 C 
ATOM      5  O   UNL A   1      33.751  23.960  27.232  1.00  0.00    -0.275 OA
ATOM      6  H   UNL A   1      33.640  26.302  26.759  1.00  0.00     0.163 HD
BRANCH   4   7
ATOM      7  C   UNL A   1      34.265  23.593  24.893  1.00  0.00     0.094 C 
ATOM      8  C   UNL A   1      34.234  22.076  25.117  1.00  0.00     0.096 C 
ATOM      9  C   UNL A   1      35.598  21.605  24.552  1.00  0.00     0.002 C 
ATOM     10  C   UNL A   1      36.685  21.989  25.578  1.00  0.00     0.005 C 
ATOM     11  C   UNL A   1      35.909  22.611  23.446  1.00  0.00     0.009 C 
ATOM     12  C   UNL A   1      35.702  23.824  24.357  1.00  0.00     0.002 C 
ATOM     13  C   UNL A   1      36.755  23.521  25.444  1.00  0.00     0.005 C 
BRANCH   8  14
ATOM     14  C   UNL A   1      33.028  21.305  24.583  1.00  0.00     0.242 C 
ATOM     15  N   UNL A   1      31.811  21.194  25.192  1.00  0.00    -0.267 N 
ATOM     16  H   UNL A   1      31.176  20.587  24.749  1.00  0.00     0.191 HD
ATOM     17  O   UNL A   1      33.134  20.748  23.482  1.00  0.00    -0.273 OA
BRANCH  15  18
ATOM     18  N   UNL A   1      31.342  21.803  26.329  1.00  0.00    -0.264 N 
ATOM     19  C   UNL A   1      30.551  22.903  26.445  1.00  0.00     0.279 C 
ATOM     20  O   UNL A   1      30.082  23.086  27.582  1.00  0.00    -0.269 OA
ATOM     21  H   UNL A   1      31.614  21.385  27.178  1.00  0.00     0.191 HD
BRANCH  19  22
ATOM     22  C   UNL A   1      30.297  23.970  25.342  1.00  0.00     0.260 C 
ATOM     23  C   UNL A   1      30.436  25.387  25.914  1.00  0.00     0.064 C 
BRANCH  22  24
ATOM     24  O   UNL A   1      30.562  23.840  23.964  1.00  0.00    -0.481 OA
BRANCH  24  25
ATOM     25  C   UNL A   1      31.203  24.743  23.186  1.00  0.00     0.120 A 
ATOM     26  C   UNL A   1      30.466  28.418  22.458  1.00  0.00     0.044 C 
ATOM     27  C   UNL A   1      31.107  27.062  22.426  1.00  0.00    -0.047 A 
ATOM     28  C   UNL A   1      32.166  26.807  21.554  1.00  0.00     0.003 A 
ATOM     29  C   UNL A   1      30.639  26.025  23.242  1.00  0.00     0.049 A 
ATOM     30  C   UNL A   1      32.763  25.549  21.525  1.00  0.00     0.004 A 
ATOM     31  C   UNL A   1      32.294  24.523  22.351  1.00  0.00     0.046 A 
ENDBRANCH  24  25
ENDBRANCH  22  24
ENDBRANCH  19  22
ENDBRANCH  15  18
ENDBRANCH   8  14
ENDBRANCH   4   7
ENDBRANCH   2   3
ENDBRANCH   1   2
BRANCH   1  32
ATOM     32  C   UNL A   1      32.600  28.394  25.899  1.00  0.00     0.002 C 
BRANCH  32  33
ATOM     33  C   UNL A   1      32.093  29.844  25.866  1.00  0.00     0.002 C 
BRANCH  33  34
ATOM     34  C   UNL A   1      32.664  30.780  26.933  1.00  0.00     0.021 C 
BRANCH  34  35
ATOM     35  C   UNL A   1      33.893  30.241  27.647  1.00  0.00     0.116 C 
BRANCH  35  36
ATOM     36  N   UNL A   1      34.567  31.226  28.480  1.00  0.00    -0.352 N 
ATOM     37  C   UNL A   1      35.789  31.146  29.138  1.00  0.00     0.251 C 
ATOM     38  H   UNL A   1      34.085  32.077  28.596  1.00  0.00     0.163 HD
ATOM     39  O   UNL A   1      36.183  32.066  29.811  1.00  0.00    -0.269 OA
BRANCH  37  40
ATOM     40  C   UNL A   1      36.667  29.973  28.876  1.00  0.00     0.039 A 
ATOM     41  C   UNL A   1      36.900  29.100  29.944  1.00  0.00     0.014 A 
ATOM     42  C   UNL A   1      37.418  29.867  27.708  1.00  0.00     0.014 A 
ATOM     43  C   UNL A   1      38.052  28.320  29.947  1.00  0.00     0.010 A 
ATOM     44  C   UNL A   1      38.610  29.174  27.748  1.00  0.00     0.010 A 
ATOM     45  C   UNL A   1      38.962  28.466  28.903  1.00  0.00    -0.014 A 
BRANCH  45  46
ATOM     46  C   UNL A   1      40.358  28.060  29.013  1.00  0.00     0.031 A 
ATOM     47  C   UNL A   1      40.829  26.784  28.440  1.00  0.00     0.074 A 
ATOM     48  C   UNL A   1      41.242  28.917  29.572  1.00  0.00     0.049 A 
ATOM     49  N   UNL A   1      41.889  26.159  28.832  1.00  0.00    -0.248 NA
ATOM     50  C   UNL A   1      40.106  26.085  27.386  1.00  0.00     0.031 C 
ATOM     51  C   UNL A   1      42.699  28.844  29.525  1.00  0.00     0.029 A 
ATOM     52  N   UNL A   1      40.973  29.944  30.488  1.00  0.00    -0.354 N 
ATOM     53  C   UNL A   1      42.144  25.154  27.927  1.00  0.00     0.074 A 
ATOM     54  C   UNL A   1      40.969  25.110  27.085  1.00  0.00     0.031 C 
ATOM     55  C   UNL A   1      43.200  29.557  30.545  1.00  0.00     0.029 A 
ATOM     56  C   UNL A   1      42.079  29.989  31.362  1.00  0.00     0.049 A 
ATOM     57  H   UNL A   1      40.173  30.518  30.516  1.00  0.00     0.167 HD
ATOM     58  C   UNL A   1      43.378  24.570  27.904  1.00  0.00     0.037 A 
ATOM     59  C   UNL A   1      41.943  29.732  32.696  1.00  0.00     0.037 A 
ATOM     60  C   UNL A   1      44.233  25.093  28.967  1.00  0.00     0.049 A 
ATOM     61  C   UNL A   1      42.756  28.556  33.184  1.00  0.00     0.074 A 
ATOM     62  C   UNL A   1      45.212  26.074  28.980  1.00  0.00     0.029 A 
ATOM     63  N   UNL A   1      43.927  24.827  30.296  1.00  0.00    -0.354 N 
ATOM     64  N   UNL A   1      43.273  27.654  32.398  1.00  0.00    -0.248 NA
ATOM     65  C   UNL A   1      43.021  28.281  34.595  1.00  0.00     0.031 C 
ATOM     66  C   UNL A   1      45.455  26.438  30.326  1.00  0.00     0.029 A 
ATOM     67  C   UNL A   1      44.639  25.666  31.132  1.00  0.00     0.049 A 
ATOM     68  H   UNL A   1      43.294  24.137  30.600  1.00  0.00     0.167 HD
ATOM     69  C   UNL A   1      43.892  26.690  33.148  1.00  0.00     0.074 A 
ATOM     70  C   UNL A   1      43.729  27.139  34.517  1.00  0.00     0.031 C 
ATOM     71  C   UNL A   1      44.474  25.596  32.575  1.00  0.00     0.037 A 
BRANCH  58  72
ATOM     72  C   UNL A   1      43.900  23.771  26.727  1.00  0.00     0.057 A 
ATOM     73  C   UNL A   1      44.676  24.383  25.721  1.00  0.00     0.134 A 
ATOM     74  C   UNL A   1      43.622  22.414  26.490  1.00  0.00     0.134 A 
ATOM     75  F   UNL A   1      45.147  25.630  25.850  1.00  0.00    -0.206 F 
ATOM     76  C   UNL A   1      45.015  23.743  24.520  1.00  0.00     0.040 A 
ATOM     77  C   UNL A   1      43.906  21.777  25.273  1.00  0.00     0.040 A 
ATOM     78  F   UNL A   1      43.115  21.628  27.448  1.00  0.00    -0.206 F 
ATOM     79  C   UNL A   1      44.589  22.450  24.271  1.00  0.00     0.006 A 
ENDBRANCH  58  72
BRANCH  59  80
ATOM     80  C   UNL A   1      40.634  30.156  33.250  1.00  0.00     0.057 A 
ATOM     81  C   UNL A   1      40.420  31.522  33.496  1.00  0.00     0.134 A 
ATOM     82  C   UNL A   1      39.504  29.336  33.181  1.00  0.00     0.134 A 
ATOM     83  F   UNL A   1      41.464  32.364  33.572  1.00  0.00    -0.206 F 
ATOM     84  C   UNL A   1      39.137  32.070  33.563  1.00  0.00     0.040 A 
ATOM     85  C   UNL A   1      38.212  29.872  33.254  1.00  0.00     0.040 A 
ATOM     86  F   UNL A   1      39.626  28.027  32.924  1.00  0.00    -0.206 F 
ATOM     87  C   UNL A   1      38.027  31.246  33.407  1.00  0.00     0.006 A 
ENDBRANCH  59  80
BRANCH  71  88
ATOM     88  C   UNL A   1      45.010  24.394  33.306  1.00  0.00     0.057 A 
ATOM     89  C   UNL A   1      46.220  24.379  34.013  1.00  0.00     0.134 A 
ATOM     90  C   UNL A   1      44.217  23.233  33.445  1.00  0.00     0.134 A 
ATOM     91  F   UNL A   1      47.023  25.452  34.048  1.00  0.00    -0.206 F 
ATOM     92  C   UNL A   1      46.634  23.273  34.768  1.00  0.00     0.040 A 
ATOM     93  C   UNL A   1      44.596  22.145  34.235  1.00  0.00     0.040 A 
ATOM     94  F   UNL A   1      43.028  23.117  32.836  1.00  0.00    -0.206 F 
ATOM     95  C   UNL A   1      45.816  22.156  34.892  1.00  0.00     0.006 A 
ENDBRANCH  71  88
ENDBRANCH  45  46
ENDBRANCH  37  40
ENDBRANCH  35  36
ENDBRANCH  34  35
ENDBRANCH  33  34
ENDBRANCH  32  33
ENDBRANCH   1  32
TORSDOF 18
ENDMDL
MODEL 3
REMARK VINA RESULT:     -12.3      3.087      7.962
REMARK SMILES Cc1cccc(O[C@H](C)C(=O)NNC(=O)[C@H]2[C@@H]3CC[C@@H](C3)[C@@H]2C(=O)NCCCCCCNC(=O)c2ccc(-c3c4nc(c(-c5c(F)cccc5F)c5ccc([nH]5)c(-c5c(F)cccc5F)c5nc(c(-c6c(F)cccc6F)c6ccc3[nH]6)C=C5)C=C4)cc2)c1
REMARK SMILES IDX 27 1 26 2 25 3 23 4 24 5 22 7 16 8 17 9 18 10 21 11 20 12
REMARK SMILES IDX 19 13 14 14 13 15 15 17 12 18 10 19 11 20 8 22 9 23 7 24
REMARK SMILES IDX 6 25 1 26 2 27 3 28 89 29 4 30 5 31 28 32 29 33 30 34 31 35
REMARK SMILES IDX 32 36 33 37 34 39 35 40 36 41 88 42 37 43 87 44 38 45 39 46
REMARK SMILES IDX 40 47 81 48 41 49 86 50 80 51 82 52 42 53 85 54 79 55 78 56
REMARK SMILES IDX 43 58 69 59 52 60 68 61 53 62 56 63 67 64 83 65 54 66 55 67
REMARK SMILES IDX 66 69 84 70 57 71 44 72 45 73 50 74 46 75 47 76 49 77 51 78
REMARK SMILES IDX 48 79 70 80 71 81 76 82 72 83 73 84 75 85 77 86 74 87 58 88
REMARK SMILES IDX 59 89 64 90 60 91 61 92 63 93 65 94 62 95
REMARK H PARENT 25 6 13 16 12 21 32 38 82 57 56 68
REMARK Flexibility Score: inf
ROOT
ATOM      1  C   UNL A   1      36.190  23.487  25.099  1.00  0.00     0.021 C 
ENDROOT
BRANCH   1   2
ATOM      2  C   UNL A   1      35.064  24.481  25.385  1.00  0.00     0.116 C 
BRANCH   2   3
ATOM      3  N   UNL A   1      34.636  25.189  24.193  1.00  0.00    -0.356 N 
ATOM      4  C   UNL A   1      33.589  26.052  24.032  1.00  0.00     0.224 C 
ATOM      5  O   UNL A   1      33.398  26.558  22.929  1.00  0.00    -0.275 OA
ATOM      6  H   UNL A   1      35.176  25.024  23.387  1.00  0.00     0.163 HD
BRANCH   4   7
ATOM      7  C   UNL A   1      32.727  26.348  25.247  1.00  0.00     0.094 C 
ATOM      8  C   UNL A   1      31.411  27.077  24.953  1.00  0.00     0.096 C 
ATOM      9  C   UNL A   1      31.433  28.267  25.945  1.00  0.00     0.002 C 
ATOM     10  C   UNL A   1      32.428  29.313  25.397  1.00  0.00     0.005 C 
ATOM     11  C   UNL A   1      32.229  27.742  27.137  1.00  0.00     0.009 C 
ATOM     12  C   UNL A   1      33.410  27.289  26.274  1.00  0.00     0.002 C 
ATOM     13  C   UNL A   1      33.792  28.635  25.622  1.00  0.00     0.005 C 
BRANCH   8  14
ATOM     14  C   UNL A   1      30.123  26.256  24.980  1.00  0.00     0.242 C 
ATOM     15  N   UNL A   1      29.914  25.112  25.696  1.00  0.00    -0.267 N 
ATOM     16  H   UNL A   1      29.053  24.666  25.528  1.00  0.00     0.191 HD
ATOM     17  O   UNL A   1      29.157  26.667  24.323  1.00  0.00    -0.273 OA
BRANCH  15  18
ATOM     18  N   UNL A   1      30.724  24.492  26.613  1.00  0.00    -0.264 N 
ATOM     19  C   UNL A   1      31.497  23.385  26.460  1.00  0.00     0.279 C 
ATOM     20  O   UNL A   1      32.312  23.190  27.380  1.00  0.00    -0.269 OA
ATOM     21  H   UNL A   1      30.749  24.906  27.506  1.00  0.00     0.191 HD
BRANCH  19  22
ATOM     22  C   UNL A   1      31.366  22.323  25.331  1.00  0.00     0.260 C 
ATOM     23  C   UNL A   1      31.690  22.941  23.964  1.00  0.00     0.064 C 
BRANCH  22  24
ATOM     24  O   UNL A   1      31.597  20.937  25.444  1.00  0.00    -0.481 OA
BRANCH  24  25
ATOM     25  C   UNL A   1      32.742  20.290  25.123  1.00  0.00     0.120 A 
ATOM     26  C   UNL A   1      33.348  16.845  23.594  1.00  0.00     0.044 C 
ATOM     27  C   UNL A   1      33.591  18.194  24.204  1.00  0.00    -0.047 A 
ATOM     28  C   UNL A   1      34.891  18.604  24.501  1.00  0.00     0.003 A 
ATOM     29  C   UNL A   1      32.526  19.048  24.512  1.00  0.00     0.049 A 
ATOM     30  C   UNL A   1      35.119  19.857  25.067  1.00  0.00     0.004 A 
ATOM     31  C   UNL A   1      34.048  20.706  25.361  1.00  0.00     0.046 A 
ENDBRANCH  24  25
ENDBRANCH  22  24
ENDBRANCH  19  22
ENDBRANCH  15  18
ENDBRANCH   8  14
ENDBRANCH   4   7
ENDBRANCH   2   3
ENDBRANCH   1   2
BRANCH   1  32
ATOM     32  C   UNL A   1      37.570  23.884  25.641  1.00  0.00     0.002 C 
BRANCH  32  33
ATOM     33  C   UNL A   1      38.294  22.833  26.498  1.00  0.00     0.002 C 
BRANCH  33  34
ATOM     34  C   UNL A   1      39.642  22.344  25.966  1.00  0.00     0.021 C 
BRANCH  34  35
ATOM     35  C   UNL A   1      40.180  21.105  26.664  1.00  0.00     0.116 C 
BRANCH  35  36
ATOM     36  N   UNL A   1      41.185  20.388  25.894  1.00  0.00    -0.352 N 
ATOM     37  C   UNL A   1      42.551  20.620  25.783  1.00  0.00     0.251 C 
ATOM     38  H   UNL A   1      40.847  19.624  25.373  1.00  0.00     0.163 HD
ATOM     39  O   UNL A   1      43.233  19.926  25.070  1.00  0.00    -0.269 OA
BRANCH  37  40
ATOM     40  C   UNL A   1      43.178  21.636  26.671  1.00  0.00     0.039 A 
ATOM     41  C   UNL A   1      42.909  21.540  28.041  1.00  0.00     0.014 A 
ATOM     42  C   UNL A   1      43.804  22.769  26.158  1.00  0.00     0.014 A 
ATOM     43  C   UNL A   1      43.011  22.677  28.836  1.00  0.00     0.010 A 
ATOM     44  C   UNL A   1      43.811  23.922  26.917  1.00  0.00     0.010 A 
ATOM     45  C   UNL A   1      43.337  23.889  28.233  1.00  0.00    -0.014 A 
BRANCH  45  46
ATOM     46  C   UNL A   1      43.045  25.178  28.848  1.00  0.00     0.031 A 
ATOM     47  C   UNL A   1      41.863  25.965  28.446  1.00  0.00     0.074 A 
ATOM     48  C   UNL A   1      43.827  25.606  29.865  1.00  0.00     0.049 A 
ATOM     49  N   UNL A   1      41.751  27.241  28.605  1.00  0.00    -0.248 NA
ATOM     50  C   UNL A   1      40.710  25.364  27.789  1.00  0.00     0.031 C 
ATOM     51  C   UNL A   1      43.554  26.697  30.796  1.00  0.00     0.029 A 
ATOM     52  N   UNL A   1      45.156  25.244  30.130  1.00  0.00    -0.354 N 
ATOM     53  C   UNL A   1      40.444  27.585  28.342  1.00  0.00     0.074 A 
ATOM     54  C   UNL A   1      39.856  26.392  27.775  1.00  0.00     0.031 C 
ATOM     55  C   UNL A   1      44.715  27.112  31.325  1.00  0.00     0.029 A 
ATOM     56  C   UNL A   1      45.781  26.400  30.643  1.00  0.00     0.049 A 
ATOM     57  H   UNL A   1      45.569  24.362  29.986  1.00  0.00     0.167 HD
ATOM     58  C   UNL A   1      39.971  28.794  28.765  1.00  0.00     0.037 A 
ATOM     59  C   UNL A   1      46.822  26.995  29.991  1.00  0.00     0.037 A 
ATOM     60  C   UNL A   1      41.028  29.589  29.387  1.00  0.00     0.049 A 
ATOM     61  C   UNL A   1      46.556  28.424  29.578  1.00  0.00     0.074 A 
ATOM     62  C   UNL A   1      41.388  29.793  30.710  1.00  0.00     0.029 A 
ATOM     63  N   UNL A   1      42.083  30.063  28.617  1.00  0.00    -0.354 N 
ATOM     64  N   UNL A   1      45.367  28.955  29.526  1.00  0.00    -0.248 NA
ATOM     65  C   UNL A   1      47.600  29.356  29.157  1.00  0.00     0.031 C 
ATOM     66  C   UNL A   1      42.692  30.341  30.734  1.00  0.00     0.029 A 
ATOM     67  C   UNL A   1      43.118  30.489  29.427  1.00  0.00     0.049 A 
ATOM     68  H   UNL A   1      42.092  30.092  27.632  1.00  0.00     0.167 HD
ATOM     69  C   UNL A   1      45.457  30.238  29.055  1.00  0.00     0.074 A 
ATOM     70  C   UNL A   1      46.878  30.452  28.862  1.00  0.00     0.031 C 
ATOM     71  C   UNL A   1      44.349  31.009  28.852  1.00  0.00     0.037 A 
BRANCH  58  72
ATOM     72  C   UNL A   1      38.496  29.112  28.901  1.00  0.00     0.057 A 
ATOM     73  C   UNL A   1      37.766  29.652  27.821  1.00  0.00     0.134 A 
ATOM     74  C   UNL A   1      37.750  28.972  30.084  1.00  0.00     0.134 A 
ATOM     75  F   UNL A   1      38.280  29.728  26.588  1.00  0.00    -0.206 F 
ATOM     76  C   UNL A   1      36.461  30.146  27.951  1.00  0.00     0.040 A 
ATOM     77  C   UNL A   1      36.464  29.510  30.243  1.00  0.00     0.040 A 
ATOM     78  F   UNL A   1      38.209  28.258  31.118  1.00  0.00    -0.206 F 
ATOM     79  C   UNL A   1      35.820  30.120  29.177  1.00  0.00     0.006 A 
ENDBRANCH  58  72
BRANCH  59  80
ATOM     80  C   UNL A   1      47.684  26.038  29.254  1.00  0.00     0.057 A 
ATOM     81  C   UNL A   1      47.457  25.850  27.880  1.00  0.00     0.134 A 
ATOM     82  C   UNL A   1      48.917  25.617  29.759  1.00  0.00     0.134 A 
ATOM     83  F   UNL A   1      46.292  26.235  27.332  1.00  0.00    -0.206 F 
ATOM     84  C   UNL A   1      48.449  25.365  27.026  1.00  0.00     0.040 A 
ATOM     85  C   UNL A   1      49.918  25.123  28.914  1.00  0.00     0.040 A 
ATOM     86  F   UNL A   1      49.216  25.786  31.055  1.00  0.00    -0.206 F 
ATOM     87  C   UNL A   1      49.698  25.032  27.540  1.00  0.00     0.006 A 
ENDBRANCH  59  80
BRANCH  71  88
ATOM     88  C   UNL A   1      44.317  32.350  28.168  1.00  0.00     0.057 A 
ATOM     89  C   UNL A   1      44.414  32.528  26.782  1.00  0.00     0.134 A 
ATOM     90  C   UNL A   1      44.023  33.519  28.907  1.00  0.00     0.134 A 
ATOM     91  F   UNL A   1      44.591  31.489  25.954  1.00  0.00    -0.206 F 
ATOM     92  C   UNL A   1      44.274  33.784  26.175  1.00  0.00     0.040 A 
ATOM     93  C   UNL A   1      43.832  34.767  28.309  1.00  0.00     0.040 A 
ATOM     94  F   UNL A   1      43.888  33.491  30.241  1.00  0.00    -0.206 F 
ATOM     95  C   UNL A   1      43.970  34.906  26.936  1.00  0.00     0.006 A 
ENDBRANCH  71  88
ENDBRANCH  45  46
ENDBRANCH  37  40
ENDBRANCH  35  36
ENDBRANCH  34  35
ENDBRANCH  33  34
ENDBRANCH  32  33
ENDBRANCH   1  32
TORSDOF 18
ENDMDL
