MODEL 1
REMARK VINA RESULT:      -8.4      0.000      0.000
REMARK SMILES O=C(CCNC(=O)C1CCCC1)NCCCCCCNC(=O)c1ccc(-c2c3nc(c(-c4c(F)cccc4F)c4ccc([nH]4)c(-c4c(F)cccc4F)c4nc(c(-c5c(F)cccc5F)c5ccc2[nH]5)C=C4)C=C3)cc1
REMARK SMILES IDX 16 1 15 2 14 3 13 4 1 5 2 6 3 8 4 9 5 10 6 11 7 13 8 14 9 15
REMARK SMILES IDX 12 16 10 17 11 18 17 19 18 20 19 21 20 22 21 23 22 25 23 26
REMARK SMILES IDX 24 27 76 28 25 29 75 30 26 31 27 32 28 33 69 34 29 35 74 36
REMARK SMILES IDX 68 37 70 38 30 39 73 40 67 41 66 42 31 44 57 45 40 46 56 47
REMARK SMILES IDX 41 48 44 49 55 50 71 51 42 52 43 53 54 55 72 56 45 57 32 58
REMARK SMILES IDX 33 59 38 60 34 61 35 62 37 63 39 64 36 65 58 66 59 67 64 68
REMARK SMILES IDX 60 69 61 70 63 71 65 72 62 73 46 74 47 75 52 76 48 77 49 78
REMARK SMILES IDX 51 79 53 80 50 81
REMARK H PARENT 13 7 5 12 20 24 70 43 44 54
REMARK Flexibility Score: inf
ROOT
ATOM      1  C   UNL A   1      46.174  20.775  24.711  1.00  0.00     0.002 C 
ENDROOT
BRANCH   1   2
ATOM      2  C   UNL A   1      45.900  22.166  25.299  1.00  0.00     0.021 C 
BRANCH   2   3
ATOM      3  C   UNL A   1      45.862  23.297  24.272  1.00  0.00     0.116 C 
BRANCH   3   4
ATOM      4  N   UNL A   1      45.845  24.595  24.915  1.00  0.00    -0.356 N 
ATOM      5  O   UNL A   1      48.079  25.071  24.650  1.00  0.00    -0.275 OA
ATOM      6  C   UNL A   1      46.962  25.387  25.044  1.00  0.00     0.221 C 
ATOM      7  H   UNL A   1      44.993  24.927  25.278  1.00  0.00     0.163 HD
BRANCH   6   8
ATOM      8  C   UNL A   1      46.684  26.721  25.705  1.00  0.00     0.121 C 
BRANCH   8   9
ATOM      9  C   UNL A   1      45.519  27.430  25.021  1.00  0.00     0.125 C 
BRANCH   9  10
ATOM     10  N   UNL A   1      44.588  27.998  25.989  1.00  0.00    -0.355 N 
ATOM     11  C   UNL A   1      44.680  29.144  26.723  1.00  0.00     0.223 C 
ATOM     12  H   UNL A   1      43.767  27.475  26.135  1.00  0.00     0.163 HD
ATOM     13  O   UNL A   1      43.877  29.303  27.641  1.00  0.00    -0.275 OA
BRANCH  11  14
ATOM     14  C   UNL A   1      45.701  30.198  26.330  1.00  0.00     0.078 C 
ATOM     15  C   UNL A   1      45.130  31.592  26.592  1.00  0.00     0.013 C 
ATOM     16  C   UNL A   1      46.959  30.199  27.194  1.00  0.00     0.013 C 
ATOM     17  C   UNL A   1      46.353  32.499  26.626  1.00  0.00     0.001 C 
ATOM     18  C   UNL A   1      47.520  31.612  27.059  1.00  0.00     0.001 C 
ENDBRANCH  11  14
ENDBRANCH   9  10
ENDBRANCH   8   9
ENDBRANCH   6   8
ENDBRANCH   3   4
ENDBRANCH   2   3
ENDBRANCH   1   2
BRANCH   1  19
ATOM     19  C   UNL A   1      44.960  20.075  24.091  1.00  0.00     0.002 C 
BRANCH  19  20
ATOM     20  C   UNL A   1      44.641  18.697  24.673  1.00  0.00     0.021 C 
BRANCH  20  21
ATOM     21  C   UNL A   1      43.809  18.719  25.952  1.00  0.00     0.116 C 
BRANCH  21  22
ATOM     22  N   UNL A   1      42.377  18.726  25.688  1.00  0.00    -0.352 N 
ATOM     23  C   UNL A   1      41.441  19.680  26.003  1.00  0.00     0.251 C 
ATOM     24  H   UNL A   1      42.031  17.934  25.217  1.00  0.00     0.163 HD
ATOM     25  O   UNL A   1      40.245  19.450  25.844  1.00  0.00    -0.269 OA
BRANCH  23  26
ATOM     26  C   UNL A   1      41.872  20.979  26.560  1.00  0.00     0.039 A 
ATOM     27  C   UNL A   1      42.212  22.011  25.682  1.00  0.00     0.014 A 
ATOM     28  C   UNL A   1      41.933  21.183  27.941  1.00  0.00     0.014 A 
ATOM     29  C   UNL A   1      42.547  23.268  26.189  1.00  0.00     0.010 A 
ATOM     30  C   UNL A   1      42.193  22.456  28.442  1.00  0.00     0.010 A 
ATOM     31  C   UNL A   1      42.502  23.513  27.571  1.00  0.00    -0.014 A 
BRANCH  31  32
ATOM     32  C   UNL A   1      42.767  24.866  28.124  1.00  0.00     0.031 A 
ATOM     33  C   UNL A   1      44.154  25.249  28.562  1.00  0.00     0.074 A 
ATOM     34  C   UNL A   1      41.747  25.731  28.285  1.00  0.00     0.049 A 
ATOM     35  N   UNL A   1      44.567  26.356  29.125  1.00  0.00    -0.248 NA
ATOM     36  C   UNL A   1      45.212  24.247  28.362  1.00  0.00     0.031 C 
ATOM     37  C   UNL A   1      40.350  25.466  27.936  1.00  0.00     0.029 A 
ATOM     38  N   UNL A   1      41.726  27.006  28.792  1.00  0.00    -0.354 N 
ATOM     39  C   UNL A   1      45.925  26.181  29.353  1.00  0.00     0.074 A 
ATOM     40  C   UNL A   1      46.256  24.840  28.923  1.00  0.00     0.031 C 
ATOM     41  C   UNL A   1      39.614  26.555  28.214  1.00  0.00     0.029 A 
ATOM     42  C   UNL A   1      40.477  27.576  28.799  1.00  0.00     0.049 A 
ATOM     43  H   UNL A   1      42.532  27.469  29.120  1.00  0.00     0.167 HD
ATOM     44  C   UNL A   1      46.822  27.065  29.851  1.00  0.00     0.037 A 
ATOM     45  C   UNL A   1      40.068  28.783  29.237  1.00  0.00     0.037 A 
ATOM     46  C   UNL A   1      46.493  28.403  30.270  1.00  0.00     0.049 A 
ATOM     47  C   UNL A   1      41.078  29.735  29.817  1.00  0.00     0.074 A 
ATOM     48  C   UNL A   1      47.339  29.387  30.749  1.00  0.00     0.029 A 
ATOM     49  N   UNL A   1      45.216  28.942  30.262  1.00  0.00    -0.354 N 
ATOM     50  N   UNL A   1      42.370  29.576  29.973  1.00  0.00    -0.248 NA
ATOM     51  C   UNL A   1      40.572  31.035  30.279  1.00  0.00     0.031 C 
ATOM     52  C   UNL A   1      46.567  30.506  31.080  1.00  0.00     0.029 A 
ATOM     53  C   UNL A   1      45.247  30.238  30.751  1.00  0.00     0.049 A 
ATOM     54  H   UNL A   1      44.406  28.474  29.955  1.00  0.00     0.167 HD
ATOM     55  C   UNL A   1      42.836  30.765  30.520  1.00  0.00     0.074 A 
ATOM     56  C   UNL A   1      41.690  31.640  30.656  1.00  0.00     0.031 C 
ATOM     57  C   UNL A   1      44.100  31.103  30.875  1.00  0.00     0.037 A 
BRANCH  44  58
ATOM     58  C   UNL A   1      48.250  26.610  29.971  1.00  0.00     0.057 A 
ATOM     59  C   UNL A   1      49.208  26.927  28.998  1.00  0.00     0.134 A 
ATOM     60  C   UNL A   1      48.680  25.878  31.085  1.00  0.00     0.134 A 
ATOM     61  F   UNL A   1      48.862  27.617  27.901  1.00  0.00    -0.206 F 
ATOM     62  C   UNL A   1      50.534  26.508  29.115  1.00  0.00     0.040 A 
ATOM     63  C   UNL A   1      50.010  25.479  31.227  1.00  0.00     0.040 A 
ATOM     64  F   UNL A   1      47.817  25.546  32.057  1.00  0.00    -0.206 F 
ATOM     65  C   UNL A   1      50.940  25.787  30.237  1.00  0.00     0.006 A 
ENDBRANCH  44  58
BRANCH  45  66
ATOM     66  C   UNL A   1      38.639  29.172  29.123  1.00  0.00     0.057 A 
ATOM     67  C   UNL A   1      38.110  29.624  27.908  1.00  0.00     0.134 A 
ATOM     68  C   UNL A   1      37.773  29.110  30.219  1.00  0.00     0.134 A 
ATOM     69  F   UNL A   1      38.895  29.724  26.825  1.00  0.00    -0.206 F 
ATOM     70  C   UNL A   1      36.777  30.021  27.793  1.00  0.00     0.040 A 
ATOM     71  C   UNL A   1      36.430  29.477  30.112  1.00  0.00     0.040 A 
ATOM     72  F   UNL A   1      38.215  28.679  31.410  1.00  0.00    -0.206 F 
ATOM     73  C   UNL A   1      35.931  29.942  28.897  1.00  0.00     0.006 A 
ENDBRANCH  45  66
BRANCH  57  74
ATOM     74  C   UNL A   1      44.320  32.490  31.408  1.00  0.00     0.057 A 
ATOM     75  C   UNL A   1      44.335  32.764  32.780  1.00  0.00     0.134 A 
ATOM     76  C   UNL A   1      44.559  33.557  30.532  1.00  0.00     0.134 A 
ATOM     77  F   UNL A   1      44.101  31.790  33.673  1.00  0.00    -0.206 F 
ATOM     78  C   UNL A   1      44.557  34.056  33.263  1.00  0.00     0.040 A 
ATOM     79  C   UNL A   1      44.811  34.846  31.003  1.00  0.00     0.040 A 
ATOM     80  F   UNL A   1      44.568  33.362  29.204  1.00  0.00    -0.206 F 
ATOM     81  C   UNL A   1      44.804  35.099  32.373  1.00  0.00     0.006 A 
ENDBRANCH  57  74
ENDBRANCH  31  32
ENDBRANCH  23  26
ENDBRANCH  21  22
ENDBRANCH  20  21
ENDBRANCH  19  20
ENDBRANCH   1  19
TORSDOF 16
ENDMDL
MODEL 2
REMARK VINA RESULT:      -8.4      3.562      6.915
REMARK SMILES O=C(CCNC(=O)C1CCCC1)NCCCCCCNC(=O)c1ccc(-c2c3nc(c(-c4c(F)cccc4F)c4ccc([nH]4)c(-c4c(F)cccc4F)c4nc(c(-c5c(F)cccc5F)c5ccc2[nH]5)C=C4)C=C3)cc1
REMARK SMILES IDX 16 1 15 2 14 3 13 4 1 5 2 6 3 8 4 9 5 10 6 11 7 13 8 14 9 15
REMARK SMILES IDX 12 16 10 17 11 18 17 19 18 20 19 21 20 22 21 23 22 25 23 26
REMARK SMILES IDX 24 27 76 28 25 29 75 30 26 31 27 32 28 33 69 34 29 35 74 36
REMARK SMILES IDX 68 37 70 38 30 39 73 40 67 41 66 42 31 44 57 45 40 46 56 47
REMARK SMILES IDX 41 48 44 49 55 50 71 51 42 52 43 53 54 55 72 56 45 57 32 58
REMARK SMILES IDX 33 59 38 60 34 61 35 62 37 63 39 64 36 65 58 66 59 67 64 68
REMARK SMILES IDX 60 69 61 70 63 71 65 72 62 73 46 74 47 75 52 76 48 77 49 78
REMARK SMILES IDX 51 79 53 80 50 81
REMARK H PARENT 13 7 5 12 20 24 70 43 44 54
REMARK Flexibility Score: inf
ROOT
ATOM      1  C   UNL A   1      38.476  22.145  25.959  1.00  0.00     0.002 C 
ENDROOT
BRANCH   1   2
ATOM      2  C   UNL A   1      38.006  23.601  25.831  1.00  0.00     0.021 C 
BRANCH   2   3
ATOM      3  C   UNL A   1      36.512  23.767  25.553  1.00  0.00     0.116 C 
BRANCH   3   4
ATOM      4  N   UNL A   1      35.710  23.092  26.553  1.00  0.00    -0.356 N 
ATOM      5  O   UNL A   1      33.721  24.140  26.077  1.00  0.00    -0.275 OA
ATOM      6  C   UNL A   1      34.367  23.328  26.729  1.00  0.00     0.221 C 
ATOM      7  H   UNL A   1      36.148  22.431  27.137  1.00  0.00     0.163 HD
BRANCH   6   8
ATOM      8  C   UNL A   1      33.736  22.464  27.800  1.00  0.00     0.121 C 
BRANCH   8   9
ATOM      9  C   UNL A   1      33.277  21.131  27.217  1.00  0.00     0.125 C 
BRANCH   9  10
ATOM     10  N   UNL A   1      32.605  21.304  25.934  1.00  0.00    -0.355 N 
ATOM     11  C   UNL A   1      32.628  20.516  24.821  1.00  0.00     0.223 C 
ATOM     12  H   UNL A   1      32.050  22.113  25.860  1.00  0.00     0.163 HD
ATOM     13  O   UNL A   1      32.164  20.979  23.780  1.00  0.00    -0.275 OA
BRANCH  11  14
ATOM     14  C   UNL A   1      33.141  19.090  24.931  1.00  0.00     0.078 C 
ATOM     15  C   UNL A   1      32.477  18.220  23.863  1.00  0.00     0.013 C 
ATOM     16  C   UNL A   1      34.622  18.934  24.596  1.00  0.00     0.013 C 
ATOM     17  C   UNL A   1      33.384  17.001  23.755  1.00  0.00     0.001 C 
ATOM     18  C   UNL A   1      34.773  17.473  24.181  1.00  0.00     0.001 C 
ENDBRANCH  11  14
ENDBRANCH   9  10
ENDBRANCH   8   9
ENDBRANCH   6   8
ENDBRANCH   3   4
ENDBRANCH   2   3
ENDBRANCH   1   2
BRANCH   1  19
ATOM     19  C   UNL A   1      37.889  21.174  24.930  1.00  0.00     0.002 C 
BRANCH  19  20
ATOM     20  C   UNL A   1      38.526  19.784  24.916  1.00  0.00     0.021 C 
BRANCH  20  21
ATOM     21  C   UNL A   1      39.335  19.436  26.162  1.00  0.00     0.116 C 
BRANCH  21  22
ATOM     22  N   UNL A   1      40.651  18.901  25.843  1.00  0.00    -0.352 N 
ATOM     23  C   UNL A   1      41.871  19.529  25.860  1.00  0.00     0.251 C 
ATOM     24  H   UNL A   1      40.668  17.953  25.577  1.00  0.00     0.163 HD
ATOM     25  O   UNL A   1      42.864  18.966  25.407  1.00  0.00    -0.269 OA
BRANCH  23  26
ATOM     26  C   UNL A   1      41.987  20.900  26.401  1.00  0.00     0.039 A 
ATOM     27  C   UNL A   1      41.875  21.094  27.779  1.00  0.00     0.014 A 
ATOM     28  C   UNL A   1      42.212  21.989  25.554  1.00  0.00     0.014 A 
ATOM     29  C   UNL A   1      42.059  22.370  28.316  1.00  0.00     0.010 A 
ATOM     30  C   UNL A   1      42.469  23.246  26.096  1.00  0.00     0.010 A 
ATOM     31  C   UNL A   1      42.395  23.450  27.483  1.00  0.00    -0.014 A 
BRANCH  31  32
ATOM     32  C   UNL A   1      42.682  24.795  28.043  1.00  0.00     0.031 A 
ATOM     33  C   UNL A   1      44.075  25.156  28.478  1.00  0.00     0.074 A 
ATOM     34  C   UNL A   1      41.675  25.674  28.213  1.00  0.00     0.049 A 
ATOM     35  N   UNL A   1      44.506  26.253  29.047  1.00  0.00    -0.248 NA
ATOM     36  C   UNL A   1      45.118  24.139  28.267  1.00  0.00     0.031 C 
ATOM     37  C   UNL A   1      40.273  25.432  27.868  1.00  0.00     0.029 A 
ATOM     38  N   UNL A   1      41.675  26.946  28.729  1.00  0.00    -0.354 N 
ATOM     39  C   UNL A   1      45.863  26.056  29.269  1.00  0.00     0.074 A 
ATOM     40  C   UNL A   1      46.173  24.713  28.828  1.00  0.00     0.031 C 
ATOM     41  C   UNL A   1      39.554  26.530  28.156  1.00  0.00     0.029 A 
ATOM     42  C   UNL A   1      40.434  27.535  28.744  1.00  0.00     0.049 A 
ATOM     43  H   UNL A   1      42.488  27.395  29.056  1.00  0.00     0.167 HD
ATOM     44  C   UNL A   1      46.775  26.923  29.769  1.00  0.00     0.037 A 
ATOM     45  C   UNL A   1      40.045  28.744  29.192  1.00  0.00     0.037 A 
ATOM     46  C   UNL A   1      46.467  28.263  30.198  1.00  0.00     0.049 A 
ATOM     47  C   UNL A   1      41.070  29.678  29.774  1.00  0.00     0.074 A 
ATOM     48  C   UNL A   1      47.329  29.232  30.681  1.00  0.00     0.029 A 
ATOM     49  N   UNL A   1      45.198  28.821  30.198  1.00  0.00    -0.354 N 
ATOM     50  N   UNL A   1      42.361  29.499  29.924  1.00  0.00    -0.248 NA
ATOM     51  C   UNL A   1      40.585  30.981  30.246  1.00  0.00     0.031 C 
ATOM     52  C   UNL A   1      46.575  30.360  31.021  1.00  0.00     0.029 A 
ATOM     53  C   UNL A   1      45.250  30.114  30.696  1.00  0.00     0.049 A 
ATOM     54  H   UNL A   1      44.380  28.367  29.891  1.00  0.00     0.167 HD
ATOM     55  C   UNL A   1      42.846  30.677  30.477  1.00  0.00     0.074 A 
ATOM     56  C   UNL A   1      41.714  31.568  30.623  1.00  0.00     0.031 C 
ATOM     57  C   UNL A   1      44.116  30.994  30.830  1.00  0.00     0.037 A 
BRANCH  44  58
ATOM     58  C   UNL A   1      48.196  26.447  29.880  1.00  0.00     0.057 A 
ATOM     59  C   UNL A   1      49.128  26.663  28.856  1.00  0.00     0.134 A 
ATOM     60  C   UNL A   1      48.647  25.797  31.036  1.00  0.00     0.134 A 
ATOM     61  F   UNL A   1      48.760  27.271  27.718  1.00  0.00    -0.206 F 
ATOM     62  C   UNL A   1      50.448  26.224  28.965  1.00  0.00     0.040 A 
ATOM     63  C   UNL A   1      49.973  25.381  31.168  1.00  0.00     0.040 A 
ATOM     64  F   UNL A   1      47.811  25.564  32.058  1.00  0.00    -0.206 F 
ATOM     65  C   UNL A   1      50.876  25.587  30.128  1.00  0.00     0.006 A 
ENDBRANCH  44  58
BRANCH  45  66
ATOM     66  C   UNL A   1      38.621  29.155  29.085  1.00  0.00     0.057 A 
ATOM     67  C   UNL A   1      38.094  29.624  27.876  1.00  0.00     0.134 A 
ATOM     68  C   UNL A   1      37.757  29.097  30.185  1.00  0.00     0.134 A 
ATOM     69  F   UNL A   1      38.877  29.721  26.791  1.00  0.00    -0.206 F 
ATOM     70  C   UNL A   1      36.767  30.041  27.769  1.00  0.00     0.040 A 
ATOM     71  C   UNL A   1      36.419  29.485  30.085  1.00  0.00     0.040 A 
ATOM     72  F   UNL A   1      38.197  28.650  31.370  1.00  0.00    -0.206 F 
ATOM     73  C   UNL A   1      35.924  29.966  28.876  1.00  0.00     0.006 A 
ENDBRANCH  45  66
BRANCH  57  74
ATOM     74  C   UNL A   1      44.358  32.374  31.371  1.00  0.00     0.057 A 
ATOM     75  C   UNL A   1      44.638  33.461  30.534  1.00  0.00     0.134 A 
ATOM     76  C   UNL A   1      44.268  32.623  32.746  1.00  0.00     0.134 A 
ATOM     77  F   UNL A   1      44.751  33.289  29.208  1.00  0.00    -0.206 F 
ATOM     78  C   UNL A   1      44.845  34.743  31.048  1.00  0.00     0.040 A 
ATOM     79  C   UNL A   1      44.444  33.905  33.270  1.00  0.00     0.040 A 
ATOM     80  F   UNL A   1      43.993  31.628  33.604  1.00  0.00    -0.206 F 
ATOM     81  C   UNL A   1      44.740  34.968  32.419  1.00  0.00     0.006 A 
ENDBRANCH  57  74
ENDBRANCH  31  32
ENDBRANCH  23  26
ENDBRANCH  21  22
ENDBRANCH  20  21
ENDBRANCH  19  20
ENDBRANCH   1  19
TORSDOF 16
ENDMDL
MODEL 3
REMARK VINA RESULT:      -8.3      4.132      9.819
REMARK SMILES O=C(CCNC(=O)C1CCCC1)NCCCCCCNC(=O)c1ccc(-c2c3nc(c(-c4c(F)cccc4F)c4ccc([nH]4)c(-c4c(F)cccc4F)c4nc(c(-c5c(F)cccc5F)c5ccc2[nH]5)C=C4)C=C3)cc1
REMARK SMILES IDX 16 1 15 2 14 3 13 4 1 5 2 6 3 8 4 9 5 10 6 11 7 13 8 14 9 15
REMARK SMILES IDX 12 16 10 17 11 18 17 19 18 20 19 21 20 22 21 23 22 25 23 26
REMARK SMILES IDX 24 27 76 28 25 29 75 30 26 31 27 32 28 33 69 34 29 35 74 36
REMARK SMILES IDX 68 37 70 38 30 39 73 40 67 41 66 42 31 44 57 45 40 46 56 47
REMARK SMILES IDX 41 48 44 49 55 50 71 51 42 52 43 53 54 55 72 56 45 57 32 58
REMARK SMILES IDX 33 59 38 60 34 61 35 62 37 63 39 64 36 65 58 66 59 67 64 68
REMARK SMILES IDX 60 69 61 70 63 71 65 72 62 73 46 74 47 75 52 76 48 77 49 78
REMARK SMILES IDX 51 79 53 80 50 81
REMARK H PARENT 13 7 5 12 20 24 70 43 44 54
REMARK Flexibility Score: inf
ROOT
ATOM      1  C   UNL A   1      37.123  22.758  25.310  1.00  0.00     0.002 C 
ENDROOT
BRANCH   1   2
ATOM      2  C   UNL A   1      36.048  23.785  24.926  1.00  0.00     0.021 C 
BRANCH   2   3
ATOM      3  C   UNL A   1      35.480  23.616  23.517  1.00  0.00     0.116 C 
BRANCH   3   4
ATOM      4  N   UNL A   1      34.207  22.925  23.539  1.00  0.00    -0.356 N 
ATOM      5  O   UNL A   1      33.358  23.831  21.604  1.00  0.00    -0.275 OA
ATOM      6  C   UNL A   1      33.246  23.083  22.568  1.00  0.00     0.221 C 
ATOM      7  H   UNL A   1      34.020  22.313  24.286  1.00  0.00     0.163 HD
BRANCH   6   8
ATOM      8  C   UNL A   1      32.023  22.216  22.782  1.00  0.00     0.121 C 
BRANCH   8   9
ATOM      9  C   UNL A   1      32.408  20.890  23.433  1.00  0.00     0.125 C 
BRANCH   9  10
ATOM     10  N   UNL A   1      31.996  19.750  22.622  1.00  0.00    -0.355 N 
ATOM     11  C   UNL A   1      32.466  18.470  22.611  1.00  0.00     0.223 C 
ATOM     12  H   UNL A   1      31.268  19.932  21.985  1.00  0.00     0.163 HD
ATOM     13  O   UNL A   1      32.119  17.739  21.683  1.00  0.00    -0.275 OA
BRANCH  11  14
ATOM     14  C   UNL A   1      33.316  17.980  23.770  1.00  0.00     0.078 C 
ATOM     15  C   UNL A   1      32.414  17.487  24.901  1.00  0.00     0.013 C 
ATOM     16  C   UNL A   1      34.142  16.736  23.455  1.00  0.00     0.013 C 
ATOM     17  C   UNL A   1      33.322  16.613  25.755  1.00  0.00     0.001 C 
ATOM     18  C   UNL A   1      34.407  16.093  24.813  1.00  0.00     0.001 C 
ENDBRANCH  11  14
ENDBRANCH   9  10
ENDBRANCH   8   9
ENDBRANCH   6   8
ENDBRANCH   3   4
ENDBRANCH   2   3
ENDBRANCH   1   2
BRANCH   1  19
ATOM     19  C   UNL A   1      37.341  21.629  24.299  1.00  0.00     0.002 C 
BRANCH  19  20
ATOM     20  C   UNL A   1      37.832  20.310  24.898  1.00  0.00     0.021 C 
BRANCH  20  21
ATOM     21  C   UNL A   1      38.888  20.455  25.989  1.00  0.00     0.116 C 
BRANCH  21  22
ATOM     22  N   UNL A   1      39.956  19.474  25.868  1.00  0.00    -0.352 N 
ATOM     23  C   UNL A   1      41.307  19.634  26.052  1.00  0.00     0.251 C 
ATOM     24  H   UNL A   1      39.669  18.565  25.619  1.00  0.00     0.163 HD
ATOM     25  O   UNL A   1      42.084  18.731  25.752  1.00  0.00    -0.269 OA
BRANCH  23  26
ATOM     26  C   UNL A   1      41.833  20.908  26.586  1.00  0.00     0.039 A 
ATOM     27  C   UNL A   1      42.240  21.899  25.690  1.00  0.00     0.014 A 
ATOM     28  C   UNL A   1      41.919  21.128  27.964  1.00  0.00     0.014 A 
ATOM     29  C   UNL A   1      42.667  23.137  26.176  1.00  0.00     0.010 A 
ATOM     30  C   UNL A   1      42.272  22.386  28.443  1.00  0.00     0.010 A 
ATOM     31  C   UNL A   1      42.650  23.405  27.554  1.00  0.00    -0.014 A 
BRANCH  31  32
ATOM     32  C   UNL A   1      43.015  24.743  28.084  1.00  0.00     0.031 A 
ATOM     33  C   UNL A   1      41.954  25.783  28.317  1.00  0.00     0.074 A 
ATOM     34  C   UNL A   1      44.310  25.043  28.302  1.00  0.00     0.049 A 
ATOM     35  N   UNL A   1      42.084  27.024  28.711  1.00  0.00    -0.248 NA
ATOM     36  C   UNL A   1      40.564  25.382  28.047  1.00  0.00     0.031 C 
ATOM     37  C   UNL A   1      45.438  24.137  28.078  1.00  0.00     0.029 A 
ATOM     38  N   UNL A   1      44.898  26.199  28.751  1.00  0.00    -0.354 N 
ATOM     39  C   UNL A   1      40.800  27.552  28.730  1.00  0.00     0.074 A 
ATOM     40  C   UNL A   1      39.911  26.517  28.250  1.00  0.00     0.031 C 
ATOM     41  C   UNL A   1      46.577  24.761  28.418  1.00  0.00     0.029 A 
ATOM     42  C   UNL A   1      46.267  26.123  28.841  1.00  0.00     0.049 A 
ATOM     43  H   UNL A   1      44.387  27.007  28.988  1.00  0.00     0.167 HD
ATOM     44  C   UNL A   1      40.394  28.779  29.134  1.00  0.00     0.037 A 
ATOM     45  C   UNL A   1      47.172  27.049  29.211  1.00  0.00     0.037 A 
ATOM     46  C   UNL A   1      41.279  29.805  29.621  1.00  0.00     0.049 A 
ATOM     47  C   UNL A   1      46.699  28.415  29.625  1.00  0.00     0.074 A 
ATOM     48  C   UNL A   1      40.959  31.066  30.094  1.00  0.00     0.029 A 
ATOM     49  N   UNL A   1      42.658  29.689  29.696  1.00  0.00    -0.354 N 
ATOM     50  N   UNL A   1      45.475  28.882  29.692  1.00  0.00    -0.248 NA
ATOM     51  C   UNL A   1      47.733  29.383  30.017  1.00  0.00     0.031 C 
ATOM     52  C   UNL A   1      42.148  31.732  30.406  1.00  0.00     0.029 A 
ATOM     53  C   UNL A   1      43.206  30.865  30.184  1.00  0.00     0.049 A 
ATOM     54  H   UNL A   1      43.174  28.890  29.439  1.00  0.00     0.167 HD
ATOM     55  C   UNL A   1      45.590  30.183  30.164  1.00  0.00     0.074 A 
ATOM     56  C   UNL A   1      47.001  30.428  30.379  1.00  0.00     0.031 C 
ATOM     57  C   UNL A   1      44.613  31.093  30.400  1.00  0.00     0.037 A 
BRANCH  44  58
ATOM     58  C   UNL A   1      38.923  29.079  29.067  1.00  0.00     0.057 A 
ATOM     59  C   UNL A   1      38.100  28.994  30.199  1.00  0.00     0.134 A 
ATOM     60  C   UNL A   1      38.327  29.489  27.867  1.00  0.00     0.134 A 
ATOM     61  F   UNL A   1      38.603  28.598  31.378  1.00  0.00    -0.206 F 
ATOM     62  C   UNL A   1      36.735  29.279  30.133  1.00  0.00     0.040 A 
ATOM     63  C   UNL A   1      36.970  29.806  27.797  1.00  0.00     0.040 A 
ATOM     64  F   UNL A   1      39.057  29.598  26.747  1.00  0.00    -0.206 F 
ATOM     65  C   UNL A   1      36.168  29.693  28.930  1.00  0.00     0.006 A 
ENDBRANCH  44  58
BRANCH  45  66
ATOM     66  C   UNL A   1      48.618  26.710  29.232  1.00  0.00     0.057 A 
ATOM     67  C   UNL A   1      49.440  26.988  28.134  1.00  0.00     0.134 A 
ATOM     68  C   UNL A   1      49.210  26.094  30.340  1.00  0.00     0.134 A 
ATOM     69  F   UNL A   1      48.926  27.560  27.034  1.00  0.00    -0.206 F 
ATOM     70  C   UNL A   1      50.794  26.649  28.127  1.00  0.00     0.040 A 
ATOM     71  C   UNL A   1      50.570  25.773  30.359  1.00  0.00     0.040 A 
ATOM     72  F   UNL A   1      48.480  25.806  31.428  1.00  0.00    -0.206 F 
ATOM     73  C   UNL A   1      51.363  26.044  29.246  1.00  0.00     0.006 A 
ENDBRANCH  45  66
BRANCH  57  74
ATOM     74  C   UNL A   1      45.031  32.425  30.956  1.00  0.00     0.057 A 
ATOM     75  C   UNL A   1      45.324  33.516  30.130  1.00  0.00     0.134 A 
ATOM     76  C   UNL A   1      45.101  32.625  32.341  1.00  0.00     0.134 A 
ATOM     77  F   UNL A   1      45.288  33.388  28.795  1.00  0.00    -0.206 F 
ATOM     78  C   UNL A   1      45.695  34.753  30.660  1.00  0.00     0.040 A 
ATOM     79  C   UNL A   1      45.443  33.865  32.884  1.00  0.00     0.040 A 
ATOM     80  F   UNL A   1      44.823  31.624  33.191  1.00  0.00    -0.206 F 
ATOM     81  C   UNL A   1      45.748  34.932  32.041  1.00  0.00     0.006 A 
ENDBRANCH  57  74
ENDBRANCH  31  32
ENDBRANCH  23  26
ENDBRANCH  21  22
ENDBRANCH  20  21
ENDBRANCH  19  20
ENDBRANCH   1  19
TORSDOF 16
ENDMDL
