MODEL 1
REMARK VINA RESULT:     -12.1      0.000      0.000
REMARK SMILES Cc1ccc(C(=O)NCCCCCCNC(=O)c2ccc(-c3c4nc(c(-c5c(F)cccc5F)c5ccc([nH]5)c(-c5c(F)cccc5F)c5nc(c(-c6c(F)cccc6F)c6ccc3[nH]6)C=C5)C=C4)cc2)cc1NC(=O)c1ccc(Br)o1
REMARK SMILES IDX 11 1 10 2 9 3 8 4 6 5 7 6 5 8 1 9 2 10 3 11 73 12 4 13 72 14
REMARK SMILES IDX 74 15 75 16 76 18 77 19 78 20 82 21 79 22 80 23 81 24 12 25
REMARK SMILES IDX 13 26 14 27 15 28 16 29 17 31 18 32 19 33 71 34 20 35 70 36
REMARK SMILES IDX 21 37 22 38 23 39 64 40 24 41 69 42 63 43 65 44 25 45 68 46
REMARK SMILES IDX 62 47 61 48 26 50 52 51 35 52 51 53 36 54 39 55 50 56 66 57
REMARK SMILES IDX 37 58 38 59 49 61 67 62 40 63 27 64 28 65 33 66 29 67 30 68
REMARK SMILES IDX 32 69 34 70 31 71 53 72 54 73 59 74 55 75 56 76 58 77 60 78
REMARK SMILES IDX 57 79 41 80 42 81 47 82 43 83 44 84 46 85 48 86 45 87
REMARK H PARENT 8 7 74 17 15 30 65 49 39 60
REMARK Flexibility Score: inf
ROOT
ATOM      1  C   UNL A   1      32.711  34.748  29.057  1.00  0.00     0.002 C 
ENDROOT
BRANCH   1   2
ATOM      2  C   UNL A   1      33.766  33.729  28.590  1.00  0.00     0.021 C 
BRANCH   2   3
ATOM      3  C   UNL A   1      33.270  32.468  27.867  1.00  0.00     0.116 C 
BRANCH   3   4
ATOM      4  N   UNL A   1      34.319  31.487  27.679  1.00  0.00    -0.352 N 
ATOM      5  C   UNL A   1      34.426  30.231  27.140  1.00  0.00     0.251 C 
ATOM      6  O   UNL A   1      35.587  29.807  27.086  1.00  0.00    -0.269 OA
ATOM      7  H   UNL A   1      35.182  31.806  28.031  1.00  0.00     0.163 HD
BRANCH   5   8
ATOM      8  C   UNL A   1      33.334  29.336  26.607  1.00  0.00     0.041 A 
ATOM      9  C   UNL A   1      30.238  27.167  24.430  1.00  0.00     0.046 C 
ATOM     10  C   UNL A   1      31.286  27.859  25.271  1.00  0.00    -0.027 A 
ATOM     11  C   UNL A   1      31.653  29.138  24.839  1.00  0.00     0.006 A 
ATOM     12  C   UNL A   1      31.914  27.322  26.418  1.00  0.00     0.045 A 
ATOM     13  C   UNL A   1      32.639  29.864  25.504  1.00  0.00     0.014 A 
ATOM     14  C   UNL A   1      32.967  28.048  27.034  1.00  0.00     0.040 A 
BRANCH  12  15
ATOM     15  N   UNL A   1      31.444  26.070  26.870  1.00  0.00    -0.319 N 
ATOM     16  C   UNL A   1      31.745  24.754  26.650  1.00  0.00     0.291 C 
ATOM     17  H   UNL A   1      30.707  26.172  27.513  1.00  0.00     0.170 HD
ATOM     18  O   UNL A   1      31.052  23.926  27.249  1.00  0.00    -0.265 OA
BRANCH  16  19
ATOM     19  C   UNL A   1      32.810  24.355  25.786  1.00  0.00     0.193 A 
ATOM     20  C   UNL A   1      32.908  24.201  24.417  1.00  0.00     0.057 A 
ATOM     21  O   UNL A   1      34.027  24.172  26.364  1.00  0.00    -0.444 OA
ATOM     22  C   UNL A   1      34.275  23.926  24.148  1.00  0.00     0.059 A 
ATOM     23  C   UNL A   1      34.906  23.920  25.371  1.00  0.00     0.170 A 
ATOM     24  Br  UNL A   1      36.707  23.620  25.682  1.00  0.00    -0.008 Br
ENDBRANCH  16  19
ENDBRANCH  12  15
ENDBRANCH   5   8
ENDBRANCH   3   4
ENDBRANCH   2   3
ENDBRANCH   1   2
BRANCH   1  25
ATOM     25  C   UNL A   1      33.178  36.163  29.443  1.00  0.00     0.002 C 
BRANCH  25  26
ATOM     26  C   UNL A   1      32.935  36.621  30.884  1.00  0.00     0.021 C 
BRANCH  26  27
ATOM     27  C   UNL A   1      32.666  35.506  31.900  1.00  0.00     0.116 C 
BRANCH  27  28
ATOM     28  N   UNL A   1      33.391  35.658  33.155  1.00  0.00    -0.352 N 
ATOM     29  C   UNL A   1      34.564  35.015  33.569  1.00  0.00     0.251 C 
ATOM     30  H   UNL A   1      33.006  36.297  33.797  1.00  0.00     0.163 HD
ATOM     31  O   UNL A   1      35.125  35.334  34.593  1.00  0.00    -0.269 OA
BRANCH  29  32
ATOM     32  C   UNL A   1      35.160  34.005  32.665  1.00  0.00     0.039 A 
ATOM     33  C   UNL A   1      35.264  32.689  33.121  1.00  0.00     0.014 A 
ATOM     34  C   UNL A   1      35.785  34.393  31.486  1.00  0.00     0.014 A 
ATOM     35  C   UNL A   1      36.224  31.850  32.556  1.00  0.00     0.010 A 
ATOM     36  C   UNL A   1      36.770  33.576  30.955  1.00  0.00     0.010 A 
ATOM     37  C   UNL A   1      37.062  32.351  31.558  1.00  0.00    -0.014 A 
BRANCH  37  38
ATOM     38  C   UNL A   1      38.364  31.757  31.261  1.00  0.00     0.031 A 
ATOM     39  C   UNL A   1      38.504  30.526  30.466  1.00  0.00     0.074 A 
ATOM     40  C   UNL A   1      39.494  32.329  31.740  1.00  0.00     0.049 A 
ATOM     41  N   UNL A   1      39.387  29.615  30.725  1.00  0.00    -0.248 NA
ATOM     42  C   UNL A   1      37.662  30.217  29.317  1.00  0.00     0.031 C 
ATOM     43  C   UNL A   1      40.873  31.959  31.426  1.00  0.00     0.029 A 
ATOM     44  N   UNL A   1      39.610  33.222  32.813  1.00  0.00    -0.354 N 
ATOM     45  C   UNL A   1      39.415  28.766  29.651  1.00  0.00     0.074 A 
ATOM     46  C   UNL A   1      38.271  29.125  28.841  1.00  0.00     0.031 C 
ATOM     47  C   UNL A   1      41.663  32.342  32.442  1.00  0.00     0.029 A 
ATOM     48  C   UNL A   1      40.804  32.879  33.481  1.00  0.00     0.049 A 
ATOM     49  H   UNL A   1      38.984  33.944  33.053  1.00  0.00     0.167 HD
ATOM     50  C   UNL A   1      40.477  27.939  29.445  1.00  0.00     0.037 A 
ATOM     51  C   UNL A   1      40.823  32.517  34.794  1.00  0.00     0.037 A 
ATOM     52  C   UNL A   1      41.537  28.120  30.426  1.00  0.00     0.049 A 
ATOM     53  C   UNL A   1      41.445  31.169  35.061  1.00  0.00     0.074 A 
ATOM     54  C   UNL A   1      42.735  28.815  30.391  1.00  0.00     0.029 A 
ATOM     55  N   UNL A   1      41.318  27.790  31.760  1.00  0.00    -0.354 N 
ATOM     56  N   UNL A   1      41.650  30.265  34.147  1.00  0.00    -0.248 NA
ATOM     57  C   UNL A   1      41.843  30.716  36.390  1.00  0.00     0.031 C 
ATOM     58  C   UNL A   1      43.247  28.893  31.707  1.00  0.00     0.029 A 
ATOM     59  C   UNL A   1      42.359  28.247  32.546  1.00  0.00     0.049 A 
ATOM     60  H   UNL A   1      40.534  27.300  32.095  1.00  0.00     0.167 HD
ATOM     61  C   UNL A   1      42.151  29.122  34.728  1.00  0.00     0.074 A 
ATOM     62  C   UNL A   1      42.286  29.474  36.128  1.00  0.00     0.031 C 
ATOM     63  C   UNL A   1      42.388  27.998  33.982  1.00  0.00     0.037 A 
BRANCH  50  64
ATOM     64  C   UNL A   1      40.628  27.197  28.147  1.00  0.00     0.057 A 
ATOM     65  C   UNL A   1      40.078  25.920  27.944  1.00  0.00     0.134 A 
ATOM     66  C   UNL A   1      41.374  27.706  27.071  1.00  0.00     0.134 A 
ATOM     67  F   UNL A   1      39.292  25.335  28.855  1.00  0.00    -0.206 F 
ATOM     68  C   UNL A   1      40.336  25.164  26.795  1.00  0.00     0.040 A 
ATOM     69  C   UNL A   1      41.675  26.945  25.935  1.00  0.00     0.040 A 
ATOM     70  F   UNL A   1      41.853  28.961  27.099  1.00  0.00    -0.206 F 
ATOM     71  C   UNL A   1      41.166  25.660  25.800  1.00  0.00     0.006 A 
ENDBRANCH  50  64
BRANCH  51  72
ATOM     72  C   UNL A   1      39.733  33.124  35.595  1.00  0.00     0.057 A 
ATOM     73  C   UNL A   1      38.566  32.375  35.831  1.00  0.00     0.134 A 
ATOM     74  C   UNL A   1      39.948  34.241  36.404  1.00  0.00     0.134 A 
ATOM     75  F   UNL A   1      38.302  31.286  35.091  1.00  0.00    -0.206 F 
ATOM     76  C   UNL A   1      37.707  32.661  36.895  1.00  0.00     0.040 A 
ATOM     77  C   UNL A   1      39.086  34.548  37.464  1.00  0.00     0.040 A 
ATOM     78  F   UNL A   1      41.051  34.989  36.258  1.00  0.00    -0.206 F 
ATOM     79  C   UNL A   1      37.985  33.734  37.735  1.00  0.00     0.006 A 
ENDBRANCH  51  72
BRANCH  63  80
ATOM     80  C   UNL A   1      42.762  26.601  34.456  1.00  0.00     0.057 A 
ATOM     81  C   UNL A   1      41.903  25.694  35.093  1.00  0.00     0.134 A 
ATOM     82  C   UNL A   1      44.049  26.071  34.171  1.00  0.00     0.134 A 
ATOM     83  F   UNL A   1      40.622  25.984  35.340  1.00  0.00    -0.206 F 
ATOM     84  C   UNL A   1      42.301  24.397  35.463  1.00  0.00     0.040 A 
ATOM     85  C   UNL A   1      44.440  24.766  34.488  1.00  0.00     0.040 A 
ATOM     86  F   UNL A   1      44.994  26.790  33.546  1.00  0.00    -0.206 F 
ATOM     87  C   UNL A   1      43.567  23.924  35.151  1.00  0.00     0.006 A 
ENDBRANCH  63  80
ENDBRANCH  37  38
ENDBRANCH  29  32
ENDBRANCH  27  28
ENDBRANCH  26  27
ENDBRANCH  25  26
ENDBRANCH   1  25
TORSDOF 15
ENDMDL
MODEL 2
REMARK VINA RESULT:     -12.0      2.145      2.923
REMARK SMILES Cc1ccc(C(=O)NCCCCCCNC(=O)c2ccc(-c3c4nc(c(-c5c(F)cccc5F)c5ccc([nH]5)c(-c5c(F)cccc5F)c5nc(c(-c6c(F)cccc6F)c6ccc3[nH]6)C=C5)C=C4)cc2)cc1NC(=O)c1ccc(Br)o1
REMARK SMILES IDX 11 1 10 2 9 3 8 4 6 5 7 6 5 8 1 9 2 10 3 11 73 12 4 13 72 14
REMARK SMILES IDX 74 15 75 16 76 18 77 19 78 20 82 21 79 22 80 23 81 24 12 25
REMARK SMILES IDX 13 26 14 27 15 28 16 29 17 31 18 32 19 33 71 34 20 35 70 36
REMARK SMILES IDX 21 37 22 38 23 39 64 40 24 41 69 42 63 43 65 44 25 45 68 46
REMARK SMILES IDX 62 47 61 48 26 50 52 51 35 52 51 53 36 54 39 55 50 56 66 57
REMARK SMILES IDX 37 58 38 59 49 61 67 62 40 63 27 64 28 65 33 66 29 67 30 68
REMARK SMILES IDX 32 69 34 70 31 71 53 72 54 73 59 74 55 75 56 76 58 77 60 78
REMARK SMILES IDX 57 79 41 80 42 81 47 82 43 83 44 84 46 85 48 86 45 87
REMARK H PARENT 8 7 74 17 15 30 65 49 39 60
REMARK Flexibility Score: inf
ROOT
ATOM      1  C   UNL A   1      33.098  34.694  29.054  1.00  0.00     0.002 C 
ENDROOT
BRANCH   1   2
ATOM      2  C   UNL A   1      34.178  33.614  28.860  1.00  0.00     0.021 C 
BRANCH   2   3
ATOM      3  C   UNL A   1      33.810  32.377  28.028  1.00  0.00     0.116 C 
BRANCH   3   4
ATOM      4  N   UNL A   1      32.604  32.571  27.249  1.00  0.00    -0.352 N 
ATOM      5  C   UNL A   1      31.736  31.781  26.539  1.00  0.00     0.251 C 
ATOM      6  O   UNL A   1      30.740  32.385  26.121  1.00  0.00    -0.269 OA
ATOM      7  H   UNL A   1      32.338  33.519  27.221  1.00  0.00     0.163 HD
BRANCH   5   8
ATOM      8  C   UNL A   1      31.839  30.308  26.228  1.00  0.00     0.041 A 
ATOM      9  C   UNL A   1      31.987  25.952  26.073  1.00  0.00     0.046 C 
ATOM     10  C   UNL A   1      31.966  27.462  26.024  1.00  0.00    -0.027 A 
ATOM     11  C   UNL A   1      32.113  28.104  27.257  1.00  0.00     0.006 A 
ATOM     12  C   UNL A   1      31.800  28.250  24.861  1.00  0.00     0.045 A 
ATOM     13  C   UNL A   1      32.070  29.494  27.351  1.00  0.00     0.014 A 
ATOM     14  C   UNL A   1      31.685  29.658  24.992  1.00  0.00     0.040 A 
BRANCH  12  15
ATOM     15  N   UNL A   1      31.752  27.561  23.631  1.00  0.00    -0.319 N 
ATOM     16  C   UNL A   1      30.899  27.486  22.563  1.00  0.00     0.291 C 
ATOM     17  H   UNL A   1      32.539  26.983  23.508  1.00  0.00     0.170 HD
ATOM     18  O   UNL A   1      31.222  26.713  21.657  1.00  0.00    -0.265 OA
BRANCH  16  19
ATOM     19  C   UNL A   1      29.705  28.267  22.492  1.00  0.00     0.193 A 
ATOM     20  C   UNL A   1      28.494  28.205  23.154  1.00  0.00     0.057 A 
ATOM     21  O   UNL A   1      29.746  29.372  21.700  1.00  0.00    -0.444 OA
ATOM     22  C   UNL A   1      27.764  29.354  22.750  1.00  0.00     0.059 A 
ATOM     23  C   UNL A   1      28.576  30.025  21.865  1.00  0.00     0.170 A 
ATOM     24  Br  UNL A   1      28.184  31.610  20.990  1.00  0.00    -0.008 Br
ENDBRANCH  16  19
ENDBRANCH  12  15
ENDBRANCH   5   8
ENDBRANCH   3   4
ENDBRANCH   2   3
ENDBRANCH   1   2
BRANCH   1  25
ATOM     25  C   UNL A   1      33.529  36.078  29.572  1.00  0.00     0.002 C 
BRANCH  25  26
ATOM     26  C   UNL A   1      33.212  36.418  31.031  1.00  0.00     0.021 C 
BRANCH  26  27
ATOM     27  C   UNL A   1      32.799  35.237  31.915  1.00  0.00     0.116 C 
BRANCH  27  28
ATOM     28  N   UNL A   1      33.476  35.194  33.205  1.00  0.00    -0.352 N 
ATOM     29  C   UNL A   1      34.703  34.603  33.528  1.00  0.00     0.251 C 
ATOM     30  H   UNL A   1      33.009  35.640  33.948  1.00  0.00     0.163 HD
ATOM     31  O   UNL A   1      35.203  34.756  34.619  1.00  0.00    -0.269 OA
BRANCH  29  32
ATOM     32  C   UNL A   1      35.426  33.875  32.461  1.00  0.00     0.039 A 
ATOM     33  C   UNL A   1      35.382  32.479  32.467  1.00  0.00     0.014 A 
ATOM     34  C   UNL A   1      36.291  34.548  31.607  1.00  0.00     0.014 A 
ATOM     35  C   UNL A   1      36.401  31.766  31.835  1.00  0.00     0.010 A 
ATOM     36  C   UNL A   1      37.328  33.842  31.018  1.00  0.00     0.010 A 
ATOM     37  C   UNL A   1      37.442  32.466  31.223  1.00  0.00    -0.014 A 
BRANCH  37  38
ATOM     38  C   UNL A   1      38.751  31.863  30.982  1.00  0.00     0.031 A 
ATOM     39  C   UNL A   1      38.922  30.659  30.151  1.00  0.00     0.074 A 
ATOM     40  C   UNL A   1      39.859  32.400  31.548  1.00  0.00     0.049 A 
ATOM     41  N   UNL A   1      39.776  29.727  30.429  1.00  0.00    -0.248 NA
ATOM     42  C   UNL A   1      38.145  30.405  28.945  1.00  0.00     0.031 C 
ATOM     43  C   UNL A   1      41.249  32.020  31.302  1.00  0.00     0.029 A 
ATOM     44  N   UNL A   1      39.923  33.252  32.658  1.00  0.00    -0.354 N 
ATOM     45  C   UNL A   1      39.857  28.917  29.327  1.00  0.00     0.074 A 
ATOM     46  C   UNL A   1      38.767  29.322  28.466  1.00  0.00     0.031 C 
ATOM     47  C   UNL A   1      41.982  32.354  32.375  1.00  0.00     0.029 A 
ATOM     48  C   UNL A   1      41.070  32.866  33.381  1.00  0.00     0.049 A 
ATOM     49  H   UNL A   1      39.294  33.974  32.887  1.00  0.00     0.167 HD
ATOM     50  C   UNL A   1      40.918  28.081  29.154  1.00  0.00     0.037 A 
ATOM     51  C   UNL A   1      41.007  32.458  34.679  1.00  0.00     0.037 A 
ATOM     52  C   UNL A   1      41.920  28.210  30.201  1.00  0.00     0.049 A 
ATOM     53  C   UNL A   1      41.594  31.092  34.932  1.00  0.00     0.074 A 
ATOM     54  C   UNL A   1      43.128  28.887  30.263  1.00  0.00     0.029 A 
ATOM     55  N   UNL A   1      41.618  27.836  31.506  1.00  0.00    -0.354 N 
ATOM     56  N   UNL A   1      41.841  30.217  33.999  1.00  0.00    -0.248 NA
ATOM     57  C   UNL A   1      41.906  30.585  36.264  1.00  0.00     0.031 C 
ATOM     58  C   UNL A   1      43.562  28.910  31.608  1.00  0.00     0.029 A 
ATOM     59  C   UNL A   1      42.616  28.248  32.369  1.00  0.00     0.049 A 
ATOM     60  H   UNL A   1      40.809  27.346  31.777  1.00  0.00     0.167 HD
ATOM     61  C   UNL A   1      42.292  29.047  34.566  1.00  0.00     0.074 A 
ATOM     62  C   UNL A   1      42.348  29.347  35.984  1.00  0.00     0.031 C 
ATOM     63  C   UNL A   1      42.557  27.947  33.794  1.00  0.00     0.037 A 
BRANCH  50  64
ATOM     64  C   UNL A   1      41.135  27.384  27.840  1.00  0.00     0.057 A 
ATOM     65  C   UNL A   1      40.879  26.014  27.666  1.00  0.00     0.134 A 
ATOM     66  C   UNL A   1      41.660  28.043  26.716  1.00  0.00     0.134 A 
ATOM     67  F   UNL A   1      40.321  25.270  28.628  1.00  0.00    -0.206 F 
ATOM     68  C   UNL A   1      41.216  25.328  26.493  1.00  0.00     0.040 A 
ATOM     69  C   UNL A   1      42.040  27.363  25.552  1.00  0.00     0.040 A 
ATOM     70  F   UNL A   1      41.839  29.374  26.721  1.00  0.00    -0.206 F 
ATOM     71  C   UNL A   1      41.831  25.994  25.444  1.00  0.00     0.006 A 
ENDBRANCH  50  64
BRANCH  51  72
ATOM     72  C   UNL A   1      39.880  33.052  35.437  1.00  0.00     0.057 A 
ATOM     73  C   UNL A   1      38.664  32.347  35.510  1.00  0.00     0.134 A 
ATOM     74  C   UNL A   1      40.072  34.087  36.353  1.00  0.00     0.134 A 
ATOM     75  F   UNL A   1      38.418  31.337  34.661  1.00  0.00    -0.206 F 
ATOM     76  C   UNL A   1      37.730  32.589  36.520  1.00  0.00     0.040 A 
ATOM     77  C   UNL A   1      39.136  34.349  37.360  1.00  0.00     0.040 A 
ATOM     78  F   UNL A   1      41.216  34.786  36.363  1.00  0.00    -0.206 F 
ATOM     79  C   UNL A   1      37.981  33.574  37.469  1.00  0.00     0.006 A 
ENDBRANCH  51  72
BRANCH  63  80
ATOM     80  C   UNL A   1      42.884  26.528  34.237  1.00  0.00     0.057 A 
ATOM     81  C   UNL A   1      44.120  25.885  34.080  1.00  0.00     0.134 A 
ATOM     82  C   UNL A   1      41.930  25.771  34.968  1.00  0.00     0.134 A 
ATOM     83  F   UNL A   1      45.169  26.490  33.514  1.00  0.00    -0.206 F 
ATOM     84  C   UNL A   1      44.370  24.586  34.558  1.00  0.00     0.040 A 
ATOM     85  C   UNL A   1      42.184  24.499  35.492  1.00  0.00     0.040 A 
ATOM     86  F   UNL A   1      40.701  26.238  35.233  1.00  0.00    -0.206 F 
ATOM     87  C   UNL A   1      43.407  23.893  35.275  1.00  0.00     0.006 A 
ENDBRANCH  63  80
ENDBRANCH  37  38
ENDBRANCH  29  32
ENDBRANCH  27  28
ENDBRANCH  26  27
ENDBRANCH  25  26
ENDBRANCH   1  25
TORSDOF 15
ENDMDL
MODEL 3
REMARK VINA RESULT:     -11.9      2.713      5.046
REMARK SMILES Cc1ccc(C(=O)NCCCCCCNC(=O)c2ccc(-c3c4nc(c(-c5c(F)cccc5F)c5ccc([nH]5)c(-c5c(F)cccc5F)c5nc(c(-c6c(F)cccc6F)c6ccc3[nH]6)C=C5)C=C4)cc2)cc1NC(=O)c1ccc(Br)o1
REMARK SMILES IDX 11 1 10 2 9 3 8 4 6 5 7 6 5 8 1 9 2 10 3 11 73 12 4 13 72 14
REMARK SMILES IDX 74 15 75 16 76 18 77 19 78 20 82 21 79 22 80 23 81 24 12 25
REMARK SMILES IDX 13 26 14 27 15 28 16 29 17 31 18 32 19 33 71 34 20 35 70 36
REMARK SMILES IDX 21 37 22 38 23 39 64 40 24 41 69 42 63 43 65 44 25 45 68 46
REMARK SMILES IDX 62 47 61 48 26 50 52 51 35 52 51 53 36 54 39 55 50 56 66 57
REMARK SMILES IDX 37 58 38 59 49 61 67 62 40 63 27 64 28 65 33 66 29 67 30 68
REMARK SMILES IDX 32 69 34 70 31 71 53 72 54 73 59 74 55 75 56 76 58 77 60 78
REMARK SMILES IDX 57 79 41 80 42 81 47 82 43 83 44 84 46 85 48 86 45 87
REMARK H PARENT 8 7 74 17 15 30 65 49 39 60
REMARK Flexibility Score: inf
ROOT
ATOM      1  C   UNL A   1      33.299  28.230  26.852  1.00  0.00     0.002 C 
ENDROOT
BRANCH   1   2
ATOM      2  C   UNL A   1      32.989  26.822  26.310  1.00  0.00     0.021 C 
BRANCH   2   3
ATOM      3  C   UNL A   1      31.625  26.598  25.643  1.00  0.00     0.116 C 
BRANCH   3   4
ATOM      4  N   UNL A   1      30.857  25.551  26.284  1.00  0.00    -0.352 N 
ATOM      5  C   UNL A   1      30.997  24.205  26.509  1.00  0.00     0.251 C 
ATOM      6  O   UNL A   1      30.114  23.726  27.233  1.00  0.00    -0.269 OA
ATOM      7  H   UNL A   1      30.013  25.895  26.657  1.00  0.00     0.163 HD
BRANCH   5   8
ATOM      8  C   UNL A   1      32.070  23.270  26.008  1.00  0.00     0.041 A 
ATOM      9  C   UNL A   1      34.780  20.028  24.928  1.00  0.00     0.046 C 
ATOM     10  C   UNL A   1      33.910  21.219  25.255  1.00  0.00    -0.027 A 
ATOM     11  C   UNL A   1      33.045  21.050  26.341  1.00  0.00     0.006 A 
ATOM     12  C   UNL A   1      33.896  22.450  24.559  1.00  0.00     0.045 A 
ATOM     13  C   UNL A   1      32.162  22.060  26.718  1.00  0.00     0.014 A 
ATOM     14  C   UNL A   1      32.937  23.434  24.914  1.00  0.00     0.040 A 
BRANCH  12  15
ATOM     15  N   UNL A   1      34.852  22.608  23.533  1.00  0.00    -0.319 N 
ATOM     16  C   UNL A   1      36.179  22.929  23.448  1.00  0.00     0.291 C 
ATOM     17  H   UNL A   1      34.461  22.444  22.645  1.00  0.00     0.170 HD
ATOM     18  O   UNL A   1      36.657  22.988  22.312  1.00  0.00    -0.265 OA
BRANCH  16  19
ATOM     19  C   UNL A   1      36.975  23.171  24.610  1.00  0.00     0.193 A 
ATOM     20  C   UNL A   1      36.864  24.057  25.663  1.00  0.00     0.057 A 
ATOM     21  O   UNL A   1      38.012  22.319  24.826  1.00  0.00    -0.444 OA
ATOM     22  C   UNL A   1      37.887  23.707  26.583  1.00  0.00     0.059 A 
ATOM     23  C   UNL A   1      38.553  22.643  26.020  1.00  0.00     0.170 A 
ATOM     24  Br  UNL A   1      39.995  21.734  26.744  1.00  0.00    -0.008 Br
ENDBRANCH  16  19
ENDBRANCH  12  15
ENDBRANCH   5   8
ENDBRANCH   3   4
ENDBRANCH   2   3
ENDBRANCH   1   2
BRANCH   1  25
ATOM     25  C   UNL A   1      32.145  29.244  26.962  1.00  0.00     0.002 C 
BRANCH  25  26
ATOM     26  C   UNL A   1      32.513  30.714  27.181  1.00  0.00     0.021 C 
BRANCH  26  27
ATOM     27  C   UNL A   1      34.010  31.015  27.300  1.00  0.00     0.116 C 
BRANCH  27  28
ATOM     28  N   UNL A   1      34.388  31.671  28.546  1.00  0.00    -0.352 N 
ATOM     29  C   UNL A   1      35.495  31.418  29.364  1.00  0.00     0.251 C 
ATOM     30  H   UNL A   1      33.786  32.387  28.851  1.00  0.00     0.163 HD
ATOM     31  O   UNL A   1      35.751  32.130  30.309  1.00  0.00    -0.269 OA
BRANCH  29  32
ATOM     32  C   UNL A   1      36.408  30.317  28.980  1.00  0.00     0.039 A 
ATOM     33  C   UNL A   1      36.692  29.332  29.928  1.00  0.00     0.014 A 
ATOM     34  C   UNL A   1      37.122  30.375  27.789  1.00  0.00     0.014 A 
ATOM     35  C   UNL A   1      37.872  28.598  29.810  1.00  0.00     0.010 A 
ATOM     36  C   UNL A   1      38.316  29.678  27.695  1.00  0.00     0.010 A 
ATOM     37  C   UNL A   1      38.742  28.874  28.754  1.00  0.00    -0.014 A 
BRANCH  37  38
ATOM     38  C   UNL A   1      40.163  28.542  28.807  1.00  0.00     0.031 A 
ATOM     39  C   UNL A   1      40.694  27.268  28.291  1.00  0.00     0.074 A 
ATOM     40  C   UNL A   1      41.042  29.410  29.364  1.00  0.00     0.049 A 
ATOM     41  N   UNL A   1      41.655  26.620  28.867  1.00  0.00    -0.248 NA
ATOM     42  C   UNL A   1      40.184  26.620  27.090  1.00  0.00     0.031 C 
ATOM     43  C   UNL A   1      42.500  29.307  29.372  1.00  0.00     0.029 A 
ATOM     44  N   UNL A   1      40.762  30.453  30.256  1.00  0.00    -0.354 N 
ATOM     45  C   UNL A   1      42.065  25.650  27.990  1.00  0.00     0.074 A 
ATOM     46  C   UNL A   1      41.070  25.630  26.940  1.00  0.00     0.031 C 
ATOM     47  C   UNL A   1      42.974  29.996  30.422  1.00  0.00     0.029 A 
ATOM     48  C   UNL A   1      41.831  30.478  31.176  1.00  0.00     0.049 A 
ATOM     49  H   UNL A   1      39.978  31.048  30.243  1.00  0.00     0.167 HD
ATOM     50  C   UNL A   1      43.280  25.053  28.132  1.00  0.00     0.037 A 
ATOM     51  C   UNL A   1      41.640  30.324  32.515  1.00  0.00     0.037 A 
ATOM     52  C   UNL A   1      44.058  25.601  29.234  1.00  0.00     0.049 A 
ATOM     53  C   UNL A   1      42.429  29.198  33.133  1.00  0.00     0.074 A 
ATOM     54  C   UNL A   1      45.087  26.528  29.283  1.00  0.00     0.029 A 
ATOM     55  N   UNL A   1      43.628  25.429  30.545  1.00  0.00    -0.354 N 
ATOM     56  N   UNL A   1      42.987  28.237  32.453  1.00  0.00    -0.248 NA
ATOM     57  C   UNL A   1      42.616  29.041  34.571  1.00  0.00     0.031 C 
ATOM     58  C   UNL A   1      45.287  26.906  30.630  1.00  0.00     0.029 A 
ATOM     59  C   UNL A   1      44.377  26.211  31.405  1.00  0.00     0.049 A 
ATOM     60  H   UNL A   1      42.895  24.834  30.823  1.00  0.00     0.167 HD
ATOM     61  C   UNL A   1      43.557  27.328  33.315  1.00  0.00     0.074 A 
ATOM     62  C   UNL A   1      43.326  27.901  34.627  1.00  0.00     0.031 C 
ATOM     63  C   UNL A   1      44.149  26.186  32.844  1.00  0.00     0.037 A 
BRANCH  50  64
ATOM     64  C   UNL A   1      43.836  24.181  27.041  1.00  0.00     0.057 A 
ATOM     65  C   UNL A   1      44.503  24.710  25.924  1.00  0.00     0.134 A 
ATOM     66  C   UNL A   1      43.678  22.785  27.040  1.00  0.00     0.134 A 
ATOM     67  F   UNL A   1      44.781  26.015  25.818  1.00  0.00    -0.206 F 
ATOM     68  C   UNL A   1      44.893  23.920  24.836  1.00  0.00     0.040 A 
ATOM     69  C   UNL A   1      44.024  21.988  25.941  1.00  0.00     0.040 A 
ATOM     70  F   UNL A   1      43.159  22.151  28.104  1.00  0.00    -0.206 F 
ATOM     71  C   UNL A   1      44.623  22.559  24.826  1.00  0.00     0.006 A 
ENDBRANCH  50  64
BRANCH  51  72
ATOM     72  C   UNL A   1      40.313  30.790  32.985  1.00  0.00     0.057 A 
ATOM     73  C   UNL A   1      39.290  29.843  33.176  1.00  0.00     0.134 A 
ATOM     74  C   UNL A   1      40.136  32.044  33.571  1.00  0.00     0.134 A 
ATOM     75  F   UNL A   1      39.400  28.615  32.643  1.00  0.00    -0.206 F 
ATOM     76  C   UNL A   1      38.193  30.096  34.003  1.00  0.00     0.040 A 
ATOM     77  C   UNL A   1      39.034  32.316  34.389  1.00  0.00     0.040 A 
ATOM     78  F   UNL A   1      41.080  32.990  33.456  1.00  0.00    -0.206 F 
ATOM     79  C   UNL A   1      38.080  31.328  34.637  1.00  0.00     0.006 A 
ENDBRANCH  51  72
BRANCH  63  80
ATOM     80  C   UNL A   1      44.666  24.988  33.627  1.00  0.00     0.057 A 
ATOM     81  C   UNL A   1      45.986  24.515  33.624  1.00  0.00     0.134 A 
ATOM     82  C   UNL A   1      43.814  24.307  34.536  1.00  0.00     0.134 A 
ATOM     83  F   UNL A   1      46.950  25.106  32.911  1.00  0.00    -0.206 F 
ATOM     84  C   UNL A   1      46.410  23.429  34.410  1.00  0.00     0.040 A 
ATOM     85  C   UNL A   1      44.236  23.259  35.361  1.00  0.00     0.040 A 
ATOM     86  F   UNL A   1      42.523  24.639  34.689  1.00  0.00    -0.206 F 
ATOM     87  C   UNL A   1      45.539  22.804  35.291  1.00  0.00     0.006 A 
ENDBRANCH  63  80
ENDBRANCH  37  38
ENDBRANCH  29  32
ENDBRANCH  27  28
ENDBRANCH  26  27
ENDBRANCH  25  26
ENDBRANCH   1  25
TORSDOF 15
ENDMDL
