MODEL 1
REMARK VINA RESULT:     -11.9      0.000      0.000
REMARK SMILES O=C(C[C@H](C(=O)NCCCCCCNC(=O)c1ccc(-c2c3nc(c(-c4c(F)cccc4F)c4ccc([nH]4)c(-c4c(F)cccc4F)c4nc(c(-c5c(F)cccc5F)c5ccc2[nH]5)C=C4)C=C3)cc1)c1ccccc1)Nc1ccc(Cl)cc1Cl
REMARK SMILES IDX 10 1 9 2 8 3 7 4 5 5 6 6 4 8 3 9 2 10 1 11 77 12 78 14 79 15
REMARK SMILES IDX 84 16 80 17 83 18 85 19 81 20 82 21 71 22 72 23 76 24 73 25
REMARK SMILES IDX 75 26 74 27 11 28 12 29 13 30 14 31 15 32 16 34 17 35 18 36
REMARK SMILES IDX 70 37 19 38 69 39 20 40 21 41 22 42 63 43 23 44 68 45 62 46
REMARK SMILES IDX 64 47 24 48 67 49 61 50 60 51 25 53 51 54 34 55 50 56 35 57
REMARK SMILES IDX 38 58 49 59 65 60 36 61 37 62 48 64 66 65 39 66 26 67 27 68
REMARK SMILES IDX 32 69 28 70 29 71 31 72 33 73 30 74 52 75 53 76 58 77 54 78
REMARK SMILES IDX 55 79 57 80 59 81 56 82 40 83 41 84 46 85 42 86 43 87 45 88
REMARK SMILES IDX 47 89 44 90
REMARK H PARENT 7 7 77 13 14 33 64 52 38 63
REMARK Flexibility Score: inf
ROOT
ATOM      1  C   UNL A   1      32.560  29.980  26.638  1.00  0.00     0.002 C 
ENDROOT
BRANCH   1   2
ATOM      2  C   UNL A   1      31.987  28.755  27.361  1.00  0.00     0.021 C 
BRANCH   2   3
ATOM      3  C   UNL A   1      32.384  27.420  26.727  1.00  0.00     0.116 C 
BRANCH   3   4
ATOM      4  N   UNL A   1      31.344  26.427  26.911  1.00  0.00    -0.356 N 
ATOM      5  C   UNL A   1      30.524  25.854  25.980  1.00  0.00     0.228 C 
ATOM      6  O   UNL A   1      29.540  25.239  26.388  1.00  0.00    -0.274 OA
ATOM      7  H   UNL A   1      31.208  26.122  27.837  1.00  0.00     0.163 HD
BRANCH   5   8
ATOM      8  C   UNL A   1      30.872  25.977  24.489  1.00  0.00     0.118 C 
BRANCH   8   9
ATOM      9  C   UNL A   1      30.657  24.652  23.741  1.00  0.00     0.118 C 
BRANCH   9  10
ATOM     10  C   UNL A   1      31.730  23.611  24.023  1.00  0.00     0.225 C 
ATOM     11  O   UNL A   1      31.482  22.411  23.949  1.00  0.00    -0.275 OA
ATOM     12  N   UNL A   1      32.960  24.144  24.376  1.00  0.00    -0.325 N 
ATOM     13  H   UNL A   1      33.025  25.121  24.476  1.00  0.00     0.169 HD
BRANCH  12  14
ATOM     14  C   UNL A   1      34.131  23.380  24.604  1.00  0.00     0.060 A 
ATOM     15  C   UNL A   1      35.016  23.278  23.519  1.00  0.00     0.029 A 
ATOM     16  C   UNL A   1      34.452  22.712  25.802  1.00  0.00     0.066 A 
ATOM     17  C   UNL A   1      36.234  22.607  23.651  1.00  0.00     0.023 A 
ATOM     18  C   UNL A   1      35.677  22.044  25.932  1.00  0.00     0.043 A 
ATOM     19  Cl  UNL A   1      33.317  22.465  27.087  1.00  0.00    -0.082 Cl
ATOM     20  C   UNL A   1      36.566  22.008  24.862  1.00  0.00     0.042 A 
ATOM     21  Cl  UNL A   1      38.068  21.183  25.023  1.00  0.00    -0.084 Cl
ENDBRANCH  12  14
ENDBRANCH   9  10
ENDBRANCH   8   9
BRANCH   8  22
ATOM     22  C   UNL A   1      30.095  27.105  23.817  1.00  0.00    -0.035 A 
ATOM     23  C   UNL A   1      30.768  28.253  23.368  1.00  0.00     0.004 A 
ATOM     24  C   UNL A   1      28.699  27.047  23.685  1.00  0.00     0.004 A 
ATOM     25  C   UNL A   1      30.057  29.343  22.864  1.00  0.00     0.000 A 
ATOM     26  C   UNL A   1      27.992  28.138  23.174  1.00  0.00     0.000 A 
ATOM     27  C   UNL A   1      28.669  29.289  22.778  1.00  0.00     0.000 A 
ENDBRANCH   8  22
ENDBRANCH   5   8
ENDBRANCH   3   4
ENDBRANCH   2   3
ENDBRANCH   1   2
BRANCH   1  28
ATOM     28  C   UNL A   1      31.525  30.848  25.916  1.00  0.00     0.002 C 
BRANCH  28  29
ATOM     29  C   UNL A   1      31.288  32.226  26.539  1.00  0.00     0.021 C 
BRANCH  29  30
ATOM     30  C   UNL A   1      32.497  32.809  27.265  1.00  0.00     0.116 C 
BRANCH  30  31
ATOM     31  N   UNL A   1      32.308  34.210  27.604  1.00  0.00    -0.352 N 
ATOM     32  C   UNL A   1      32.956  34.975  28.540  1.00  0.00     0.251 C 
ATOM     33  H   UNL A   1      31.612  34.678  27.087  1.00  0.00     0.163 HD
ATOM     34  O   UNL A   1      32.529  36.091  28.829  1.00  0.00    -0.269 OA
BRANCH  32  35
ATOM     35  C   UNL A   1      34.159  34.451  29.218  1.00  0.00     0.039 A 
ATOM     36  C   UNL A   1      34.020  33.847  30.471  1.00  0.00     0.014 A 
ATOM     37  C   UNL A   1      35.422  34.569  28.631  1.00  0.00     0.014 A 
ATOM     38  C   UNL A   1      35.139  33.310  31.109  1.00  0.00     0.010 A 
ATOM     39  C   UNL A   1      36.525  33.974  29.238  1.00  0.00     0.010 A 
ATOM     40  C   UNL A   1      36.396  33.342  30.484  1.00  0.00    -0.014 A 
BRANCH  40  41
ATOM     41  C   UNL A   1      37.586  32.722  31.117  1.00  0.00     0.031 A 
ATOM     42  C   UNL A   1      38.232  31.515  30.496  1.00  0.00     0.074 A 
ATOM     43  C   UNL A   1      38.044  33.204  32.289  1.00  0.00     0.049 A 
ATOM     44  N   UNL A   1      39.231  30.793  30.935  1.00  0.00    -0.248 NA
ATOM     45  C   UNL A   1      37.663  31.042  29.223  1.00  0.00     0.031 C 
ATOM     46  C   UNL A   1      37.479  34.343  33.015  1.00  0.00     0.029 A 
ATOM     47  N   UNL A   1      39.087  32.791  33.079  1.00  0.00    -0.354 N 
ATOM     48  C   UNL A   1      39.397  29.773  30.006  1.00  0.00     0.074 A 
ATOM     49  C   UNL A   1      38.368  29.943  29.004  1.00  0.00     0.031 C 
ATOM     50  C   UNL A   1      38.195  34.550  34.132  1.00  0.00     0.029 A 
ATOM     51  C   UNL A   1      39.244  33.539  34.219  1.00  0.00     0.049 A 
ATOM     52  H   UNL A   1      39.667  32.029  32.850  1.00  0.00     0.167 HD
ATOM     53  C   UNL A   1      40.335  28.797  29.981  1.00  0.00     0.037 A 
ATOM     54  C   UNL A   1      40.132  33.422  35.225  1.00  0.00     0.037 A 
ATOM     55  C   UNL A   1      41.378  28.649  30.963  1.00  0.00     0.049 A 
ATOM     56  C   UNL A   1      41.162  32.328  35.174  1.00  0.00     0.074 A 
ATOM     57  C   UNL A   1      42.416  27.734  30.986  1.00  0.00     0.029 A 
ATOM     58  N   UNL A   1      41.513  29.437  32.095  1.00  0.00    -0.354 N 
ATOM     59  N   UNL A   1      41.349  31.412  34.255  1.00  0.00    -0.248 NA
ATOM     60  C   UNL A   1      42.108  32.257  36.296  1.00  0.00     0.031 C 
ATOM     61  C   UNL A   1      43.156  27.943  32.156  1.00  0.00     0.029 A 
ATOM     62  C   UNL A   1      42.604  29.015  32.837  1.00  0.00     0.049 A 
ATOM     63  H   UNL A   1      40.921  30.186  32.337  1.00  0.00     0.167 HD
ATOM     64  C   UNL A   1      42.449  30.675  34.673  1.00  0.00     0.074 A 
ATOM     65  C   UNL A   1      42.894  31.256  35.922  1.00  0.00     0.031 C 
ATOM     66  C   UNL A   1      43.039  29.610  34.074  1.00  0.00     0.037 A 
BRANCH  53  67
ATOM     67  C   UNL A   1      40.277  27.811  28.851  1.00  0.00     0.057 A 
ATOM     68  C   UNL A   1      40.987  28.010  27.659  1.00  0.00     0.134 A 
ATOM     69  C   UNL A   1      39.533  26.631  28.970  1.00  0.00     0.134 A 
ATOM     70  F   UNL A   1      41.711  29.125  27.477  1.00  0.00    -0.206 F 
ATOM     71  C   UNL A   1      40.936  27.084  26.616  1.00  0.00     0.040 A 
ATOM     72  C   UNL A   1      39.495  25.685  27.944  1.00  0.00     0.040 A 
ATOM     73  F   UNL A   1      38.835  26.374  30.086  1.00  0.00    -0.206 F 
ATOM     74  C   UNL A   1      40.194  25.914  26.760  1.00  0.00     0.006 A 
ENDBRANCH  53  67
BRANCH  54  75
ATOM     75  C   UNL A   1      40.105  34.381  36.357  1.00  0.00     0.057 A 
ATOM     76  C   UNL A   1      39.373  34.103  37.517  1.00  0.00     0.134 A 
ATOM     77  C   UNL A   1      40.798  35.596  36.306  1.00  0.00     0.134 A 
ATOM     78  F   UNL A   1      38.674  32.963  37.616  1.00  0.00    -0.206 F 
ATOM     79  C   UNL A   1      39.316  35.007  38.580  1.00  0.00     0.040 A 
ATOM     80  C   UNL A   1      40.768  36.498  37.370  1.00  0.00     0.040 A 
ATOM     81  F   UNL A   1      41.524  35.917  35.224  1.00  0.00    -0.206 F 
ATOM     82  C   UNL A   1      40.019  36.207  38.509  1.00  0.00     0.006 A 
ENDBRANCH  54  75
BRANCH  66  83
ATOM     83  C   UNL A   1      44.249  29.031  34.744  1.00  0.00     0.057 A 
ATOM     84  C   UNL A   1      44.150  27.993  35.680  1.00  0.00     0.134 A 
ATOM     85  C   UNL A   1      45.531  29.491  34.421  1.00  0.00     0.134 A 
ATOM     86  F   UNL A   1      42.949  27.517  36.043  1.00  0.00    -0.206 F 
ATOM     87  C   UNL A   1      45.283  27.449  36.286  1.00  0.00     0.040 A 
ATOM     88  C   UNL A   1      46.673  28.937  35.001  1.00  0.00     0.040 A 
ATOM     89  F   UNL A   1      45.695  30.477  33.527  1.00  0.00    -0.206 F 
ATOM     90  C   UNL A   1      46.550  27.916  35.941  1.00  0.00     0.006 A 
ENDBRANCH  66  83
ENDBRANCH  40  41
ENDBRANCH  32  35
ENDBRANCH  30  31
ENDBRANCH  29  30
ENDBRANCH  28  29
ENDBRANCH   1  28
TORSDOF 17
ENDMDL
MODEL 2
REMARK VINA RESULT:     -11.9      4.238      9.294
REMARK SMILES O=C(C[C@H](C(=O)NCCCCCCNC(=O)c1ccc(-c2c3nc(c(-c4c(F)cccc4F)c4ccc([nH]4)c(-c4c(F)cccc4F)c4nc(c(-c5c(F)cccc5F)c5ccc2[nH]5)C=C4)C=C3)cc1)c1ccccc1)Nc1ccc(Cl)cc1Cl
REMARK SMILES IDX 10 1 9 2 8 3 7 4 5 5 6 6 4 8 3 9 2 10 1 11 77 12 78 14 79 15
REMARK SMILES IDX 84 16 80 17 83 18 85 19 81 20 82 21 71 22 72 23 76 24 73 25
REMARK SMILES IDX 75 26 74 27 11 28 12 29 13 30 14 31 15 32 16 34 17 35 18 36
REMARK SMILES IDX 70 37 19 38 69 39 20 40 21 41 22 42 63 43 23 44 68 45 62 46
REMARK SMILES IDX 64 47 24 48 67 49 61 50 60 51 25 53 51 54 34 55 50 56 35 57
REMARK SMILES IDX 38 58 49 59 65 60 36 61 37 62 48 64 66 65 39 66 26 67 27 68
REMARK SMILES IDX 32 69 28 70 29 71 31 72 33 73 30 74 52 75 53 76 58 77 54 78
REMARK SMILES IDX 55 79 57 80 59 81 56 82 40 83 41 84 46 85 42 86 43 87 45 88
REMARK SMILES IDX 47 89 44 90
REMARK H PARENT 7 7 77 13 14 33 64 52 38 63
REMARK Flexibility Score: inf
ROOT
ATOM      1  C   UNL A   1      37.027  21.953  24.365  1.00  0.00     0.002 C 
ENDROOT
BRANCH   1   2
ATOM      2  C   UNL A   1      36.839  23.028  25.443  1.00  0.00     0.021 C 
BRANCH   2   3
ATOM      3  C   UNL A   1      35.581  23.879  25.256  1.00  0.00     0.116 C 
BRANCH   3   4
ATOM      4  N   UNL A   1      35.194  23.935  23.860  1.00  0.00    -0.356 N 
ATOM      5  C   UNL A   1      34.075  23.438  23.254  1.00  0.00     0.228 C 
ATOM      6  O   UNL A   1      34.077  23.363  22.027  1.00  0.00    -0.274 OA
ATOM      7  H   UNL A   1      35.827  24.397  23.263  1.00  0.00     0.163 HD
BRANCH   5   8
ATOM      8  C   UNL A   1      32.871  23.023  24.113  1.00  0.00     0.118 C 
BRANCH   8   9
ATOM      9  C   UNL A   1      31.575  23.700  23.646  1.00  0.00     0.118 C 
BRANCH   9  10
ATOM     10  C   UNL A   1      31.549  25.202  23.888  1.00  0.00     0.225 C 
ATOM     11  O   UNL A   1      30.866  25.944  23.188  1.00  0.00    -0.275 OA
ATOM     12  N   UNL A   1      32.362  25.624  24.928  1.00  0.00    -0.325 N 
ATOM     13  H   UNL A   1      32.924  24.950  25.373  1.00  0.00     0.169 HD
BRANCH  12  14
ATOM     14  C   UNL A   1      32.443  26.960  25.394  1.00  0.00     0.060 A 
ATOM     15  C   UNL A   1      31.696  27.250  26.547  1.00  0.00     0.029 A 
ATOM     16  C   UNL A   1      33.180  27.995  24.788  1.00  0.00     0.066 A 
ATOM     17  C   UNL A   1      31.754  28.517  27.135  1.00  0.00     0.023 A 
ATOM     18  C   UNL A   1      33.239  29.262  25.383  1.00  0.00     0.043 A 
ATOM     19  Cl  UNL A   1      33.859  27.875  23.199  1.00  0.00    -0.082 Cl
ATOM     20  C   UNL A   1      32.538  29.512  26.560  1.00  0.00     0.042 A 
ATOM     21  Cl  UNL A   1      32.609  31.069  27.287  1.00  0.00    -0.084 Cl
ENDBRANCH  12  14
ENDBRANCH   9  10
ENDBRANCH   8   9
BRANCH   8  22
ATOM     22  C   UNL A   1      32.701  21.507  24.154  1.00  0.00    -0.035 A 
ATOM     23  C   UNL A   1      33.052  20.791  25.311  1.00  0.00     0.004 A 
ATOM     24  C   UNL A   1      32.249  20.796  23.033  1.00  0.00     0.004 A 
ATOM     25  C   UNL A   1      33.017  19.396  25.321  1.00  0.00     0.000 A 
ATOM     26  C   UNL A   1      32.209  19.400  23.049  1.00  0.00     0.000 A 
ATOM     27  C   UNL A   1      32.606  18.701  24.187  1.00  0.00     0.000 A 
ENDBRANCH   8  22
ENDBRANCH   5   8
ENDBRANCH   3   4
ENDBRANCH   2   3
ENDBRANCH   1   2
BRANCH   1  28
ATOM     28  C   UNL A   1      36.689  20.526  24.810  1.00  0.00     0.002 C 
BRANCH  28  29
ATOM     29  C   UNL A   1      37.891  19.584  24.929  1.00  0.00     0.021 C 
BRANCH  29  30
ATOM     30  C   UNL A   1      39.005  20.092  25.840  1.00  0.00     0.116 C 
BRANCH  30  31
ATOM     31  N   UNL A   1      40.167  19.218  25.820  1.00  0.00    -0.352 N 
ATOM     32  C   UNL A   1      41.486  19.519  26.046  1.00  0.00     0.251 C 
ATOM     33  H   UNL A   1      39.980  18.273  25.614  1.00  0.00     0.163 HD
ATOM     34  O   UNL A   1      42.360  18.692  25.792  1.00  0.00    -0.269 OA
BRANCH  32  35
ATOM     35  C   UNL A   1      41.862  20.845  26.577  1.00  0.00     0.039 A 
ATOM     36  C   UNL A   1      42.319  21.823  25.690  1.00  0.00     0.014 A 
ATOM     37  C   UNL A   1      41.781  21.119  27.946  1.00  0.00     0.014 A 
ATOM     38  C   UNL A   1      42.640  23.095  26.168  1.00  0.00     0.010 A 
ATOM     39  C   UNL A   1      42.038  22.405  28.410  1.00  0.00     0.010 A 
ATOM     40  C   UNL A   1      42.474  23.406  27.527  1.00  0.00    -0.014 A 
BRANCH  40  41
ATOM     41  C   UNL A   1      42.750  24.769  28.044  1.00  0.00     0.031 A 
ATOM     42  C   UNL A   1      44.141  25.154  28.462  1.00  0.00     0.074 A 
ATOM     43  C   UNL A   1      41.733  25.640  28.200  1.00  0.00     0.049 A 
ATOM     44  N   UNL A   1      44.564  26.269  29.001  1.00  0.00    -0.248 NA
ATOM     45  C   UNL A   1      45.193  24.141  28.271  1.00  0.00     0.031 C 
ATOM     46  C   UNL A   1      40.332  25.373  27.872  1.00  0.00     0.029 A 
ATOM     47  N   UNL A   1      41.722  26.924  28.683  1.00  0.00    -0.354 N 
ATOM     48  C   UNL A   1      45.922  26.085  29.231  1.00  0.00     0.074 A 
ATOM     49  C   UNL A   1      46.243  24.737  28.815  1.00  0.00     0.031 C 
ATOM     50  C   UNL A   1      39.601  26.466  28.144  1.00  0.00     0.029 A 
ATOM     51  C   UNL A   1      40.474  27.497  28.696  1.00  0.00     0.049 A 
ATOM     52  H   UNL A   1      42.532  27.390  28.992  1.00  0.00     0.167 HD
ATOM     53  C   UNL A   1      46.823  26.968  29.724  1.00  0.00     0.037 A 
ATOM     54  C   UNL A   1      40.078  28.715  29.112  1.00  0.00     0.037 A 
ATOM     55  C   UNL A   1      46.508  28.319  30.108  1.00  0.00     0.049 A 
ATOM     56  C   UNL A   1      41.098  29.675  29.656  1.00  0.00     0.074 A 
ATOM     57  C   UNL A   1      47.365  29.311  30.552  1.00  0.00     0.029 A 
ATOM     58  N   UNL A   1      45.235  28.867  30.091  1.00  0.00    -0.354 N 
ATOM     59  N   UNL A   1      42.390  29.512  29.805  1.00  0.00    -0.248 NA
ATOM     60  C   UNL A   1      40.605  30.991  30.085  1.00  0.00     0.031 C 
ATOM     61  C   UNL A   1      46.603  30.447  30.845  1.00  0.00     0.029 A 
ATOM     62  C   UNL A   1      45.279  30.177  30.540  1.00  0.00     0.049 A 
ATOM     63  H   UNL A   1      44.420  28.396  29.803  1.00  0.00     0.167 HD
ATOM     64  C   UNL A   1      42.868  30.711  30.317  1.00  0.00     0.074 A 
ATOM     65  C   UNL A   1      41.729  31.596  30.443  1.00  0.00     0.031 C 
ATOM     66  C   UNL A   1      44.137  31.048  30.652  1.00  0.00     0.037 A 
BRANCH  53  67
ATOM     67  C   UNL A   1      48.241  26.498  29.876  1.00  0.00     0.057 A 
ATOM     68  C   UNL A   1      49.195  26.689  28.867  1.00  0.00     0.134 A 
ATOM     69  C   UNL A   1      48.666  25.879  31.058  1.00  0.00     0.134 A 
ATOM     70  F   UNL A   1      48.849  27.265  27.705  1.00  0.00    -0.206 F 
ATOM     71  C   UNL A   1      50.513  26.258  29.019  1.00  0.00     0.040 A 
ATOM     72  C   UNL A   1      49.988  25.467  31.231  1.00  0.00     0.040 A 
ATOM     73  F   UNL A   1      47.806  25.671  32.065  1.00  0.00    -0.206 F 
ATOM     74  C   UNL A   1      50.915  25.651  30.207  1.00  0.00     0.006 A 
ENDBRANCH  53  67
BRANCH  54  75
ATOM     75  C   UNL A   1      38.651  29.108  29.005  1.00  0.00     0.057 A 
ATOM     76  C   UNL A   1      38.124  29.581  27.798  1.00  0.00     0.134 A 
ATOM     77  C   UNL A   1      37.784  29.029  30.101  1.00  0.00     0.134 A 
ATOM     78  F   UNL A   1      38.911  29.696  26.718  1.00  0.00    -0.206 F 
ATOM     79  C   UNL A   1      36.791  29.979  27.687  1.00  0.00     0.040 A 
ATOM     80  C   UNL A   1      36.443  29.402  29.998  1.00  0.00     0.040 A 
ATOM     81  F   UNL A   1      38.226  28.576  31.283  1.00  0.00    -0.206 F 
ATOM     82  C   UNL A   1      35.945  29.887  28.790  1.00  0.00     0.006 A 
ENDBRANCH  54  75
BRANCH  66  83
ATOM     83  C   UNL A   1      44.367  32.444  31.152  1.00  0.00     0.057 A 
ATOM     84  C   UNL A   1      44.625  33.508  30.280  1.00  0.00     0.134 A 
ATOM     85  C   UNL A   1      44.290  32.731  32.520  1.00  0.00     0.134 A 
ATOM     86  F   UNL A   1      44.725  33.296  28.958  1.00  0.00    -0.206 F 
ATOM     87  C   UNL A   1      44.821  34.807  30.753  1.00  0.00     0.040 A 
ATOM     88  C   UNL A   1      44.458  34.030  33.003  1.00  0.00     0.040 A 
ATOM     89  F   UNL A   1      44.038  31.758  33.408  1.00  0.00    -0.206 F 
ATOM     90  C   UNL A   1      44.730  35.071  32.118  1.00  0.00     0.006 A 
ENDBRANCH  66  83
ENDBRANCH  40  41
ENDBRANCH  32  35
ENDBRANCH  30  31
ENDBRANCH  29  30
ENDBRANCH  28  29
ENDBRANCH   1  28
TORSDOF 17
ENDMDL
MODEL 3
REMARK VINA RESULT:     -11.9      0.826      1.636
REMARK SMILES O=C(C[C@H](C(=O)NCCCCCCNC(=O)c1ccc(-c2c3nc(c(-c4c(F)cccc4F)c4ccc([nH]4)c(-c4c(F)cccc4F)c4nc(c(-c5c(F)cccc5F)c5ccc2[nH]5)C=C4)C=C3)cc1)c1ccccc1)Nc1ccc(Cl)cc1Cl
REMARK SMILES IDX 10 1 9 2 8 3 7 4 5 5 6 6 4 8 3 9 2 10 1 11 77 12 78 14 79 15
REMARK SMILES IDX 84 16 80 17 83 18 85 19 81 20 82 21 71 22 72 23 76 24 73 25
REMARK SMILES IDX 75 26 74 27 11 28 12 29 13 30 14 31 15 32 16 34 17 35 18 36
REMARK SMILES IDX 70 37 19 38 69 39 20 40 21 41 22 42 63 43 23 44 68 45 62 46
REMARK SMILES IDX 64 47 24 48 67 49 61 50 60 51 25 53 51 54 34 55 50 56 35 57
REMARK SMILES IDX 38 58 49 59 65 60 36 61 37 62 48 64 66 65 39 66 26 67 27 68
REMARK SMILES IDX 32 69 28 70 29 71 31 72 33 73 30 74 52 75 53 76 58 77 54 78
REMARK SMILES IDX 55 79 57 80 59 81 56 82 40 83 41 84 46 85 42 86 43 87 45 88
REMARK SMILES IDX 47 89 44 90
REMARK H PARENT 7 7 77 13 14 33 64 52 38 63
REMARK Flexibility Score: inf
ROOT
ATOM      1  C   UNL A   1      32.361  29.893  25.986  1.00  0.00     0.002 C 
ENDROOT
BRANCH   1   2
ATOM      2  C   UNL A   1      32.143  28.846  27.085  1.00  0.00     0.021 C 
BRANCH   2   3
ATOM      3  C   UNL A   1      32.505  27.420  26.662  1.00  0.00     0.116 C 
BRANCH   3   4
ATOM      4  N   UNL A   1      31.396  26.514  26.888  1.00  0.00    -0.356 N 
ATOM      5  C   UNL A   1      30.560  25.930  25.979  1.00  0.00     0.228 C 
ATOM      6  O   UNL A   1      29.528  25.413  26.404  1.00  0.00    -0.274 OA
ATOM      7  H   UNL A   1      31.220  26.287  27.830  1.00  0.00     0.163 HD
BRANCH   5   8
ATOM      8  C   UNL A   1      30.947  25.921  24.493  1.00  0.00     0.118 C 
BRANCH   8   9
ATOM      9  C   UNL A   1      30.684  24.555  23.842  1.00  0.00     0.118 C 
BRANCH   9  10
ATOM     10  C   UNL A   1      31.939  23.714  23.659  1.00  0.00     0.225 C 
ATOM     11  O   UNL A   1      32.496  23.637  22.568  1.00  0.00    -0.275 OA
ATOM     12  N   UNL A   1      32.354  23.056  24.807  1.00  0.00    -0.325 N 
ATOM     13  H   UNL A   1      31.788  23.131  25.608  1.00  0.00     0.169 HD
BRANCH  12  14
ATOM     14  C   UNL A   1      33.537  22.282  24.906  1.00  0.00     0.060 A 
ATOM     15  C   UNL A   1      33.358  20.890  24.895  1.00  0.00     0.029 A 
ATOM     16  C   UNL A   1      34.842  22.795  25.034  1.00  0.00     0.066 A 
ATOM     17  C   UNL A   1      34.459  20.029  24.917  1.00  0.00     0.023 A 
ATOM     18  C   UNL A   1      35.943  21.928  25.053  1.00  0.00     0.043 A 
ATOM     19  Cl  UNL A   1      35.181  24.453  25.404  1.00  0.00    -0.082 Cl
ATOM     20  C   UNL A   1      35.746  20.552  24.979  1.00  0.00     0.042 A 
ATOM     21  Cl  UNL A   1      37.099  19.490  25.006  1.00  0.00    -0.084 Cl
ENDBRANCH  12  14
ENDBRANCH   9  10
ENDBRANCH   8   9
BRANCH   8  22
ATOM     22  C   UNL A   1      30.242  27.030  23.717  1.00  0.00    -0.035 A 
ATOM     23  C   UNL A   1      30.994  27.966  22.988  1.00  0.00     0.004 A 
ATOM     24  C   UNL A   1      28.847  27.173  23.761  1.00  0.00     0.004 A 
ATOM     25  C   UNL A   1      30.373  29.055  22.376  1.00  0.00     0.000 A 
ATOM     26  C   UNL A   1      28.228  28.261  23.141  1.00  0.00     0.000 A 
ATOM     27  C   UNL A   1      28.992  29.208  22.462  1.00  0.00     0.000 A 
ENDBRANCH   8  22
ENDBRANCH   5   8
ENDBRANCH   3   4
ENDBRANCH   2   3
ENDBRANCH   1   2
BRANCH   1  28
ATOM     28  C   UNL A   1      31.113  30.690  25.595  1.00  0.00     0.002 C 
BRANCH  28  29
ATOM     29  C   UNL A   1      31.024  32.093  26.203  1.00  0.00     0.021 C 
BRANCH  29  30
ATOM     30  C   UNL A   1      32.303  32.570  26.884  1.00  0.00     0.116 C 
BRANCH  30  31
ATOM     31  N   UNL A   1      32.186  33.935  27.371  1.00  0.00    -0.352 N 
ATOM     32  C   UNL A   1      32.904  34.575  28.348  1.00  0.00     0.251 C 
ATOM     33  H   UNL A   1      31.489  34.479  26.937  1.00  0.00     0.163 HD
ATOM     34  O   UNL A   1      32.536  35.671  28.768  1.00  0.00    -0.269 OA
BRANCH  32  35
ATOM     35  C   UNL A   1      34.113  33.941  28.914  1.00  0.00     0.039 A 
ATOM     36  C   UNL A   1      35.364  34.288  28.397  1.00  0.00     0.014 A 
ATOM     37  C   UNL A   1      34.013  32.995  29.938  1.00  0.00     0.014 A 
ATOM     38  C   UNL A   1      36.519  33.730  28.947  1.00  0.00     0.010 A 
ATOM     39  C   UNL A   1      35.168  32.490  30.529  1.00  0.00     0.010 A 
ATOM     40  C   UNL A   1      36.433  32.849  30.037  1.00  0.00    -0.014 A 
BRANCH  40  41
ATOM     41  C   UNL A   1      37.651  32.294  30.675  1.00  0.00     0.031 A 
ATOM     42  C   UNL A   1      38.326  31.083  30.095  1.00  0.00     0.074 A 
ATOM     43  C   UNL A   1      38.112  32.842  31.817  1.00  0.00     0.049 A 
ATOM     44  N   UNL A   1      39.355  30.413  30.549  1.00  0.00    -0.248 NA
ATOM     45  C   UNL A   1      37.753  30.538  28.854  1.00  0.00     0.031 C 
ATOM     46  C   UNL A   1      37.522  33.992  32.503  1.00  0.00     0.029 A 
ATOM     47  N   UNL A   1      39.180  32.496  32.607  1.00  0.00    -0.354 N 
ATOM     48  C   UNL A   1      39.539  29.359  29.662  1.00  0.00     0.074 A 
ATOM     49  C   UNL A   1      38.490  29.453  28.670  1.00  0.00     0.031 C 
ATOM     50  C   UNL A   1      38.247  34.270  33.599  1.00  0.00     0.029 A 
ATOM     51  C   UNL A   1      39.330  33.298  33.711  1.00  0.00     0.049 A 
ATOM     52  H   UNL A   1      39.781  31.744  32.401  1.00  0.00     0.167 HD
ATOM     53  C   UNL A   1      40.508  28.413  29.663  1.00  0.00     0.037 A 
ATOM     54  C   UNL A   1      40.237  33.252  34.706  1.00  0.00     0.037 A 
ATOM     55  C   UNL A   1      41.570  28.341  30.633  1.00  0.00     0.049 A 
ATOM     56  C   UNL A   1      41.301  32.190  34.684  1.00  0.00     0.074 A 
ATOM     57  C   UNL A   1      42.638  27.461  30.677  1.00  0.00     0.029 A 
ATOM     58  N   UNL A   1      41.697  29.181  31.727  1.00  0.00    -0.354 N 
ATOM     59  N   UNL A   1      41.503  31.242  33.803  1.00  0.00    -0.248 NA
ATOM     60  C   UNL A   1      42.266  32.198  35.793  1.00  0.00     0.031 C 
ATOM     61  C   UNL A   1      43.388  27.744  31.824  1.00  0.00     0.029 A 
ATOM     62  C   UNL A   1      42.813  28.827  32.468  1.00  0.00     0.049 A 
ATOM     63  H   UNL A   1      41.085  29.920  31.947  1.00  0.00     0.167 HD
ATOM     64  C   UNL A   1      42.633  30.558  34.233  1.00  0.00     0.074 A 
ATOM     65  C   UNL A   1      43.078  31.207  35.449  1.00  0.00     0.031 C 
ATOM     66  C   UNL A   1      43.247  29.488  33.671  1.00  0.00     0.037 A 
BRANCH  53  67
ATOM     67  C   UNL A   1      40.465  27.377  28.577  1.00  0.00     0.057 A 
ATOM     68  C   UNL A   1      39.658  26.236  28.676  1.00  0.00     0.134 A 
ATOM     69  C   UNL A   1      41.211  27.541  27.403  1.00  0.00     0.134 A 
ATOM     70  F   UNL A   1      38.927  26.014  29.780  1.00  0.00    -0.206 F 
ATOM     71  C   UNL A   1      39.616  25.282  27.658  1.00  0.00     0.040 A 
ATOM     72  C   UNL A   1      41.157  26.607  26.367  1.00  0.00     0.040 A 
ATOM     73  F   UNL A   1      41.999  28.613  27.240  1.00  0.00    -0.206 F 
ATOM     74  C   UNL A   1      40.361  25.469  26.497  1.00  0.00     0.006 A 
ENDBRANCH  53  67
BRANCH  54  75
ATOM     75  C   UNL A   1      40.196  34.258  35.796  1.00  0.00     0.057 A 
ATOM     76  C   UNL A   1      39.455  34.027  36.961  1.00  0.00     0.134 A 
ATOM     77  C   UNL A   1      40.885  35.473  35.700  1.00  0.00     0.134 A 
ATOM     78  F   UNL A   1      38.760  32.889  37.102  1.00  0.00    -0.206 F 
ATOM     79  C   UNL A   1      39.386  34.974  37.984  1.00  0.00     0.040 A 
ATOM     80  C   UNL A   1      40.842  36.419  36.725  1.00  0.00     0.040 A 
ATOM     81  F   UNL A   1      41.619  35.751  34.612  1.00  0.00    -0.206 F 
ATOM     82  C   UNL A   1      40.084  36.173  37.869  1.00  0.00     0.006 A 
ENDBRANCH  54  75
BRANCH  66  83
ATOM     83  C   UNL A   1      44.485  28.977  34.345  1.00  0.00     0.057 A 
ATOM     84  C   UNL A   1      45.754  29.489  34.047  1.00  0.00     0.134 A 
ATOM     85  C   UNL A   1      44.402  27.985  35.330  1.00  0.00     0.134 A 
ATOM     86  F   UNL A   1      45.903  30.431  33.103  1.00  0.00    -0.206 F 
ATOM     87  C   UNL A   1      46.899  29.018  34.692  1.00  0.00     0.040 A 
ATOM     88  C   UNL A   1      45.536  27.524  36.000  1.00  0.00     0.040 A 
ATOM     89  F   UNL A   1      43.215  27.458  35.667  1.00  0.00    -0.206 F 
ATOM     90  C   UNL A   1      46.791  28.038  35.676  1.00  0.00     0.006 A 
ENDBRANCH  66  83
ENDBRANCH  40  41
ENDBRANCH  32  35
ENDBRANCH  30  31
ENDBRANCH  29  30
ENDBRANCH  28  29
ENDBRANCH   1  28
TORSDOF 17
ENDMDL
