MODEL 1
REMARK VINA RESULT:     -11.7      0.000      0.000
REMARK SMILES COc1ccc(NS(=O)(=O)c2ccc(Cl)c(C(=O)NCCCCCCNC(=O)c3ccc(-c4c5nc(c(-c6c(F)cccc6F)c6ccc([nH]6)c(-c6c(F)cccc6F)c6nc(c(-c7c(F)cccc7F)c7ccc4[nH]7)C=C6)C=C5)cc3)c2)cc1Cl
REMARK SMILES IDX 21 1 20 2 19 3 17 4 18 5 16 7 11 8 12 9 83 10 13 11 14 12
REMARK SMILES IDX 15 13 8 14 9 15 10 16 7 17 6 19 3 20 4 21 85 22 5 23 84 24
REMARK SMILES IDX 86 25 2 26 1 27 22 28 23 29 24 30 25 31 26 32 27 33 28 35
REMARK SMILES IDX 29 36 30 37 82 38 31 39 81 40 32 41 33 42 34 43 75 44 35 45
REMARK SMILES IDX 80 46 74 47 76 48 36 49 79 50 73 51 72 52 37 54 63 55 46 56
REMARK SMILES IDX 62 57 47 58 50 59 61 60 77 61 48 62 49 63 60 65 78 66 51 67
REMARK SMILES IDX 38 68 39 69 44 70 40 71 41 72 43 73 45 74 42 75 64 76 65 77
REMARK SMILES IDX 70 78 66 79 67 80 69 81 71 82 68 83 52 84 53 85 58 86 54 87
REMARK SMILES IDX 55 88 57 89 59 90 56 91
REMARK H PARENT 19 6 7 18 26 34 76 53 50 64
REMARK Flexibility Score: inf
ROOT
ATOM      1  C   UNL A   1      37.351  23.047  25.034  1.00  0.00     0.021 C 
ENDROOT
BRANCH   1   2
ATOM      2  C   UNL A   1      36.382  23.974  25.756  1.00  0.00     0.116 C 
BRANCH   2   3
ATOM      3  N   UNL A   1      35.599  23.305  26.766  1.00  0.00    -0.352 N 
ATOM      4  C   UNL A   1      34.295  22.900  26.782  1.00  0.00     0.252 C 
ATOM      5  O   UNL A   1      33.892  22.361  27.815  1.00  0.00    -0.269 OA
ATOM      6  H   UNL A   1      36.093  23.104  27.594  1.00  0.00     0.163 HD
BRANCH   4   7
ATOM      7  C   UNL A   1      33.318  23.112  25.679  1.00  0.00     0.059 A 
ATOM      8  C   UNL A   1      31.719  24.734  24.810  1.00  0.00     0.088 A 
ATOM      9  C   UNL A   1      31.196  23.795  23.927  1.00  0.00     0.024 A 
ATOM     10  C   UNL A   1      32.842  24.435  25.589  1.00  0.00     0.037 A 
ATOM     11  C   UNL A   1      31.689  22.493  23.972  1.00  0.00     0.023 A 
ATOM     12  C   UNL A   1      32.675  22.129  24.911  1.00  0.00     0.053 A 
ATOM     13  Cl  UNL A   1      32.813  20.430  25.189  1.00  0.00    -0.083 Cl
BRANCH   8  14
ATOM     14  S   UNL A   1      30.844  26.248  25.131  1.00  0.00     0.261 S 
ATOM     15  O   UNL A   1      30.729  26.391  26.566  1.00  0.00    -0.201 OA
ATOM     16  O   UNL A   1      29.670  26.291  24.286  1.00  0.00    -0.201 OA
BRANCH  14  17
ATOM     17  N   UNL A   1      31.921  27.473  24.620  1.00  0.00    -0.280 N 
ATOM     18  H   UNL A   1      32.212  27.514  23.680  1.00  0.00     0.180 HD
BRANCH  17  19
ATOM     19  C   UNL A   1      32.400  28.442  25.564  1.00  0.00     0.051 A 
ATOM     20  C   UNL A   1      33.397  30.299  27.411  1.00  0.00     0.137 A 
ATOM     21  C   UNL A   1      34.040  29.075  27.237  1.00  0.00     0.050 A 
ATOM     22  C   UNL A   1      32.259  30.599  26.654  1.00  0.00     0.085 A 
ATOM     23  C   UNL A   1      33.517  28.138  26.346  1.00  0.00     0.030 A 
ATOM     24  C   UNL A   1      31.766  29.676  25.719  1.00  0.00     0.051 A 
ATOM     25  Cl  UNL A   1      31.411  32.086  26.876  1.00  0.00    -0.080 Cl
BRANCH  20  26
ATOM     26  O   UNL A   1      33.950  31.225  28.258  1.00  0.00    -0.495 OA
ATOM     27  C   UNL A   1      35.008  31.944  27.626  1.00  0.00     0.278 C 
ENDBRANCH  20  26
ENDBRANCH  17  19
ENDBRANCH  14  17
ENDBRANCH   8  14
ENDBRANCH   4   7
ENDBRANCH   2   3
ENDBRANCH   1   2
BRANCH   1  28
ATOM     28  C   UNL A   1      36.728  21.858  24.291  1.00  0.00     0.002 C 
BRANCH  28  29
ATOM     29  C   UNL A   1      36.729  20.502  25.004  1.00  0.00     0.002 C 
BRANCH  29  30
ATOM     30  C   UNL A   1      37.988  19.644  24.868  1.00  0.00     0.021 C 
BRANCH  30  31
ATOM     31  C   UNL A   1      39.168  20.030  25.750  1.00  0.00     0.116 C 
BRANCH  31  32
ATOM     32  N   UNL A   1      40.189  19.003  25.827  1.00  0.00    -0.352 N 
ATOM     33  C   UNL A   1      41.533  19.126  26.081  1.00  0.00     0.251 C 
ATOM     34  H   UNL A   1      39.873  18.083  25.674  1.00  0.00     0.163 HD
ATOM     35  O   UNL A   1      42.265  18.144  26.002  1.00  0.00    -0.269 OA
BRANCH  33  36
ATOM     36  C   UNL A   1      42.115  20.446  26.419  1.00  0.00     0.039 A 
ATOM     37  C   UNL A   1      42.576  21.256  25.377  1.00  0.00     0.014 A 
ATOM     38  C   UNL A   1      42.221  20.882  27.742  1.00  0.00     0.014 A 
ATOM     39  C   UNL A   1      43.086  22.527  25.656  1.00  0.00     0.010 A 
ATOM     40  C   UNL A   1      42.668  22.175  28.014  1.00  0.00     0.010 A 
ATOM     41  C   UNL A   1      43.105  23.010  26.975  1.00  0.00    -0.014 A 
BRANCH  41  42
ATOM     42  C   UNL A   1      43.580  24.384  27.281  1.00  0.00     0.031 A 
ATOM     43  C   UNL A   1      42.608  25.444  27.721  1.00  0.00     0.074 A 
ATOM     44  C   UNL A   1      44.880  24.694  27.106  1.00  0.00     0.049 A 
ATOM     45  N   UNL A   1      42.822  26.711  27.967  1.00  0.00    -0.248 NA
ATOM     46  C   UNL A   1      41.206  25.029  27.882  1.00  0.00     0.031 C 
ATOM     47  C   UNL A   1      45.916  23.769  26.642  1.00  0.00     0.029 A 
ATOM     48  N   UNL A   1      45.550  25.878  27.286  1.00  0.00    -0.354 N 
ATOM     49  C   UNL A   1      41.584  27.247  28.298  1.00  0.00     0.074 A 
ATOM     50  C   UNL A   1      40.616  26.178  28.174  1.00  0.00     0.031 C 
ATOM     51  C   UNL A   1      47.092  24.416  26.593  1.00  0.00     0.029 A 
ATOM     52  C   UNL A   1      46.888  25.807  26.986  1.00  0.00     0.049 A 
ATOM     53  H   UNL A   1      45.111  26.703  27.601  1.00  0.00     0.167 HD
ATOM     54  C   UNL A   1      41.284  28.509  28.688  1.00  0.00     0.037 A 
ATOM     55  C   UNL A   1      47.843  26.756  27.018  1.00  0.00     0.037 A 
ATOM     56  C   UNL A   1      42.251  29.564  28.837  1.00  0.00     0.049 A 
ATOM     57  C   UNL A   1      47.483  28.148  27.454  1.00  0.00     0.074 A 
ATOM     58  C   UNL A   1      42.052  30.859  29.284  1.00  0.00     0.029 A 
ATOM     59  N   UNL A   1      43.601  29.445  28.543  1.00  0.00    -0.354 N 
ATOM     60  N   UNL A   1      46.319  28.624  27.823  1.00  0.00    -0.248 NA
ATOM     61  C   UNL A   1      48.572  29.136  27.485  1.00  0.00     0.031 C 
ATOM     62  C   UNL A   1      43.275  31.535  29.224  1.00  0.00     0.029 A 
ATOM     63  C   UNL A   1      44.243  30.649  28.781  1.00  0.00     0.049 A 
ATOM     64  H   UNL A   1      44.037  28.627  28.213  1.00  0.00     0.167 HD
ATOM     65  C   UNL A   1      46.539  29.955  28.155  1.00  0.00     0.074 A 
ATOM     66  C   UNL A   1      47.951  30.207  27.956  1.00  0.00     0.031 C 
ATOM     67  C   UNL A   1      45.651  30.883  28.586  1.00  0.00     0.037 A 
BRANCH  54  68
ATOM     68  C   UNL A   1      39.846  28.817  28.988  1.00  0.00     0.057 A 
ATOM     69  C   UNL A   1      38.948  29.202  27.983  1.00  0.00     0.134 A 
ATOM     70  C   UNL A   1      39.343  28.691  30.289  1.00  0.00     0.134 A 
ATOM     71  F   UNL A   1      39.368  29.352  26.718  1.00  0.00    -0.206 F 
ATOM     72  C   UNL A   1      37.608  29.470  28.264  1.00  0.00     0.040 A 
ATOM     73  C   UNL A   1      37.999  28.932  30.579  1.00  0.00     0.040 A 
ATOM     74  F   UNL A   1      40.147  28.321  31.297  1.00  0.00    -0.206 F 
ATOM     75  C   UNL A   1      37.128  29.329  29.566  1.00  0.00     0.006 A 
ENDBRANCH  54  68
BRANCH  55  76
ATOM     76  C   UNL A   1      49.240  26.418  26.644  1.00  0.00     0.057 A 
ATOM     77  C   UNL A   1      50.125  25.874  27.581  1.00  0.00     0.134 A 
ATOM     78  C   UNL A   1      49.725  26.641  25.351  1.00  0.00     0.134 A 
ATOM     79  F   UNL A   1      49.723  25.656  28.843  1.00  0.00    -0.206 F 
ATOM     80  C   UNL A   1      51.450  25.581  27.251  1.00  0.00     0.040 A 
ATOM     81  C   UNL A   1      51.040  26.330  25.000  1.00  0.00     0.040 A 
ATOM     82  F   UNL A   1      48.924  27.154  24.405  1.00  0.00    -0.206 F 
ATOM     83  C   UNL A   1      51.909  25.805  25.955  1.00  0.00     0.006 A 
ENDBRANCH  55  76
BRANCH  67  84
ATOM     84  C   UNL A   1      46.186  32.248  28.905  1.00  0.00     0.057 A 
ATOM     85  C   UNL A   1      46.215  33.272  27.950  1.00  0.00     0.134 A 
ATOM     86  C   UNL A   1      46.642  32.551  30.194  1.00  0.00     0.134 A 
ATOM     87  F   UNL A   1      45.804  33.041  26.694  1.00  0.00    -0.206 F 
ATOM     88  C   UNL A   1      46.698  34.544  28.261  1.00  0.00     0.040 A 
ATOM     89  C   UNL A   1      47.105  33.824  30.523  1.00  0.00     0.040 A 
ATOM     90  F   UNL A   1      46.634  31.616  31.157  1.00  0.00    -0.206 F 
ATOM     91  C   UNL A   1      47.139  34.825  29.554  1.00  0.00     0.006 A 
ENDBRANCH  67  84
ENDBRANCH  41  42
ENDBRANCH  33  36
ENDBRANCH  31  32
ENDBRANCH  30  31
ENDBRANCH  29  30
ENDBRANCH  28  29
ENDBRANCH   1  28
TORSDOF 17
ENDMDL
MODEL 2
REMARK VINA RESULT:     -11.5      1.567      2.646
REMARK SMILES COc1ccc(NS(=O)(=O)c2ccc(Cl)c(C(=O)NCCCCCCNC(=O)c3ccc(-c4c5nc(c(-c6c(F)cccc6F)c6ccc([nH]6)c(-c6c(F)cccc6F)c6nc(c(-c7c(F)cccc7F)c7ccc4[nH]7)C=C6)C=C5)cc3)c2)cc1Cl
REMARK SMILES IDX 21 1 20 2 19 3 17 4 18 5 16 7 11 8 12 9 83 10 13 11 14 12
REMARK SMILES IDX 15 13 8 14 9 15 10 16 7 17 6 19 3 20 4 21 85 22 5 23 84 24
REMARK SMILES IDX 86 25 2 26 1 27 22 28 23 29 24 30 25 31 26 32 27 33 28 35
REMARK SMILES IDX 29 36 30 37 82 38 31 39 81 40 32 41 33 42 34 43 75 44 35 45
REMARK SMILES IDX 80 46 74 47 76 48 36 49 79 50 73 51 72 52 37 54 63 55 46 56
REMARK SMILES IDX 62 57 47 58 50 59 61 60 77 61 48 62 49 63 60 65 78 66 51 67
REMARK SMILES IDX 38 68 39 69 44 70 40 71 41 72 43 73 45 74 42 75 64 76 65 77
REMARK SMILES IDX 70 78 66 79 67 80 69 81 71 82 68 83 52 84 53 85 58 86 54 87
REMARK SMILES IDX 55 88 57 89 59 90 56 91
REMARK H PARENT 19 6 7 18 26 34 76 53 50 64
REMARK Flexibility Score: inf
ROOT
ATOM      1  C   UNL A   1      37.378  23.043  25.213  1.00  0.00     0.021 C 
ENDROOT
BRANCH   1   2
ATOM      2  C   UNL A   1      36.269  23.765  25.966  1.00  0.00     0.116 C 
BRANCH   2   3
ATOM      3  N   UNL A   1      35.515  22.899  26.840  1.00  0.00    -0.352 N 
ATOM      4  C   UNL A   1      34.235  22.430  26.767  1.00  0.00     0.252 C 
ATOM      5  O   UNL A   1      33.854  21.707  27.690  1.00  0.00    -0.269 OA
ATOM      6  H   UNL A   1      36.013  22.590  27.630  1.00  0.00     0.163 HD
BRANCH   4   7
ATOM      7  C   UNL A   1      33.257  22.770  25.697  1.00  0.00     0.059 A 
ATOM      8  C   UNL A   1      31.359  24.223  25.217  1.00  0.00     0.088 A 
ATOM      9  C   UNL A   1      31.071  23.518  24.053  1.00  0.00     0.024 A 
ATOM     10  C   UNL A   1      32.506  23.931  25.964  1.00  0.00     0.037 A 
ATOM     11  C   UNL A   1      31.836  22.393  23.751  1.00  0.00     0.023 A 
ATOM     12  C   UNL A   1      32.858  21.964  24.620  1.00  0.00     0.053 A 
ATOM     13  Cl  UNL A   1      33.359  20.326  24.391  1.00  0.00    -0.083 Cl
BRANCH   8  14
ATOM     14  S   UNL A   1      30.169  25.355  25.897  1.00  0.00     0.261 S 
ATOM     15  O   UNL A   1      30.855  26.599  26.171  1.00  0.00    -0.201 OA
ATOM     16  O   UNL A   1      29.426  24.675  26.936  1.00  0.00    -0.201 OA
BRANCH  14  17
ATOM     17  N   UNL A   1      29.106  25.679  24.598  1.00  0.00    -0.280 N 
ATOM     18  H   UNL A   1      28.411  25.025  24.354  1.00  0.00     0.180 HD
BRANCH  17  19
ATOM     19  C   UNL A   1      29.228  26.907  23.865  1.00  0.00     0.051 A 
ATOM     20  C   UNL A   1      29.399  29.321  22.451  1.00  0.00     0.137 A 
ATOM     21  C   UNL A   1      28.157  28.838  22.858  1.00  0.00     0.050 A 
ATOM     22  C   UNL A   1      30.558  28.600  22.760  1.00  0.00     0.085 A 
ATOM     23  C   UNL A   1      28.073  27.616  23.526  1.00  0.00     0.030 A 
ATOM     24  C   UNL A   1      30.476  27.398  23.479  1.00  0.00     0.051 A 
ATOM     25  Cl  UNL A   1      32.109  29.145  22.234  1.00  0.00    -0.080 Cl
BRANCH  20  26
ATOM     26  O   UNL A   1      29.466  30.544  21.836  1.00  0.00    -0.495 OA
ATOM     27  C   UNL A   1      28.269  30.833  21.116  1.00  0.00     0.278 C 
ENDBRANCH  20  26
ENDBRANCH  17  19
ENDBRANCH  14  17
ENDBRANCH   8  14
ENDBRANCH   4   7
ENDBRANCH   2   3
ENDBRANCH   1   2
BRANCH   1  28
ATOM     28  C   UNL A   1      36.944  21.873  24.321  1.00  0.00     0.002 C 
BRANCH  28  29
ATOM     29  C   UNL A   1      36.870  20.484  24.964  1.00  0.00     0.002 C 
BRANCH  29  30
ATOM     30  C   UNL A   1      38.117  19.605  24.869  1.00  0.00     0.021 C 
BRANCH  30  31
ATOM     31  C   UNL A   1      39.268  19.960  25.801  1.00  0.00     0.116 C 
BRANCH  31  32
ATOM     32  N   UNL A   1      40.320  18.961  25.824  1.00  0.00    -0.352 N 
ATOM     33  C   UNL A   1      41.662  19.113  26.074  1.00  0.00     0.251 C 
ATOM     34  H   UNL A   1      40.029  18.040  25.631  1.00  0.00     0.163 HD
ATOM     35  O   UNL A   1      42.422  18.157  25.944  1.00  0.00    -0.269 OA
BRANCH  33  36
ATOM     36  C   UNL A   1      42.207  20.433  26.467  1.00  0.00     0.039 A 
ATOM     37  C   UNL A   1      42.758  21.248  25.475  1.00  0.00     0.014 A 
ATOM     38  C   UNL A   1      42.192  20.864  27.797  1.00  0.00     0.014 A 
ATOM     39  C   UNL A   1      43.237  22.519  25.804  1.00  0.00     0.010 A 
ATOM     40  C   UNL A   1      42.609  22.157  28.113  1.00  0.00     0.010 A 
ATOM     41  C   UNL A   1      43.136  22.997  27.120  1.00  0.00    -0.014 A 
BRANCH  41  42
ATOM     42  C   UNL A   1      43.578  24.371  27.473  1.00  0.00     0.031 A 
ATOM     43  C   UNL A   1      42.574  25.405  27.900  1.00  0.00     0.074 A 
ATOM     44  C   UNL A   1      44.878  24.704  27.352  1.00  0.00     0.049 A 
ATOM     45  N   UNL A   1      42.759  26.670  28.182  1.00  0.00    -0.248 NA
ATOM     46  C   UNL A   1      41.174  24.966  28.001  1.00  0.00     0.031 C 
ATOM     47  C   UNL A   1      45.945  23.806  26.906  1.00  0.00     0.029 A 
ATOM     48  N   UNL A   1      45.522  25.894  27.582  1.00  0.00    -0.354 N 
ATOM     49  C   UNL A   1      41.502  27.180  28.479  1.00  0.00     0.074 A 
ATOM     50  C   UNL A   1      40.556  26.100  28.297  1.00  0.00     0.031 C 
ATOM     51  C   UNL A   1      47.112  24.471  26.914  1.00  0.00     0.029 A 
ATOM     52  C   UNL A   1      46.872  25.850  27.330  1.00  0.00     0.049 A 
ATOM     53  H   UNL A   1      45.060  26.705  27.898  1.00  0.00     0.167 HD
ATOM     54  C   UNL A   1      41.167  28.428  28.885  1.00  0.00     0.037 A 
ATOM     55  C   UNL A   1      47.809  26.812  27.416  1.00  0.00     0.037 A 
ATOM     56  C   UNL A   1      42.112  29.494  29.092  1.00  0.00     0.049 A 
ATOM     57  C   UNL A   1      47.412  28.189  27.869  1.00  0.00     0.074 A 
ATOM     58  C   UNL A   1      41.877  30.776  29.560  1.00  0.00     0.029 A 
ATOM     59  N   UNL A   1      43.473  29.402  28.845  1.00  0.00    -0.354 N 
ATOM     60  N   UNL A   1      46.228  28.638  28.206  1.00  0.00    -0.248 NA
ATOM     61  C   UNL A   1      48.483  29.192  27.961  1.00  0.00     0.031 C 
ATOM     62  C   UNL A   1      43.090  31.471  29.559  1.00  0.00     0.029 A 
ATOM     63  C   UNL A   1      44.087  30.610  29.131  1.00  0.00     0.049 A 
ATOM     64  H   UNL A   1      43.934  28.598  28.514  1.00  0.00     0.167 HD
ATOM     65  C   UNL A   1      46.415  29.965  28.574  1.00  0.00     0.074 A 
ATOM     66  C   UNL A   1      47.829  30.243  28.432  1.00  0.00     0.031 C 
ATOM     67  C   UNL A   1      45.497  30.870  28.993  1.00  0.00     0.037 A 
BRANCH  54  68
ATOM     68  C   UNL A   1      39.715  28.708  29.139  1.00  0.00     0.057 A 
ATOM     69  C   UNL A   1      39.143  28.547  30.408  1.00  0.00     0.134 A 
ATOM     70  C   UNL A   1      38.887  29.183  28.113  1.00  0.00     0.134 A 
ATOM     71  F   UNL A   1      39.878  28.085  31.431  1.00  0.00    -0.206 F 
ATOM     72  C   UNL A   1      37.796  28.826  30.644  1.00  0.00     0.040 A 
ATOM     73  C   UNL A   1      37.544  29.489  28.342  1.00  0.00     0.040 A 
ATOM     74  F   UNL A   1      39.372  29.366  26.876  1.00  0.00    -0.206 F 
ATOM     75  C   UNL A   1      36.994  29.306  29.609  1.00  0.00     0.006 A 
ENDBRANCH  54  68
BRANCH  55  76
ATOM     76  C   UNL A   1      49.224  26.504  27.086  1.00  0.00     0.057 A 
ATOM     77  C   UNL A   1      49.732  26.739  25.803  1.00  0.00     0.134 A 
ATOM     78  C   UNL A   1      50.096  25.960  28.035  1.00  0.00     0.134 A 
ATOM     79  F   UNL A   1      48.938  27.241  24.844  1.00  0.00    -0.206 F 
ATOM     80  C   UNL A   1      51.051  26.426  25.470  1.00  0.00     0.040 A 
ATOM     81  C   UNL A   1      51.424  25.665  27.723  1.00  0.00     0.040 A 
ATOM     82  F   UNL A   1      49.671  25.718  29.285  1.00  0.00    -0.206 F 
ATOM     83  C   UNL A   1      51.902  25.891  26.434  1.00  0.00     0.006 A 
ENDBRANCH  55  76
BRANCH  67  84
ATOM     84  C   UNL A   1      45.999  32.235  29.361  1.00  0.00     0.057 A 
ATOM     85  C   UNL A   1      46.488  32.522  30.642  1.00  0.00     0.134 A 
ATOM     86  C   UNL A   1      46.026  33.264  28.410  1.00  0.00     0.134 A 
ATOM     87  F   UNL A   1      46.476  31.584  31.600  1.00  0.00    -0.206 F 
ATOM     88  C   UNL A   1      46.968  33.791  30.969  1.00  0.00     0.040 A 
ATOM     89  C   UNL A   1      46.526  34.528  28.719  1.00  0.00     0.040 A 
ATOM     90  F   UNL A   1      45.578  33.051  27.163  1.00  0.00    -0.206 F 
ATOM     91  C   UNL A   1      46.994  34.797  30.004  1.00  0.00     0.006 A 
ENDBRANCH  67  84
ENDBRANCH  41  42
ENDBRANCH  33  36
ENDBRANCH  31  32
ENDBRANCH  30  31
ENDBRANCH  29  30
ENDBRANCH  28  29
ENDBRANCH   1  28
TORSDOF 17
ENDMDL
MODEL 3
REMARK VINA RESULT:     -11.3      1.038      6.096
REMARK SMILES COc1ccc(NS(=O)(=O)c2ccc(Cl)c(C(=O)NCCCCCCNC(=O)c3ccc(-c4c5nc(c(-c6c(F)cccc6F)c6ccc([nH]6)c(-c6c(F)cccc6F)c6nc(c(-c7c(F)cccc7F)c7ccc4[nH]7)C=C6)C=C5)cc3)c2)cc1Cl
REMARK SMILES IDX 21 1 20 2 19 3 17 4 18 5 16 7 11 8 12 9 83 10 13 11 14 12
REMARK SMILES IDX 15 13 8 14 9 15 10 16 7 17 6 19 3 20 4 21 85 22 5 23 84 24
REMARK SMILES IDX 86 25 2 26 1 27 22 28 23 29 24 30 25 31 26 32 27 33 28 35
REMARK SMILES IDX 29 36 30 37 82 38 31 39 81 40 32 41 33 42 34 43 75 44 35 45
REMARK SMILES IDX 80 46 74 47 76 48 36 49 79 50 73 51 72 52 37 54 63 55 46 56
REMARK SMILES IDX 62 57 47 58 50 59 61 60 77 61 48 62 49 63 60 65 78 66 51 67
REMARK SMILES IDX 38 68 39 69 44 70 40 71 41 72 43 73 45 74 42 75 64 76 65 77
REMARK SMILES IDX 70 78 66 79 67 80 69 81 71 82 68 83 52 84 53 85 58 86 54 87
REMARK SMILES IDX 55 88 57 89 59 90 56 91
REMARK H PARENT 19 6 7 18 26 34 76 53 50 64
REMARK Flexibility Score: inf
ROOT
ATOM      1  C   UNL A   1      37.041  22.856  25.533  1.00  0.00     0.021 C 
ENDROOT
BRANCH   1   2
ATOM      2  C   UNL A   1      35.927  23.810  25.124  1.00  0.00     0.116 C 
BRANCH   2   3
ATOM      3  N   UNL A   1      35.497  23.633  23.758  1.00  0.00    -0.352 N 
ATOM      4  C   UNL A   1      34.259  23.444  23.214  1.00  0.00     0.252 C 
ATOM      5  O   UNL A   1      34.204  23.301  21.992  1.00  0.00    -0.269 OA
ATOM      6  H   UNL A   1      36.228  23.652  23.099  1.00  0.00     0.163 HD
BRANCH   4   7
ATOM      7  C   UNL A   1      32.990  23.340  23.987  1.00  0.00     0.059 A 
ATOM      8  C   UNL A   1      31.221  24.697  24.972  1.00  0.00     0.088 A 
ATOM      9  C   UNL A   1      30.715  23.598  25.660  1.00  0.00     0.024 A 
ATOM     10  C   UNL A   1      32.268  24.547  24.056  1.00  0.00     0.037 A 
ATOM     11  C   UNL A   1      31.393  22.385  25.564  1.00  0.00     0.023 A 
ATOM     12  C   UNL A   1      32.580  22.282  24.812  1.00  0.00     0.053 A 
ATOM     13  Cl  UNL A   1      33.555  20.906  25.190  1.00  0.00    -0.083 Cl
BRANCH   8  14
ATOM     14  S   UNL A   1      30.702  26.342  25.405  1.00  0.00     0.261 S 
ATOM     15  O   UNL A   1      30.679  26.427  26.849  1.00  0.00    -0.201 OA
ATOM     16  O   UNL A   1      29.531  26.676  24.624  1.00  0.00    -0.201 OA
BRANCH  14  17
ATOM     17  N   UNL A   1      31.993  27.339  24.895  1.00  0.00    -0.280 N 
ATOM     18  H   UNL A   1      32.450  27.157  24.041  1.00  0.00     0.180 HD
BRANCH  17  19
ATOM     19  C   UNL A   1      32.410  28.442  25.712  1.00  0.00     0.051 A 
ATOM     20  C   UNL A   1      33.287  30.565  27.319  1.00  0.00     0.137 A 
ATOM     21  C   UNL A   1      33.985  29.359  27.316  1.00  0.00     0.050 A 
ATOM     22  C   UNL A   1      32.154  30.713  26.510  1.00  0.00     0.085 A 
ATOM     23  C   UNL A   1      33.521  28.292  26.545  1.00  0.00     0.030 A 
ATOM     24  C   UNL A   1      31.721  29.655  25.695  1.00  0.00     0.051 A 
ATOM     25  Cl  UNL A   1      31.240  32.177  26.523  1.00  0.00    -0.080 Cl
BRANCH  20  26
ATOM     26  O   UNL A   1      33.782  31.616  28.046  1.00  0.00    -0.495 OA
ATOM     27  C   UNL A   1      35.099  31.968  27.626  1.00  0.00     0.278 C 
ENDBRANCH  20  26
ENDBRANCH  17  19
ENDBRANCH  14  17
ENDBRANCH   8  14
ENDBRANCH   4   7
ENDBRANCH   2   3
ENDBRANCH   1   2
BRANCH   1  28
ATOM     28  C   UNL A   1      37.414  21.771  24.514  1.00  0.00     0.002 C 
BRANCH  28  29
ATOM     29  C   UNL A   1      37.048  20.324  24.856  1.00  0.00     0.002 C 
BRANCH  29  30
ATOM     30  C   UNL A   1      38.199  19.326  24.988  1.00  0.00     0.021 C 
BRANCH  30  31
ATOM     31  C   UNL A   1      39.178  19.569  26.131  1.00  0.00     0.116 C 
BRANCH  31  32
ATOM     32  N   UNL A   1      40.417  18.828  25.993  1.00  0.00    -0.352 N 
ATOM     33  C   UNL A   1      41.713  19.277  26.057  1.00  0.00     0.251 C 
ATOM     34  H   UNL A   1      40.315  17.862  25.830  1.00  0.00     0.163 HD
ATOM     35  O   UNL A   1      42.641  18.512  25.811  1.00  0.00    -0.269 OA
BRANCH  33  36
ATOM     36  C   UNL A   1      42.001  20.692  26.390  1.00  0.00     0.039 A 
ATOM     37  C   UNL A   1      42.280  21.019  27.721  1.00  0.00     0.014 A 
ATOM     38  C   UNL A   1      41.984  21.692  25.415  1.00  0.00     0.014 A 
ATOM     39  C   UNL A   1      42.603  22.335  28.062  1.00  0.00     0.010 A 
ATOM     40  C   UNL A   1      42.371  22.991  25.744  1.00  0.00     0.010 A 
ATOM     41  C   UNL A   1      42.683  23.326  27.070  1.00  0.00    -0.014 A 
BRANCH  41  42
ATOM     42  C   UNL A   1      43.091  24.714  27.405  1.00  0.00     0.031 A 
ATOM     43  C   UNL A   1      44.527  25.139  27.265  1.00  0.00     0.074 A 
ATOM     44  C   UNL A   1      42.179  25.578  27.893  1.00  0.00     0.049 A 
ATOM     45  N   UNL A   1      45.084  26.283  27.571  1.00  0.00    -0.248 NA
ATOM     46  C   UNL A   1      45.464  24.137  26.734  1.00  0.00     0.031 C 
ATOM     47  C   UNL A   1      40.763  25.277  28.117  1.00  0.00     0.029 A 
ATOM     48  N   UNL A   1      42.308  26.882  28.298  1.00  0.00    -0.354 N 
ATOM     49  C   UNL A   1      46.435  26.135  27.283  1.00  0.00     0.074 A 
ATOM     50  C   UNL A   1      46.621  24.775  26.824  1.00  0.00     0.031 C 
ATOM     51  C   UNL A   1      40.153  26.371  28.602  1.00  0.00     0.029 A 
ATOM     52  C   UNL A   1      41.138  27.437  28.756  1.00  0.00     0.049 A 
ATOM     53  H   UNL A   1      43.161  27.375  28.266  1.00  0.00     0.167 HD
ATOM     54  C   UNL A   1      47.426  27.053  27.375  1.00  0.00     0.037 A 
ATOM     55  C   UNL A   1      40.886  28.664  29.250  1.00  0.00     0.037 A 
ATOM     56  C   UNL A   1      47.236  28.413  27.806  1.00  0.00     0.049 A 
ATOM     57  C   UNL A   1      42.004  29.664  29.342  1.00  0.00     0.074 A 
ATOM     58  C   UNL A   1      48.168  29.435  27.875  1.00  0.00     0.029 A 
ATOM     59  N   UNL A   1      46.031  28.942  28.242  1.00  0.00    -0.354 N 
ATOM     60  N   UNL A   1      43.264  29.529  29.007  1.00  0.00    -0.248 NA
ATOM     61  C   UNL A   1      41.665  30.992  29.874  1.00  0.00     0.031 C 
ATOM     62  C   UNL A   1      47.534  30.570  28.389  1.00  0.00     0.029 A 
ATOM     63  C   UNL A   1      46.199  30.269  28.599  1.00  0.00     0.049 A 
ATOM     64  H   UNL A   1      45.181  28.447  28.291  1.00  0.00     0.167 HD
ATOM     65  C   UNL A   1      43.860  30.757  29.262  1.00  0.00     0.074 A 
ATOM     66  C   UNL A   1      42.821  31.630  29.766  1.00  0.00     0.031 C 
ATOM     67  C   UNL A   1      45.153  31.128  29.092  1.00  0.00     0.037 A 
BRANCH  54  68
ATOM     68  C   UNL A   1      48.811  26.618  26.994  1.00  0.00     0.057 A 
ATOM     69  C   UNL A   1      49.663  25.983  27.908  1.00  0.00     0.134 A 
ATOM     70  C   UNL A   1      49.285  26.799  25.688  1.00  0.00     0.134 A 
ATOM     71  F   UNL A   1      49.275  25.789  29.177  1.00  0.00    -0.206 F 
ATOM     72  C   UNL A   1      50.944  25.564  27.544  1.00  0.00     0.040 A 
ATOM     73  C   UNL A   1      50.555  26.362  25.305  1.00  0.00     0.040 A 
ATOM     74  F   UNL A   1      48.519  27.395  24.762  1.00  0.00    -0.206 F 
ATOM     75  C   UNL A   1      51.389  25.747  26.236  1.00  0.00     0.006 A 
ENDBRANCH  54  68
BRANCH  55  76
ATOM     76  C   UNL A   1      39.512  29.025  29.681  1.00  0.00     0.057 A 
ATOM     77  C   UNL A   1      39.106  28.859  31.010  1.00  0.00     0.134 A 
ATOM     78  C   UNL A   1      38.572  29.534  28.777  1.00  0.00     0.134 A 
ATOM     79  F   UNL A   1      39.956  28.356  31.918  1.00  0.00    -0.206 F 
ATOM     80  C   UNL A   1      37.807  29.165  31.421  1.00  0.00     0.040 A 
ATOM     81  C   UNL A   1      37.278  29.869  29.181  1.00  0.00     0.040 A 
ATOM     82  F   UNL A   1      38.903  29.724  27.491  1.00  0.00    -0.206 F 
ATOM     83  C   UNL A   1      36.891  29.677  30.505  1.00  0.00     0.006 A 
ENDBRANCH  55  76
BRANCH  67  84
ATOM     84  C   UNL A   1      45.508  32.548  29.421  1.00  0.00     0.057 A 
ATOM     85  C   UNL A   1      45.421  33.571  28.469  1.00  0.00     0.134 A 
ATOM     86  C   UNL A   1      45.906  32.900  30.717  1.00  0.00     0.134 A 
ATOM     87  F   UNL A   1      45.059  33.296  27.207  1.00  0.00    -0.206 F 
ATOM     88  C   UNL A   1      45.736  34.892  28.789  1.00  0.00     0.040 A 
ATOM     89  C   UNL A   1      46.201  34.220  31.055  1.00  0.00     0.040 A 
ATOM     90  F   UNL A   1      46.002  31.968  31.678  1.00  0.00    -0.206 F 
ATOM     91  C   UNL A   1      46.122  35.221  30.088  1.00  0.00     0.006 A 
ENDBRANCH  67  84
ENDBRANCH  41  42
ENDBRANCH  33  36
ENDBRANCH  31  32
ENDBRANCH  30  31
ENDBRANCH  29  30
ENDBRANCH  28  29
ENDBRANCH   1  28
TORSDOF 17
ENDMDL
