MODEL 1
REMARK VINA RESULT:     -11.4      0.000      0.000
REMARK SMILES CNC(=O)[C@H](C)S(=O)(=O)c1cc(C(=O)NCCCCCCNC(=O)c2ccc(-c3c4nc(c(-c5c(F)cccc5F)c5ccc([nH]5)c(-c5c(F)cccc5F)c5nc(c(-c6c(F)cccc6F)c6ccc3[nH]6)C=C5)C=C4)cc2)c(C)cc1C
REMARK SMILES IDX 18 1 17 2 16 3 15 4 13 5 14 6 12 8 10 9 11 10 82 11 81 12
REMARK SMILES IDX 83 13 79 14 80 15 7 16 8 17 9 18 5 19 6 20 3 21 1 22 2 23
REMARK SMILES IDX 4 25 19 26 20 27 21 28 22 29 23 30 24 32 25 33 26 34 78 35
REMARK SMILES IDX 27 36 77 37 28 38 29 39 30 40 71 41 31 42 76 43 70 44 72 45
REMARK SMILES IDX 32 46 75 47 69 48 68 49 33 51 59 52 42 53 58 54 43 55 46 56
REMARK SMILES IDX 57 57 73 58 44 59 45 60 56 62 74 63 47 64 34 65 35 66 40 67
REMARK SMILES IDX 36 68 37 69 39 70 41 71 38 72 60 73 61 74 66 75 62 76 63 77
REMARK SMILES IDX 65 78 67 79 64 80 48 81 49 82 54 83 50 84 51 85 53 86 55 87
REMARK SMILES IDX 52 88
REMARK H PARENT 15 7 2 24 22 31 72 50 46 61
REMARK Flexibility Score: inf
ROOT
ATOM      1  C   UNL A   1      32.002  29.920  25.834  1.00  0.00     0.002 C 
ENDROOT
BRANCH   1   2
ATOM      2  C   UNL A   1      31.983  29.280  27.226  1.00  0.00     0.021 C 
BRANCH   2   3
ATOM      3  C   UNL A   1      32.490  27.834  27.273  1.00  0.00     0.116 C 
BRANCH   3   4
ATOM      4  N   UNL A   1      31.378  26.925  27.122  1.00  0.00    -0.352 N 
ATOM      5  C   UNL A   1      30.825  26.244  26.081  1.00  0.00     0.251 C 
ATOM      6  O   UNL A   1      29.832  25.568  26.379  1.00  0.00    -0.269 OA
ATOM      7  H   UNL A   1      30.909  26.761  27.971  1.00  0.00     0.163 HD
BRANCH   5   8
ATOM      8  C   UNL A   1      31.290  26.187  24.653  1.00  0.00     0.044 A 
ATOM      9  C   UNL A   1      32.506  24.660  23.135  1.00  0.00     0.071 A 
ATOM     10  C   UNL A   1      32.161  25.093  24.419  1.00  0.00     0.034 A 
ATOM     11  C   UNL A   1      32.238  25.495  22.047  1.00  0.00    -0.032 A 
ATOM     12  C   UNL A   1      31.403  26.601  22.264  1.00  0.00     0.009 A 
ATOM     13  C   UNL A   1      32.751  25.275  20.650  1.00  0.00     0.046 C 
ATOM     14  C   UNL A   1      30.840  26.898  23.528  1.00  0.00    -0.038 A 
ATOM     15  C   UNL A   1      29.743  27.914  23.500  1.00  0.00     0.045 C 
BRANCH   9  16
ATOM     16  S   UNL A   1      33.264  23.053  22.941  1.00  0.00     0.190 S 
ATOM     17  O   UNL A   1      34.610  23.340  22.472  1.00  0.00    -0.223 OA
ATOM     18  O   UNL A   1      32.375  22.264  22.106  1.00  0.00    -0.223 OA
BRANCH  16  19
ATOM     19  C   UNL A   1      33.396  22.190  24.480  1.00  0.00     0.199 C 
ATOM     20  C   UNL A   1      32.290  21.221  24.849  1.00  0.00     0.036 C 
BRANCH  19  21
ATOM     21  C   UNL A   1      34.814  21.810  24.849  1.00  0.00     0.238 C 
ATOM     22  C   UNL A   1      35.746  24.033  25.733  1.00  0.00     0.142 C 
ATOM     23  N   UNL A   1      35.752  22.645  25.354  1.00  0.00    -0.358 N 
ATOM     24  H   UNL A   1      36.625  22.210  25.490  1.00  0.00     0.163 HD
ATOM     25  O   UNL A   1      35.212  20.657  24.632  1.00  0.00    -0.274 OA
ENDBRANCH  19  21
ENDBRANCH  16  19
ENDBRANCH   9  16
ENDBRANCH   5   8
ENDBRANCH   3   4
ENDBRANCH   2   3
ENDBRANCH   1   2
BRANCH   1  26
ATOM     26  C   UNL A   1      31.049  31.104  25.650  1.00  0.00     0.002 C 
BRANCH  26  27
ATOM     27  C   UNL A   1      31.130  32.186  26.733  1.00  0.00     0.021 C 
BRANCH  27  28
ATOM     28  C   UNL A   1      32.517  32.790  26.941  1.00  0.00     0.116 C 
BRANCH  28  29
ATOM     29  N   UNL A   1      32.447  34.142  27.467  1.00  0.00    -0.352 N 
ATOM     30  C   UNL A   1      33.123  34.707  28.520  1.00  0.00     0.251 C 
ATOM     31  H   UNL A   1      31.822  34.743  27.000  1.00  0.00     0.163 HD
ATOM     32  O   UNL A   1      32.773  35.798  28.959  1.00  0.00    -0.269 OA
BRANCH  30  33
ATOM     33  C   UNL A   1      34.269  34.004  29.136  1.00  0.00     0.039 A 
ATOM     34  C   UNL A   1      34.021  33.048  30.124  1.00  0.00     0.014 A 
ATOM     35  C   UNL A   1      35.584  34.317  28.777  1.00  0.00     0.014 A 
ATOM     36  C   UNL A   1      35.087  32.367  30.716  1.00  0.00     0.010 A 
ATOM     37  C   UNL A   1      36.645  33.599  29.328  1.00  0.00     0.010 A 
ATOM     38  C   UNL A   1      36.406  32.621  30.306  1.00  0.00    -0.014 A 
BRANCH  38  39
ATOM     39  C   UNL A   1      37.545  31.873  30.891  1.00  0.00     0.031 A 
ATOM     40  C   UNL A   1      38.034  32.195  32.276  1.00  0.00     0.074 A 
ATOM     41  C   UNL A   1      38.178  30.942  30.153  1.00  0.00     0.049 A 
ATOM     42  N   UNL A   1      39.047  31.687  32.932  1.00  0.00    -0.248 NA
ATOM     43  C   UNL A   1      37.305  33.241  33.008  1.00  0.00     0.031 C 
ATOM     44  C   UNL A   1      37.830  30.571  28.780  1.00  0.00     0.029 A 
ATOM     45  N   UNL A   1      39.254  30.144  30.451  1.00  0.00    -0.354 N 
ATOM     46  C   UNL A   1      39.087  32.362  34.146  1.00  0.00     0.074 A 
ATOM     47  C   UNL A   1      38.023  33.343  34.119  1.00  0.00     0.031 C 
ATOM     48  C   UNL A   1      38.665  29.608  28.361  1.00  0.00     0.029 A 
ATOM     49  C   UNL A   1      39.622  29.312  29.422  1.00  0.00     0.049 A 
ATOM     50  H   UNL A   1      39.718  30.167  31.319  1.00  0.00     0.167 HD
ATOM     51  C   UNL A   1      39.922  32.170  35.194  1.00  0.00     0.037 A 
ATOM     52  C   UNL A   1      40.620  28.411  29.345  1.00  0.00     0.037 A 
ATOM     53  C   UNL A   1      40.960  31.174  35.235  1.00  0.00     0.049 A 
ATOM     54  C   UNL A   1      41.519  28.201  30.529  1.00  0.00     0.074 A 
ATOM     55  C   UNL A   1      41.812  30.857  36.279  1.00  0.00     0.029 A 
ATOM     56  N   UNL A   1      41.285  30.331  34.183  1.00  0.00    -0.354 N 
ATOM     57  N   UNL A   1      41.505  28.804  31.693  1.00  0.00    -0.248 NA
ATOM     58  C   UNL A   1      42.570  27.183  30.390  1.00  0.00     0.031 C 
ATOM     59  C   UNL A   1      42.673  29.841  35.848  1.00  0.00     0.029 A 
ATOM     60  C   UNL A   1      42.335  29.504  34.547  1.00  0.00     0.049 A 
ATOM     61  H   UNL A   1      40.835  30.320  33.308  1.00  0.00     0.167 HD
ATOM     62  C   UNL A   1      42.526  28.224  32.433  1.00  0.00     0.074 A 
ATOM     63  C   UNL A   1      43.134  27.215  31.590  1.00  0.00     0.031 C 
ATOM     64  C   UNL A   1      42.926  28.504  33.697  1.00  0.00     0.037 A 
BRANCH  51  65
ATOM     65  C   UNL A   1      39.743  33.058  36.390  1.00  0.00     0.057 A 
ATOM     66  C   UNL A   1      40.462  34.253  36.533  1.00  0.00     0.134 A 
ATOM     67  C   UNL A   1      38.824  32.731  37.394  1.00  0.00     0.134 A 
ATOM     68  F   UNL A   1      41.367  34.617  35.612  1.00  0.00    -0.206 F 
ATOM     69  C   UNL A   1      40.288  35.079  37.644  1.00  0.00     0.040 A 
ATOM     70  C   UNL A   1      38.626  33.561  38.499  1.00  0.00     0.040 A 
ATOM     71  F   UNL A   1      38.102  31.604  37.316  1.00  0.00    -0.206 F 
ATOM     72  C   UNL A   1      39.364  34.737  38.629  1.00  0.00     0.006 A 
ENDBRANCH  51  65
BRANCH  52  73
ATOM     73  C   UNL A   1      40.799  27.616  28.106  1.00  0.00     0.057 A 
ATOM     74  C   UNL A   1      41.573  28.102  27.047  1.00  0.00     0.134 A 
ATOM     75  C   UNL A   1      40.211  26.355  27.955  1.00  0.00     0.134 A 
ATOM     76  F   UNL A   1      42.146  29.311  27.130  1.00  0.00    -0.206 F 
ATOM     77  C   UNL A   1      41.749  27.367  25.874  1.00  0.00     0.040 A 
ATOM     78  C   UNL A   1      40.394  25.601  26.795  1.00  0.00     0.040 A 
ATOM     79  F   UNL A   1      39.465  25.834  28.939  1.00  0.00    -0.206 F 
ATOM     80  C   UNL A   1      41.161  26.109  25.748  1.00  0.00     0.006 A 
ENDBRANCH  52  73
BRANCH  64  81
ATOM     81  C   UNL A   1      44.058  27.692  34.250  1.00  0.00     0.057 A 
ATOM     82  C   UNL A   1      43.844  26.446  34.850  1.00  0.00     0.134 A 
ATOM     83  C   UNL A   1      45.378  28.149  34.152  1.00  0.00     0.134 A 
ATOM     84  F   UNL A   1      42.600  25.962  34.985  1.00  0.00    -0.206 F 
ATOM     85  C   UNL A   1      44.904  25.688  35.350  1.00  0.00     0.040 A 
ATOM     86  C   UNL A   1      46.447  27.391  34.630  1.00  0.00     0.040 A 
ATOM     87  F   UNL A   1      45.650  29.333  33.584  1.00  0.00    -0.206 F 
ATOM     88  C   UNL A   1      46.211  26.158  35.235  1.00  0.00     0.006 A 
ENDBRANCH  64  81
ENDBRANCH  38  39
ENDBRANCH  30  33
ENDBRANCH  28  29
ENDBRANCH  27  28
ENDBRANCH  26  27
ENDBRANCH   1  26
TORSDOF 16
ENDMDL
MODEL 2
REMARK VINA RESULT:     -11.3      0.315      6.113
REMARK SMILES CNC(=O)[C@H](C)S(=O)(=O)c1cc(C(=O)NCCCCCCNC(=O)c2ccc(-c3c4nc(c(-c5c(F)cccc5F)c5ccc([nH]5)c(-c5c(F)cccc5F)c5nc(c(-c6c(F)cccc6F)c6ccc3[nH]6)C=C5)C=C4)cc2)c(C)cc1C
REMARK SMILES IDX 18 1 17 2 16 3 15 4 13 5 14 6 12 8 10 9 11 10 82 11 81 12
REMARK SMILES IDX 83 13 79 14 80 15 7 16 8 17 9 18 5 19 6 20 3 21 1 22 2 23
REMARK SMILES IDX 4 25 19 26 20 27 21 28 22 29 23 30 24 32 25 33 26 34 78 35
REMARK SMILES IDX 27 36 77 37 28 38 29 39 30 40 71 41 31 42 76 43 70 44 72 45
REMARK SMILES IDX 32 46 75 47 69 48 68 49 33 51 59 52 42 53 58 54 43 55 46 56
REMARK SMILES IDX 57 57 73 58 44 59 45 60 56 62 74 63 47 64 34 65 35 66 40 67
REMARK SMILES IDX 36 68 37 69 39 70 41 71 38 72 60 73 61 74 66 75 62 76 63 77
REMARK SMILES IDX 65 78 67 79 64 80 48 81 49 82 54 83 50 84 51 85 53 86 55 87
REMARK SMILES IDX 52 88
REMARK H PARENT 15 7 2 24 22 31 72 50 46 61
REMARK Flexibility Score: inf
ROOT
ATOM      1  C   UNL A   1      31.900  29.845  25.768  1.00  0.00     0.002 C 
ENDROOT
BRANCH   1   2
ATOM      2  C   UNL A   1      31.909  29.263  27.185  1.00  0.00     0.021 C 
BRANCH   2   3
ATOM      3  C   UNL A   1      32.354  27.798  27.273  1.00  0.00     0.116 C 
BRANCH   3   4
ATOM      4  N   UNL A   1      31.214  26.932  27.088  1.00  0.00    -0.352 N 
ATOM      5  C   UNL A   1      30.662  26.277  26.029  1.00  0.00     0.251 C 
ATOM      6  O   UNL A   1      29.638  25.637  26.298  1.00  0.00    -0.269 OA
ATOM      7  H   UNL A   1      30.718  26.780  27.925  1.00  0.00     0.163 HD
BRANCH   5   8
ATOM      8  C   UNL A   1      31.161  26.212  24.613  1.00  0.00     0.044 A 
ATOM      9  C   UNL A   1      32.519  24.735  23.168  1.00  0.00     0.071 A 
ATOM     10  C   UNL A   1      32.116  25.180  24.431  1.00  0.00     0.034 A 
ATOM     11  C   UNL A   1      32.214  25.513  22.049  1.00  0.00    -0.032 A 
ATOM     12  C   UNL A   1      31.293  26.559  22.215  1.00  0.00     0.009 A 
ATOM     13  C   UNL A   1      32.771  25.290  20.670  1.00  0.00     0.046 C 
ATOM     14  C   UNL A   1      30.683  26.851  23.457  1.00  0.00    -0.038 A 
ATOM     15  C   UNL A   1      29.513  27.780  23.375  1.00  0.00     0.045 C 
BRANCH   9  16
ATOM     16  S   UNL A   1      33.400  23.184  23.041  1.00  0.00     0.190 S 
ATOM     17  O   UNL A   1      34.758  23.565  22.689  1.00  0.00    -0.223 OA
ATOM     18  O   UNL A   1      32.641  22.341  22.134  1.00  0.00    -0.223 OA
BRANCH  16  19
ATOM     19  C   UNL A   1      33.459  22.325  24.587  1.00  0.00     0.199 C 
ATOM     20  C   UNL A   1      32.227  21.556  25.020  1.00  0.00     0.036 C 
BRANCH  19  21
ATOM     21  C   UNL A   1      34.811  21.718  24.898  1.00  0.00     0.238 C 
ATOM     22  C   UNL A   1      36.085  23.726  25.865  1.00  0.00     0.142 C 
ATOM     23  N   UNL A   1      35.874  22.375  25.418  1.00  0.00    -0.358 N 
ATOM     24  H   UNL A   1      36.673  21.807  25.509  1.00  0.00     0.163 HD
ATOM     25  O   UNL A   1      35.026  20.531  24.613  1.00  0.00    -0.274 OA
ENDBRANCH  19  21
ENDBRANCH  16  19
ENDBRANCH   9  16
ENDBRANCH   5   8
ENDBRANCH   3   4
ENDBRANCH   2   3
ENDBRANCH   1   2
BRANCH   1  26
ATOM     26  C   UNL A   1      31.109  31.145  25.605  1.00  0.00     0.002 C 
BRANCH  26  27
ATOM     27  C   UNL A   1      31.223  32.134  26.770  1.00  0.00     0.021 C 
BRANCH  27  28
ATOM     28  C   UNL A   1      32.599  32.775  26.941  1.00  0.00     0.116 C 
BRANCH  28  29
ATOM     29  N   UNL A   1      32.510  34.110  27.507  1.00  0.00    -0.352 N 
ATOM     30  C   UNL A   1      33.178  34.653  28.576  1.00  0.00     0.251 C 
ATOM     31  H   UNL A   1      31.875  34.715  27.058  1.00  0.00     0.163 HD
ATOM     32  O   UNL A   1      32.812  35.725  29.048  1.00  0.00    -0.269 OA
BRANCH  30  33
ATOM     33  C   UNL A   1      34.335  33.949  29.170  1.00  0.00     0.039 A 
ATOM     34  C   UNL A   1      35.625  34.371  28.838  1.00  0.00     0.014 A 
ATOM     35  C   UNL A   1      34.153  32.848  30.013  1.00  0.00     0.014 A 
ATOM     36  C   UNL A   1      36.732  33.725  29.392  1.00  0.00     0.010 A 
ATOM     37  C   UNL A   1      35.256  32.238  30.609  1.00  0.00     0.010 A 
ATOM     38  C   UNL A   1      36.556  32.669  30.300  1.00  0.00    -0.014 A 
BRANCH  38  39
ATOM     39  C   UNL A   1      37.721  32.003  30.933  1.00  0.00     0.031 A 
ATOM     40  C   UNL A   1      38.464  30.919  30.204  1.00  0.00     0.074 A 
ATOM     41  C   UNL A   1      38.073  32.335  32.189  1.00  0.00     0.049 A 
ATOM     42  N   UNL A   1      39.469  30.188  30.615  1.00  0.00    -0.248 NA
ATOM     43  C   UNL A   1      38.002  30.598  28.846  1.00  0.00     0.031 C 
ATOM     44  C   UNL A   1      37.403  33.337  33.019  1.00  0.00     0.029 A 
ATOM     45  N   UNL A   1      39.079  31.857  32.991  1.00  0.00    -0.354 N 
ATOM     46  C   UNL A   1      39.748  29.310  29.576  1.00  0.00     0.074 A 
ATOM     47  C   UNL A   1      38.782  29.572  28.531  1.00  0.00     0.031 C 
ATOM     48  C   UNL A   1      38.025  33.411  34.206  1.00  0.00     0.029 A 
ATOM     49  C   UNL A   1      39.119  32.446  34.231  1.00  0.00     0.049 A 
ATOM     50  H   UNL A   1      39.711  31.159  32.705  1.00  0.00     0.167 HD
ATOM     51  C   UNL A   1      40.732  28.383  29.491  1.00  0.00     0.037 A 
ATOM     52  C   UNL A   1      39.946  32.230  35.271  1.00  0.00     0.037 A 
ATOM     53  C   UNL A   1      41.713  28.143  30.516  1.00  0.00     0.049 A 
ATOM     54  C   UNL A   1      41.042  31.211  35.145  1.00  0.00     0.074 A 
ATOM     55  C   UNL A   1      42.790  27.274  30.494  1.00  0.00     0.029 A 
ATOM     56  N   UNL A   1      41.737  28.778  31.748  1.00  0.00    -0.354 N 
ATOM     57  N   UNL A   1      41.332  30.433  34.132  1.00  0.00    -0.248 NA
ATOM     58  C   UNL A   1      41.928  31.045  36.306  1.00  0.00     0.031 C 
ATOM     59  C   UNL A   1      43.449  27.361  31.726  1.00  0.00     0.029 A 
ATOM     60  C   UNL A   1      42.801  28.309  32.501  1.00  0.00     0.049 A 
ATOM     61  H   UNL A   1      41.095  29.463  32.044  1.00  0.00     0.167 HD
ATOM     62  C   UNL A   1      42.446  29.702  34.521  1.00  0.00     0.074 A 
ATOM     63  C   UNL A   1      42.786  30.136  35.860  1.00  0.00     0.031 C 
ATOM     64  C   UNL A   1      43.126  28.754  33.832  1.00  0.00     0.037 A 
BRANCH  51  65
ATOM     65  C   UNL A   1      40.796  27.558  28.240  1.00  0.00     0.057 A 
ATOM     66  C   UNL A   1      40.117  26.337  28.128  1.00  0.00     0.134 A 
ATOM     67  C   UNL A   1      41.519  28.001  27.126  1.00  0.00     0.134 A 
ATOM     68  F   UNL A   1      39.417  25.851  29.164  1.00  0.00    -0.206 F 
ATOM     69  C   UNL A   1      40.175  25.575  26.960  1.00  0.00     0.040 A 
ATOM     70  C   UNL A   1      41.565  27.259  25.944  1.00  0.00     0.040 A 
ATOM     71  F   UNL A   1      42.188  29.163  27.166  1.00  0.00    -0.206 F 
ATOM     72  C   UNL A   1      40.897  26.039  25.862  1.00  0.00     0.006 A 
ENDBRANCH  51  65
BRANCH  52  73
ATOM     73  C   UNL A   1      39.785  33.021  36.515  1.00  0.00     0.057 A 
ATOM     74  C   UNL A   1      40.534  34.184  36.727  1.00  0.00     0.134 A 
ATOM     75  C   UNL A   1      38.880  32.641  37.512  1.00  0.00     0.134 A 
ATOM     76  F   UNL A   1      41.428  34.587  35.814  1.00  0.00    -0.206 F 
ATOM     77  C   UNL A   1      40.396  34.937  37.894  1.00  0.00     0.040 A 
ATOM     78  C   UNL A   1      38.718  33.395  38.675  1.00  0.00     0.040 A 
ATOM     79  F   UNL A   1      38.130  31.540  37.362  1.00  0.00    -0.206 F 
ATOM     80  C   UNL A   1      39.482  34.545  38.871  1.00  0.00     0.006 A 
ENDBRANCH  52  73
BRANCH  64  81
ATOM     81  C   UNL A   1      44.315  28.141  34.505  1.00  0.00     0.057 A 
ATOM     82  C   UNL A   1      44.209  26.967  35.261  1.00  0.00     0.134 A 
ATOM     83  C   UNL A   1      45.586  28.714  34.369  1.00  0.00     0.134 A 
ATOM     84  F   UNL A   1      43.016  26.381  35.439  1.00  0.00    -0.206 F 
ATOM     85  C   UNL A   1      45.324  26.393  35.873  1.00  0.00     0.040 A 
ATOM     86  C   UNL A   1      46.711  28.137  34.960  1.00  0.00     0.040 A 
ATOM     87  F   UNL A   1      45.755  29.836  33.655  1.00  0.00    -0.206 F 
ATOM     88  C   UNL A   1      46.581  26.975  35.718  1.00  0.00     0.006 A 
ENDBRANCH  64  81
ENDBRANCH  38  39
ENDBRANCH  30  33
ENDBRANCH  28  29
ENDBRANCH  27  28
ENDBRANCH  26  27
ENDBRANCH   1  26
TORSDOF 16
ENDMDL
MODEL 3
REMARK VINA RESULT:     -11.2      1.924      2.761
REMARK SMILES CNC(=O)[C@H](C)S(=O)(=O)c1cc(C(=O)NCCCCCCNC(=O)c2ccc(-c3c4nc(c(-c5c(F)cccc5F)c5ccc([nH]5)c(-c5c(F)cccc5F)c5nc(c(-c6c(F)cccc6F)c6ccc3[nH]6)C=C5)C=C4)cc2)c(C)cc1C
REMARK SMILES IDX 18 1 17 2 16 3 15 4 13 5 14 6 12 8 10 9 11 10 82 11 81 12
REMARK SMILES IDX 83 13 79 14 80 15 7 16 8 17 9 18 5 19 6 20 3 21 1 22 2 23
REMARK SMILES IDX 4 25 19 26 20 27 21 28 22 29 23 30 24 32 25 33 26 34 78 35
REMARK SMILES IDX 27 36 77 37 28 38 29 39 30 40 71 41 31 42 76 43 70 44 72 45
REMARK SMILES IDX 32 46 75 47 69 48 68 49 33 51 59 52 42 53 58 54 43 55 46 56
REMARK SMILES IDX 57 57 73 58 44 59 45 60 56 62 74 63 47 64 34 65 35 66 40 67
REMARK SMILES IDX 36 68 37 69 39 70 41 71 38 72 60 73 61 74 66 75 62 76 63 77
REMARK SMILES IDX 65 78 67 79 64 80 48 81 49 82 54 83 50 84 51 85 53 86 55 87
REMARK SMILES IDX 52 88
REMARK H PARENT 15 7 2 24 22 31 72 50 46 61
REMARK Flexibility Score: inf
ROOT
ATOM      1  C   UNL A   1      34.340  32.329  29.215  1.00  0.00     0.002 C 
ENDROOT
BRANCH   1   2
ATOM      2  C   UNL A   1      34.802  31.245  28.237  1.00  0.00     0.021 C 
BRANCH   2   3
ATOM      3  C   UNL A   1      33.768  30.861  27.171  1.00  0.00     0.116 C 
BRANCH   3   4
ATOM      4  N   UNL A   1      32.926  29.800  27.673  1.00  0.00    -0.352 N 
ATOM      5  C   UNL A   1      32.347  28.692  27.133  1.00  0.00     0.251 C 
ATOM      6  O   UNL A   1      31.659  28.035  27.923  1.00  0.00    -0.269 OA
ATOM      7  H   UNL A   1      32.722  29.903  28.630  1.00  0.00     0.163 HD
BRANCH   5   8
ATOM      8  C   UNL A   1      32.474  28.165  25.731  1.00  0.00     0.044 A 
ATOM      9  C   UNL A   1      33.168  26.102  24.557  1.00  0.00     0.071 A 
ATOM     10  C   UNL A   1      33.162  26.926  25.687  1.00  0.00     0.034 A 
ATOM     11  C   UNL A   1      32.745  26.630  23.335  1.00  0.00    -0.032 A 
ATOM     12  C   UNL A   1      32.090  27.870  23.353  1.00  0.00     0.009 A 
ATOM     13  C   UNL A   1      32.910  25.950  22.004  1.00  0.00     0.046 C 
ATOM     14  C   UNL A   1      31.855  28.594  24.545  1.00  0.00    -0.038 A 
ATOM     15  C   UNL A   1      30.881  29.722  24.410  1.00  0.00     0.045 C 
BRANCH   9  16
ATOM     16  S   UNL A   1      33.707  24.406  24.730  1.00  0.00     0.190 S 
ATOM     17  O   UNL A   1      33.733  24.177  26.165  1.00  0.00    -0.223 OA
ATOM     18  O   UNL A   1      34.936  24.274  23.967  1.00  0.00    -0.223 OA
BRANCH  16  19
ATOM     19  C   UNL A   1      32.555  23.267  24.017  1.00  0.00     0.199 C 
ATOM     20  C   UNL A   1      32.939  21.801  23.975  1.00  0.00     0.036 C 
BRANCH  19  21
ATOM     21  C   UNL A   1      31.107  23.606  24.298  1.00  0.00     0.238 C 
ATOM     22  C   UNL A   1      30.872  22.929  26.764  1.00  0.00     0.142 C 
ATOM     23  N   UNL A   1      30.463  23.418  25.474  1.00  0.00    -0.358 N 
ATOM     24  H   UNL A   1      29.511  23.669  25.438  1.00  0.00     0.163 HD
ATOM     25  O   UNL A   1      30.394  24.042  23.383  1.00  0.00    -0.274 OA
ENDBRANCH  19  21
ENDBRANCH  16  19
ENDBRANCH   9  16
ENDBRANCH   5   8
ENDBRANCH   3   4
ENDBRANCH   2   3
ENDBRANCH   1   2
BRANCH   1  26
ATOM     26  C   UNL A   1      34.426  33.762  28.684  1.00  0.00     0.002 C 
BRANCH  26  27
ATOM     27  C   UNL A   1      33.149  34.596  28.834  1.00  0.00     0.021 C 
BRANCH  27  28
ATOM     28  C   UNL A   1      33.352  35.990  29.424  1.00  0.00     0.116 C 
BRANCH  28  29
ATOM     29  N   UNL A   1      32.526  36.210  30.598  1.00  0.00    -0.352 N 
ATOM     30  C   UNL A   1      32.643  35.686  31.861  1.00  0.00     0.251 C 
ATOM     31  H   UNL A   1      31.769  36.826  30.468  1.00  0.00     0.163 HD
ATOM     32  O   UNL A   1      31.724  35.811  32.664  1.00  0.00    -0.269 OA
BRANCH  30  33
ATOM     33  C   UNL A   1      33.869  34.960  32.258  1.00  0.00     0.039 A 
ATOM     34  C   UNL A   1      33.753  33.653  32.738  1.00  0.00     0.014 A 
ATOM     35  C   UNL A   1      35.122  35.579  32.205  1.00  0.00     0.014 A 
ATOM     36  C   UNL A   1      34.897  32.946  33.114  1.00  0.00     0.010 A 
ATOM     37  C   UNL A   1      36.269  34.855  32.528  1.00  0.00     0.010 A 
ATOM     38  C   UNL A   1      36.166  33.534  32.990  1.00  0.00    -0.014 A 
BRANCH  38  39
ATOM     39  C   UNL A   1      37.395  32.780  33.341  1.00  0.00     0.031 A 
ATOM     40  C   UNL A   1      38.132  33.080  34.615  1.00  0.00     0.074 A 
ATOM     41  C   UNL A   1      37.880  31.864  32.481  1.00  0.00     0.049 A 
ATOM     42  N   UNL A   1      39.249  32.566  35.064  1.00  0.00    -0.248 NA
ATOM     43  C   UNL A   1      37.551  34.111  35.489  1.00  0.00     0.031 C 
ATOM     44  C   UNL A   1      37.283  31.516  31.191  1.00  0.00     0.029 A 
ATOM     45  N   UNL A   1      38.993  31.065  32.561  1.00  0.00    -0.354 N 
ATOM     46  C   UNL A   1      39.514  33.220  36.260  1.00  0.00     0.074 A 
ATOM     47  C   UNL A   1      38.462  34.197  36.448  1.00  0.00     0.031 C 
ATOM     48  C   UNL A   1      38.027  30.562  30.607  1.00  0.00     0.029 A 
ATOM     49  C   UNL A   1      39.164  30.252  31.468  1.00  0.00     0.049 A 
ATOM     50  H   UNL A   1      39.610  31.075  33.328  1.00  0.00     0.167 HD
ATOM     51  C   UNL A   1      40.529  33.013  37.132  1.00  0.00     0.037 A 
ATOM     52  C   UNL A   1      40.131  29.357  31.191  1.00  0.00     0.037 A 
ATOM     53  C   UNL A   1      41.557  32.021  36.962  1.00  0.00     0.049 A 
ATOM     54  C   UNL A   1      41.235  29.130  32.183  1.00  0.00     0.074 A 
ATOM     55  C   UNL A   1      42.587  31.689  37.824  1.00  0.00     0.029 A 
ATOM     56  N   UNL A   1      41.681  31.196  35.854  1.00  0.00    -0.354 N 
ATOM     57  N   UNL A   1      41.436  29.713  33.340  1.00  0.00    -0.248 NA
ATOM     58  C   UNL A   1      42.242  28.118  31.834  1.00  0.00     0.031 C 
ATOM     59  C   UNL A   1      43.355  30.684  37.223  1.00  0.00     0.029 A 
ATOM     60  C   UNL A   1      42.781  30.368  36.002  1.00  0.00     0.049 A 
ATOM     61  H   UNL A   1      41.077  31.199  35.077  1.00  0.00     0.167 HD
ATOM     62  C   UNL A   1      42.577  29.124  33.867  1.00  0.00     0.074 A 
ATOM     63  C   UNL A   1      43.019  28.132  32.909  1.00  0.00     0.031 C 
ATOM     64  C   UNL A   1      43.205  29.384  35.040  1.00  0.00     0.037 A 
BRANCH  51  65
ATOM     65  C   UNL A   1      40.574  33.880  38.356  1.00  0.00     0.057 A 
ATOM     66  C   UNL A   1      41.325  35.064  38.391  1.00  0.00     0.134 A 
ATOM     67  C   UNL A   1      39.839  33.545  39.499  1.00  0.00     0.134 A 
ATOM     68  F   UNL A   1      42.061  35.434  37.333  1.00  0.00    -0.206 F 
ATOM     69  C   UNL A   1      41.360  35.870  39.529  1.00  0.00     0.040 A 
ATOM     70  C   UNL A   1      39.849  34.356  40.635  1.00  0.00     0.040 A 
ATOM     71  F   UNL A   1      39.097  32.428  39.529  1.00  0.00    -0.206 F 
ATOM     72  C   UNL A   1      40.616  35.520  40.654  1.00  0.00     0.006 A 
ENDBRANCH  51  65
BRANCH  52  73
ATOM     73  C   UNL A   1      40.077  28.583  29.927  1.00  0.00     0.057 A 
ATOM     74  C   UNL A   1      40.763  29.021  28.788  1.00  0.00     0.134 A 
ATOM     75  C   UNL A   1      39.352  27.391  29.829  1.00  0.00     0.134 A 
ATOM     76  F   UNL A   1      41.460  30.166  28.819  1.00  0.00    -0.206 F 
ATOM     77  C   UNL A   1      40.720  28.306  27.591  1.00  0.00     0.040 A 
ATOM     78  C   UNL A   1      39.316  26.655  28.643  1.00  0.00     0.040 A 
ATOM     79  F   UNL A   1      38.682  26.917  30.889  1.00  0.00    -0.206 F 
ATOM     80  C   UNL A   1      39.997  27.116  27.518  1.00  0.00     0.006 A 
ENDBRANCH  52  73
BRANCH  64  81
ATOM     81  C   UNL A   1      44.420  28.568  35.360  1.00  0.00     0.057 A 
ATOM     82  C   UNL A   1      44.329  27.354  36.051  1.00  0.00     0.134 A 
ATOM     83  C   UNL A   1      45.690  28.985  34.943  1.00  0.00     0.134 A 
ATOM     84  F   UNL A   1      43.141  26.909  36.489  1.00  0.00    -0.206 F 
ATOM     85  C   UNL A   1      45.462  26.591  36.333  1.00  0.00     0.040 A 
ATOM     86  C   UNL A   1      46.828  28.220  35.201  1.00  0.00     0.040 A 
ATOM     87  F   UNL A   1      45.843  30.136  34.272  1.00  0.00    -0.206 F 
ATOM     88  C   UNL A   1      46.716  27.021  35.901  1.00  0.00     0.006 A 
ENDBRANCH  64  81
ENDBRANCH  38  39
ENDBRANCH  30  33
ENDBRANCH  28  29
ENDBRANCH  27  28
ENDBRANCH  26  27
ENDBRANCH   1  26
TORSDOF 16
ENDMDL
