MODEL 1
REMARK VINA RESULT:     -10.8      0.000      0.000
REMARK SMILES C/C(=N/OCc1ccccc1Nc1c(Cl)cccc1Cl)C(=O)NCCCCCCNC(=O)c1ccc(-c2c3nc(c(-c4c(F)cccc4F)c4ccc([nH]4)c(-c4c(F)cccc4F)c4nc(c(-c5c(F)cccc5F)c5ccc2[nH]5)C=C4)C=C3)cc1
REMARK SMILES IDX 25 1 24 2 23 3 21 4 22 5 2 7 1 8 3 9 4 10 5 11 6 12 7 13
REMARK SMILES IDX 11 14 8 15 10 16 9 17 12 18 13 20 14 21 19 22 15 23 16 24
REMARK SMILES IDX 18 25 20 26 17 27 26 28 27 29 28 30 29 31 30 32 31 33 32 35
REMARK SMILES IDX 33 36 34 37 86 38 35 39 85 40 36 41 37 42 38 43 79 44 39 45
REMARK SMILES IDX 84 46 78 47 80 48 40 49 83 50 77 51 76 52 41 54 67 55 50 56
REMARK SMILES IDX 66 57 51 58 54 59 65 60 81 61 52 62 53 63 64 65 82 66 55 67
REMARK SMILES IDX 42 68 43 69 48 70 44 71 45 72 47 73 49 74 46 75 68 76 69 77
REMARK SMILES IDX 74 78 70 79 71 80 73 81 75 82 72 83 56 84 57 85 62 86 58 87
REMARK SMILES IDX 59 88 61 89 63 90 60 91
REMARK H PARENT 23 6 12 19 30 34 80 53 54 64
REMARK Flexibility Score: inf
ROOT
ATOM      1  C   UNL A   1      33.216  22.050  23.501  1.00  0.00     0.021 C 
ENDROOT
BRANCH   1   2
ATOM      2  C   UNL A   1      31.989  22.549  24.271  1.00  0.00     0.116 C 
BRANCH   2   3
ATOM      3  N   UNL A   1      32.240  22.489  25.691  1.00  0.00    -0.351 N 
ATOM      4  C   UNL A   1      31.586  22.969  26.789  1.00  0.00     0.268 C 
ATOM      5  O   UNL A   1      32.198  22.861  27.859  1.00  0.00    -0.268 OA
ATOM      6  H   UNL A   1      33.062  21.994  25.916  1.00  0.00     0.163 HD
BRANCH   4   7
ATOM      7  C   UNL A   1      30.188  23.573  26.887  1.00  0.00     0.141 C 
ATOM      8  C   UNL A   1      29.173  22.601  27.473  1.00  0.00     0.077 C 
ATOM      9  N   UNL A   1      29.679  24.726  26.548  1.00  0.00    -0.086 NA
BRANCH   9  10
ATOM     10  O   UNL A   1      30.534  25.632  25.944  1.00  0.00    -0.390 OA
BRANCH  10  11
ATOM     11  C   UNL A   1      30.048  26.017  24.646  1.00  0.00     0.302 C 
BRANCH  11  12
ATOM     12  C   UNL A   1      31.105  26.507  23.659  1.00  0.00     0.016 A 
ATOM     13  C   UNL A   1      31.323  25.716  22.508  1.00  0.00     0.009 A 
ATOM     14  C   UNL A   1      31.954  27.615  23.889  1.00  0.00     0.045 A 
ATOM     15  C   UNL A   1      32.347  26.013  21.608  1.00  0.00     0.001 A 
ATOM     16  C   UNL A   1      32.966  27.906  22.960  1.00  0.00     0.026 A 
ATOM     17  C   UNL A   1      33.171  27.106  21.836  1.00  0.00     0.002 A 
BRANCH  14  18
ATOM     18  N   UNL A   1      31.769  28.415  25.029  1.00  0.00    -0.353 N 
ATOM     19  H   UNL A   1      30.827  28.636  25.209  1.00  0.00     0.167 HD
BRANCH  18  20
ATOM     20  C   UNL A   1      32.672  28.962  25.961  1.00  0.00     0.076 A 
ATOM     21  C   UNL A   1      32.522  30.306  26.360  1.00  0.00     0.066 A 
ATOM     22  C   UNL A   1      33.763  28.245  26.485  1.00  0.00     0.066 A 
ATOM     23  Cl  UNL A   1      31.179  31.254  25.815  1.00  0.00    -0.082 Cl
ATOM     24  C   UNL A   1      33.442  30.921  27.213  1.00  0.00     0.023 A 
ATOM     25  C   UNL A   1      34.677  28.859  27.352  1.00  0.00     0.023 A 
ATOM     26  Cl  UNL A   1      34.089  26.607  26.029  1.00  0.00    -0.082 Cl
ATOM     27  C   UNL A   1      34.523  30.198  27.707  1.00  0.00     0.003 A 
ENDBRANCH  18  20
ENDBRANCH  14  18
ENDBRANCH  11  12
ENDBRANCH  10  11
ENDBRANCH   9  10
ENDBRANCH   4   7
ENDBRANCH   2   3
ENDBRANCH   1   2
BRANCH   1  28
ATOM     28  C   UNL A   1      34.032  23.187  22.873  1.00  0.00     0.002 C 
BRANCH  28  29
ATOM     29  C   UNL A   1      35.044  23.835  23.825  1.00  0.00     0.002 C 
BRANCH  29  30
ATOM     30  C   UNL A   1      35.736  22.865  24.787  1.00  0.00     0.021 C 
BRANCH  30  31
ATOM     31  C   UNL A   1      36.837  23.500  25.630  1.00  0.00     0.116 C 
BRANCH  31  32
ATOM     32  N   UNL A   1      37.848  22.523  26.005  1.00  0.00    -0.352 N 
ATOM     33  C   UNL A   1      39.131  22.723  26.443  1.00  0.00     0.251 C 
ATOM     34  H   UNL A   1      37.570  21.581  25.932  1.00  0.00     0.163 HD
ATOM     35  O   UNL A   1      39.935  21.798  26.450  1.00  0.00    -0.269 OA
BRANCH  33  36
ATOM     36  C   UNL A   1      39.546  24.062  26.912  1.00  0.00     0.039 A 
ATOM     37  C   UNL A   1      39.380  24.390  28.259  1.00  0.00     0.014 A 
ATOM     38  C   UNL A   1      40.066  25.000  26.015  1.00  0.00     0.014 A 
ATOM     39  C   UNL A   1      39.782  25.645  28.718  1.00  0.00     0.010 A 
ATOM     40  C   UNL A   1      40.528  26.225  26.486  1.00  0.00     0.010 A 
ATOM     41  C   UNL A   1      40.384  26.562  27.840  1.00  0.00    -0.014 A 
BRANCH  41  42
ATOM     42  C   UNL A   1      40.874  27.875  28.326  1.00  0.00     0.031 A 
ATOM     43  C   UNL A   1      39.903  28.923  28.793  1.00  0.00     0.074 A 
ATOM     44  C   UNL A   1      42.194  28.140  28.293  1.00  0.00     0.049 A 
ATOM     45  N   UNL A   1      40.140  30.139  29.214  1.00  0.00    -0.248 NA
ATOM     46  C   UNL A   1      38.476  28.568  28.756  1.00  0.00     0.031 C 
ATOM     47  C   UNL A   1      43.229  27.223  27.811  1.00  0.00     0.029 A 
ATOM     48  N   UNL A   1      42.891  29.261  28.666  1.00  0.00    -0.354 N 
ATOM     49  C   UNL A   1      38.896  30.695  29.482  1.00  0.00     0.074 A 
ATOM     50  C   UNL A   1      37.904  29.704  29.126  1.00  0.00     0.031 C 
ATOM     51  C   UNL A   1      44.429  27.808  27.941  1.00  0.00     0.029 A 
ATOM     52  C   UNL A   1      44.247  29.150  28.484  1.00  0.00     0.049 A 
ATOM     53  H   UNL A   1      42.459  30.067  29.030  1.00  0.00     0.167 HD
ATOM     54  C   UNL A   1      38.609  31.913  30.000  1.00  0.00     0.037 A 
ATOM     55  C   UNL A   1      45.233  30.034  28.725  1.00  0.00     0.037 A 
ATOM     56  C   UNL A   1      39.600  32.888  30.373  1.00  0.00     0.049 A 
ATOM     57  C   UNL A   1      44.887  31.377  29.303  1.00  0.00     0.074 A 
ATOM     58  C   UNL A   1      39.414  34.126  30.965  1.00  0.00     0.029 A 
ATOM     59  N   UNL A   1      40.966  32.735  30.187  1.00  0.00    -0.354 N 
ATOM     60  N   UNL A   1      43.711  31.863  29.619  1.00  0.00    -0.248 NA
ATOM     61  C   UNL A   1      46.007  32.293  29.563  1.00  0.00     0.031 C 
ATOM     62  C   UNL A   1      40.665  34.739  31.097  1.00  0.00     0.029 A 
ATOM     63  C   UNL A   1      41.633  33.866  30.630  1.00  0.00     0.049 A 
ATOM     64  H   UNL A   1      41.398  31.941  29.796  1.00  0.00     0.167 HD
ATOM     65  C   UNL A   1      43.950  33.129  30.136  1.00  0.00     0.074 A 
ATOM     66  C   UNL A   1      45.385  33.329  30.108  1.00  0.00     0.031 C 
ATOM     67  C   UNL A   1      43.063  34.047  30.591  1.00  0.00     0.037 A 
BRANCH  54  68
ATOM     68  C   UNL A   1      37.161  32.257  30.198  1.00  0.00     0.057 A 
ATOM     69  C   UNL A   1      36.465  31.885  31.356  1.00  0.00     0.134 A 
ATOM     70  C   UNL A   1      36.462  32.997  29.235  1.00  0.00     0.134 A 
ATOM     71  F   UNL A   1      37.072  31.164  32.311  1.00  0.00    -0.206 F 
ATOM     72  C   UNL A   1      35.120  32.213  31.538  1.00  0.00     0.040 A 
ATOM     73  C   UNL A   1      35.124  33.354  29.419  1.00  0.00     0.040 A 
ATOM     74  F   UNL A   1      37.068  33.391  28.105  1.00  0.00    -0.206 F 
ATOM     75  C   UNL A   1      34.449  32.956  30.571  1.00  0.00     0.006 A 
ENDBRANCH  54  68
BRANCH  55  76
ATOM     76  C   UNL A   1      46.643  29.666  28.444  1.00  0.00     0.057 A 
ATOM     77  C   UNL A   1      47.450  29.096  29.436  1.00  0.00     0.134 A 
ATOM     78  C   UNL A   1      47.218  29.877  27.186  1.00  0.00     0.134 A 
ATOM     79  F   UNL A   1      46.959  28.886  30.667  1.00  0.00    -0.206 F 
ATOM     80  C   UNL A   1      48.783  28.764  29.194  1.00  0.00     0.040 A 
ATOM     81  C   UNL A   1      48.543  29.527  26.922  1.00  0.00     0.040 A 
ATOM     82  F   UNL A   1      46.496  30.412  26.191  1.00  0.00    -0.206 F 
ATOM     83  C   UNL A   1      49.332  28.975  27.929  1.00  0.00     0.006 A 
ENDBRANCH  55  76
BRANCH  67  84
ATOM     84  C   UNL A   1      43.623  35.336  31.114  1.00  0.00     0.057 A 
ATOM     85  C   UNL A   1      43.821  36.446  30.281  1.00  0.00     0.134 A 
ATOM     86  C   UNL A   1      43.947  35.478  32.469  1.00  0.00     0.134 A 
ATOM     87  F   UNL A   1      43.543  36.371  28.971  1.00  0.00    -0.206 F 
ATOM     88  C   UNL A   1      44.346  37.642  30.773  1.00  0.00     0.040 A 
ATOM     89  C   UNL A   1      44.448  36.677  32.977  1.00  0.00     0.040 A 
ATOM     90  F   UNL A   1      43.774  34.457  33.322  1.00  0.00    -0.206 F 
ATOM     91  C   UNL A   1      44.655  37.761  32.127  1.00  0.00     0.006 A 
ENDBRANCH  67  84
ENDBRANCH  41  42
ENDBRANCH  33  36
ENDBRANCH  31  32
ENDBRANCH  30  31
ENDBRANCH  29  30
ENDBRANCH  28  29
ENDBRANCH   1  28
TORSDOF 18
ENDMDL
MODEL 2
REMARK VINA RESULT:     -10.6      1.654      6.936
REMARK SMILES C/C(=N/OCc1ccccc1Nc1c(Cl)cccc1Cl)C(=O)NCCCCCCNC(=O)c1ccc(-c2c3nc(c(-c4c(F)cccc4F)c4ccc([nH]4)c(-c4c(F)cccc4F)c4nc(c(-c5c(F)cccc5F)c5ccc2[nH]5)C=C4)C=C3)cc1
REMARK SMILES IDX 25 1 24 2 23 3 21 4 22 5 2 7 1 8 3 9 4 10 5 11 6 12 7 13
REMARK SMILES IDX 11 14 8 15 10 16 9 17 12 18 13 20 14 21 19 22 15 23 16 24
REMARK SMILES IDX 18 25 20 26 17 27 26 28 27 29 28 30 29 31 30 32 31 33 32 35
REMARK SMILES IDX 33 36 34 37 86 38 35 39 85 40 36 41 37 42 38 43 79 44 39 45
REMARK SMILES IDX 84 46 78 47 80 48 40 49 83 50 77 51 76 52 41 54 67 55 50 56
REMARK SMILES IDX 66 57 51 58 54 59 65 60 81 61 52 62 53 63 64 65 82 66 55 67
REMARK SMILES IDX 42 68 43 69 48 70 44 71 45 72 47 73 49 74 46 75 68 76 69 77
REMARK SMILES IDX 74 78 70 79 71 80 73 81 75 82 72 83 56 84 57 85 62 86 58 87
REMARK SMILES IDX 59 88 61 89 63 90 60 91
REMARK H PARENT 23 6 12 19 30 34 80 53 54 64
REMARK Flexibility Score: inf
ROOT
ATOM      1  C   UNL A   1      34.287  26.290  25.129  1.00  0.00     0.021 C 
ENDROOT
BRANCH   1   2
ATOM      2  C   UNL A   1      33.423  26.893  26.241  1.00  0.00     0.116 C 
BRANCH   2   3
ATOM      3  N   UNL A   1      34.008  28.128  26.705  1.00  0.00    -0.351 N 
ATOM      4  C   UNL A   1      33.689  29.446  26.545  1.00  0.00     0.268 C 
ATOM      5  O   UNL A   1      34.532  30.248  26.962  1.00  0.00    -0.268 OA
ATOM      6  H   UNL A   1      34.812  27.989  27.258  1.00  0.00     0.163 HD
BRANCH   4   7
ATOM      7  C   UNL A   1      32.418  30.063  25.969  1.00  0.00     0.141 C 
ATOM      8  C   UNL A   1      31.764  31.051  26.925  1.00  0.00     0.077 C 
ATOM      9  N   UNL A   1      31.764  29.900  24.852  1.00  0.00    -0.086 NA
BRANCH   9  10
ATOM     10  O   UNL A   1      32.266  28.963  23.965  1.00  0.00    -0.390 OA
BRANCH  10  11
ATOM     11  C   UNL A   1      31.425  28.845  22.804  1.00  0.00     0.302 C 
BRANCH  11  12
ATOM     12  C   UNL A   1      30.041  28.246  23.043  1.00  0.00     0.016 A 
ATOM     13  C   UNL A   1      28.929  29.021  22.646  1.00  0.00     0.009 A 
ATOM     14  C   UNL A   1      29.809  27.040  23.745  1.00  0.00     0.045 A 
ATOM     15  C   UNL A   1      27.624  28.616  22.929  1.00  0.00     0.001 A 
ATOM     16  C   UNL A   1      28.487  26.641  24.003  1.00  0.00     0.026 A 
ATOM     17  C   UNL A   1      27.404  27.427  23.611  1.00  0.00     0.002 A 
BRANCH  14  18
ATOM     18  N   UNL A   1      30.894  26.251  24.162  1.00  0.00    -0.353 N 
ATOM     19  H   UNL A   1      31.527  26.725  24.747  1.00  0.00     0.167 HD
BRANCH  18  20
ATOM     20  C   UNL A   1      31.250  24.913  23.902  1.00  0.00     0.076 A 
ATOM     21  C   UNL A   1      31.054  23.940  24.904  1.00  0.00     0.066 A 
ATOM     22  C   UNL A   1      31.848  24.497  22.699  1.00  0.00     0.066 A 
ATOM     23  Cl  UNL A   1      30.274  24.342  26.397  1.00  0.00    -0.082 Cl
ATOM     24  C   UNL A   1      31.471  22.618  24.729  1.00  0.00     0.023 A 
ATOM     25  C   UNL A   1      32.254  23.168  22.520  1.00  0.00     0.023 A 
ATOM     26  Cl  UNL A   1      32.196  25.606  21.415  1.00  0.00    -0.082 Cl
ATOM     27  C   UNL A   1      32.075  22.232  23.537  1.00  0.00     0.003 A 
ENDBRANCH  18  20
ENDBRANCH  14  18
ENDBRANCH  11  12
ENDBRANCH  10  11
ENDBRANCH   9  10
ENDBRANCH   4   7
ENDBRANCH   2   3
ENDBRANCH   1   2
BRANCH   1  28
ATOM     28  C   UNL A   1      34.673  24.829  25.395  1.00  0.00     0.002 C 
BRANCH  28  29
ATOM     29  C   UNL A   1      35.263  24.102  24.181  1.00  0.00     0.002 C 
BRANCH  29  30
ATOM     30  C   UNL A   1      36.567  23.348  24.455  1.00  0.00     0.021 C 
BRANCH  30  31
ATOM     31  C   UNL A   1      36.906  23.204  25.936  1.00  0.00     0.116 C 
BRANCH  31  32
ATOM     32  N   UNL A   1      38.039  22.313  26.136  1.00  0.00    -0.352 N 
ATOM     33  C   UNL A   1      39.348  22.618  26.403  1.00  0.00     0.251 C 
ATOM     34  H   UNL A   1      37.835  21.352  26.070  1.00  0.00     0.163 HD
ATOM     35  O   UNL A   1      40.222  21.769  26.269  1.00  0.00    -0.269 OA
BRANCH  33  36
ATOM     36  C   UNL A   1      39.707  23.978  26.857  1.00  0.00     0.039 A 
ATOM     37  C   UNL A   1      39.661  24.272  28.221  1.00  0.00     0.014 A 
ATOM     38  C   UNL A   1      40.057  24.967  25.932  1.00  0.00     0.014 A 
ATOM     39  C   UNL A   1      40.014  25.548  28.664  1.00  0.00     0.010 A 
ATOM     40  C   UNL A   1      40.472  26.217  26.380  1.00  0.00     0.010 A 
ATOM     41  C   UNL A   1      40.448  26.521  27.748  1.00  0.00    -0.014 A 
BRANCH  41  42
ATOM     42  C   UNL A   1      40.885  27.861  28.211  1.00  0.00     0.031 A 
ATOM     43  C   UNL A   1      42.345  28.218  28.235  1.00  0.00     0.074 A 
ATOM     44  C   UNL A   1      39.965  28.735  28.662  1.00  0.00     0.049 A 
ATOM     45  N   UNL A   1      42.917  29.322  28.643  1.00  0.00    -0.248 NA
ATOM     46  C   UNL A   1      43.286  27.191  27.766  1.00  0.00     0.031 C 
ATOM     47  C   UNL A   1      38.525  28.483  28.739  1.00  0.00     0.029 A 
ATOM     48  N   UNL A   1      40.105  30.010  29.150  1.00  0.00    -0.354 N 
ATOM     49  C   UNL A   1      44.283  29.119  28.487  1.00  0.00     0.074 A 
ATOM     50  C   UNL A   1      44.456  27.768  28.000  1.00  0.00     0.031 C 
ATOM     51  C   UNL A   1      37.912  29.577  29.219  1.00  0.00     0.029 A 
ATOM     52  C   UNL A   1      38.917  30.593  29.514  1.00  0.00     0.049 A 
ATOM     53  H   UNL A   1      40.976  30.463  29.230  1.00  0.00     0.167 HD
ATOM     54  C   UNL A   1      45.298  29.988  28.710  1.00  0.00     0.037 A 
ATOM     55  C   UNL A   1      38.667  31.810  30.031  1.00  0.00     0.037 A 
ATOM     56  C   UNL A   1      45.119  31.339  29.175  1.00  0.00     0.049 A 
ATOM     57  C   UNL A   1      39.810  32.756  30.265  1.00  0.00     0.074 A 
ATOM     58  C   UNL A   1      46.077  32.318  29.371  1.00  0.00     0.029 A 
ATOM     59  N   UNL A   1      43.898  31.899  29.520  1.00  0.00    -0.354 N 
ATOM     60  N   UNL A   1      41.090  32.576  30.045  1.00  0.00    -0.248 NA
ATOM     61  C   UNL A   1      39.473  34.077  30.812  1.00  0.00     0.031 C 
ATOM     62  C   UNL A   1      45.441  33.457  29.874  1.00  0.00     0.029 A 
ATOM     63  C   UNL A   1      44.081  33.203  29.950  1.00  0.00     0.049 A 
ATOM     64  H   UNL A   1      43.030  31.438  29.468  1.00  0.00     0.167 HD
ATOM     65  C   UNL A   1      41.708  33.766  30.405  1.00  0.00     0.074 A 
ATOM     66  C   UNL A   1      40.660  34.667  30.839  1.00  0.00     0.031 C 
ATOM     67  C   UNL A   1      43.025  34.084  30.381  1.00  0.00     0.037 A 
BRANCH  54  68
ATOM     68  C   UNL A   1      46.694  29.503  28.447  1.00  0.00     0.057 A 
ATOM     69  C   UNL A   1      47.298  29.637  27.190  1.00  0.00     0.134 A 
ATOM     70  C   UNL A   1      47.456  28.925  29.471  1.00  0.00     0.134 A 
ATOM     71  F   UNL A   1      46.618  30.170  26.163  1.00  0.00    -0.206 F 
ATOM     72  C   UNL A   1      48.600  29.190  26.953  1.00  0.00     0.040 A 
ATOM     73  C   UNL A   1      48.768  28.499  29.252  1.00  0.00     0.040 A 
ATOM     74  F   UNL A   1      46.942  28.771  30.700  1.00  0.00    -0.206 F 
ATOM     75  C   UNL A   1      49.340  28.626  27.988  1.00  0.00     0.006 A 
ENDBRANCH  54  68
BRANCH  55  76
ATOM     76  C   UNL A   1      37.271  32.212  30.337  1.00  0.00     0.057 A 
ATOM     77  C   UNL A   1      36.493  32.891  29.392  1.00  0.00     0.134 A 
ATOM     78  C   UNL A   1      36.684  31.933  31.577  1.00  0.00     0.134 A 
ATOM     79  F   UNL A   1      37.007  33.202  28.193  1.00  0.00    -0.206 F 
ATOM     80  C   UNL A   1      35.187  33.294  29.673  1.00  0.00     0.040 A 
ATOM     81  C   UNL A   1      35.371  32.308  31.863  1.00  0.00     0.040 A 
ATOM     82  F   UNL A   1      37.375  31.278  32.522  1.00  0.00    -0.206 F 
ATOM     83  C   UNL A   1      34.620  32.996  30.912  1.00  0.00     0.006 A 
ENDBRANCH  55  76
BRANCH  67  84
ATOM     84  C   UNL A   1      43.399  35.470  30.817  1.00  0.00     0.057 A 
ATOM     85  C   UNL A   1      43.688  35.771  32.155  1.00  0.00     0.134 A 
ATOM     86  C   UNL A   1      43.494  36.511  29.885  1.00  0.00     0.134 A 
ATOM     87  F   UNL A   1      43.601  34.820  33.099  1.00  0.00    -0.206 F 
ATOM     88  C   UNL A   1      44.031  37.063  32.554  1.00  0.00     0.040 A 
ATOM     89  C   UNL A   1      43.863  37.801  30.268  1.00  0.00     0.040 A 
ATOM     90  F   UNL A   1      43.239  36.289  28.587  1.00  0.00    -0.206 F 
ATOM     91  C   UNL A   1      44.125  38.081  31.608  1.00  0.00     0.006 A 
ENDBRANCH  67  84
ENDBRANCH  41  42
ENDBRANCH  33  36
ENDBRANCH  31  32
ENDBRANCH  30  31
ENDBRANCH  29  30
ENDBRANCH  28  29
ENDBRANCH   1  28
TORSDOF 18
ENDMDL
MODEL 3
REMARK VINA RESULT:     -10.6      1.756      6.153
REMARK SMILES C/C(=N/OCc1ccccc1Nc1c(Cl)cccc1Cl)C(=O)NCCCCCCNC(=O)c1ccc(-c2c3nc(c(-c4c(F)cccc4F)c4ccc([nH]4)c(-c4c(F)cccc4F)c4nc(c(-c5c(F)cccc5F)c5ccc2[nH]5)C=C4)C=C3)cc1
REMARK SMILES IDX 25 1 24 2 23 3 21 4 22 5 2 7 1 8 3 9 4 10 5 11 6 12 7 13
REMARK SMILES IDX 11 14 8 15 10 16 9 17 12 18 13 20 14 21 19 22 15 23 16 24
REMARK SMILES IDX 18 25 20 26 17 27 26 28 27 29 28 30 29 31 30 32 31 33 32 35
REMARK SMILES IDX 33 36 34 37 86 38 35 39 85 40 36 41 37 42 38 43 79 44 39 45
REMARK SMILES IDX 84 46 78 47 80 48 40 49 83 50 77 51 76 52 41 54 67 55 50 56
REMARK SMILES IDX 66 57 51 58 54 59 65 60 81 61 52 62 53 63 64 65 82 66 55 67
REMARK SMILES IDX 42 68 43 69 48 70 44 71 45 72 47 73 49 74 46 75 68 76 69 77
REMARK SMILES IDX 74 78 70 79 71 80 73 81 75 82 72 83 56 84 57 85 62 86 58 87
REMARK SMILES IDX 59 88 61 89 63 90 60 91
REMARK H PARENT 23 6 12 19 30 34 80 53 54 64
REMARK Flexibility Score: inf
ROOT
ATOM      1  C   UNL A   1      33.484  21.849  23.705  1.00  0.00     0.021 C 
ENDROOT
BRANCH   1   2
ATOM      2  C   UNL A   1      32.153  22.130  24.410  1.00  0.00     0.116 C 
BRANCH   2   3
ATOM      3  N   UNL A   1      32.359  22.212  25.836  1.00  0.00    -0.351 N 
ATOM      4  C   UNL A   1      31.703  22.846  26.852  1.00  0.00     0.268 C 
ATOM      5  O   UNL A   1      32.276  22.823  27.948  1.00  0.00    -0.268 OA
ATOM      6  H   UNL A   1      33.142  21.699  26.143  1.00  0.00     0.163 HD
BRANCH   4   7
ATOM      7  C   UNL A   1      30.341  23.535  26.834  1.00  0.00     0.141 C 
ATOM      8  C   UNL A   1      29.241  22.669  27.430  1.00  0.00     0.077 C 
ATOM      9  N   UNL A   1      29.921  24.689  26.390  1.00  0.00    -0.086 NA
BRANCH   9  10
ATOM     10  O   UNL A   1      30.858  25.499  25.772  1.00  0.00    -0.390 OA
BRANCH  10  11
ATOM     11  C   UNL A   1      30.619  25.580  24.356  1.00  0.00     0.302 C 
BRANCH  11  12
ATOM     12  C   UNL A   1      31.680  26.319  23.544  1.00  0.00     0.016 A 
ATOM     13  C   UNL A   1      32.024  25.772  22.288  1.00  0.00     0.009 A 
ATOM     14  C   UNL A   1      32.419  27.426  24.024  1.00  0.00     0.045 A 
ATOM     15  C   UNL A   1      33.063  26.304  21.524  1.00  0.00     0.001 A 
ATOM     16  C   UNL A   1      33.450  27.957  23.231  1.00  0.00     0.026 A 
ATOM     17  C   UNL A   1      33.779  27.395  21.998  1.00  0.00     0.002 A 
BRANCH  14  18
ATOM     18  N   UNL A   1      32.109  27.988  25.274  1.00  0.00    -0.353 N 
ATOM     19  H   UNL A   1      31.889  27.322  25.964  1.00  0.00     0.167 HD
BRANCH  18  20
ATOM     20  C   UNL A   1      32.050  29.319  25.728  1.00  0.00     0.076 A 
ATOM     21  C   UNL A   1      32.912  29.735  26.763  1.00  0.00     0.066 A 
ATOM     22  C   UNL A   1      31.126  30.259  25.233  1.00  0.00     0.066 A 
ATOM     23  Cl  UNL A   1      34.121  28.669  27.398  1.00  0.00    -0.082 Cl
ATOM     24  C   UNL A   1      32.833  31.018  27.309  1.00  0.00     0.023 A 
ATOM     25  C   UNL A   1      31.057  31.551  25.773  1.00  0.00     0.023 A 
ATOM     26  Cl  UNL A   1      29.975  29.856  24.004  1.00  0.00    -0.082 Cl
ATOM     27  C   UNL A   1      31.902  31.927  26.816  1.00  0.00     0.003 A 
ENDBRANCH  18  20
ENDBRANCH  14  18
ENDBRANCH  11  12
ENDBRANCH  10  11
ENDBRANCH   9  10
ENDBRANCH   4   7
ENDBRANCH   2   3
ENDBRANCH   1   2
BRANCH   1  28
ATOM     28  C   UNL A   1      34.152  23.117  23.158  1.00  0.00     0.002 C 
BRANCH  28  29
ATOM     29  C   UNL A   1      34.842  23.975  24.226  1.00  0.00     0.002 C 
BRANCH  29  30
ATOM     30  C   UNL A   1      35.830  23.218  25.118  1.00  0.00     0.021 C 
BRANCH  30  31
ATOM     31  C   UNL A   1      37.215  23.855  25.194  1.00  0.00     0.116 C 
BRANCH  31  32
ATOM     32  N   UNL A   1      38.229  22.876  25.557  1.00  0.00    -0.352 N 
ATOM     33  C   UNL A   1      39.422  23.059  26.205  1.00  0.00     0.251 C 
ATOM     34  H   UNL A   1      38.028  21.947  25.298  1.00  0.00     0.163 HD
ATOM     35  O   UNL A   1      40.279  22.182  26.185  1.00  0.00    -0.269 OA
BRANCH  33  36
ATOM     36  C   UNL A   1      39.676  24.320  26.932  1.00  0.00     0.039 A 
ATOM     37  C   UNL A   1      39.183  24.466  28.230  1.00  0.00     0.014 A 
ATOM     38  C   UNL A   1      40.372  25.367  26.319  1.00  0.00     0.014 A 
ATOM     39  C   UNL A   1      39.430  25.645  28.934  1.00  0.00     0.010 A 
ATOM     40  C   UNL A   1      40.675  26.515  27.045  1.00  0.00     0.010 A 
ATOM     41  C   UNL A   1      40.201  26.668  28.355  1.00  0.00    -0.014 A 
BRANCH  41  42
ATOM     42  C   UNL A   1      40.524  27.900  29.115  1.00  0.00     0.031 A 
ATOM     43  C   UNL A   1      41.849  28.040  29.810  1.00  0.00     0.074 A 
ATOM     44  C   UNL A   1      39.596  28.871  29.222  1.00  0.00     0.049 A 
ATOM     45  N   UNL A   1      42.293  29.023  30.551  1.00  0.00    -0.248 NA
ATOM     46  C   UNL A   1      42.788  26.915  29.679  1.00  0.00     0.031 C 
ATOM     47  C   UNL A   1      38.254  28.826  28.637  1.00  0.00     0.029 A 
ATOM     48  N   UNL A   1      39.638  30.081  29.866  1.00  0.00    -0.354 N 
ATOM     49  C   UNL A   1      43.555  28.633  30.980  1.00  0.00     0.074 A 
ATOM     50  C   UNL A   1      43.785  27.302  30.462  1.00  0.00     0.031 C 
ATOM     51  C   UNL A   1      37.611  29.967  28.928  1.00  0.00     0.029 A 
ATOM     52  C   UNL A   1      38.479  30.808  29.745  1.00  0.00     0.049 A 
ATOM     53  H   UNL A   1      40.424  30.397  30.368  1.00  0.00     0.167 HD
ATOM     54  C   UNL A   1      44.450  29.331  31.720  1.00  0.00     0.037 A 
ATOM     55  C   UNL A   1      38.154  32.016  30.241  1.00  0.00     0.037 A 
ATOM     56  C   UNL A   1      44.225  30.664  32.215  1.00  0.00     0.049 A 
ATOM     57  C   UNL A   1      39.166  32.771  31.055  1.00  0.00     0.074 A 
ATOM     58  C   UNL A   1      45.093  31.480  32.920  1.00  0.00     0.029 A 
ATOM     59  N   UNL A   1      43.044  31.374  32.060  1.00  0.00    -0.354 N 
ATOM     60  N   UNL A   1      40.384  32.420  31.392  1.00  0.00    -0.248 NA
ATOM     61  C   UNL A   1      38.761  34.093  31.552  1.00  0.00     0.031 C 
ATOM     62  C   UNL A   1      44.422  32.669  33.227  1.00  0.00     0.029 A 
ATOM     63  C   UNL A   1      43.152  32.611  32.676  1.00  0.00     0.049 A 
ATOM     64  H   UNL A   1      42.247  31.048  31.584  1.00  0.00     0.167 HD
ATOM     65  C   UNL A   1      40.898  33.484  32.120  1.00  0.00     0.074 A 
ATOM     66  C   UNL A   1      39.866  34.501  32.159  1.00  0.00     0.031 C 
ATOM     67  C   UNL A   1      42.113  33.609  32.707  1.00  0.00     0.037 A 
BRANCH  54  68
ATOM     68  C   UNL A   1      45.758  28.664  32.033  1.00  0.00     0.057 A 
ATOM     69  C   UNL A   1      45.934  27.890  33.187  1.00  0.00     0.134 A 
ATOM     70  C   UNL A   1      46.845  28.769  31.155  1.00  0.00     0.134 A 
ATOM     71  F   UNL A   1      44.937  27.758  34.076  1.00  0.00    -0.206 F 
ATOM     72  C   UNL A   1      47.151  27.266  33.471  1.00  0.00     0.040 A 
ATOM     73  C   UNL A   1      48.057  28.128  31.414  1.00  0.00     0.040 A 
ATOM     74  F   UNL A   1      46.744  29.491  30.028  1.00  0.00    -0.206 F 
ATOM     75  C   UNL A   1      48.214  27.379  32.579  1.00  0.00     0.006 A 
ENDBRANCH  54  68
BRANCH  55  76
ATOM     76  C   UNL A   1      36.818  32.598  29.957  1.00  0.00     0.057 A 
ATOM     77  C   UNL A   1      35.713  32.287  30.757  1.00  0.00     0.134 A 
ATOM     78  C   UNL A   1      36.614  33.472  28.883  1.00  0.00     0.134 A 
ATOM     79  F   UNL A   1      35.844  31.442  31.790  1.00  0.00    -0.206 F 
ATOM     80  C   UNL A   1      34.447  32.809  30.490  1.00  0.00     0.040 A 
ATOM     81  C   UNL A   1      35.358  34.021  28.618  1.00  0.00     0.040 A 
ATOM     82  F   UNL A   1      37.634  33.815  28.084  1.00  0.00    -0.206 F 
ATOM     83  C   UNL A   1      34.268  33.685  29.419  1.00  0.00     0.006 A 
ENDBRANCH  55  76
BRANCH  67  84
ATOM     84  C   UNL A   1      42.396  34.898  33.419  1.00  0.00     0.057 A 
ATOM     85  C   UNL A   1      42.054  35.088  34.765  1.00  0.00     0.134 A 
ATOM     86  C   UNL A   1      43.040  35.953  32.760  1.00  0.00     0.134 A 
ATOM     87  F   UNL A   1      41.424  34.121  35.449  1.00  0.00    -0.206 F 
ATOM     88  C   UNL A   1      42.318  36.291  35.421  1.00  0.00     0.040 A 
ATOM     89  C   UNL A   1      43.332  37.151  33.413  1.00  0.00     0.040 A 
ATOM     90  F   UNL A   1      43.402  35.833  31.474  1.00  0.00    -0.206 F 
ATOM     91  C   UNL A   1      42.964  37.325  34.746  1.00  0.00     0.006 A 
ENDBRANCH  67  84
ENDBRANCH  41  42
ENDBRANCH  33  36
ENDBRANCH  31  32
ENDBRANCH  30  31
ENDBRANCH  29  30
ENDBRANCH  28  29
ENDBRANCH   1  28
TORSDOF 18
ENDMDL
