MODEL 1
REMARK VINA RESULT:     -12.6      0.000      0.000
REMARK SMILES COC(=O)c1ccc([C@H]2Nc3c(C(=O)NCCCCCCNC(=O)c4ccc(-c5c6nc(c(-c7c(F)cccc7F)c7ccc([nH]7)c(-c7c(F)cccc7F)c7nc(c(-c8c(F)cccc8F)c8ccc5[nH]8)C=C7)C=C6)cc4)cccc3[C@H]3[C@H]4CC[C@H](C4)[C@H]32)cc1
REMARK SMILES IDX 18 1 17 2 16 3 15 4 13 5 14 6 12 8 9 9 10 10 89 11 11 12
REMARK SMILES IDX 83 14 87 15 82 16 84 17 86 18 88 19 79 20 81 21 85 22 80 23
REMARK SMILES IDX 8 24 5 25 6 26 91 27 7 28 90 29 3 30 4 31 2 32 1 33 19 34
REMARK SMILES IDX 20 35 21 36 22 37 23 38 24 40 25 41 26 42 78 43 27 44 77 45
REMARK SMILES IDX 28 46 29 47 30 48 71 49 31 50 76 51 70 52 72 53 32 54 75 55
REMARK SMILES IDX 69 56 68 57 33 59 59 60 42 61 58 62 43 63 46 64 57 65 73 66
REMARK SMILES IDX 44 67 45 68 56 70 74 71 47 72 34 73 35 74 40 75 36 76 37 77
REMARK SMILES IDX 39 78 41 79 38 80 60 81 61 82 66 83 62 84 63 85 65 86 67 87
REMARK SMILES IDX 64 88 48 89 49 90 54 91 50 92 51 93 53 94 55 95 52 96
REMARK H PARENT 15 7 10 13 22 39 72 58 46 69
REMARK Flexibility Score: inf
ROOT
ATOM      1  C   UNL A   1      36.885  21.803  24.347  1.00  0.00     0.002 C 
ENDROOT
BRANCH   1   2
ATOM      2  C   UNL A   1      35.643  22.686  24.438  1.00  0.00     0.021 C 
BRANCH   2   3
ATOM      3  C   UNL A   1      34.950  22.993  23.117  1.00  0.00     0.116 C 
BRANCH   3   4
ATOM      4  N   UNL A   1      33.518  22.732  23.100  1.00  0.00    -0.352 N 
ATOM      5  C   UNL A   1      32.471  23.641  23.094  1.00  0.00     0.253 C 
ATOM      6  O   UNL A   1      31.310  23.238  23.105  1.00  0.00    -0.269 OA
ATOM      7  H   UNL A   1      33.258  21.783  23.093  1.00  0.00     0.163 HD
BRANCH   5   8
ATOM      8  C   UNL A   1      32.778  25.096  23.160  1.00  0.00     0.063 A 
ATOM      9  C   UNL A   1      31.362  26.655  26.030  1.00  0.00     0.113 C 
ATOM     10  N   UNL A   1      31.998  25.436  25.463  1.00  0.00    -0.377 N 
ATOM     11  C   UNL A   1      32.575  27.343  26.787  1.00  0.00     0.027 C 
ATOM     12  C   UNL A   1      32.880  25.746  24.394  1.00  0.00     0.051 A 
ATOM     13  H   UNL A   1      31.829  24.524  25.790  1.00  0.00     0.161 HD
ATOM     14  C   UNL A   1      33.862  27.431  25.910  1.00  0.00     0.030 C 
ATOM     15  C   UNL A   1      32.646  28.654  27.641  1.00  0.00    -0.005 C 
ATOM     16  C   UNL A   1      33.625  26.953  24.501  1.00  0.00    -0.020 A 
ATOM     17  C   UNL A   1      34.492  28.782  26.339  1.00  0.00    -0.003 C 
ATOM     18  C   UNL A   1      32.502  30.015  26.944  1.00  0.00     0.004 C 
ATOM     19  C   UNL A   1      34.186  28.731  27.850  1.00  0.00     0.008 C 
ATOM     20  C   UNL A   1      33.033  25.835  22.005  1.00  0.00     0.016 A 
ATOM     21  C   UNL A   1      34.033  27.600  23.340  1.00  0.00     0.006 A 
ATOM     22  C   UNL A   1      33.687  30.034  25.950  1.00  0.00     0.004 C 
ATOM     23  C   UNL A   1      33.652  27.084  22.096  1.00  0.00     0.001 A 
BRANCH   9  24
ATOM     24  C   UNL A   1      30.577  27.353  24.891  1.00  0.00    -0.025 A 
ATOM     25  C   UNL A   1      28.749  28.662  23.116  1.00  0.00     0.060 A 
ATOM     26  C   UNL A   1      29.909  29.315  23.556  1.00  0.00     0.016 A 
ATOM     27  C   UNL A   1      28.548  27.352  23.506  1.00  0.00     0.016 A 
ATOM     28  C   UNL A   1      30.821  28.661  24.429  1.00  0.00     0.007 A 
ATOM     29  C   UNL A   1      29.436  26.760  24.385  1.00  0.00     0.007 A 
BRANCH  25  30
ATOM     30  C   UNL A   1      27.698  29.308  22.284  1.00  0.00     0.337 C 
ATOM     31  O   UNL A   1      26.506  29.329  22.539  1.00  0.00    -0.246 OA
BRANCH  30  32
ATOM     32  O   UNL A   1      28.309  29.874  21.207  1.00  0.00    -0.465 OA
ATOM     33  C   UNL A   1      28.033  31.246  20.932  1.00  0.00     0.282 C 
ENDBRANCH  30  32
ENDBRANCH  25  30
ENDBRANCH   9  24
ENDBRANCH   5   8
ENDBRANCH   3   4
ENDBRANCH   2   3
ENDBRANCH   1   2
BRANCH   1  34
ATOM     34  C   UNL A   1      36.774  20.427  25.010  1.00  0.00     0.002 C 
BRANCH  34  35
ATOM     35  C   UNL A   1      38.034  19.558  24.971  1.00  0.00     0.021 C 
BRANCH  35  36
ATOM     36  C   UNL A   1      39.185  20.035  25.850  1.00  0.00     0.116 C 
BRANCH  36  37
ATOM     37  N   UNL A   1      40.262  19.062  25.934  1.00  0.00    -0.352 N 
ATOM     38  C   UNL A   1      41.609  19.257  26.111  1.00  0.00     0.251 C 
ATOM     39  H   UNL A   1      39.983  18.120  25.852  1.00  0.00     0.163 HD
ATOM     40  O   UNL A   1      42.388  18.317  25.983  1.00  0.00    -0.269 OA
BRANCH  38  41
ATOM     41  C   UNL A   1      42.131  20.603  26.432  1.00  0.00     0.039 A 
ATOM     42  C   UNL A   1      42.466  21.464  25.384  1.00  0.00     0.014 A 
ATOM     43  C   UNL A   1      42.303  21.014  27.757  1.00  0.00     0.014 A 
ATOM     44  C   UNL A   1      42.912  22.757  25.663  1.00  0.00     0.010 A 
ATOM     45  C   UNL A   1      42.675  22.328  28.033  1.00  0.00     0.010 A 
ATOM     46  C   UNL A   1      42.985  23.215  26.990  1.00  0.00    -0.014 A 
BRANCH  46  47
ATOM     47  C   UNL A   1      43.374  24.614  27.301  1.00  0.00     0.031 A 
ATOM     48  C   UNL A   1      44.817  25.037  27.232  1.00  0.00     0.074 A 
ATOM     49  C   UNL A   1      42.434  25.493  27.704  1.00  0.00     0.049 A 
ATOM     50  N   UNL A   1      45.354  26.195  27.522  1.00  0.00    -0.248 NA
ATOM     51  C   UNL A   1      45.788  24.017  26.805  1.00  0.00     0.031 C 
ATOM     52  C   UNL A   1      41.008  25.197  27.854  1.00  0.00     0.029 A 
ATOM     53  N   UNL A   1      42.538  26.811  28.072  1.00  0.00    -0.354 N 
ATOM     54  C   UNL A   1      46.721  26.038  27.328  1.00  0.00     0.074 A 
ATOM     55  C   UNL A   1      46.937  24.661  26.945  1.00  0.00     0.031 C 
ATOM     56  C   UNL A   1      40.367  26.306  28.256  1.00  0.00     0.029 A 
ATOM     57  C   UNL A   1      41.341  27.379  28.438  1.00  0.00     0.049 A 
ATOM     58  H   UNL A   1      43.391  27.304  28.074  1.00  0.00     0.167 HD
ATOM     59  C   UNL A   1      47.704  26.963  27.443  1.00  0.00     0.037 A 
ATOM     60  C   UNL A   1      41.060  28.619  28.879  1.00  0.00     0.037 A 
ATOM     61  C   UNL A   1      47.481  28.340  27.802  1.00  0.00     0.049 A 
ATOM     62  C   UNL A   1      42.174  29.621  29.014  1.00  0.00     0.074 A 
ATOM     63  C   UNL A   1      48.403  29.370  27.873  1.00  0.00     0.029 A 
ATOM     64  N   UNL A   1      46.254  28.878  28.158  1.00  0.00    -0.354 N 
ATOM     65  N   UNL A   1      43.451  29.480  28.750  1.00  0.00    -0.248 NA
ATOM     66  C   UNL A   1      41.809  30.957  29.506  1.00  0.00     0.031 C 
ATOM     67  C   UNL A   1      47.746  30.515  28.332  1.00  0.00     0.029 A 
ATOM     68  C   UNL A   1      46.402  30.216  28.483  1.00  0.00     0.049 A 
ATOM     69  H   UNL A   1      45.404  28.381  28.175  1.00  0.00     0.167 HD
ATOM     70  C   UNL A   1      44.032  30.715  29.008  1.00  0.00     0.074 A 
ATOM     71  C   UNL A   1      42.966  31.597  29.436  1.00  0.00     0.031 C 
ATOM     72  C   UNL A   1      45.331  31.087  28.898  1.00  0.00     0.037 A 
BRANCH  59  73
ATOM     73  C   UNL A   1      49.115  26.519  27.181  1.00  0.00     0.057 A 
ATOM     74  C   UNL A   1      49.642  26.436  25.886  1.00  0.00     0.134 A 
ATOM     75  C   UNL A   1      49.975  26.221  28.247  1.00  0.00     0.134 A 
ATOM     76  F   UNL A   1      48.871  26.699  24.820  1.00  0.00    -0.206 F 
ATOM     77  C   UNL A   1      50.964  26.049  25.658  1.00  0.00     0.040 A 
ATOM     78  C   UNL A   1      51.308  25.862  28.033  1.00  0.00     0.040 A 
ATOM     79  F   UNL A   1      49.541  26.288  29.514  1.00  0.00    -0.206 F 
ATOM     80  C   UNL A   1      51.804  25.770  26.735  1.00  0.00     0.006 A 
ENDBRANCH  59  73
BRANCH  60  81
ATOM     81  C   UNL A   1      39.662  28.997  29.219  1.00  0.00     0.057 A 
ATOM     82  C   UNL A   1      38.798  29.520  28.250  1.00  0.00     0.134 A 
ATOM     83  C   UNL A   1      39.167  28.876  30.524  1.00  0.00     0.134 A 
ATOM     84  F   UNL A   1      39.218  29.678  26.986  1.00  0.00    -0.206 F 
ATOM     85  C   UNL A   1      37.505  29.937  28.570  1.00  0.00     0.040 A 
ATOM     86  C   UNL A   1      37.866  29.261  30.851  1.00  0.00     0.040 A 
ATOM     87  F   UNL A   1      39.941  28.376  31.499  1.00  0.00    -0.206 F 
ATOM     88  C   UNL A   1      37.034  29.804  29.874  1.00  0.00     0.006 A 
ENDBRANCH  60  81
BRANCH  72  89
ATOM     89  C   UNL A   1      45.668  32.519  29.202  1.00  0.00     0.057 A 
ATOM     90  C   UNL A   1      46.095  32.931  30.471  1.00  0.00     0.134 A 
ATOM     91  C   UNL A   1      45.598  33.493  28.196  1.00  0.00     0.134 A 
ATOM     92  F   UNL A   1      46.173  32.052  31.481  1.00  0.00    -0.206 F 
ATOM     93  C   UNL A   1      46.415  34.264  30.735  1.00  0.00     0.040 A 
ATOM     94  C   UNL A   1      45.945  34.822  28.441  1.00  0.00     0.040 A 
ATOM     95  F   UNL A   1      45.205  33.165  26.956  1.00  0.00    -0.206 F 
ATOM     96  C   UNL A   1      46.347  35.212  29.716  1.00  0.00     0.006 A 
ENDBRANCH  72  89
ENDBRANCH  46  47
ENDBRANCH  38  41
ENDBRANCH  36  37
ENDBRANCH  35  36
ENDBRANCH  34  35
ENDBRANCH   1  34
TORSDOF 16
ENDMDL
MODEL 2
REMARK VINA RESULT:     -12.5      4.660      7.339
REMARK SMILES COC(=O)c1ccc([C@H]2Nc3c(C(=O)NCCCCCCNC(=O)c4ccc(-c5c6nc(c(-c7c(F)cccc7F)c7ccc([nH]7)c(-c7c(F)cccc7F)c7nc(c(-c8c(F)cccc8F)c8ccc5[nH]8)C=C7)C=C6)cc4)cccc3[C@H]3[C@H]4CC[C@H](C4)[C@H]32)cc1
REMARK SMILES IDX 18 1 17 2 16 3 15 4 13 5 14 6 12 8 9 9 10 10 89 11 11 12
REMARK SMILES IDX 83 14 87 15 82 16 84 17 86 18 88 19 79 20 81 21 85 22 80 23
REMARK SMILES IDX 8 24 5 25 6 26 91 27 7 28 90 29 3 30 4 31 2 32 1 33 19 34
REMARK SMILES IDX 20 35 21 36 22 37 23 38 24 40 25 41 26 42 78 43 27 44 77 45
REMARK SMILES IDX 28 46 29 47 30 48 71 49 31 50 76 51 70 52 72 53 32 54 75 55
REMARK SMILES IDX 69 56 68 57 33 59 59 60 42 61 58 62 43 63 46 64 57 65 73 66
REMARK SMILES IDX 44 67 45 68 56 70 74 71 47 72 34 73 35 74 40 75 36 76 37 77
REMARK SMILES IDX 39 78 41 79 38 80 60 81 61 82 66 83 62 84 63 85 65 86 67 87
REMARK SMILES IDX 64 88 48 89 49 90 54 91 50 92 51 93 53 94 55 95 52 96
REMARK H PARENT 15 7 10 13 22 39 72 58 46 69
REMARK Flexibility Score: inf
ROOT
ATOM      1  C   UNL A   1      40.230  19.764  26.442  1.00  0.00     0.002 C 
ENDROOT
BRANCH   1   2
ATOM      2  C   UNL A   1      39.199  19.509  25.345  1.00  0.00     0.021 C 
BRANCH   2   3
ATOM      3  C   UNL A   1      38.254  20.665  25.043  1.00  0.00     0.116 C 
BRANCH   3   4
ATOM      4  N   UNL A   1      38.595  21.923  25.692  1.00  0.00    -0.352 N 
ATOM      5  C   UNL A   1      37.895  23.119  25.687  1.00  0.00     0.253 C 
ATOM      6  O   UNL A   1      38.350  24.097  26.275  1.00  0.00    -0.269 OA
ATOM      7  H   UNL A   1      39.437  21.923  26.202  1.00  0.00     0.163 HD
BRANCH   5   8
ATOM      8  C   UNL A   1      36.640  23.217  24.893  1.00  0.00     0.063 A 
ATOM      9  C   UNL A   1      33.746  22.461  26.823  1.00  0.00     0.113 C 
ATOM     10  N   UNL A   1      35.098  23.080  26.799  1.00  0.00    -0.377 N 
ATOM     11  C   UNL A   1      32.798  23.725  26.688  1.00  0.00     0.027 C 
ATOM     12  C   UNL A   1      35.434  23.569  25.509  1.00  0.00     0.051 A 
ATOM     13  H   UNL A   1      35.689  23.144  27.583  1.00  0.00     0.161 HD
ATOM     14  C   UNL A   1      33.231  24.685  25.537  1.00  0.00     0.030 C 
ATOM     15  C   UNL A   1      31.236  23.844  26.671  1.00  0.00    -0.005 C 
ATOM     16  C   UNL A   1      34.380  24.131  24.737  1.00  0.00    -0.020 A 
ATOM     17  C   UNL A   1      31.880  25.207  24.984  1.00  0.00    -0.003 C 
ATOM     18  C   UNL A   1      30.455  23.313  25.460  1.00  0.00     0.004 C 
ATOM     19  C   UNL A   1      31.106  25.352  26.311  1.00  0.00     0.008 C 
ATOM     20  C   UNL A   1      36.640  23.026  23.512  1.00  0.00     0.016 A 
ATOM     21  C   UNL A   1      34.466  24.095  23.349  1.00  0.00     0.006 A 
ATOM     22  C   UNL A   1      31.005  24.152  24.284  1.00  0.00     0.004 C 
ATOM     23  C   UNL A   1      35.556  23.457  22.744  1.00  0.00     0.001 A 
BRANCH   9  24
ATOM     24  C   UNL A   1      33.742  21.293  25.805  1.00  0.00    -0.025 A 
ATOM     25  C   UNL A   1      33.785  18.841  24.326  1.00  0.00     0.060 A 
ATOM     26  C   UNL A   1      32.630  19.634  24.359  1.00  0.00     0.016 A 
ATOM     27  C   UNL A   1      34.918  19.305  24.966  1.00  0.00     0.016 A 
ATOM     28  C   UNL A   1      32.612  20.857  25.086  1.00  0.00     0.007 A 
ATOM     29  C   UNL A   1      34.854  20.479  25.694  1.00  0.00     0.007 A 
BRANCH  25  30
ATOM     30  C   UNL A   1      33.855  17.505  23.673  1.00  0.00     0.337 C 
ATOM     31  O   UNL A   1      33.329  17.206  22.614  1.00  0.00    -0.246 OA
BRANCH  30  32
ATOM     32  O   UNL A   1      34.613  16.694  24.461  1.00  0.00    -0.465 OA
ATOM     33  C   UNL A   1      33.938  15.734  25.271  1.00  0.00     0.282 C 
ENDBRANCH  30  32
ENDBRANCH  25  30
ENDBRANCH   9  24
ENDBRANCH   5   8
ENDBRANCH   3   4
ENDBRANCH   2   3
ENDBRANCH   1   2
BRANCH   1  34
ATOM     34  C   UNL A   1      41.696  19.616  26.025  1.00  0.00     0.002 C 
BRANCH  34  35
ATOM     35  C   UNL A   1      42.609  20.804  26.342  1.00  0.00     0.021 C 
BRANCH  35  36
ATOM     36  C   UNL A   1      42.229  22.118  25.668  1.00  0.00     0.116 C 
BRANCH  36  37
ATOM     37  N   UNL A   1      43.356  22.746  24.997  1.00  0.00    -0.352 N 
ATOM     38  C   UNL A   1      43.833  24.030  25.097  1.00  0.00     0.251 C 
ATOM     39  H   UNL A   1      43.853  22.162  24.379  1.00  0.00     0.163 HD
ATOM     40  O   UNL A   1      44.695  24.427  24.319  1.00  0.00    -0.269 OA
BRANCH  38  41
ATOM     41  C   UNL A   1      43.294  24.947  26.125  1.00  0.00     0.039 A 
ATOM     42  C   UNL A   1      42.304  24.480  26.993  1.00  0.00     0.014 A 
ATOM     43  C   UNL A   1      43.751  26.264  26.229  1.00  0.00     0.014 A 
ATOM     44  C   UNL A   1      41.817  25.311  28.004  1.00  0.00     0.010 A 
ATOM     45  C   UNL A   1      43.321  27.066  27.284  1.00  0.00     0.010 A 
ATOM     46  C   UNL A   1      42.349  26.600  28.183  1.00  0.00    -0.014 A 
BRANCH  46  47
ATOM     47  C   UNL A   1      41.906  27.465  29.306  1.00  0.00     0.031 A 
ATOM     48  C   UNL A   1      42.598  27.397  30.640  1.00  0.00     0.074 A 
ATOM     49  C   UNL A   1      40.838  28.273  29.143  1.00  0.00     0.049 A 
ATOM     50  N   UNL A   1      42.319  28.030  31.751  1.00  0.00    -0.248 NA
ATOM     51  C   UNL A   1      43.742  26.477  30.747  1.00  0.00     0.031 C 
ATOM     52  C   UNL A   1      40.052  28.400  27.914  1.00  0.00     0.029 A 
ATOM     53  N   UNL A   1      40.222  29.132  30.019  1.00  0.00    -0.354 N 
ATOM     54  C   UNL A   1      43.237  27.574  32.689  1.00  0.00     0.074 A 
ATOM     55  C   UNL A   1      44.050  26.575  32.032  1.00  0.00     0.031 C 
ATOM     56  C   UNL A   1      39.078  29.303  28.105  1.00  0.00     0.029 A 
ATOM     57  C   UNL A   1      39.138  29.785  29.482  1.00  0.00     0.049 A 
ATOM     58  H   UNL A   1      40.528  29.269  30.945  1.00  0.00     0.167 HD
ATOM     59  C   UNL A   1      43.399  27.967  33.975  1.00  0.00     0.037 A 
ATOM     60  C   UNL A   1      38.283  30.664  30.038  1.00  0.00     0.037 A 
ATOM     61  C   UNL A   1      42.602  28.980  34.619  1.00  0.00     0.049 A 
ATOM     62  C   UNL A   1      38.475  31.068  31.474  1.00  0.00     0.074 A 
ATOM     63  C   UNL A   1      42.736  29.497  35.895  1.00  0.00     0.029 A 
ATOM     64  N   UNL A   1      41.518  29.621  34.040  1.00  0.00    -0.354 N 
ATOM     65  N   UNL A   1      39.398  30.688  32.325  1.00  0.00    -0.248 NA
ATOM     66  C   UNL A   1      37.508  32.026  32.029  1.00  0.00     0.031 C 
ATOM     67  C   UNL A   1      41.696  30.406  36.111  1.00  0.00     0.029 A 
ATOM     68  C   UNL A   1      40.954  30.504  34.945  1.00  0.00     0.049 A 
ATOM     69  H   UNL A   1      41.199  29.472  33.120  1.00  0.00     0.167 HD
ATOM     70  C   UNL A   1      39.146  31.386  33.499  1.00  0.00     0.074 A 
ATOM     71  C   UNL A   1      37.991  32.223  33.246  1.00  0.00     0.031 C 
ATOM     72  C   UNL A   1      39.810  31.340  34.679  1.00  0.00     0.037 A 
BRANCH  59  73
ATOM     73  C   UNL A   1      44.476  27.297  34.780  1.00  0.00     0.057 A 
ATOM     74  C   UNL A   1      44.240  26.127  35.513  1.00  0.00     0.134 A 
ATOM     75  C   UNL A   1      45.783  27.803  34.778  1.00  0.00     0.134 A 
ATOM     76  F   UNL A   1      43.010  25.593  35.565  1.00  0.00    -0.206 F 
ATOM     77  C   UNL A   1      45.257  25.498  36.234  1.00  0.00     0.040 A 
ATOM     78  C   UNL A   1      46.815  27.167  35.471  1.00  0.00     0.040 A 
ATOM     79  F   UNL A   1      46.084  28.916  34.091  1.00  0.00    -0.206 F 
ATOM     80  C   UNL A   1      46.552  26.013  36.206  1.00  0.00     0.006 A 
ENDBRANCH  59  73
BRANCH  60  81
ATOM     81  C   UNL A   1      37.168  31.236  29.237  1.00  0.00     0.057 A 
ATOM     82  C   UNL A   1      37.230  32.544  28.742  1.00  0.00     0.134 A 
ATOM     83  C   UNL A   1      36.003  30.505  28.976  1.00  0.00     0.134 A 
ATOM     84  F   UNL A   1      38.312  33.303  28.974  1.00  0.00    -0.206 F 
ATOM     85  C   UNL A   1      36.165  33.114  28.043  1.00  0.00     0.040 A 
ATOM     86  C   UNL A   1      34.942  31.053  28.253  1.00  0.00     0.040 A 
ATOM     87  F   UNL A   1      35.880  29.244  29.416  1.00  0.00    -0.206 F 
ATOM     88  C   UNL A   1      35.017  32.367  27.794  1.00  0.00     0.006 A 
ENDBRANCH  60  81
BRANCH  72  89
ATOM     89  C   UNL A   1      39.336  32.252  35.775  1.00  0.00     0.057 A 
ATOM     90  C   UNL A   1      39.806  33.564  35.908  1.00  0.00     0.134 A 
ATOM     91  C   UNL A   1      38.364  31.818  36.688  1.00  0.00     0.134 A 
ATOM     92  F   UNL A   1      40.744  34.038  35.075  1.00  0.00    -0.206 F 
ATOM     93  C   UNL A   1      39.347  34.403  36.925  1.00  0.00     0.040 A 
ATOM     94  C   UNL A   1      37.875  32.658  37.689  1.00  0.00     0.040 A 
ATOM     95  F   UNL A   1      37.864  30.575  36.612  1.00  0.00    -0.206 F 
ATOM     96  C   UNL A   1      38.374  33.953  37.815  1.00  0.00     0.006 A 
ENDBRANCH  72  89
ENDBRANCH  46  47
ENDBRANCH  38  41
ENDBRANCH  36  37
ENDBRANCH  35  36
ENDBRANCH  34  35
ENDBRANCH   1  34
TORSDOF 16
ENDMDL
MODEL 3
REMARK VINA RESULT:     -12.1      4.661      8.829
REMARK SMILES COC(=O)c1ccc([C@H]2Nc3c(C(=O)NCCCCCCNC(=O)c4ccc(-c5c6nc(c(-c7c(F)cccc7F)c7ccc([nH]7)c(-c7c(F)cccc7F)c7nc(c(-c8c(F)cccc8F)c8ccc5[nH]8)C=C7)C=C6)cc4)cccc3[C@H]3[C@H]4CC[C@H](C4)[C@H]32)cc1
REMARK SMILES IDX 18 1 17 2 16 3 15 4 13 5 14 6 12 8 9 9 10 10 89 11 11 12
REMARK SMILES IDX 83 14 87 15 82 16 84 17 86 18 88 19 79 20 81 21 85 22 80 23
REMARK SMILES IDX 8 24 5 25 6 26 91 27 7 28 90 29 3 30 4 31 2 32 1 33 19 34
REMARK SMILES IDX 20 35 21 36 22 37 23 38 24 40 25 41 26 42 78 43 27 44 77 45
REMARK SMILES IDX 28 46 29 47 30 48 71 49 31 50 76 51 70 52 72 53 32 54 75 55
REMARK SMILES IDX 69 56 68 57 33 59 59 60 42 61 58 62 43 63 46 64 57 65 73 66
REMARK SMILES IDX 44 67 45 68 56 70 74 71 47 72 34 73 35 74 40 75 36 76 37 77
REMARK SMILES IDX 39 78 41 79 38 80 60 81 61 82 66 83 62 84 63 85 65 86 67 87
REMARK SMILES IDX 64 88 48 89 49 90 54 91 50 92 51 93 53 94 55 95 52 96
REMARK H PARENT 15 7 10 13 22 39 72 58 46 69
REMARK Flexibility Score: inf
ROOT
ATOM      1  C   UNL A   1      40.297  19.861  26.463  1.00  0.00     0.002 C 
ENDROOT
BRANCH   1   2
ATOM      2  C   UNL A   1      39.252  19.615  25.377  1.00  0.00     0.021 C 
BRANCH   2   3
ATOM      3  C   UNL A   1      38.210  20.711  25.201  1.00  0.00     0.116 C 
BRANCH   3   4
ATOM      4  N   UNL A   1      38.515  21.964  25.878  1.00  0.00    -0.352 N 
ATOM      5  C   UNL A   1      37.813  23.158  25.850  1.00  0.00     0.253 C 
ATOM      6  O   UNL A   1      38.236  24.132  26.469  1.00  0.00    -0.269 OA
ATOM      7  H   UNL A   1      39.331  21.962  26.428  1.00  0.00     0.163 HD
BRANCH   5   8
ATOM      8  C   UNL A   1      36.598  23.261  24.996  1.00  0.00     0.063 A 
ATOM      9  C   UNL A   1      33.604  22.603  26.807  1.00  0.00     0.113 C 
ATOM     10  N   UNL A   1      34.968  23.197  26.832  1.00  0.00    -0.377 N 
ATOM     11  C   UNL A   1      32.687  23.881  26.601  1.00  0.00     0.027 C 
ATOM     12  C   UNL A   1      35.372  23.649  25.548  1.00  0.00     0.051 A 
ATOM     13  H   UNL A   1      35.523  23.268  27.641  1.00  0.00     0.161 HD
ATOM     14  C   UNL A   1      33.191  24.806  25.450  1.00  0.00     0.030 C 
ATOM     15  C   UNL A   1      31.131  24.028  26.508  1.00  0.00    -0.005 C 
ATOM     16  C   UNL A   1      34.366  24.213  24.716  1.00  0.00    -0.020 A 
ATOM     17  C   UNL A   1      31.877  25.340  24.824  1.00  0.00    -0.003 C 
ATOM     18  C   UNL A   1      30.396  23.484  25.274  1.00  0.00     0.004 C 
ATOM     19  C   UNL A   1      31.046  25.530  26.109  1.00  0.00     0.008 C 
ATOM     20  C   UNL A   1      36.658  23.039  23.621  1.00  0.00     0.016 A 
ATOM     21  C   UNL A   1      34.514  24.143  23.335  1.00  0.00     0.006 A 
ATOM     22  C   UNL A   1      31.016  24.286  24.107  1.00  0.00     0.004 C 
ATOM     23  C   UNL A   1      35.618  23.471  22.795  1.00  0.00     0.001 A 
BRANCH   9  24
ATOM     24  C   UNL A   1      33.624  21.412  25.816  1.00  0.00    -0.025 A 
ATOM     25  C   UNL A   1      33.702  18.927  24.394  1.00  0.00     0.060 A 
ATOM     26  C   UNL A   1      32.547  19.721  24.382  1.00  0.00     0.016 A 
ATOM     27  C   UNL A   1      34.818  19.406  25.052  1.00  0.00     0.016 A 
ATOM     28  C   UNL A   1      32.512  20.960  25.080  1.00  0.00     0.007 A 
ATOM     29  C   UNL A   1      34.738  20.596  25.751  1.00  0.00     0.007 A 
BRANCH  25  30
ATOM     30  C   UNL A   1      33.786  17.577  23.774  1.00  0.00     0.337 C 
ATOM     31  O   UNL A   1      33.460  17.300  22.632  1.00  0.00    -0.246 OA
BRANCH  30  32
ATOM     32  O   UNL A   1      34.299  16.723  24.702  1.00  0.00    -0.465 OA
ATOM     33  C   UNL A   1      33.471  15.651  25.148  1.00  0.00     0.282 C 
ENDBRANCH  30  32
ENDBRANCH  25  30
ENDBRANCH   9  24
ENDBRANCH   5   8
ENDBRANCH   3   4
ENDBRANCH   2   3
ENDBRANCH   1   2
BRANCH   1  34
ATOM     34  C   UNL A   1      41.757  19.777  26.012  1.00  0.00     0.002 C 
BRANCH  34  35
ATOM     35  C   UNL A   1      42.652  20.956  26.408  1.00  0.00     0.021 C 
BRANCH  35  36
ATOM     36  C   UNL A   1      42.251  22.306  25.823  1.00  0.00     0.116 C 
BRANCH  36  37
ATOM     37  N   UNL A   1      43.366  22.991  25.189  1.00  0.00    -0.352 N 
ATOM     38  C   UNL A   1      43.806  24.282  25.344  1.00  0.00     0.251 C 
ATOM     39  H   UNL A   1      43.884  22.446  24.552  1.00  0.00     0.163 HD
ATOM     40  O   UNL A   1      44.663  24.734  24.591  1.00  0.00    -0.269 OA
BRANCH  38  41
ATOM     41  C   UNL A   1      43.233  25.142  26.403  1.00  0.00     0.039 A 
ATOM     42  C   UNL A   1      42.327  24.584  27.308  1.00  0.00     0.014 A 
ATOM     43  C   UNL A   1      43.575  26.494  26.499  1.00  0.00     0.014 A 
ATOM     44  C   UNL A   1      41.813  25.363  28.347  1.00  0.00     0.010 A 
ATOM     45  C   UNL A   1      43.123  27.249  27.579  1.00  0.00     0.010 A 
ATOM     46  C   UNL A   1      42.236  26.693  28.515  1.00  0.00    -0.014 A 
BRANCH  46  47
ATOM     47  C   UNL A   1      41.767  27.509  29.664  1.00  0.00     0.031 A 
ATOM     48  C   UNL A   1      40.565  28.404  29.523  1.00  0.00     0.074 A 
ATOM     49  C   UNL A   1      42.460  27.491  30.820  1.00  0.00     0.049 A 
ATOM     50  N   UNL A   1      40.042  29.230  30.393  1.00  0.00    -0.248 NA
ATOM     51  C   UNL A   1      39.873  28.386  28.224  1.00  0.00     0.031 C 
ATOM     52  C   UNL A   1      43.666  26.701  31.072  1.00  0.00     0.029 A 
ATOM     53  N   UNL A   1      42.255  28.165  31.999  1.00  0.00    -0.354 N 
ATOM     54  C   UNL A   1      38.976  29.840  29.743  1.00  0.00     0.074 A 
ATOM     55  C   UNL A   1      38.956  29.327  28.392  1.00  0.00     0.031 C 
ATOM     56  C   UNL A   1      44.078  26.913  32.332  1.00  0.00     0.029 A 
ATOM     57  C   UNL A   1      43.196  27.890  32.963  1.00  0.00     0.049 A 
ATOM     58  H   UNL A   1      41.505  28.787  32.140  1.00  0.00     0.167 HD
ATOM     59  C   UNL A   1      38.084  30.733  30.236  1.00  0.00     0.037 A 
ATOM     60  C   UNL A   1      43.337  28.376  34.210  1.00  0.00     0.037 A 
ATOM     61  C   UNL A   1      38.093  31.224  31.590  1.00  0.00     0.049 A 
ATOM     62  C   UNL A   1      42.342  29.381  34.724  1.00  0.00     0.074 A 
ATOM     63  C   UNL A   1      37.189  32.074  32.202  1.00  0.00     0.029 A 
ATOM     64  N   UNL A   1      39.057  30.916  32.537  1.00  0.00    -0.354 N 
ATOM     65  N   UNL A   1      41.291  29.887  34.125  1.00  0.00    -0.248 NA
ATOM     66  C   UNL A   1      42.551  29.881  36.091  1.00  0.00     0.031 C 
ATOM     67  C   UNL A   1      37.640  32.331  33.500  1.00  0.00     0.029 A 
ATOM     68  C   UNL A   1      38.789  31.588  33.718  1.00  0.00     0.049 A 
ATOM     69  H   UNL A   1      39.819  30.310  32.391  1.00  0.00     0.167 HD
ATOM     70  C   UNL A   1      40.695  30.734  35.051  1.00  0.00     0.074 A 
ATOM     71  C   UNL A   1      41.494  30.662  36.257  1.00  0.00     0.031 C 
ATOM     72  C   UNL A   1      39.586  31.501  34.916  1.00  0.00     0.037 A 
BRANCH  59  73
ATOM     73  C   UNL A   1      37.021  31.244  29.305  1.00  0.00     0.057 A 
ATOM     74  C   UNL A   1      35.911  30.470  28.945  1.00  0.00     0.134 A 
ATOM     75  C   UNL A   1      37.085  32.551  28.803  1.00  0.00     0.134 A 
ATOM     76  F   UNL A   1      35.791  29.208  29.383  1.00  0.00    -0.206 F 
ATOM     77  C   UNL A   1      34.915  30.967  28.102  1.00  0.00     0.040 A 
ATOM     78  C   UNL A   1      36.080  33.070  27.983  1.00  0.00     0.040 A 
ATOM     79  F   UNL A   1      38.115  33.352  29.113  1.00  0.00    -0.206 F 
ATOM     80  C   UNL A   1      34.994  32.275  27.626  1.00  0.00     0.006 A 
ENDBRANCH  59  73
BRANCH  60  81
ATOM     81  C   UNL A   1      44.458  27.917  35.072  1.00  0.00     0.057 A 
ATOM     82  C   UNL A   1      45.678  28.603  35.100  1.00  0.00     0.134 A 
ATOM     83  C   UNL A   1      44.350  26.766  35.863  1.00  0.00     0.134 A 
ATOM     84  F   UNL A   1      45.851  29.702  34.351  1.00  0.00    -0.206 F 
ATOM     85  C   UNL A   1      46.758  28.146  35.856  1.00  0.00     0.040 A 
ATOM     86  C   UNL A   1      45.413  26.315  36.647  1.00  0.00     0.040 A 
ATOM     87  F   UNL A   1      43.207  26.065  35.888  1.00  0.00    -0.206 F 
ATOM     88  C   UNL A   1      46.627  27.001  36.636  1.00  0.00     0.006 A 
ENDBRANCH  60  81
BRANCH  72  89
ATOM     89  C   UNL A   1      39.141  32.289  36.115  1.00  0.00     0.057 A 
ATOM     90  C   UNL A   1      38.269  31.760  37.074  1.00  0.00     0.134 A 
ATOM     91  C   UNL A   1      39.626  33.587  36.329  1.00  0.00     0.134 A 
ATOM     92  F   UNL A   1      37.759  30.528  36.923  1.00  0.00    -0.206 F 
ATOM     93  C   UNL A   1      37.873  32.501  38.189  1.00  0.00     0.040 A 
ATOM     94  C   UNL A   1      39.262  34.326  37.456  1.00  0.00     0.040 A 
ATOM     95  F   UNL A   1      40.472  34.152  35.455  1.00  0.00    -0.206 F 
ATOM     96  C   UNL A   1      38.376  33.785  38.386  1.00  0.00     0.006 A 
ENDBRANCH  72  89
ENDBRANCH  46  47
ENDBRANCH  38  41
ENDBRANCH  36  37
ENDBRANCH  35  36
ENDBRANCH  34  35
ENDBRANCH   1  34
TORSDOF 16
ENDMDL
