MODEL 1
REMARK VINA RESULT:     -10.4      0.000      0.000
REMARK SMILES O=C(C[C@@H]1CN(C(=O)N2CCC[C@H]2CO)CCO1)NCCCCCCNC(=O)c1ccc(-c2c3nc(c(-c4c(F)cccc4F)c4ccc([nH]4)c(-c4c(F)cccc4F)c4nc(c(-c5c(F)cccc5F)c5ccc2[nH]5)C=C4)C=C3)cc1
REMARK SMILES IDX 21 1 20 2 19 3 1 4 2 5 3 7 4 8 5 9 18 10 6 11 17 12 16 13
REMARK SMILES IDX 7 14 8 15 9 16 10 17 13 18 11 19 12 20 14 21 15 22 22 24
REMARK SMILES IDX 23 25 24 26 25 27 26 28 27 29 28 31 29 32 30 33 82 34 31 35
REMARK SMILES IDX 81 36 32 37 33 38 34 39 75 40 35 41 80 42 74 43 76 44 36 45
REMARK SMILES IDX 79 46 73 47 72 48 37 50 63 51 46 52 62 53 47 54 50 55 61 56
REMARK SMILES IDX 77 57 48 58 49 59 60 61 78 62 51 63 38 64 39 65 44 66 40 67
REMARK SMILES IDX 41 68 43 69 45 70 42 71 64 72 65 73 70 74 66 75 67 76 69 77
REMARK SMILES IDX 71 78 68 79 52 80 53 81 58 82 54 83 55 84 57 85 59 86 56 87
REMARK H PARENT 19 6 15 23 26 30 76 49 50 60
REMARK Flexibility Score: inf
ROOT
ATOM      1  C   UNL A   1      34.770  31.681  28.768  1.00  0.00     0.021 C 
ENDROOT
BRANCH   1   2
ATOM      2  C   UNL A   1      33.936  31.489  27.500  1.00  0.00     0.116 C 
BRANCH   2   3
ATOM      3  N   UNL A   1      33.174  30.267  27.560  1.00  0.00    -0.356 N 
ATOM      4  O   UNL A   1      34.862  28.774  27.104  1.00  0.00    -0.275 OA
ATOM      5  C   UNL A   1      33.676  29.018  27.305  1.00  0.00     0.222 C 
ATOM      6  H   UNL A   1      32.222  30.335  27.804  1.00  0.00     0.163 HD
BRANCH   5   7
ATOM      7  C   UNL A   1      32.597  27.973  27.135  1.00  0.00     0.133 C 
BRANCH   7   8
ATOM      8  C   UNL A   1      32.047  27.807  25.717  1.00  0.00     0.147 C 
ATOM      9  C   UNL A   1      33.146  27.207  24.827  1.00  0.00     0.154 C 
ATOM     10  O   UNL A   1      31.651  29.067  25.130  1.00  0.00    -0.374 OA
ATOM     11  N   UNL A   1      32.651  26.988  23.468  1.00  0.00    -0.320 N 
ATOM     12  C   UNL A   1      31.062  28.846  23.832  1.00  0.00     0.182 C 
ATOM     13  C   UNL A   1      32.059  28.187  22.873  1.00  0.00     0.150 C 
BRANCH  11  14
ATOM     14  C   UNL A   1      33.225  26.059  22.626  1.00  0.00     0.320 C 
ATOM     15  O   UNL A   1      33.625  26.377  21.505  1.00  0.00    -0.248 OA
BRANCH  14  16
ATOM     16  N   UNL A   1      33.382  24.784  23.102  1.00  0.00    -0.319 N 
ATOM     17  C   UNL A   1      34.538  24.176  23.732  1.00  0.00     0.122 C 
ATOM     18  C   UNL A   1      32.278  23.823  23.055  1.00  0.00     0.112 C 
ATOM     19  C   UNL A   1      34.477  22.763  23.189  1.00  0.00     0.024 C 
ATOM     20  C   UNL A   1      32.977  22.455  23.216  1.00  0.00     0.029 C 
BRANCH  18  21
ATOM     21  C   UNL A   1      31.160  24.139  24.078  1.00  0.00     0.181 C 
BRANCH  21  22
ATOM     22  O   UNL A   1      29.992  24.721  23.503  1.00  0.00    -0.394 OA
ATOM     23  H   UNL A   1      29.226  24.153  23.684  1.00  0.00     0.210 HD
ENDBRANCH  21  22
ENDBRANCH  18  21
ENDBRANCH  14  16
ENDBRANCH  11  14
ENDBRANCH   7   8
ENDBRANCH   5   7
ENDBRANCH   2   3
ENDBRANCH   1   2
BRANCH   1  24
ATOM     24  C   UNL A   1      34.516  32.995  29.523  1.00  0.00     0.002 C 
BRANCH  24  25
ATOM     25  C   UNL A   1      34.529  34.268  28.673  1.00  0.00     0.002 C 
BRANCH  25  26
ATOM     26  C   UNL A   1      33.290  35.155  28.793  1.00  0.00     0.021 C 
BRANCH  26  27
ATOM     27  C   UNL A   1      33.389  36.290  29.809  1.00  0.00     0.116 C 
BRANCH  27  28
ATOM     28  N   UNL A   1      32.399  36.191  30.869  1.00  0.00    -0.352 N 
ATOM     29  C   UNL A   1      32.472  35.554  32.082  1.00  0.00     0.251 C 
ATOM     30  H   UNL A   1      31.547  36.649  30.689  1.00  0.00     0.163 HD
ATOM     31  O   UNL A   1      31.468  35.477  32.792  1.00  0.00    -0.269 OA
BRANCH  29  32
ATOM     32  C   UNL A   1      33.735  34.929  32.536  1.00  0.00     0.039 A 
ATOM     33  C   UNL A   1      33.691  33.624  33.038  1.00  0.00     0.014 A 
ATOM     34  C   UNL A   1      34.953  35.616  32.491  1.00  0.00     0.014 A 
ATOM     35  C   UNL A   1      34.871  32.986  33.427  1.00  0.00     0.010 A 
ATOM     36  C   UNL A   1      36.137  34.956  32.817  1.00  0.00     0.010 A 
ATOM     37  C   UNL A   1      36.111  33.634  33.285  1.00  0.00    -0.014 A 
BRANCH  37  38
ATOM     38  C   UNL A   1      37.378  32.920  33.588  1.00  0.00     0.031 A 
ATOM     39  C   UNL A   1      38.152  33.219  34.842  1.00  0.00     0.074 A 
ATOM     40  C   UNL A   1      37.860  32.028  32.702  1.00  0.00     0.049 A 
ATOM     41  N   UNL A   1      39.271  32.689  35.267  1.00  0.00    -0.248 NA
ATOM     42  C   UNL A   1      37.612  34.266  35.721  1.00  0.00     0.031 C 
ATOM     43  C   UNL A   1      37.237  31.689  31.420  1.00  0.00     0.029 A 
ATOM     44  N   UNL A   1      38.985  31.242  32.742  1.00  0.00    -0.354 N 
ATOM     45  C   UNL A   1      39.576  33.344  36.453  1.00  0.00     0.074 A 
ATOM     46  C   UNL A   1      38.548  34.343  36.656  1.00  0.00     0.031 C 
ATOM     47  C   UNL A   1      37.968  30.739  30.815  1.00  0.00     0.029 A 
ATOM     48  C   UNL A   1      39.123  30.424  31.649  1.00  0.00     0.049 A 
ATOM     49  H   UNL A   1      39.630  31.263  33.485  1.00  0.00     0.167 HD
ATOM     50  C   UNL A   1      40.605  33.120  37.305  1.00  0.00     0.037 A 
ATOM     51  C   UNL A   1      40.072  29.515  31.352  1.00  0.00     0.037 A 
ATOM     52  C   UNL A   1      41.615  32.111  37.116  1.00  0.00     0.049 A 
ATOM     53  C   UNL A   1      41.198  29.280  32.316  1.00  0.00     0.074 A 
ATOM     54  C   UNL A   1      42.648  31.753  37.965  1.00  0.00     0.029 A 
ATOM     55  N   UNL A   1      41.724  31.303  35.994  1.00  0.00    -0.354 N 
ATOM     56  N   UNL A   1      41.425  29.847  33.477  1.00  0.00    -0.248 NA
ATOM     57  C   UNL A   1      42.199  28.276  31.931  1.00  0.00     0.031 C 
ATOM     58  C   UNL A   1      43.408  30.760  37.338  1.00  0.00     0.029 A 
ATOM     59  C   UNL A   1      42.824  30.468  36.116  1.00  0.00     0.049 A 
ATOM     60  H   UNL A   1      41.110  31.320  35.224  1.00  0.00     0.167 HD
ATOM     61  C   UNL A   1      42.579  29.254  33.970  1.00  0.00     0.074 A 
ATOM     62  C   UNL A   1      42.996  28.271  32.990  1.00  0.00     0.031 C 
ATOM     63  C   UNL A   1      43.235  29.502  35.130  1.00  0.00     0.037 A 
BRANCH  50  64
ATOM     64  C   UNL A   1      40.689  33.991  38.526  1.00  0.00     0.057 A 
ATOM     65  C   UNL A   1      40.019  33.667  39.714  1.00  0.00     0.134 A 
ATOM     66  C   UNL A   1      41.470  35.153  38.523  1.00  0.00     0.134 A 
ATOM     67  F   UNL A   1      39.246  32.572  39.781  1.00  0.00    -0.206 F 
ATOM     68  C   UNL A   1      40.097  34.483  40.843  1.00  0.00     0.040 A 
ATOM     69  C   UNL A   1      41.578  35.965  39.655  1.00  0.00     0.040 A 
ATOM     70  F   UNL A   1      42.145  35.519  37.422  1.00  0.00    -0.206 F 
ATOM     71  C   UNL A   1      40.883  35.634  40.817  1.00  0.00     0.006 A 
ENDBRANCH  50  64
BRANCH  51  72
ATOM     72  C   UNL A   1      39.971  28.726  30.100  1.00  0.00     0.057 A 
ATOM     73  C   UNL A   1      39.262  27.520  30.068  1.00  0.00     0.134 A 
ATOM     74  C   UNL A   1      40.572  29.154  28.911  1.00  0.00     0.134 A 
ATOM     75  F   UNL A   1      38.681  27.049  31.182  1.00  0.00    -0.206 F 
ATOM     76  C   UNL A   1      39.163  26.760  28.902  1.00  0.00     0.040 A 
ATOM     77  C   UNL A   1      40.463  28.416  27.732  1.00  0.00     0.040 A 
ATOM     78  F   UNL A   1      41.260  30.304  28.877  1.00  0.00    -0.206 F 
ATOM     79  C   UNL A   1      39.761  27.212  27.727  1.00  0.00     0.006 A 
ENDBRANCH  51  72
BRANCH  63  80
ATOM     80  C   UNL A   1      44.464  28.686  35.404  1.00  0.00     0.057 A 
ATOM     81  C   UNL A   1      45.738  29.114  35.007  1.00  0.00     0.134 A 
ATOM     82  C   UNL A   1      44.374  27.463  36.080  1.00  0.00     0.134 A 
ATOM     83  F   UNL A   1      45.889  30.268  34.341  1.00  0.00    -0.206 F 
ATOM     84  C   UNL A   1      46.875  28.342  35.249  1.00  0.00     0.040 A 
ATOM     85  C   UNL A   1      45.508  26.694  36.351  1.00  0.00     0.040 A 
ATOM     86  F   UNL A   1      43.186  26.998  36.493  1.00  0.00    -0.206 F 
ATOM     87  C   UNL A   1      46.762  27.130  35.927  1.00  0.00     0.006 A 
ENDBRANCH  63  80
ENDBRANCH  37  38
ENDBRANCH  29  32
ENDBRANCH  27  28
ENDBRANCH  26  27
ENDBRANCH  25  26
ENDBRANCH  24  25
ENDBRANCH   1  24
TORSDOF 18
ENDMDL
MODEL 2
REMARK VINA RESULT:     -10.3      6.742     12.082
REMARK SMILES O=C(C[C@@H]1CN(C(=O)N2CCC[C@H]2CO)CCO1)NCCCCCCNC(=O)c1ccc(-c2c3nc(c(-c4c(F)cccc4F)c4ccc([nH]4)c(-c4c(F)cccc4F)c4nc(c(-c5c(F)cccc5F)c5ccc2[nH]5)C=C4)C=C3)cc1
REMARK SMILES IDX 21 1 20 2 19 3 1 4 2 5 3 7 4 8 5 9 18 10 6 11 17 12 16 13
REMARK SMILES IDX 7 14 8 15 9 16 10 17 13 18 11 19 12 20 14 21 15 22 22 24
REMARK SMILES IDX 23 25 24 26 25 27 26 28 27 29 28 31 29 32 30 33 82 34 31 35
REMARK SMILES IDX 81 36 32 37 33 38 34 39 75 40 35 41 80 42 74 43 76 44 36 45
REMARK SMILES IDX 79 46 73 47 72 48 37 50 63 51 46 52 62 53 47 54 50 55 61 56
REMARK SMILES IDX 77 57 48 58 49 59 60 61 78 62 51 63 38 64 39 65 44 66 40 67
REMARK SMILES IDX 41 68 43 69 45 70 42 71 64 72 65 73 70 74 66 75 67 76 69 77
REMARK SMILES IDX 71 78 68 79 52 80 53 81 58 82 54 83 55 84 57 85 59 86 56 87
REMARK H PARENT 19 6 15 23 26 30 76 49 50 60
REMARK Flexibility Score: inf
ROOT
ATOM      1  C   UNL A   1      40.072  23.017  27.352  1.00  0.00     0.021 C 
ENDROOT
BRANCH   1   2
ATOM      2  C   UNL A   1      38.921  23.496  26.465  1.00  0.00     0.116 C 
BRANCH   2   3
ATOM      3  N   UNL A   1      38.032  22.409  26.137  1.00  0.00    -0.356 N 
ATOM      4  O   UNL A   1      37.043  23.311  24.268  1.00  0.00    -0.275 OA
ATOM      5  C   UNL A   1      37.128  22.420  25.108  1.00  0.00     0.222 C 
ATOM      6  H   UNL A   1      38.079  21.599  26.694  1.00  0.00     0.163 HD
BRANCH   5   7
ATOM      7  C   UNL A   1      36.125  21.293  25.193  1.00  0.00     0.133 C 
BRANCH   7   8
ATOM      8  C   UNL A   1      34.674  21.668  24.888  1.00  0.00     0.147 C 
ATOM      9  C   UNL A   1      34.079  22.383  26.111  1.00  0.00     0.154 C 
ATOM     10  O   UNL A   1      33.851  20.510  24.619  1.00  0.00    -0.374 OA
ATOM     11  N   UNL A   1      32.702  22.802  25.849  1.00  0.00    -0.320 N 
ATOM     12  C   UNL A   1      32.518  20.923  24.254  1.00  0.00     0.182 C 
ATOM     13  C   UNL A   1      31.848  21.706  25.388  1.00  0.00     0.150 C 
BRANCH  11  14
ATOM     14  C   UNL A   1      32.113  23.838  26.542  1.00  0.00     0.320 C 
ATOM     15  O   UNL A   1      31.424  23.627  27.541  1.00  0.00    -0.248 OA
BRANCH  14  16
ATOM     16  N   UNL A   1      32.367  25.114  26.109  1.00  0.00    -0.319 N 
ATOM     17  C   UNL A   1      33.586  25.667  25.551  1.00  0.00     0.122 C 
ATOM     18  C   UNL A   1      31.321  26.137  26.132  1.00  0.00     0.112 C 
ATOM     19  C   UNL A   1      33.582  27.067  26.130  1.00  0.00     0.024 C 
ATOM     20  C   UNL A   1      32.105  27.465  26.042  1.00  0.00     0.029 C 
BRANCH  18  21
ATOM     21  C   UNL A   1      30.236  25.914  25.050  1.00  0.00     0.181 C 
BRANCH  21  22
ATOM     22  O   UNL A   1      28.975  25.494  25.566  1.00  0.00    -0.394 OA
ATOM     23  H   UNL A   1      28.985  24.533  25.700  1.00  0.00     0.210 HD
ENDBRANCH  21  22
ENDBRANCH  18  21
ENDBRANCH  14  16
ENDBRANCH  11  14
ENDBRANCH   7   8
ENDBRANCH   5   7
ENDBRANCH   2   3
ENDBRANCH   1   2
BRANCH   1  24
ATOM     24  C   UNL A   1      40.415  21.524  27.227  1.00  0.00     0.002 C 
BRANCH  24  25
ATOM     25  C   UNL A   1      41.585  21.183  26.301  1.00  0.00     0.002 C 
BRANCH  25  26
ATOM     26  C   UNL A   1      41.689  19.716  25.882  1.00  0.00     0.021 C 
BRANCH  26  27
ATOM     27  C   UNL A   1      43.032  19.046  26.164  1.00  0.00     0.116 C 
BRANCH  27  28
ATOM     28  N   UNL A   1      43.781  18.746  24.955  1.00  0.00    -0.352 N 
ATOM     29  C   UNL A   1      44.593  19.556  24.201  1.00  0.00     0.251 C 
ATOM     30  H   UNL A   1      43.692  17.823  24.626  1.00  0.00     0.163 HD
ATOM     31  O   UNL A   1      45.039  19.145  23.129  1.00  0.00    -0.269 OA
BRANCH  29  32
ATOM     32  C   UNL A   1      44.916  20.931  24.645  1.00  0.00     0.039 A 
ATOM     33  C   UNL A   1      44.487  22.005  23.857  1.00  0.00     0.014 A 
ATOM     34  C   UNL A   1      45.648  21.174  25.812  1.00  0.00     0.014 A 
ATOM     35  C   UNL A   1      44.729  23.316  24.273  1.00  0.00     0.010 A 
ATOM     36  C   UNL A   1      45.831  22.483  26.259  1.00  0.00     0.010 A 
ATOM     37  C   UNL A   1      45.371  23.567  25.498  1.00  0.00    -0.014 A 
BRANCH  37  38
ATOM     38  C   UNL A   1      45.530  24.956  25.999  1.00  0.00     0.031 A 
ATOM     39  C   UNL A   1      46.867  25.642  25.967  1.00  0.00     0.074 A 
ATOM     40  C   UNL A   1      44.468  25.589  26.533  1.00  0.00     0.049 A 
ATOM     41  N   UNL A   1      47.185  26.851  26.357  1.00  0.00    -0.248 NA
ATOM     42  C   UNL A   1      48.001  24.861  25.450  1.00  0.00     0.031 C 
ATOM     43  C   UNL A   1      43.128  25.015  26.679  1.00  0.00     0.029 A 
ATOM     44  N   UNL A   1      44.345  26.853  27.053  1.00  0.00    -0.354 N 
ATOM     45  C   UNL A   1      48.552  26.972  26.146  1.00  0.00     0.074 A 
ATOM     46  C   UNL A   1      49.011  25.697  25.636  1.00  0.00     0.031 C 
ATOM     47  C   UNL A   1      42.312  25.936  27.216  1.00  0.00     0.029 A 
ATOM     48  C   UNL A   1      43.075  27.152  27.479  1.00  0.00     0.049 A 
ATOM     49  H   UNL A   1      45.097  27.485  27.115  1.00  0.00     0.167 HD
ATOM     50  C   UNL A   1      49.348  28.051  26.338  1.00  0.00     0.037 A 
ATOM     51  C   UNL A   1      42.576  28.282  28.016  1.00  0.00     0.037 A 
ATOM     52  C   UNL A   1      48.887  29.327  26.823  1.00  0.00     0.049 A 
ATOM     53  C   UNL A   1      43.476  29.466  28.212  1.00  0.00     0.074 A 
ATOM     54  C   UNL A   1      49.601  30.503  26.972  1.00  0.00     0.029 A 
ATOM     55  N   UNL A   1      47.593  29.591  27.246  1.00  0.00    -0.354 N 
ATOM     56  N   UNL A   1      44.750  29.594  27.926  1.00  0.00    -0.248 NA
ATOM     57  C   UNL A   1      42.869  30.667  28.804  1.00  0.00     0.031 C 
ATOM     58  C   UNL A   1      48.751  31.467  27.526  1.00  0.00     0.029 A 
ATOM     59  C   UNL A   1      47.495  30.902  27.684  1.00  0.00     0.049 A 
ATOM     60  H   UNL A   1      46.852  28.942  27.238  1.00  0.00     0.167 HD
ATOM     61  C   UNL A   1      45.091  30.892  28.282  1.00  0.00     0.074 A 
ATOM     62  C   UNL A   1      43.885  31.517  28.788  1.00  0.00     0.031 C 
ATOM     63  C   UNL A   1      46.294  31.510  28.196  1.00  0.00     0.037 A 
BRANCH  50  64
ATOM     64  C   UNL A   1      50.808  27.895  26.024  1.00  0.00     0.057 A 
ATOM     65  C   UNL A   1      51.303  28.037  24.720  1.00  0.00     0.134 A 
ATOM     66  C   UNL A   1      51.733  27.624  27.040  1.00  0.00     0.134 A 
ATOM     67  F   UNL A   1      50.469  28.287  23.700  1.00  0.00    -0.206 F 
ATOM     68  C   UNL A   1      52.661  27.885  24.434  1.00  0.00     0.040 A 
ATOM     69  C   UNL A   1      53.098  27.496  26.770  1.00  0.00     0.040 A 
ATOM     70  F   UNL A   1      51.329  27.483  28.311  1.00  0.00    -0.206 F 
ATOM     71  C   UNL A   1      53.563  27.619  25.462  1.00  0.00     0.006 A 
ENDBRANCH  50  64
BRANCH  51  72
ATOM     72  C   UNL A   1      41.136  28.359  28.365  1.00  0.00     0.057 A 
ATOM     73  C   UNL A   1      40.685  27.978  29.634  1.00  0.00     0.134 A 
ATOM     74  C   UNL A   1      40.182  28.818  27.450  1.00  0.00     0.134 A 
ATOM     75  F   UNL A   1      41.552  27.511  30.546  1.00  0.00    -0.206 F 
ATOM     76  C   UNL A   1      39.335  28.036  29.978  1.00  0.00     0.040 A 
ATOM     77  C   UNL A   1      38.830  28.903  27.788  1.00  0.00     0.040 A 
ATOM     78  F   UNL A   1      40.553  29.203  26.221  1.00  0.00    -0.206 F 
ATOM     79  C   UNL A   1      38.403  28.506  29.054  1.00  0.00     0.006 A 
ENDBRANCH  51  72
BRANCH  63  80
ATOM     80  C   UNL A   1      46.358  32.940  28.649  1.00  0.00     0.057 A 
ATOM     81  C   UNL A   1      46.101  34.003  27.773  1.00  0.00     0.134 A 
ATOM     82  C   UNL A   1      46.668  33.256  29.977  1.00  0.00     0.134 A 
ATOM     83  F   UNL A   1      45.815  33.767  26.484  1.00  0.00    -0.206 F 
ATOM     84  C   UNL A   1      46.179  35.330  28.196  1.00  0.00     0.040 A 
ATOM     85  C   UNL A   1      46.722  34.580  30.418  1.00  0.00     0.040 A 
ATOM     86  F   UNL A   1      46.917  32.285  30.869  1.00  0.00    -0.206 F 
ATOM     87  C   UNL A   1      46.486  35.621  29.523  1.00  0.00     0.006 A 
ENDBRANCH  63  80
ENDBRANCH  37  38
ENDBRANCH  29  32
ENDBRANCH  27  28
ENDBRANCH  26  27
ENDBRANCH  25  26
ENDBRANCH  24  25
ENDBRANCH   1  24
TORSDOF 18
ENDMDL
MODEL 3
REMARK VINA RESULT:     -10.1      2.273      3.415
REMARK SMILES O=C(C[C@@H]1CN(C(=O)N2CCC[C@H]2CO)CCO1)NCCCCCCNC(=O)c1ccc(-c2c3nc(c(-c4c(F)cccc4F)c4ccc([nH]4)c(-c4c(F)cccc4F)c4nc(c(-c5c(F)cccc5F)c5ccc2[nH]5)C=C4)C=C3)cc1
REMARK SMILES IDX 21 1 20 2 19 3 1 4 2 5 3 7 4 8 5 9 18 10 6 11 17 12 16 13
REMARK SMILES IDX 7 14 8 15 9 16 10 17 13 18 11 19 12 20 14 21 15 22 22 24
REMARK SMILES IDX 23 25 24 26 25 27 26 28 27 29 28 31 29 32 30 33 82 34 31 35
REMARK SMILES IDX 81 36 32 37 33 38 34 39 75 40 35 41 80 42 74 43 76 44 36 45
REMARK SMILES IDX 79 46 73 47 72 48 37 50 63 51 46 52 62 53 47 54 50 55 61 56
REMARK SMILES IDX 77 57 48 58 49 59 60 61 78 62 51 63 38 64 39 65 44 66 40 67
REMARK SMILES IDX 41 68 43 69 45 70 42 71 64 72 65 73 70 74 66 75 67 76 69 77
REMARK SMILES IDX 71 78 68 79 52 80 53 81 58 82 54 83 55 84 57 85 59 86 56 87
REMARK H PARENT 19 6 15 23 26 30 76 49 50 60
REMARK Flexibility Score: inf
ROOT
ATOM      1  C   UNL A   1      31.952  28.228  27.473  1.00  0.00     0.021 C 
ENDROOT
BRANCH   1   2
ATOM      2  C   UNL A   1      31.218  27.384  26.429  1.00  0.00     0.116 C 
BRANCH   2   3
ATOM      3  N   UNL A   1      31.876  26.117  26.232  1.00  0.00    -0.356 N 
ATOM      4  O   UNL A   1      30.158  24.724  26.859  1.00  0.00    -0.275 OA
ATOM      5  C   UNL A   1      31.323  24.895  26.511  1.00  0.00     0.222 C 
ATOM      6  H   UNL A   1      32.791  26.131  25.867  1.00  0.00     0.163 HD
BRANCH   5   7
ATOM      7  C   UNL A   1      32.337  23.774  26.506  1.00  0.00     0.133 C 
BRANCH   7   8
ATOM      8  C   UNL A   1      32.809  23.308  25.129  1.00  0.00     0.147 C 
ATOM      9  C   UNL A   1      34.299  23.648  24.974  1.00  0.00     0.154 C 
ATOM     10  O   UNL A   1      32.100  23.964  24.053  1.00  0.00    -0.374 OA
ATOM     11  N   UNL A   1      34.808  23.179  23.686  1.00  0.00    -0.320 N 
ATOM     12  C   UNL A   1      32.521  23.428  22.782  1.00  0.00     0.182 C 
ATOM     13  C   UNL A   1      34.018  23.657  22.550  1.00  0.00     0.150 C 
BRANCH  11  14
ATOM     14  C   UNL A   1      36.147  22.920  23.483  1.00  0.00     0.320 C 
ATOM     15  O   UNL A   1      36.664  23.061  22.374  1.00  0.00    -0.248 OA
BRANCH  14  16
ATOM     16  N   UNL A   1      36.892  22.549  24.573  1.00  0.00    -0.319 N 
ATOM     17  C   UNL A   1      37.305  23.343  25.714  1.00  0.00     0.122 C 
ATOM     18  C   UNL A   1      37.358  21.170  24.731  1.00  0.00     0.112 C 
ATOM     19  C   UNL A   1      38.689  22.791  25.989  1.00  0.00     0.024 C 
ATOM     20  C   UNL A   1      38.504  21.287  25.760  1.00  0.00     0.029 C 
BRANCH  18  21
ATOM     21  C   UNL A   1      36.219  20.186  25.091  1.00  0.00     0.181 C 
BRANCH  21  22
ATOM     22  O   UNL A   1      36.585  18.811  24.997  1.00  0.00    -0.394 OA
ATOM     23  H   UNL A   1      36.251  18.334  25.773  1.00  0.00     0.210 HD
ENDBRANCH  21  22
ENDBRANCH  18  21
ENDBRANCH  14  16
ENDBRANCH  11  14
ENDBRANCH   7   8
ENDBRANCH   5   7
ENDBRANCH   2   3
ENDBRANCH   1   2
BRANCH   1  24
ATOM     24  C   UNL A   1      32.511  29.563  26.957  1.00  0.00     0.002 C 
BRANCH  24  25
ATOM     25  C   UNL A   1      31.538  30.430  26.155  1.00  0.00     0.002 C 
BRANCH  25  26
ATOM     26  C   UNL A   1      31.336  31.853  26.676  1.00  0.00     0.021 C 
BRANCH  26  27
ATOM     27  C   UNL A   1      32.585  32.532  27.235  1.00  0.00     0.116 C 
BRANCH  27  28
ATOM     28  N   UNL A   1      32.352  33.913  27.626  1.00  0.00    -0.352 N 
ATOM     29  C   UNL A   1      33.013  34.688  28.547  1.00  0.00     0.251 C 
ATOM     30  H   UNL A   1      31.609  34.360  27.162  1.00  0.00     0.163 HD
ATOM     31  O   UNL A   1      32.577  35.805  28.829  1.00  0.00    -0.269 OA
BRANCH  29  32
ATOM     32  C   UNL A   1      34.226  34.186  29.230  1.00  0.00     0.039 A 
ATOM     33  C   UNL A   1      34.070  33.382  30.364  1.00  0.00     0.014 A 
ATOM     34  C   UNL A   1      35.510  34.511  28.781  1.00  0.00     0.014 A 
ATOM     35  C   UNL A   1      35.192  32.850  31.002  1.00  0.00     0.010 A 
ATOM     36  C   UNL A   1      36.627  33.926  29.379  1.00  0.00     0.010 A 
ATOM     37  C   UNL A   1      36.481  33.087  30.492  1.00  0.00    -0.014 A 
BRANCH  37  38
ATOM     38  C   UNL A   1      37.668  32.431  31.098  1.00  0.00     0.031 A 
ATOM     39  C   UNL A   1      38.251  32.929  32.391  1.00  0.00     0.074 A 
ATOM     40  C   UNL A   1      38.255  31.406  30.452  1.00  0.00     0.049 A 
ATOM     41  N   UNL A   1      39.278  32.474  33.063  1.00  0.00    -0.248 NA
ATOM     42  C   UNL A   1      37.611  34.106  32.997  1.00  0.00     0.031 C 
ATOM     43  C   UNL A   1      37.825  30.863  29.161  1.00  0.00     0.029 A 
ATOM     44  N   UNL A   1      39.340  30.635  30.790  1.00  0.00    -0.354 N 
ATOM     45  C   UNL A   1      39.417  33.314  34.161  1.00  0.00     0.074 A 
ATOM     46  C   UNL A   1      38.396  34.333  34.040  1.00  0.00     0.031 C 
ATOM     47  C   UNL A   1      38.614  29.826  28.837  1.00  0.00     0.029 A 
ATOM     48  C   UNL A   1      39.621  29.650  29.878  1.00  0.00     0.049 A 
ATOM     49  H   UNL A   1      39.866  30.777  31.610  1.00  0.00     0.167 HD
ATOM     50  C   UNL A   1      40.298  33.231  35.186  1.00  0.00     0.037 A 
ATOM     51  C   UNL A   1      40.579  28.704  29.880  1.00  0.00     0.037 A 
ATOM     52  C   UNL A   1      41.298  32.203  35.319  1.00  0.00     0.049 A 
ATOM     53  C   UNL A   1      41.540  28.629  31.031  1.00  0.00     0.074 A 
ATOM     54  C   UNL A   1      42.182  31.988  36.363  1.00  0.00     0.029 A 
ATOM     55  N   UNL A   1      41.555  31.223  34.372  1.00  0.00    -0.354 N 
ATOM     56  N   UNL A   1      41.603  29.376  32.106  1.00  0.00    -0.248 NA
ATOM     57  C   UNL A   1      42.561  27.574  30.971  1.00  0.00     0.031 C 
ATOM     58  C   UNL A   1      43.002  30.904  36.029  1.00  0.00     0.029 A 
ATOM     59  C   UNL A   1      42.602  30.418  34.794  1.00  0.00     0.049 A 
ATOM     60  H   UNL A   1      41.066  31.115  33.524  1.00  0.00     0.167 HD
ATOM     61  C   UNL A   1      42.654  28.871  32.859  1.00  0.00     0.074 A 
ATOM     62  C   UNL A   1      43.189  27.741  32.126  1.00  0.00     0.031 C 
ATOM     63  C   UNL A   1      43.133  29.304  34.052  1.00  0.00     0.037 A 
BRANCH  50  64
ATOM     64  C   UNL A   1      40.220  34.289  36.249  1.00  0.00     0.057 A 
ATOM     65  C   UNL A   1      39.385  34.153  37.367  1.00  0.00     0.134 A 
ATOM     66  C   UNL A   1      41.005  35.445  36.167  1.00  0.00     0.134 A 
ATOM     67  F   UNL A   1      38.600  33.074  37.502  1.00  0.00    -0.206 F 
ATOM     68  C   UNL A   1      39.313  35.142  38.349  1.00  0.00     0.040 A 
ATOM     69  C   UNL A   1      40.961  36.430  37.156  1.00  0.00     0.040 A 
ATOM     70  F   UNL A   1      41.832  35.636  35.127  1.00  0.00    -0.206 F 
ATOM     71  C   UNL A   1      40.107  36.283  38.247  1.00  0.00     0.006 A 
ENDBRANCH  50  64
BRANCH  51  72
ATOM     72  C   UNL A   1      40.649  27.721  28.771  1.00  0.00     0.057 A 
ATOM     73  C   UNL A   1      39.887  26.548  28.804  1.00  0.00     0.134 A 
ATOM     74  C   UNL A   1      41.468  27.929  27.656  1.00  0.00     0.134 A 
ATOM     75  F   UNL A   1      39.098  26.286  29.857  1.00  0.00    -0.206 F 
ATOM     76  C   UNL A   1      39.946  25.608  27.775  1.00  0.00     0.040 A 
ATOM     77  C   UNL A   1      41.520  27.009  26.607  1.00  0.00     0.040 A 
ATOM     78  F   UNL A   1      42.217  29.037  27.563  1.00  0.00    -0.206 F 
ATOM     79  C   UNL A   1      40.761  25.842  26.668  1.00  0.00     0.006 A 
ENDBRANCH  51  72
BRANCH  63  80
ATOM     80  C   UNL A   1      44.284  28.541  34.639  1.00  0.00     0.057 A 
ATOM     81  C   UNL A   1      45.611  28.823  34.288  1.00  0.00     0.134 A 
ATOM     82  C   UNL A   1      44.065  27.521  35.573  1.00  0.00     0.134 A 
ATOM     83  F   UNL A   1      45.887  29.778  33.386  1.00  0.00    -0.206 F 
ATOM     84  C   UNL A   1      46.676  28.099  34.824  1.00  0.00     0.040 A 
ATOM     85  C   UNL A   1      45.125  26.808  36.136  1.00  0.00     0.040 A 
ATOM     86  F   UNL A   1      42.819  27.205  35.957  1.00  0.00    -0.206 F 
ATOM     87  C   UNL A   1      46.434  27.091  35.754  1.00  0.00     0.006 A 
ENDBRANCH  63  80
ENDBRANCH  37  38
ENDBRANCH  29  32
ENDBRANCH  27  28
ENDBRANCH  26  27
ENDBRANCH  25  26
ENDBRANCH  24  25
ENDBRANCH   1  24
TORSDOF 18
ENDMDL
