MODEL 1
REMARK VINA RESULT:     -10.1      0.000      0.000
REMARK SMILES CSCCC(=O)N1[C@H](C)CCC[C@@H]1C(=O)NCCCCCCNC(=O)c1ccc(-c2c3nc(c(-c4c(F)cccc4F)c4ccc([nH]4)c(-c4c(F)cccc4F)c4nc(c(-c5c(F)cccc5F)c5ccc2[nH]5)C=C4)C=C3)cc1
REMARK SMILES IDX 18 1 17 2 16 3 14 4 15 5 13 7 7 8 8 9 9 10 10 11 12 12 11 13
REMARK SMILES IDX 5 14 6 15 4 16 3 17 2 18 1 19 19 20 20 21 21 22 22 23 23 24
REMARK SMILES IDX 24 25 25 27 26 28 27 29 79 30 28 31 78 32 29 33 30 34 31 35
REMARK SMILES IDX 72 36 32 37 77 38 71 39 73 40 33 41 76 42 70 43 69 44 34 46
REMARK SMILES IDX 60 47 43 48 59 49 44 50 47 51 58 52 74 53 45 54 46 55 57 57
REMARK SMILES IDX 75 58 48 59 35 60 36 61 41 62 37 63 38 64 40 65 42 66 39 67
REMARK SMILES IDX 61 68 62 69 67 70 63 71 64 72 66 73 68 74 65 75 49 76 50 77
REMARK SMILES IDX 55 78 51 79 52 80 54 81 56 82 53 83
REMARK H PARENT 16 6 23 26 73 45 47 56
REMARK Flexibility Score: inf
ROOT
ATOM      1  C   UNL A   1      36.592  22.413  23.635  1.00  0.00     0.021 C 
ENDROOT
BRANCH   1   2
ATOM      2  C   UNL A   1      35.323  23.260  23.574  1.00  0.00     0.116 C 
BRANCH   2   3
ATOM      3  N   UNL A   1      34.124  22.573  23.136  1.00  0.00    -0.354 N 
ATOM      4  C   UNL A   1      32.826  22.777  23.530  1.00  0.00     0.242 C 
ATOM      5  O   UNL A   1      32.028  23.024  22.616  1.00  0.00    -0.273 OA
ATOM      6  H   UNL A   1      34.259  21.863  22.467  1.00  0.00     0.163 HD
BRANCH   4   7
ATOM      7  C   UNL A   1      32.309  22.629  25.005  1.00  0.00     0.174 C 
ATOM      8  N   UNL A   1      32.131  23.831  25.855  1.00  0.00    -0.328 N 
ATOM      9  C   UNL A   1      33.317  24.375  26.483  1.00  0.00     0.082 C 
ATOM     10  C   UNL A   1      33.822  25.633  25.779  1.00  0.00     0.031 C 
ATOM     11  C   UNL A   1      34.330  23.285  26.893  1.00  0.00     0.025 C 
ATOM     12  C   UNL A   1      32.999  21.479  25.759  1.00  0.00     0.035 C 
ATOM     13  C   UNL A   1      33.650  21.929  27.064  1.00  0.00     0.005 C 
BRANCH   8  14
ATOM     14  C   UNL A   1      30.889  24.110  26.441  1.00  0.00     0.224 C 
ATOM     15  O   UNL A   1      30.409  23.399  27.325  1.00  0.00    -0.275 OA
BRANCH  14  16
ATOM     16  C   UNL A   1      30.093  25.324  25.921  1.00  0.00     0.111 C 
BRANCH  16  17
ATOM     17  C   UNL A   1      30.287  25.749  24.455  1.00  0.00     0.079 C 
BRANCH  17  18
ATOM     18  S   UNL A   1      30.672  27.536  24.155  1.00  0.00    -0.165 SA
ATOM     19  C   UNL A   1      30.941  27.558  22.352  1.00  0.00     0.085 C 
ENDBRANCH  17  18
ENDBRANCH  16  17
ENDBRANCH  14  16
ENDBRANCH   8  14
ENDBRANCH   4   7
ENDBRANCH   2   3
ENDBRANCH   1   2
BRANCH   1  20
ATOM     20  C   UNL A   1      36.697  21.620  24.946  1.00  0.00     0.002 C 
BRANCH  20  21
ATOM     21  C   UNL A   1      36.582  20.093  24.830  1.00  0.00     0.002 C 
BRANCH  21  22
ATOM     22  C   UNL A   1      37.892  19.308  24.909  1.00  0.00     0.021 C 
BRANCH  22  23
ATOM     23  C   UNL A   1      39.010  19.974  25.707  1.00  0.00     0.116 C 
BRANCH  23  24
ATOM     24  N   UNL A   1      40.221  19.167  25.767  1.00  0.00    -0.352 N 
ATOM     25  C   UNL A   1      41.511  19.522  26.071  1.00  0.00     0.251 C 
ATOM     26  H   UNL A   1      40.093  18.214  25.554  1.00  0.00     0.163 HD
ATOM     27  O   UNL A   1      42.423  18.723  25.904  1.00  0.00    -0.269 OA
BRANCH  25  28
ATOM     28  C   UNL A   1      41.802  20.874  26.589  1.00  0.00     0.039 A 
ATOM     29  C   UNL A   1      41.740  21.096  27.966  1.00  0.00     0.014 A 
ATOM     30  C   UNL A   1      42.114  21.923  25.719  1.00  0.00     0.014 A 
ATOM     31  C   UNL A   1      42.050  22.357  28.478  1.00  0.00     0.010 A 
ATOM     32  C   UNL A   1      42.498  23.155  26.234  1.00  0.00     0.010 A 
ATOM     33  C   UNL A   1      42.464  23.387  27.617  1.00  0.00    -0.014 A 
BRANCH  33  34
ATOM     34  C   UNL A   1      42.857  24.717  28.143  1.00  0.00     0.031 A 
ATOM     35  C   UNL A   1      41.815  25.780  28.355  1.00  0.00     0.074 A 
ATOM     36  C   UNL A   1      44.157  24.985  28.372  1.00  0.00     0.049 A 
ATOM     37  N   UNL A   1      41.968  27.027  28.721  1.00  0.00    -0.248 NA
ATOM     38  C   UNL A   1      40.417  25.398  28.094  1.00  0.00     0.031 C 
ATOM     39  C   UNL A   1      45.265  24.050  28.163  1.00  0.00     0.029 A 
ATOM     40  N   UNL A   1      44.770  26.129  28.818  1.00  0.00    -0.354 N 
ATOM     41  C   UNL A   1      40.690  27.575  28.734  1.00  0.00     0.074 A 
ATOM     42  C   UNL A   1      39.784  26.548  28.272  1.00  0.00     0.031 C 
ATOM     43  C   UNL A   1      46.418  24.652  28.493  1.00  0.00     0.029 A 
ATOM     44  C   UNL A   1      46.139  26.026  28.895  1.00  0.00     0.049 A 
ATOM     45  H   UNL A   1      44.277  26.946  29.059  1.00  0.00     0.167 HD
ATOM     46  C   UNL A   1      40.306  28.813  29.125  1.00  0.00     0.037 A 
ATOM     47  C   UNL A   1      47.064  26.944  29.237  1.00  0.00     0.037 A 
ATOM     48  C   UNL A   1      41.212  29.829  29.593  1.00  0.00     0.049 A 
ATOM     49  C   UNL A   1      46.611  28.321  29.637  1.00  0.00     0.074 A 
ATOM     50  C   UNL A   1      40.920  31.106  30.035  1.00  0.00     0.029 A 
ATOM     51  N   UNL A   1      42.588  29.679  29.677  1.00  0.00    -0.354 N 
ATOM     52  N   UNL A   1      45.395  28.809  29.696  1.00  0.00    -0.248 NA
ATOM     53  C   UNL A   1      47.659  29.275  30.026  1.00  0.00     0.031 C 
ATOM     54  C   UNL A   1      42.124  31.746  30.346  1.00  0.00     0.029 A 
ATOM     55  C   UNL A   1      43.161  30.848  30.151  1.00  0.00     0.049 A 
ATOM     56  H   UNL A   1      43.084  28.864  29.436  1.00  0.00     0.167 HD
ATOM     57  C   UNL A   1      45.529  30.112  30.160  1.00  0.00     0.074 A 
ATOM     58  C   UNL A   1      46.942  30.332  30.383  1.00  0.00     0.031 C 
ATOM     59  C   UNL A   1      44.569  31.043  30.381  1.00  0.00     0.037 A 
BRANCH  46  60
ATOM     60  C   UNL A   1      38.838  29.129  29.080  1.00  0.00     0.057 A 
ATOM     61  C   UNL A   1      38.033  29.046  30.225  1.00  0.00     0.134 A 
ATOM     62  C   UNL A   1      38.229  29.560  27.895  1.00  0.00     0.134 A 
ATOM     63  F   UNL A   1      38.549  28.628  31.391  1.00  0.00    -0.206 F 
ATOM     64  C   UNL A   1      36.673  29.356  30.187  1.00  0.00     0.040 A 
ATOM     65  C   UNL A   1      36.876  29.901  27.851  1.00  0.00     0.040 A 
ATOM     66  F   UNL A   1      38.942  29.667  26.763  1.00  0.00    -0.206 F 
ATOM     67  C   UNL A   1      36.093  29.794  28.998  1.00  0.00     0.006 A 
ENDBRANCH  46  60
BRANCH  47  68
ATOM     68  C   UNL A   1      48.509  26.595  29.217  1.00  0.00     0.057 A 
ATOM     69  C   UNL A   1      49.128  26.000  30.322  1.00  0.00     0.134 A 
ATOM     70  C   UNL A   1      49.311  26.878  28.105  1.00  0.00     0.134 A 
ATOM     71  F   UNL A   1      48.418  25.719  31.424  1.00  0.00    -0.206 F 
ATOM     72  C   UNL A   1      50.498  25.731  30.337  1.00  0.00     0.040 A 
ATOM     73  C   UNL A   1      50.676  26.585  28.093  1.00  0.00     0.040 A 
ATOM     74  F   UNL A   1      48.778  27.436  27.008  1.00  0.00    -0.206 F 
ATOM     75  C   UNL A   1      51.275  26.021  29.218  1.00  0.00     0.006 A 
ENDBRANCH  47  68
BRANCH  59  76
ATOM     76  C   UNL A   1      45.010  32.367  30.933  1.00  0.00     0.057 A 
ATOM     77  C   UNL A   1      45.340  33.446  30.103  1.00  0.00     0.134 A 
ATOM     78  C   UNL A   1      45.065  32.575  32.318  1.00  0.00     0.134 A 
ATOM     79  F   UNL A   1      45.320  33.309  28.769  1.00  0.00    -0.206 F 
ATOM     80  C   UNL A   1      45.735  34.677  30.630  1.00  0.00     0.040 A 
ATOM     81  C   UNL A   1      45.428  33.810  32.857  1.00  0.00     0.040 A 
ATOM     82  F   UNL A   1      44.752  31.587  33.168  1.00  0.00    -0.206 F 
ATOM     83  C   UNL A   1      45.772  34.863  32.012  1.00  0.00     0.006 A 
ENDBRANCH  59  76
ENDBRANCH  33  34
ENDBRANCH  25  28
ENDBRANCH  23  24
ENDBRANCH  22  23
ENDBRANCH  21  22
ENDBRANCH  20  21
ENDBRANCH   1  20
TORSDOF 17
ENDMDL
MODEL 2
REMARK VINA RESULT:     -10.0      2.927      7.470
REMARK SMILES CSCCC(=O)N1[C@H](C)CCC[C@@H]1C(=O)NCCCCCCNC(=O)c1ccc(-c2c3nc(c(-c4c(F)cccc4F)c4ccc([nH]4)c(-c4c(F)cccc4F)c4nc(c(-c5c(F)cccc5F)c5ccc2[nH]5)C=C4)C=C3)cc1
REMARK SMILES IDX 18 1 17 2 16 3 14 4 15 5 13 7 7 8 8 9 9 10 10 11 12 12 11 13
REMARK SMILES IDX 5 14 6 15 4 16 3 17 2 18 1 19 19 20 20 21 21 22 22 23 23 24
REMARK SMILES IDX 24 25 25 27 26 28 27 29 79 30 28 31 78 32 29 33 30 34 31 35
REMARK SMILES IDX 72 36 32 37 77 38 71 39 73 40 33 41 76 42 70 43 69 44 34 46
REMARK SMILES IDX 60 47 43 48 59 49 44 50 47 51 58 52 74 53 45 54 46 55 57 57
REMARK SMILES IDX 75 58 48 59 35 60 36 61 41 62 37 63 38 64 40 65 42 66 39 67
REMARK SMILES IDX 61 68 62 69 67 70 63 71 64 72 66 73 68 74 65 75 49 76 50 77
REMARK SMILES IDX 55 78 51 79 52 80 54 81 56 82 53 83
REMARK H PARENT 16 6 23 26 73 45 47 56
REMARK Flexibility Score: inf
ROOT
ATOM      1  C   UNL A   1      39.331  21.362  26.126  1.00  0.00     0.021 C 
ENDROOT
BRANCH   1   2
ATOM      2  C   UNL A   1      38.230  22.344  25.730  1.00  0.00     0.116 C 
BRANCH   2   3
ATOM      3  N   UNL A   1      37.473  22.000  24.543  1.00  0.00    -0.354 N 
ATOM      4  C   UNL A   1      36.220  22.420  24.173  1.00  0.00     0.242 C 
ATOM      5  O   UNL A   1      36.149  22.961  23.062  1.00  0.00    -0.273 OA
ATOM      6  H   UNL A   1      37.917  21.383  23.917  1.00  0.00     0.163 HD
BRANCH   4   7
ATOM      7  C   UNL A   1      34.916  22.174  25.012  1.00  0.00     0.174 C 
ATOM      8  N   UNL A   1      33.648  21.819  24.330  1.00  0.00    -0.328 N 
ATOM      9  C   UNL A   1      32.888  22.904  23.746  1.00  0.00     0.082 C 
ATOM     10  C   UNL A   1      33.039  22.966  22.226  1.00  0.00     0.031 C 
ATOM     11  C   UNL A   1      32.983  24.209  24.564  1.00  0.00     0.025 C 
ATOM     12  C   UNL A   1      34.711  23.234  26.107  1.00  0.00     0.035 C 
ATOM     13  C   UNL A   1      33.355  23.928  26.018  1.00  0.00     0.005 C 
BRANCH   8  14
ATOM     14  C   UNL A   1      32.964  20.643  24.668  1.00  0.00     0.224 C 
ATOM     15  O   UNL A   1      31.784  20.653  25.023  1.00  0.00    -0.275 OA
BRANCH  14  16
ATOM     16  C   UNL A   1      33.739  19.311  24.630  1.00  0.00     0.111 C 
BRANCH  16  17
ATOM     17  C   UNL A   1      33.016  18.033  25.088  1.00  0.00     0.079 C 
BRANCH  17  18
ATOM     18  S   UNL A   1      33.519  16.453  24.261  1.00  0.00    -0.165 SA
ATOM     19  C   UNL A   1      32.797  15.206  25.377  1.00  0.00     0.085 C 
ENDBRANCH  17  18
ENDBRANCH  16  17
ENDBRANCH  14  16
ENDBRANCH   8  14
ENDBRANCH   4   7
ENDBRANCH   2   3
ENDBRANCH   1   2
BRANCH   1  20
ATOM     20  C   UNL A   1      40.652  22.073  26.453  1.00  0.00     0.002 C 
BRANCH  20  21
ATOM     21  C   UNL A   1      41.882  21.173  26.646  1.00  0.00     0.002 C 
BRANCH  21  22
ATOM     22  C   UNL A   1      41.906  19.877  25.834  1.00  0.00     0.021 C 
BRANCH  22  23
ATOM     23  C   UNL A   1      43.055  18.923  26.152  1.00  0.00     0.116 C 
BRANCH  23  24
ATOM     24  N   UNL A   1      43.868  18.608  24.986  1.00  0.00    -0.352 N 
ATOM     25  C   UNL A   1      44.636  19.420  24.191  1.00  0.00     0.251 C 
ATOM     26  H   UNL A   1      43.866  17.658  24.726  1.00  0.00     0.163 HD
ATOM     27  O   UNL A   1      45.116  18.987  23.152  1.00  0.00    -0.269 OA
BRANCH  25  28
ATOM     28  C   UNL A   1      44.874  20.825  24.583  1.00  0.00     0.039 A 
ATOM     29  C   UNL A   1      44.436  21.845  23.735  1.00  0.00     0.014 A 
ATOM     30  C   UNL A   1      45.546  21.133  25.768  1.00  0.00     0.014 A 
ATOM     31  C   UNL A   1      44.617  23.177  24.107  1.00  0.00     0.010 A 
ATOM     32  C   UNL A   1      45.656  22.458  26.175  1.00  0.00     0.010 A 
ATOM     33  C   UNL A   1      45.199  23.494  25.346  1.00  0.00    -0.014 A 
BRANCH  33  34
ATOM     34  C   UNL A   1      45.346  24.901  25.790  1.00  0.00     0.031 A 
ATOM     35  C   UNL A   1      46.697  25.561  25.761  1.00  0.00     0.074 A 
ATOM     36  C   UNL A   1      44.277  25.562  26.274  1.00  0.00     0.049 A 
ATOM     37  N   UNL A   1      47.047  26.748  26.187  1.00  0.00    -0.248 NA
ATOM     38  C   UNL A   1      47.808  24.771  25.204  1.00  0.00     0.031 C 
ATOM     39  C   UNL A   1      42.924  25.014  26.392  1.00  0.00     0.029 A 
ATOM     40  N   UNL A   1      44.162  26.837  26.770  1.00  0.00    -0.354 N 
ATOM     41  C   UNL A   1      48.413  26.845  25.950  1.00  0.00     0.074 A 
ATOM     42  C   UNL A   1      48.841  25.575  25.408  1.00  0.00     0.031 C 
ATOM     43  C   UNL A   1      42.114  25.949  26.912  1.00  0.00     0.029 A 
ATOM     44  C   UNL A   1      42.896  27.146  27.205  1.00  0.00     0.049 A 
ATOM     45  H   UNL A   1      44.916  27.469  26.811  1.00  0.00     0.167 HD
ATOM     46  C   UNL A   1      49.229  27.909  26.137  1.00  0.00     0.037 A 
ATOM     47  C   UNL A   1      42.423  28.265  27.787  1.00  0.00     0.037 A 
ATOM     48  C   UNL A   1      48.796  29.174  26.668  1.00  0.00     0.049 A 
ATOM     49  C   UNL A   1      43.359  29.420  28.014  1.00  0.00     0.074 A 
ATOM     50  C   UNL A   1      49.539  30.322  26.874  1.00  0.00     0.029 A 
ATOM     51  N   UNL A   1      47.501  29.456  27.077  1.00  0.00    -0.354 N 
ATOM     52  N   UNL A   1      44.638  29.518  27.735  1.00  0.00    -0.248 NA
ATOM     53  C   UNL A   1      42.787  30.626  28.629  1.00  0.00     0.031 C 
ATOM     54  C   UNL A   1      48.704  31.286  27.449  1.00  0.00     0.029 A 
ATOM     55  C   UNL A   1      47.427  30.756  27.549  1.00  0.00     0.049 A 
ATOM     56  H   UNL A   1      46.746  28.826  27.037  1.00  0.00     0.167 HD
ATOM     57  C   UNL A   1      45.012  30.803  28.108  1.00  0.00     0.074 A 
ATOM     58  C   UNL A   1      43.823  31.452  28.617  1.00  0.00     0.031 C 
ATOM     59  C   UNL A   1      46.231  31.391  28.037  1.00  0.00     0.037 A 
BRANCH  46  60
ATOM     60  C   UNL A   1      50.672  27.752  25.748  1.00  0.00     0.057 A 
ATOM     61  C   UNL A   1      51.100  27.933  24.425  1.00  0.00     0.134 A 
ATOM     62  C   UNL A   1      51.649  27.459  26.706  1.00  0.00     0.134 A 
ATOM     63  F   UNL A   1      50.214  28.204  23.455  1.00  0.00    -0.206 F 
ATOM     64  C   UNL A   1      52.443  27.805  24.067  1.00  0.00     0.040 A 
ATOM     65  C   UNL A   1      52.999  27.357  26.365  1.00  0.00     0.040 A 
ATOM     66  F   UNL A   1      51.311  27.278  27.992  1.00  0.00    -0.206 F 
ATOM     67  C   UNL A   1      53.398  27.524  25.041  1.00  0.00     0.006 A 
ENDBRANCH  46  60
BRANCH  47  68
ATOM     68  C   UNL A   1      40.998  28.351  28.201  1.00  0.00     0.057 A 
ATOM     69  C   UNL A   1      40.026  28.886  27.348  1.00  0.00     0.134 A 
ATOM     70  C   UNL A   1      40.579  27.930  29.468  1.00  0.00     0.134 A 
ATOM     71  F   UNL A   1      40.365  29.322  26.126  1.00  0.00    -0.206 F 
ATOM     72  C   UNL A   1      38.698  29.032  27.752  1.00  0.00     0.040 A 
ATOM     73  C   UNL A   1      39.249  28.040  29.875  1.00  0.00     0.040 A 
ATOM     74  F   UNL A   1      41.458  27.396  30.330  1.00  0.00    -0.206 F 
ATOM     75  C   UNL A   1      38.305  28.606  29.019  1.00  0.00     0.006 A 
ENDBRANCH  47  68
BRANCH  59  76
ATOM     76  C   UNL A   1      46.329  32.823  28.477  1.00  0.00     0.057 A 
ATOM     77  C   UNL A   1      46.647  33.176  29.795  1.00  0.00     0.134 A 
ATOM     78  C   UNL A   1      46.142  33.862  27.556  1.00  0.00     0.134 A 
ATOM     79  F   UNL A   1      46.825  32.229  30.728  1.00  0.00    -0.206 F 
ATOM     80  C   UNL A   1      46.749  34.512  30.187  1.00  0.00     0.040 A 
ATOM     81  C   UNL A   1      46.273  35.201  27.928  1.00  0.00     0.040 A 
ATOM     82  F   UNL A   1      45.846  33.594  26.276  1.00  0.00    -0.206 F 
ATOM     83  C   UNL A   1      46.570  35.528  29.250  1.00  0.00     0.006 A 
ENDBRANCH  59  76
ENDBRANCH  33  34
ENDBRANCH  25  28
ENDBRANCH  23  24
ENDBRANCH  22  23
ENDBRANCH  21  22
ENDBRANCH  20  21
ENDBRANCH   1  20
TORSDOF 17
ENDMDL
MODEL 3
REMARK VINA RESULT:     -10.0      5.599     10.544
REMARK SMILES CSCCC(=O)N1[C@H](C)CCC[C@@H]1C(=O)NCCCCCCNC(=O)c1ccc(-c2c3nc(c(-c4c(F)cccc4F)c4ccc([nH]4)c(-c4c(F)cccc4F)c4nc(c(-c5c(F)cccc5F)c5ccc2[nH]5)C=C4)C=C3)cc1
REMARK SMILES IDX 18 1 17 2 16 3 14 4 15 5 13 7 7 8 8 9 9 10 10 11 12 12 11 13
REMARK SMILES IDX 5 14 6 15 4 16 3 17 2 18 1 19 19 20 20 21 21 22 22 23 23 24
REMARK SMILES IDX 24 25 25 27 26 28 27 29 79 30 28 31 78 32 29 33 30 34 31 35
REMARK SMILES IDX 72 36 32 37 77 38 71 39 73 40 33 41 76 42 70 43 69 44 34 46
REMARK SMILES IDX 60 47 43 48 59 49 44 50 47 51 58 52 74 53 45 54 46 55 57 57
REMARK SMILES IDX 75 58 48 59 35 60 36 61 41 62 37 63 38 64 40 65 42 66 39 67
REMARK SMILES IDX 61 68 62 69 67 70 63 71 64 72 66 73 68 74 65 75 49 76 50 77
REMARK SMILES IDX 55 78 51 79 52 80 54 81 56 82 53 83
REMARK H PARENT 16 6 23 26 73 45 47 56
REMARK Flexibility Score: inf
ROOT
ATOM      1  C   UNL A   1      34.787  31.590  28.487  1.00  0.00     0.021 C 
ENDROOT
BRANCH   1   2
ATOM      2  C   UNL A   1      33.612  31.259  27.569  1.00  0.00     0.116 C 
BRANCH   2   3
ATOM      3  N   UNL A   1      33.226  29.863  27.514  1.00  0.00    -0.354 N 
ATOM      4  C   UNL A   1      33.461  28.945  26.522  1.00  0.00     0.242 C 
ATOM      5  O   UNL A   1      34.053  27.919  26.879  1.00  0.00    -0.273 OA
ATOM      6  H   UNL A   1      32.728  29.528  28.295  1.00  0.00     0.163 HD
BRANCH   4   7
ATOM      7  C   UNL A   1      32.959  29.088  25.042  1.00  0.00     0.174 C 
ATOM      8  N   UNL A   1      31.593  28.644  24.673  1.00  0.00    -0.328 N 
ATOM      9  C   UNL A   1      31.401  27.228  24.444  1.00  0.00     0.082 C 
ATOM     10  C   UNL A   1      30.705  26.538  25.617  1.00  0.00     0.031 C 
ATOM     11  C   UNL A   1      32.630  26.553  23.797  1.00  0.00     0.025 C 
ATOM     12  C   UNL A   1      34.014  28.641  24.015  1.00  0.00     0.035 C 
ATOM     13  C   UNL A   1      33.497  27.570  23.058  1.00  0.00     0.005 C 
BRANCH   8  14
ATOM     14  C   UNL A   1      30.692  29.536  24.076  1.00  0.00     0.224 C 
ATOM     15  O   UNL A   1      30.333  30.575  24.634  1.00  0.00    -0.275 OA
BRANCH  14  16
ATOM     16  C   UNL A   1      30.109  29.170  22.697  1.00  0.00     0.111 C 
BRANCH  16  17
ATOM     17  C   UNL A   1      28.599  29.363  22.468  1.00  0.00     0.079 C 
BRANCH  17  18
ATOM     18  S   UNL A   1      28.105  30.678  21.260  1.00  0.00    -0.165 SA
ATOM     19  C   UNL A   1      28.791  32.174  22.043  1.00  0.00     0.085 C 
ENDBRANCH  17  18
ENDBRANCH  16  17
ENDBRANCH  14  16
ENDBRANCH   8  14
ENDBRANCH   4   7
ENDBRANCH   2   3
ENDBRANCH   1   2
BRANCH   1  20
ATOM     20  C   UNL A   1      34.493  32.795  29.393  1.00  0.00     0.002 C 
BRANCH  20  21
ATOM     21  C   UNL A   1      34.664  34.183  28.758  1.00  0.00     0.002 C 
BRANCH  21  22
ATOM     22  C   UNL A   1      33.432  35.089  28.770  1.00  0.00     0.021 C 
BRANCH  22  23
ATOM     23  C   UNL A   1      33.490  36.263  29.745  1.00  0.00     0.116 C 
BRANCH  23  24
ATOM     24  N   UNL A   1      32.498  36.168  30.806  1.00  0.00    -0.352 N 
ATOM     25  C   UNL A   1      32.538  35.498  32.003  1.00  0.00     0.251 C 
ATOM     26  H   UNL A   1      31.664  36.663  30.637  1.00  0.00     0.163 HD
ATOM     27  O   UNL A   1      31.529  35.407  32.690  1.00  0.00    -0.269 OA
BRANCH  25  28
ATOM     28  C   UNL A   1      33.797  34.876  32.459  1.00  0.00     0.039 A 
ATOM     29  C   UNL A   1      33.758  33.584  32.990  1.00  0.00     0.014 A 
ATOM     30  C   UNL A   1      35.007  35.570  32.385  1.00  0.00     0.014 A 
ATOM     31  C   UNL A   1      34.943  32.965  33.390  1.00  0.00     0.010 A 
ATOM     32  C   UNL A   1      36.195  34.925  32.709  1.00  0.00     0.010 A 
ATOM     33  C   UNL A   1      36.175  33.619  33.221  1.00  0.00    -0.014 A 
BRANCH  33  34
ATOM     34  C   UNL A   1      37.452  32.958  33.582  1.00  0.00     0.031 A 
ATOM     35  C   UNL A   1      38.036  31.907  32.679  1.00  0.00     0.074 A 
ATOM     36  C   UNL A   1      38.052  33.260  34.750  1.00  0.00     0.049 A 
ATOM     37  N   UNL A   1      39.091  31.154  32.860  1.00  0.00    -0.248 NA
ATOM     38  C   UNL A   1      37.324  31.648  31.416  1.00  0.00     0.031 C 
ATOM     39  C   UNL A   1      37.558  34.230  35.729  1.00  0.00     0.029 A 
ATOM     40  N   UNL A   1      39.201  32.771  35.318  1.00  0.00    -0.354 N 
ATOM     41  C   UNL A   1      39.168  30.337  31.738  1.00  0.00     0.074 A 
ATOM     42  C   UNL A   1      38.017  30.635  30.917  1.00  0.00     0.031 C 
ATOM     43  C   UNL A   1      38.405  34.276  36.769  1.00  0.00     0.029 A 
ATOM     44  C   UNL A   1      39.477  33.309  36.553  1.00  0.00     0.049 A 
ATOM     45  H   UNL A   1      39.773  32.098  34.884  1.00  0.00     0.167 HD
ATOM     46  C   UNL A   1      40.129  29.442  31.409  1.00  0.00     0.037 A 
ATOM     47  C   UNL A   1      40.474  33.041  37.418  1.00  0.00     0.037 A 
ATOM     48  C   UNL A   1      41.278  29.155  32.227  1.00  0.00     0.049 A 
ATOM     49  C   UNL A   1      41.510  32.018  37.041  1.00  0.00     0.074 A 
ATOM     50  C   UNL A   1      42.321  28.283  31.972  1.00  0.00     0.029 A 
ATOM     51  N   UNL A   1      41.533  29.736  33.459  1.00  0.00    -0.354 N 
ATOM     52  N   UNL A   1      41.600  31.292  35.952  1.00  0.00    -0.248 NA
ATOM     53  C   UNL A   1      42.590  31.783  38.009  1.00  0.00     0.031 C 
ATOM     54  C   UNL A   1      43.186  28.304  33.071  1.00  0.00     0.029 A 
ATOM     55  C   UNL A   1      42.711  29.231  33.985  1.00  0.00     0.049 A 
ATOM     56  H   UNL A   1      40.963  30.409  33.897  1.00  0.00     0.167 HD
ATOM     57  C   UNL A   1      42.760  30.541  36.090  1.00  0.00     0.074 A 
ATOM     58  C   UNL A   1      43.349  30.912  37.359  1.00  0.00     0.031 C 
ATOM     59  C   UNL A   1      43.290  29.624  35.243  1.00  0.00     0.037 A 
BRANCH  46  60
ATOM     60  C   UNL A   1      39.984  28.720  30.100  1.00  0.00     0.057 A 
ATOM     61  C   UNL A   1      40.586  29.199  28.927  1.00  0.00     0.134 A 
ATOM     62  C   UNL A   1      39.274  27.517  30.013  1.00  0.00     0.134 A 
ATOM     63  F   UNL A   1      41.271  30.352  28.936  1.00  0.00    -0.206 F 
ATOM     64  C   UNL A   1      40.467  28.519  27.713  1.00  0.00     0.040 A 
ATOM     65  C   UNL A   1      39.173  26.813  28.812  1.00  0.00     0.040 A 
ATOM     66  F   UNL A   1      38.677  26.999  31.098  1.00  0.00    -0.206 F 
ATOM     67  C   UNL A   1      39.765  27.317  27.657  1.00  0.00     0.006 A 
ENDBRANCH  46  60
BRANCH  47  68
ATOM     68  C   UNL A   1      40.543  33.747  38.724  1.00  0.00     0.057 A 
ATOM     69  C   UNL A   1      41.412  34.826  38.921  1.00  0.00     0.134 A 
ATOM     70  C   UNL A   1      39.767  33.339  39.816  1.00  0.00     0.134 A 
ATOM     71  F   UNL A   1      42.194  35.256  37.920  1.00  0.00    -0.206 F 
ATOM     72  C   UNL A   1      41.532  35.452  40.163  1.00  0.00     0.040 A 
ATOM     73  C   UNL A   1      39.854  33.975  41.055  1.00  0.00     0.040 A 
ATOM     74  F   UNL A   1      38.905  32.318  39.691  1.00  0.00    -0.206 F 
ATOM     75  C   UNL A   1      40.749  35.027  41.235  1.00  0.00     0.006 A 
ENDBRANCH  47  68
BRANCH  59  76
ATOM     76  C   UNL A   1      44.595  28.996  35.639  1.00  0.00     0.057 A 
ATOM     77  C   UNL A   1      44.653  27.807  36.379  1.00  0.00     0.134 A 
ATOM     78  C   UNL A   1      45.809  29.569  35.239  1.00  0.00     0.134 A 
ATOM     79  F   UNL A   1      43.526  27.215  36.804  1.00  0.00    -0.206 F 
ATOM     80  C   UNL A   1      45.873  27.226  36.728  1.00  0.00     0.040 A 
ATOM     81  C   UNL A   1      47.034  28.980  35.554  1.00  0.00     0.040 A 
ATOM     82  F   UNL A   1      45.824  30.701  34.520  1.00  0.00    -0.206 F 
ATOM     83  C   UNL A   1      47.068  27.809  36.308  1.00  0.00     0.006 A 
ENDBRANCH  59  76
ENDBRANCH  33  34
ENDBRANCH  25  28
ENDBRANCH  23  24
ENDBRANCH  22  23
ENDBRANCH  21  22
ENDBRANCH  20  21
ENDBRANCH   1  20
TORSDOF 17
ENDMDL
