MODEL 1
REMARK VINA RESULT:     -11.0      0.000      0.000
REMARK SMILES O=C(NCCCCCCNC(=O)[C@@]1(Cl)C[C@@H]2CC[C@H]1C2)c1ccc(-c2c3nc(c(-c4c(F)cccc4F)c4ccc([nH]4)c(-c4c(F)cccc4F)c4nc(c(-c5c(F)cccc5F)c5ccc2[nH]5)C=C4)C=C3)cc1
REMARK SMILES IDX 5 1 4 2 3 3 1 4 2 5 21 7 22 8 74 9 23 10 73 11 24 12 25 13
REMARK SMILES IDX 26 14 67 15 27 16 72 17 66 18 68 19 28 20 71 21 65 22 64 23
REMARK SMILES IDX 29 25 55 26 38 27 54 28 39 29 42 30 53 31 69 32 40 33 41 34
REMARK SMILES IDX 52 36 70 37 43 38 30 39 31 40 36 41 32 42 33 43 35 44 37 45
REMARK SMILES IDX 34 46 56 47 57 48 62 49 58 50 59 51 61 52 63 53 60 54 44 55
REMARK SMILES IDX 45 56 50 57 46 58 47 59 49 60 51 61 48 62 6 63 7 64 8 65
REMARK SMILES IDX 9 66 10 67 11 68 12 70 13 71 15 72 19 73 14 74 16 75 18 76
REMARK SMILES IDX 20 77 17 78
REMARK H PARENT 3 6 68 24 42 35 10 69
REMARK Flexibility Score: inf
ROOT
ATOM      1  C   UNL A   1      31.365  31.938  26.506  1.00  0.00     0.021 C 
ENDROOT
BRANCH   1   2
ATOM      2  C   UNL A   1      32.589  32.638  27.075  1.00  0.00     0.116 C 
BRANCH   2   3
ATOM      3  N   UNL A   1      32.323  33.983  27.549  1.00  0.00    -0.352 N 
ATOM      4  O   UNL A   1      32.604  35.823  28.827  1.00  0.00    -0.269 OA
ATOM      5  C   UNL A   1      33.022  34.729  28.472  1.00  0.00     0.251 C 
ATOM      6  H   UNL A   1      31.533  34.422  27.158  1.00  0.00     0.163 HD
BRANCH   5   7
ATOM      7  C   UNL A   1      34.268  34.186  29.062  1.00  0.00     0.039 A 
ATOM      8  C   UNL A   1      35.517  34.554  28.563  1.00  0.00     0.014 A 
ATOM      9  C   UNL A   1      34.181  33.288  30.131  1.00  0.00     0.014 A 
ATOM     10  C   UNL A   1      36.661  33.911  29.020  1.00  0.00     0.010 A 
ATOM     11  C   UNL A   1      35.342  32.713  30.657  1.00  0.00     0.010 A 
ATOM     12  C   UNL A   1      36.591  32.996  30.086  1.00  0.00    -0.014 A 
BRANCH  12  13
ATOM     13  C   UNL A   1      37.855  32.422  30.615  1.00  0.00     0.031 A 
ATOM     14  C   UNL A   1      38.489  32.932  31.878  1.00  0.00     0.074 A 
ATOM     15  C   UNL A   1      38.396  31.373  29.963  1.00  0.00     0.049 A 
ATOM     16  N   UNL A   1      39.544  32.477  32.509  1.00  0.00    -0.248 NA
ATOM     17  C   UNL A   1      37.872  34.105  32.515  1.00  0.00     0.031 C 
ATOM     18  C   UNL A   1      37.887  30.810  28.710  1.00  0.00     0.029 A 
ATOM     19  N   UNL A   1      39.465  30.575  30.274  1.00  0.00    -0.354 N 
ATOM     20  C   UNL A   1      39.722  33.308  33.606  1.00  0.00     0.074 A 
ATOM     21  C   UNL A   1      38.684  34.315  33.543  1.00  0.00     0.031 C 
ATOM     22  C   UNL A   1      38.602  29.722  28.394  1.00  0.00     0.029 A 
ATOM     23  C   UNL A   1      39.653  29.542  29.386  1.00  0.00     0.049 A 
ATOM     24  H   UNL A   1      40.042  30.725  31.058  1.00  0.00     0.167 HD
ATOM     25  C   UNL A   1      40.660  33.232  34.582  1.00  0.00     0.037 A 
ATOM     26  C   UNL A   1      40.572  28.561  29.368  1.00  0.00     0.037 A 
ATOM     27  C   UNL A   1      41.690  32.225  34.644  1.00  0.00     0.049 A 
ATOM     28  C   UNL A   1      41.588  28.495  30.468  1.00  0.00     0.074 A 
ATOM     29  C   UNL A   1      42.681  32.062  35.597  1.00  0.00     0.029 A 
ATOM     30  N   UNL A   1      41.859  31.208  33.717  1.00  0.00    -0.354 N 
ATOM     31  N   UNL A   1      41.728  29.277  31.511  1.00  0.00    -0.248 NA
ATOM     32  C   UNL A   1      42.576  27.411  30.388  1.00  0.00     0.031 C 
ATOM     33  C   UNL A   1      43.468  30.964  35.230  1.00  0.00     0.029 A 
ATOM     34  C   UNL A   1      42.944  30.419  34.069  1.00  0.00     0.049 A 
ATOM     35  H   UNL A   1      41.292  31.067  32.924  1.00  0.00     0.167 HD
ATOM     36  C   UNL A   1      42.818  28.783  32.210  1.00  0.00     0.074 A 
ATOM     37  C   UNL A   1      43.279  27.611  31.495  1.00  0.00     0.031 C 
ATOM     38  C   UNL A   1      43.395  29.264  33.339  1.00  0.00     0.037 A 
BRANCH  25  39
ATOM     39  C   UNL A   1      40.624  34.269  35.668  1.00  0.00     0.057 A 
ATOM     40  C   UNL A   1      41.323  35.477  35.555  1.00  0.00     0.134 A 
ATOM     41  C   UNL A   1      39.833  34.084  36.809  1.00  0.00     0.134 A 
ATOM     42  F   UNL A   1      42.107  35.712  34.492  1.00  0.00    -0.206 F 
ATOM     43  C   UNL A   1      41.247  36.460  36.544  1.00  0.00     0.040 A 
ATOM     44  C   UNL A   1      39.733  35.068  37.795  1.00  0.00     0.040 A 
ATOM     45  F   UNL A   1      39.132  32.953  36.977  1.00  0.00    -0.206 F 
ATOM     46  C   UNL A   1      40.444  36.260  37.665  1.00  0.00     0.006 A 
ENDBRANCH  25  39
BRANCH  26  47
ATOM     47  C   UNL A   1      40.568  27.569  28.265  1.00  0.00     0.057 A 
ATOM     48  C   UNL A   1      39.866  26.365  28.371  1.00  0.00     0.134 A 
ATOM     49  C   UNL A   1      41.258  27.813  27.070  1.00  0.00     0.134 A 
ATOM     50  F   UNL A   1      39.199  26.068  29.497  1.00  0.00    -0.206 F 
ATOM     51  C   UNL A   1      39.862  25.429  27.336  1.00  0.00     0.040 A 
ATOM     52  C   UNL A   1      41.239  26.901  26.016  1.00  0.00     0.040 A 
ATOM     53  F   UNL A   1      41.940  28.956  26.904  1.00  0.00    -0.206 F 
ATOM     54  C   UNL A   1      40.544  25.700  26.151  1.00  0.00     0.006 A 
ENDBRANCH  26  47
BRANCH  38  55
ATOM     55  C   UNL A   1      44.584  28.513  33.856  1.00  0.00     0.057 A 
ATOM     56  C   UNL A   1      45.888  28.842  33.465  1.00  0.00     0.134 A 
ATOM     57  C   UNL A   1      44.424  27.450  34.753  1.00  0.00     0.134 A 
ATOM     58  F   UNL A   1      46.104  29.842  32.595  1.00  0.00    -0.206 F 
ATOM     59  C   UNL A   1      46.990  28.120  33.922  1.00  0.00     0.040 A 
ATOM     60  C   UNL A   1      45.521  26.735  35.236  1.00  0.00     0.040 A 
ATOM     61  F   UNL A   1      43.202  27.087  35.171  1.00  0.00    -0.206 F 
ATOM     62  C   UNL A   1      46.808  27.065  34.813  1.00  0.00     0.006 A 
ENDBRANCH  38  55
ENDBRANCH  12  13
ENDBRANCH   5   7
ENDBRANCH   2   3
ENDBRANCH   1   2
BRANCH   1  63
ATOM     63  C   UNL A   1      31.545  30.468  26.132  1.00  0.00     0.002 C 
BRANCH  63  64
ATOM     64  C   UNL A   1      32.292  29.586  27.136  1.00  0.00     0.002 C 
BRANCH  64  65
ATOM     65  C   UNL A   1      31.650  28.243  27.495  1.00  0.00     0.021 C 
BRANCH  65  66
ATOM     66  C   UNL A   1      31.351  27.304  26.333  1.00  0.00     0.116 C 
BRANCH  66  67
ATOM     67  N   UNL A   1      31.124  25.936  26.747  1.00  0.00    -0.355 N 
ATOM     68  C   UNL A   1      31.755  24.755  26.511  1.00  0.00     0.241 C 
ATOM     69  H   UNL A   1      30.335  25.838  27.329  1.00  0.00     0.163 HD
ATOM     70  O   UNL A   1      31.441  23.870  27.323  1.00  0.00    -0.273 OA
BRANCH  68  71
ATOM     71  C   UNL A   1      32.814  24.479  25.396  1.00  0.00     0.126 C 
ATOM     72  C   UNL A   1      34.059  25.383  25.316  1.00  0.00     0.037 C 
ATOM     73  C   UNL A   1      33.436  23.050  25.511  1.00  0.00     0.020 C 
ATOM     74  Cl  UNL A   1      31.895  24.673  23.832  1.00  0.00    -0.108 Cl
ATOM     75  C   UNL A   1      35.225  24.378  25.465  1.00  0.00    -0.009 C 
ATOM     76  C   UNL A   1      34.163  22.616  24.217  1.00  0.00     0.006 C 
ATOM     77  C   UNL A   1      34.666  23.295  26.388  1.00  0.00     0.009 C 
ATOM     78  C   UNL A   1      35.353  23.590  24.145  1.00  0.00     0.004 C 
ENDBRANCH  68  71
ENDBRANCH  66  67
ENDBRANCH  65  66
ENDBRANCH  64  65
ENDBRANCH  63  64
ENDBRANCH   1  63
TORSDOF 13
ENDMDL
MODEL 2
REMARK VINA RESULT:     -10.9      2.181      6.994
REMARK SMILES O=C(NCCCCCCNC(=O)[C@@]1(Cl)C[C@@H]2CC[C@H]1C2)c1ccc(-c2c3nc(c(-c4c(F)cccc4F)c4ccc([nH]4)c(-c4c(F)cccc4F)c4nc(c(-c5c(F)cccc5F)c5ccc2[nH]5)C=C4)C=C3)cc1
REMARK SMILES IDX 5 1 4 2 3 3 1 4 2 5 21 7 22 8 74 9 23 10 73 11 24 12 25 13
REMARK SMILES IDX 26 14 67 15 27 16 72 17 66 18 68 19 28 20 71 21 65 22 64 23
REMARK SMILES IDX 29 25 55 26 38 27 54 28 39 29 42 30 53 31 69 32 40 33 41 34
REMARK SMILES IDX 52 36 70 37 43 38 30 39 31 40 36 41 32 42 33 43 35 44 37 45
REMARK SMILES IDX 34 46 56 47 57 48 62 49 58 50 59 51 61 52 63 53 60 54 44 55
REMARK SMILES IDX 45 56 50 57 46 58 47 59 49 60 51 61 48 62 6 63 7 64 8 65
REMARK SMILES IDX 9 66 10 67 11 68 12 70 13 71 15 72 19 73 14 74 16 75 18 76
REMARK SMILES IDX 20 77 17 78
REMARK H PARENT 3 6 68 24 42 35 10 69
REMARK Flexibility Score: inf
ROOT
ATOM      1  C   UNL A   1      33.330  34.590  28.960  1.00  0.00     0.021 C 
ENDROOT
BRANCH   1   2
ATOM      2  C   UNL A   1      33.368  36.047  29.392  1.00  0.00     0.116 C 
BRANCH   2   3
ATOM      3  N   UNL A   1      32.448  36.361  30.468  1.00  0.00    -0.352 N 
ATOM      4  O   UNL A   1      31.585  36.258  32.552  1.00  0.00    -0.269 OA
ATOM      5  C   UNL A   1      32.500  35.977  31.790  1.00  0.00     0.251 C 
ATOM      6  H   UNL A   1      31.681  36.925  30.220  1.00  0.00     0.163 HD
BRANCH   5   7
ATOM      7  C   UNL A   1      33.656  35.189  32.281  1.00  0.00     0.039 A 
ATOM      8  C   UNL A   1      34.940  35.734  32.295  1.00  0.00     0.014 A 
ATOM      9  C   UNL A   1      33.447  33.881  32.729  1.00  0.00     0.014 A 
ATOM     10  C   UNL A   1      36.029  34.927  32.603  1.00  0.00     0.010 A 
ATOM     11  C   UNL A   1      34.534  33.099  33.132  1.00  0.00     0.010 A 
ATOM     12  C   UNL A   1      35.839  33.605  33.044  1.00  0.00    -0.014 A 
BRANCH  12  13
ATOM     13  C   UNL A   1      37.026  32.820  33.471  1.00  0.00     0.031 A 
ATOM     14  C   UNL A   1      37.654  31.786  32.581  1.00  0.00     0.074 A 
ATOM     15  C   UNL A   1      37.576  33.105  34.668  1.00  0.00     0.049 A 
ATOM     16  N   UNL A   1      38.741  31.081  32.780  1.00  0.00    -0.248 NA
ATOM     17  C   UNL A   1      36.979  31.494  31.307  1.00  0.00     0.031 C 
ATOM     18  C   UNL A   1      37.037  34.068  35.633  1.00  0.00     0.029 A 
ATOM     19  N   UNL A   1      38.720  32.645  35.265  1.00  0.00    -0.354 N 
ATOM     20  C   UNL A   1      38.875  30.261  31.669  1.00  0.00     0.074 A 
ATOM     21  C   UNL A   1      37.743  30.532  30.808  1.00  0.00     0.031 C 
ATOM     22  C   UNL A   1      37.881  34.173  36.668  1.00  0.00     0.029 A 
ATOM     23  C   UNL A   1      38.989  33.247  36.471  1.00  0.00     0.049 A 
ATOM     24  H   UNL A   1      39.295  31.950  34.869  1.00  0.00     0.167 HD
ATOM     25  C   UNL A   1      39.858  29.370  31.388  1.00  0.00     0.037 A 
ATOM     26  C   UNL A   1      40.010  33.072  37.328  1.00  0.00     0.037 A 
ATOM     27  C   UNL A   1      40.987  29.106  32.246  1.00  0.00     0.049 A 
ATOM     28  C   UNL A   1      41.088  32.090  36.984  1.00  0.00     0.074 A 
ATOM     29  C   UNL A   1      42.037  28.226  32.044  1.00  0.00     0.029 A 
ATOM     30  N   UNL A   1      41.213  29.722  33.467  1.00  0.00    -0.354 N 
ATOM     31  N   UNL A   1      41.210  31.338  35.917  1.00  0.00    -0.248 NA
ATOM     32  C   UNL A   1      42.171  31.930  37.964  1.00  0.00     0.031 C 
ATOM     33  C   UNL A   1      42.883  28.289  33.158  1.00  0.00     0.029 A 
ATOM     34  C   UNL A   1      42.381  29.236  34.035  1.00  0.00     0.049 A 
ATOM     35  H   UNL A   1      40.630  30.405  33.872  1.00  0.00     0.167 HD
ATOM     36  C   UNL A   1      42.379  30.615  36.096  1.00  0.00     0.074 A 
ATOM     37  C   UNL A   1      42.951  31.046  37.356  1.00  0.00     0.031 C 
ATOM     38  C   UNL A   1      42.927  29.668  35.295  1.00  0.00     0.037 A 
BRANCH  25  39
ATOM     39  C   UNL A   1      39.761  28.607  30.099  1.00  0.00     0.057 A 
ATOM     40  C   UNL A   1      40.353  29.076  28.919  1.00  0.00     0.134 A 
ATOM     41  C   UNL A   1      39.122  27.361  30.049  1.00  0.00     0.134 A 
ATOM     42  F   UNL A   1      40.971  30.267  28.897  1.00  0.00    -0.206 F 
ATOM     43  C   UNL A   1      40.303  28.340  27.734  1.00  0.00     0.040 A 
ATOM     44  C   UNL A   1      39.084  26.606  28.875  1.00  0.00     0.040 A 
ATOM     45  F   UNL A   1      38.540  26.850  31.144  1.00  0.00    -0.206 F 
ATOM     46  C   UNL A   1      39.675  27.097  27.711  1.00  0.00     0.006 A 
ENDBRANCH  25  39
BRANCH  26  47
ATOM     47  C   UNL A   1      40.049  33.846  38.593  1.00  0.00     0.057 A 
ATOM     48  C   UNL A   1      39.330  33.436  39.720  1.00  0.00     0.134 A 
ATOM     49  C   UNL A   1      40.821  35.010  38.706  1.00  0.00     0.134 A 
ATOM     50  F   UNL A   1      38.561  32.338  39.667  1.00  0.00    -0.206 F 
ATOM     51  C   UNL A   1      39.362  34.163  40.910  1.00  0.00     0.040 A 
ATOM     52  C   UNL A   1      40.886  35.730  39.898  1.00  0.00     0.040 A 
ATOM     53  F   UNL A   1      41.543  35.447  37.664  1.00  0.00    -0.206 F 
ATOM     54  C   UNL A   1      40.148  35.311  41.004  1.00  0.00     0.006 A 
ENDBRANCH  26  47
BRANCH  38  55
ATOM     55  C   UNL A   1      44.205  29.046  35.769  1.00  0.00     0.057 A 
ATOM     56  C   UNL A   1      45.453  29.581  35.425  1.00  0.00     0.134 A 
ATOM     57  C   UNL A   1      44.189  27.901  36.575  1.00  0.00     0.134 A 
ATOM     58  F   UNL A   1      45.534  30.668  34.642  1.00  0.00    -0.206 F 
ATOM     59  C   UNL A   1      46.642  28.981  35.839  1.00  0.00     0.040 A 
ATOM     60  C   UNL A   1      45.372  27.306  37.015  1.00  0.00     0.040 A 
ATOM     61  F   UNL A   1      43.026  27.343  36.944  1.00  0.00    -0.206 F 
ATOM     62  C   UNL A   1      46.602  27.841  36.640  1.00  0.00     0.006 A 
ENDBRANCH  38  55
ENDBRANCH  12  13
ENDBRANCH   5   7
ENDBRANCH   2   3
ENDBRANCH   1   2
BRANCH   1  63
ATOM     63  C   UNL A   1      34.682  33.896  28.816  1.00  0.00     0.002 C 
BRANCH  63  64
ATOM     64  C   UNL A   1      34.662  32.385  28.567  1.00  0.00     0.002 C 
BRANCH  64  65
ATOM     65  C   UNL A   1      33.535  31.840  27.685  1.00  0.00     0.021 C 
BRANCH  65  66
ATOM     66  C   UNL A   1      33.675  30.394  27.225  1.00  0.00     0.116 C 
BRANCH  66  67
ATOM     67  N   UNL A   1      32.563  29.558  27.620  1.00  0.00    -0.355 N 
ATOM     68  C   UNL A   1      32.033  28.397  27.150  1.00  0.00     0.241 C 
ATOM     69  H   UNL A   1      32.081  29.907  28.404  1.00  0.00     0.163 HD
ATOM     70  O   UNL A   1      31.294  27.836  27.974  1.00  0.00    -0.273 OA
BRANCH  68  71
ATOM     71  C   UNL A   1      32.320  27.746  25.759  1.00  0.00     0.126 C 
ATOM     72  C   UNL A   1      33.781  27.616  25.288  1.00  0.00     0.037 C 
ATOM     73  C   UNL A   1      31.802  26.274  25.676  1.00  0.00     0.020 C 
ATOM     74  Cl  UNL A   1      31.452  28.818  24.563  1.00  0.00    -0.108 Cl
ATOM     75  C   UNL A   1      33.938  26.094  25.064  1.00  0.00    -0.009 C 
ATOM     76  C   UNL A   1      31.709  25.762  24.219  1.00  0.00     0.006 C 
ATOM     77  C   UNL A   1      33.025  25.468  26.119  1.00  0.00     0.009 C 
ATOM     78  C   UNL A   1      33.182  25.717  23.774  1.00  0.00     0.004 C 
ENDBRANCH  68  71
ENDBRANCH  66  67
ENDBRANCH  65  66
ENDBRANCH  64  65
ENDBRANCH  63  64
ENDBRANCH   1  63
TORSDOF 13
ENDMDL
MODEL 3
REMARK VINA RESULT:     -10.8      0.760      1.736
REMARK SMILES O=C(NCCCCCCNC(=O)[C@@]1(Cl)C[C@@H]2CC[C@H]1C2)c1ccc(-c2c3nc(c(-c4c(F)cccc4F)c4ccc([nH]4)c(-c4c(F)cccc4F)c4nc(c(-c5c(F)cccc5F)c5ccc2[nH]5)C=C4)C=C3)cc1
REMARK SMILES IDX 5 1 4 2 3 3 1 4 2 5 21 7 22 8 74 9 23 10 73 11 24 12 25 13
REMARK SMILES IDX 26 14 67 15 27 16 72 17 66 18 68 19 28 20 71 21 65 22 64 23
REMARK SMILES IDX 29 25 55 26 38 27 54 28 39 29 42 30 53 31 69 32 40 33 41 34
REMARK SMILES IDX 52 36 70 37 43 38 30 39 31 40 36 41 32 42 33 43 35 44 37 45
REMARK SMILES IDX 34 46 56 47 57 48 62 49 58 50 59 51 61 52 63 53 60 54 44 55
REMARK SMILES IDX 45 56 50 57 46 58 47 59 49 60 51 61 48 62 6 63 7 64 8 65
REMARK SMILES IDX 9 66 10 67 11 68 12 70 13 71 15 72 19 73 14 74 16 75 18 76
REMARK SMILES IDX 20 77 17 78
REMARK H PARENT 3 6 68 24 42 35 10 69
REMARK Flexibility Score: inf
ROOT
ATOM      1  C   UNL A   1      31.406  31.958  26.604  1.00  0.00     0.021 C 
ENDROOT
BRANCH   1   2
ATOM      2  C   UNL A   1      32.641  32.708  27.076  1.00  0.00     0.116 C 
BRANCH   2   3
ATOM      3  N   UNL A   1      32.357  34.031  27.598  1.00  0.00    -0.352 N 
ATOM      4  O   UNL A   1      32.614  35.829  28.939  1.00  0.00    -0.269 OA
ATOM      5  C   UNL A   1      33.047  34.755  28.544  1.00  0.00     0.251 C 
ATOM      6  H   UNL A   1      31.560  34.472  27.224  1.00  0.00     0.163 HD
BRANCH   5   7
ATOM      7  C   UNL A   1      34.303  34.210  29.112  1.00  0.00     0.039 A 
ATOM      8  C   UNL A   1      35.539  34.512  28.539  1.00  0.00     0.014 A 
ATOM      9  C   UNL A   1      34.239  33.378  30.235  1.00  0.00     0.014 A 
ATOM     10  C   UNL A   1      36.684  33.863  28.985  1.00  0.00     0.010 A 
ATOM     11  C   UNL A   1      35.406  32.800  30.744  1.00  0.00     0.010 A 
ATOM     12  C   UNL A   1      36.636  33.013  30.104  1.00  0.00    -0.014 A 
BRANCH  12  13
ATOM     13  C   UNL A   1      37.906  32.433  30.612  1.00  0.00     0.031 A 
ATOM     14  C   UNL A   1      38.568  32.947  31.859  1.00  0.00     0.074 A 
ATOM     15  C   UNL A   1      38.427  31.377  29.957  1.00  0.00     0.049 A 
ATOM     16  N   UNL A   1      39.632  32.489  32.472  1.00  0.00    -0.248 NA
ATOM     17  C   UNL A   1      37.972  34.128  32.501  1.00  0.00     0.031 C 
ATOM     18  C   UNL A   1      37.889  30.809  28.717  1.00  0.00     0.029 A 
ATOM     19  N   UNL A   1      39.496  30.573  30.252  1.00  0.00    -0.354 N 
ATOM     20  C   UNL A   1      39.838  33.326  33.561  1.00  0.00     0.074 A 
ATOM     21  C   UNL A   1      38.805  34.339  33.511  1.00  0.00     0.031 C 
ATOM     22  C   UNL A   1      38.590  29.714  28.394  1.00  0.00     0.029 A 
ATOM     23  C   UNL A   1      39.659  29.533  29.367  1.00  0.00     0.049 A 
ATOM     24  H   UNL A   1      40.090  30.724  31.023  1.00  0.00     0.167 HD
ATOM     25  C   UNL A   1      40.794  33.249  34.518  1.00  0.00     0.037 A 
ATOM     26  C   UNL A   1      40.572  28.545  29.337  1.00  0.00     0.037 A 
ATOM     27  C   UNL A   1      41.818  32.235  34.567  1.00  0.00     0.049 A 
ATOM     28  C   UNL A   1      41.608  28.480  30.417  1.00  0.00     0.074 A 
ATOM     29  C   UNL A   1      42.827  32.071  35.501  1.00  0.00     0.029 A 
ATOM     30  N   UNL A   1      41.962  31.211  33.643  1.00  0.00    -0.354 N 
ATOM     31  N   UNL A   1      41.774  29.267  31.452  1.00  0.00    -0.248 NA
ATOM     32  C   UNL A   1      42.587  27.388  30.325  1.00  0.00     0.031 C 
ATOM     33  C   UNL A   1      43.599  30.965  35.125  1.00  0.00     0.029 A 
ATOM     34  C   UNL A   1      43.048  30.417  33.979  1.00  0.00     0.049 A 
ATOM     35  H   UNL A   1      41.379  31.069  32.862  1.00  0.00     0.167 HD
ATOM     36  C   UNL A   1      42.874  28.770  32.133  1.00  0.00     0.074 A 
ATOM     37  C   UNL A   1      43.313  27.590  31.417  1.00  0.00     0.031 C 
ATOM     38  C   UNL A   1      43.477  29.254  33.247  1.00  0.00     0.037 A 
BRANCH  25  39
ATOM     39  C   UNL A   1      40.786  34.293  35.598  1.00  0.00     0.057 A 
ATOM     40  C   UNL A   1      41.445  35.519  35.441  1.00  0.00     0.134 A 
ATOM     41  C   UNL A   1      40.062  34.096  36.780  1.00  0.00     0.134 A 
ATOM     42  F   UNL A   1      42.166  35.766  34.337  1.00  0.00    -0.206 F 
ATOM     43  C   UNL A   1      41.395  36.506  36.426  1.00  0.00     0.040 A 
ATOM     44  C   UNL A   1      39.987  35.084  37.764  1.00  0.00     0.040 A 
ATOM     45  F   UNL A   1      39.403  32.947  36.992  1.00  0.00    -0.206 F 
ATOM     46  C   UNL A   1      40.657  36.294  37.589  1.00  0.00     0.006 A 
ENDBRANCH  25  39
BRANCH  26  47
ATOM     47  C   UNL A   1      40.539  27.547  28.241  1.00  0.00     0.057 A 
ATOM     48  C   UNL A   1      41.217  27.765  27.038  1.00  0.00     0.134 A 
ATOM     49  C   UNL A   1      39.835  26.343  28.378  1.00  0.00     0.134 A 
ATOM     50  F   UNL A   1      41.895  28.906  26.841  1.00  0.00    -0.206 F 
ATOM     51  C   UNL A   1      41.185  26.830  26.002  1.00  0.00     0.040 A 
ATOM     52  C   UNL A   1      39.819  25.387  27.364  1.00  0.00     0.040 A 
ATOM     53  F   UNL A   1      39.174  26.072  29.513  1.00  0.00    -0.206 F 
ATOM     54  C   UNL A   1      40.491  25.632  26.168  1.00  0.00     0.006 A 
ENDBRANCH  26  47
BRANCH  38  55
ATOM     55  C   UNL A   1      44.671  28.498  33.746  1.00  0.00     0.057 A 
ATOM     56  C   UNL A   1      44.540  27.431  34.644  1.00  0.00     0.134 A 
ATOM     57  C   UNL A   1      45.961  28.840  33.326  1.00  0.00     0.134 A 
ATOM     58  F   UNL A   1      43.329  27.066  35.095  1.00  0.00    -0.206 F 
ATOM     59  C   UNL A   1      45.655  26.750  35.133  1.00  0.00     0.040 A 
ATOM     60  C   UNL A   1      47.083  28.151  33.790  1.00  0.00     0.040 A 
ATOM     61  F   UNL A   1      46.154  29.849  32.464  1.00  0.00    -0.206 F 
ATOM     62  C   UNL A   1      46.931  27.108  34.703  1.00  0.00     0.006 A 
ENDBRANCH  38  55
ENDBRANCH  12  13
ENDBRANCH   5   7
ENDBRANCH   2   3
ENDBRANCH   1   2
BRANCH   1  63
ATOM     63  C   UNL A   1      31.629  30.521  26.140  1.00  0.00     0.002 C 
BRANCH  63  64
ATOM     64  C   UNL A   1      32.234  29.550  27.157  1.00  0.00     0.002 C 
BRANCH  64  65
ATOM     65  C   UNL A   1      31.516  28.213  27.358  1.00  0.00     0.021 C 
BRANCH  65  66
ATOM     66  C   UNL A   1      31.930  27.077  26.430  1.00  0.00     0.116 C 
BRANCH  66  67
ATOM     67  N   UNL A   1      31.392  25.793  26.823  1.00  0.00    -0.355 N 
ATOM     68  C   UNL A   1      31.650  24.506  26.467  1.00  0.00     0.241 C 
ATOM     69  H   UNL A   1      30.680  25.867  27.499  1.00  0.00     0.163 HD
ATOM     70  O   UNL A   1      31.206  23.682  27.282  1.00  0.00    -0.273 OA
BRANCH  68  71
ATOM     71  C   UNL A   1      32.459  24.037  25.216  1.00  0.00     0.126 C 
ATOM     72  C   UNL A   1      32.488  22.536  24.871  1.00  0.00     0.037 C 
ATOM     73  C   UNL A   1      31.931  24.682  23.893  1.00  0.00     0.020 C 
ATOM     74  Cl  UNL A   1      34.176  24.554  25.559  1.00  0.00    -0.108 Cl
ATOM     75  C   UNL A   1      31.913  22.500  23.436  1.00  0.00    -0.009 C 
ATOM     76  C   UNL A   1      32.943  24.557  22.730  1.00  0.00     0.006 C 
ATOM     77  C   UNL A   1      30.907  23.652  23.411  1.00  0.00     0.009 C 
ATOM     78  C   UNL A   1      32.989  23.041  22.472  1.00  0.00     0.004 C 
ENDBRANCH  68  71
ENDBRANCH  66  67
ENDBRANCH  65  66
ENDBRANCH  64  65
ENDBRANCH  63  64
ENDBRANCH   1  63
TORSDOF 13
ENDMDL
