MODEL 1
REMARK VINA RESULT:     -11.3      0.000      0.000
REMARK SMILES Cc1ccc(C)c(-n2nc(C)c(/C=C(/C#N)C(=O)NCCCCCCNC(=O)c3ccc(-c4c5nc(c(-c6c(F)cccc6F)c6ccc([nH]6)c(-c6c(F)cccc6F)c6nc(c(-c7c(F)cccc7F)c7ccc4[nH]7)C=C6)C=C5)cc3)c2Cl)c1
REMARK SMILES IDX 22 1 21 2 20 3 19 4 17 5 18 6 14 8 13 9 12 10 8 11 9 12
REMARK SMILES IDX 83 13 10 14 84 15 11 16 7 17 1 18 2 19 3 20 85 21 4 22 5 23
REMARK SMILES IDX 6 24 15 25 16 26 23 27 24 28 25 29 26 30 27 31 28 33 29 34
REMARK SMILES IDX 30 35 82 36 31 37 81 38 32 39 33 40 34 41 75 42 35 43 80 44
REMARK SMILES IDX 74 45 76 46 36 47 79 48 73 49 72 50 37 52 63 53 46 54 62 55
REMARK SMILES IDX 47 56 50 57 61 58 77 59 48 60 49 61 60 63 78 64 51 65 38 66
REMARK SMILES IDX 39 67 44 68 40 69 41 70 43 71 45 72 42 73 64 74 65 75 70 76
REMARK SMILES IDX 66 77 67 78 69 79 71 80 68 81 52 82 53 83 58 84 54 85 55 86
REMARK SMILES IDX 57 87 59 88 56 89
REMARK H PARENT 19 7 26 32 76 51 50 62
REMARK Flexibility Score: inf
ROOT
ATOM      1  C   UNL A   1      37.946  22.630  25.801  1.00  0.00     0.002 C 
ENDROOT
BRANCH   1   2
ATOM      2  C   UNL A   1      36.770  23.234  25.039  1.00  0.00     0.021 C 
BRANCH   2   3
ATOM      3  C   UNL A   1      35.698  23.699  26.018  1.00  0.00     0.116 C 
BRANCH   3   4
ATOM      4  N   UNL A   1      35.270  22.571  26.837  1.00  0.00    -0.351 N 
ATOM      5  C   UNL A   1      33.999  22.074  26.934  1.00  0.00     0.261 C 
ATOM      6  O   UNL A   1      33.460  21.990  28.042  1.00  0.00    -0.268 OA
ATOM      7  H   UNL A   1      35.964  22.122  27.372  1.00  0.00     0.163 HD
BRANCH   5   8
ATOM      8  C   UNL A   1      33.335  21.590  25.694  1.00  0.00     0.117 C 
ATOM      9  C   UNL A   1      32.334  22.221  25.065  1.00  0.00     0.038 C 
BRANCH   9  10
ATOM     10  C   UNL A   1      31.612  23.422  25.414  1.00  0.00     0.036 A 
ATOM     11  N   UNL A   1      31.098  25.602  25.404  1.00  0.00    -0.221 N 
ATOM     12  N   UNL A   1      30.260  25.057  26.310  1.00  0.00    -0.171 NA
ATOM     13  C   UNL A   1      31.912  24.644  24.846  1.00  0.00     0.140 A 
ATOM     14  C   UNL A   1      30.521  23.739  26.293  1.00  0.00     0.069 A 
ATOM     15  Cl  UNL A   1      33.155  25.084  23.748  1.00  0.00    -0.061 Cl
ATOM     16  C   UNL A   1      29.640  22.906  27.157  1.00  0.00     0.069 C 
BRANCH  11  17
ATOM     17  C   UNL A   1      30.995  26.975  25.078  1.00  0.00     0.069 A 
ATOM     18  C   UNL A   1      29.182  29.062  22.444  1.00  0.00     0.044 C 
ATOM     19  C   UNL A   1      30.058  28.667  23.595  1.00  0.00    -0.049 A 
ATOM     20  C   UNL A   1      30.792  29.639  24.280  1.00  0.00     0.004 A 
ATOM     21  C   UNL A   1      30.164  27.333  23.999  1.00  0.00     0.032 A 
ATOM     22  C   UNL A   1      31.601  29.288  25.364  1.00  0.00     0.006 A 
ATOM     23  C   UNL A   1      31.711  27.953  25.791  1.00  0.00    -0.025 A 
ATOM     24  C   UNL A   1      32.666  27.669  26.918  1.00  0.00     0.047 C 
ENDBRANCH  11  17
ENDBRANCH   9  10
BRANCH   8  25
ATOM     25  C   UNL A   1      34.099  20.386  25.163  1.00  0.00     0.105 C 
ATOM     26  N   UNL A   1      34.732  19.389  24.722  1.00  0.00    -0.192 NA
ENDBRANCH   8  25
ENDBRANCH   5   8
ENDBRANCH   3   4
ENDBRANCH   2   3
ENDBRANCH   1   2
BRANCH   1  27
ATOM     27  C   UNL A   1      38.260  21.170  25.407  1.00  0.00     0.002 C 
BRANCH  27  28
ATOM     28  C   UNL A   1      39.620  20.620  25.879  1.00  0.00     0.021 C 
BRANCH  28  29
ATOM     29  C   UNL A   1      40.277  21.543  26.877  1.00  0.00     0.116 C 
BRANCH  29  30
ATOM     30  N   UNL A   1      41.603  22.015  26.451  1.00  0.00    -0.352 N 
ATOM     31  C   UNL A   1      42.023  23.307  26.204  1.00  0.00     0.251 C 
ATOM     32  H   UNL A   1      42.284  21.315  26.325  1.00  0.00     0.163 HD
ATOM     33  O   UNL A   1      43.005  23.517  25.461  1.00  0.00    -0.269 OA
BRANCH  31  34
ATOM     34  C   UNL A   1      41.385  24.421  26.933  1.00  0.00     0.039 A 
ATOM     35  C   UNL A   1      40.398  25.265  26.425  1.00  0.00     0.014 A 
ATOM     36  C   UNL A   1      42.131  24.974  27.947  1.00  0.00     0.014 A 
ATOM     37  C   UNL A   1      40.371  26.607  26.926  1.00  0.00     0.010 A 
ATOM     38  C   UNL A   1      41.537  25.869  28.753  1.00  0.00     0.010 A 
ATOM     39  C   UNL A   1      41.209  26.971  28.019  1.00  0.00    -0.014 A 
BRANCH  39  40
ATOM     40  C   UNL A   1      41.152  28.206  28.853  1.00  0.00     0.031 A 
ATOM     41  C   UNL A   1      42.356  28.999  28.392  1.00  0.00     0.074 A 
ATOM     42  C   UNL A   1      40.167  28.643  29.724  1.00  0.00     0.049 A 
ATOM     43  N   UNL A   1      43.553  28.773  28.844  1.00  0.00    -0.248 NA
ATOM     44  C   UNL A   1      42.412  29.681  27.063  1.00  0.00     0.031 C 
ATOM     45  C   UNL A   1      38.862  28.060  30.119  1.00  0.00     0.029 A 
ATOM     46  N   UNL A   1      40.154  29.786  30.540  1.00  0.00    -0.354 N 
ATOM     47  C   UNL A   1      44.373  29.645  28.142  1.00  0.00     0.074 A 
ATOM     48  C   UNL A   1      43.732  29.828  26.884  1.00  0.00     0.031 C 
ATOM     49  C   UNL A   1      38.106  28.953  30.831  1.00  0.00     0.029 A 
ATOM     50  C   UNL A   1      38.879  30.152  31.105  1.00  0.00     0.049 A 
ATOM     51  H   UNL A   1      40.969  30.309  30.717  1.00  0.00     0.167 HD
ATOM     52  C   UNL A   1      45.156  30.502  28.856  1.00  0.00     0.037 A 
ATOM     53  C   UNL A   1      38.560  31.272  31.864  1.00  0.00     0.037 A 
ATOM     54  C   UNL A   1      45.205  30.035  30.228  1.00  0.00     0.049 A 
ATOM     55  C   UNL A   1      39.843  31.821  32.377  1.00  0.00     0.074 A 
ATOM     56  C   UNL A   1      45.603  28.873  30.859  1.00  0.00     0.029 A 
ATOM     57  N   UNL A   1      44.250  30.609  31.022  1.00  0.00    -0.354 N 
ATOM     58  N   UNL A   1      40.582  31.171  33.232  1.00  0.00    -0.248 NA
ATOM     59  C   UNL A   1      40.528  32.705  31.446  1.00  0.00     0.031 C 
ATOM     60  C   UNL A   1      44.622  28.629  31.868  1.00  0.00     0.029 A 
ATOM     61  C   UNL A   1      43.784  29.737  31.959  1.00  0.00     0.049 A 
ATOM     62  H   UNL A   1      43.938  31.539  30.929  1.00  0.00     0.167 HD
ATOM     63  C   UNL A   1      41.807  31.108  32.595  1.00  0.00     0.074 A 
ATOM     64  C   UNL A   1      41.702  32.069  31.480  1.00  0.00     0.031 C 
ATOM     65  C   UNL A   1      42.638  30.039  32.780  1.00  0.00     0.037 A 
BRANCH  52  66
ATOM     66  C   UNL A   1      45.355  31.975  28.522  1.00  0.00     0.057 A 
ATOM     67  C   UNL A   1      46.676  32.463  28.477  1.00  0.00     0.134 A 
ATOM     68  C   UNL A   1      44.363  32.981  28.516  1.00  0.00     0.134 A 
ATOM     69  F   UNL A   1      47.719  31.619  28.500  1.00  0.00    -0.206 F 
ATOM     70  C   UNL A   1      46.982  33.830  28.484  1.00  0.00     0.040 A 
ATOM     71  C   UNL A   1      44.657  34.349  28.481  1.00  0.00     0.040 A 
ATOM     72  F   UNL A   1      43.057  32.725  28.632  1.00  0.00    -0.206 F 
ATOM     73  C   UNL A   1      45.972  34.780  28.486  1.00  0.00     0.006 A 
ENDBRANCH  52  66
BRANCH  53  74
ATOM     74  C   UNL A   1      37.349  32.190  31.907  1.00  0.00     0.057 A 
ATOM     75  C   UNL A   1      36.723  32.771  30.766  1.00  0.00     0.134 A 
ATOM     76  C   UNL A   1      36.562  32.217  33.064  1.00  0.00     0.134 A 
ATOM     77  F   UNL A   1      37.331  32.769  29.569  1.00  0.00    -0.206 F 
ATOM     78  C   UNL A   1      35.412  33.312  30.791  1.00  0.00     0.040 A 
ATOM     79  C   UNL A   1      35.255  32.735  33.097  1.00  0.00     0.040 A 
ATOM     80  F   UNL A   1      37.007  31.642  34.188  1.00  0.00    -0.206 F 
ATOM     81  C   UNL A   1      34.666  33.277  31.962  1.00  0.00     0.006 A 
ENDBRANCH  53  74
BRANCH  65  82
ATOM     82  C   UNL A   1      42.344  29.073  33.897  1.00  0.00     0.057 A 
ATOM     83  C   UNL A   1      41.593  27.890  33.798  1.00  0.00     0.134 A 
ATOM     84  C   UNL A   1      43.017  29.294  35.102  1.00  0.00     0.134 A 
ATOM     85  F   UNL A   1      41.008  27.530  32.648  1.00  0.00    -0.206 F 
ATOM     86  C   UNL A   1      41.483  26.999  34.879  1.00  0.00     0.040 A 
ATOM     87  C   UNL A   1      42.944  28.401  36.169  1.00  0.00     0.040 A 
ATOM     88  F   UNL A   1      43.815  30.364  35.236  1.00  0.00    -0.206 F 
ATOM     89  C   UNL A   1      42.161  27.258  36.068  1.00  0.00     0.006 A 
ENDBRANCH  65  82
ENDBRANCH  39  40
ENDBRANCH  31  34
ENDBRANCH  29  30
ENDBRANCH  28  29
ENDBRANCH  27  28
ENDBRANCH   1  27
TORSDOF 16
ENDMDL
MODEL 2
REMARK VINA RESULT:     -10.9      3.863      8.721
REMARK SMILES Cc1ccc(C)c(-n2nc(C)c(/C=C(/C#N)C(=O)NCCCCCCNC(=O)c3ccc(-c4c5nc(c(-c6c(F)cccc6F)c6ccc([nH]6)c(-c6c(F)cccc6F)c6nc(c(-c7c(F)cccc7F)c7ccc4[nH]7)C=C6)C=C5)cc3)c2Cl)c1
REMARK SMILES IDX 22 1 21 2 20 3 19 4 17 5 18 6 14 8 13 9 12 10 8 11 9 12
REMARK SMILES IDX 83 13 10 14 84 15 11 16 7 17 1 18 2 19 3 20 85 21 4 22 5 23
REMARK SMILES IDX 6 24 15 25 16 26 23 27 24 28 25 29 26 30 27 31 28 33 29 34
REMARK SMILES IDX 30 35 82 36 31 37 81 38 32 39 33 40 34 41 75 42 35 43 80 44
REMARK SMILES IDX 74 45 76 46 36 47 79 48 73 49 72 50 37 52 63 53 46 54 62 55
REMARK SMILES IDX 47 56 50 57 61 58 77 59 48 60 49 61 60 63 78 64 51 65 38 66
REMARK SMILES IDX 39 67 44 68 40 69 41 70 43 71 45 72 42 73 64 74 65 75 70 76
REMARK SMILES IDX 66 77 67 78 69 79 71 80 68 81 52 82 53 83 58 84 54 85 55 86
REMARK SMILES IDX 57 87 59 88 56 89
REMARK H PARENT 19 7 26 32 76 51 50 62
REMARK Flexibility Score: inf
ROOT
ATOM      1  C   UNL A   1      34.479  29.573  27.646  1.00  0.00     0.002 C 
ENDROOT
BRANCH   1   2
ATOM      2  C   UNL A   1      33.410  29.686  26.563  1.00  0.00     0.021 C 
BRANCH   2   3
ATOM      3  C   UNL A   1      33.632  28.616  25.500  1.00  0.00     0.116 C 
BRANCH   3   4
ATOM      4  N   UNL A   1      33.538  29.223  24.178  1.00  0.00    -0.351 N 
ATOM      5  C   UNL A   1      33.099  28.615  23.034  1.00  0.00     0.261 C 
ATOM      6  O   UNL A   1      33.829  28.590  22.038  1.00  0.00    -0.268 OA
ATOM      7  H   UNL A   1      33.817  30.165  24.101  1.00  0.00     0.163 HD
BRANCH   5   8
ATOM      8  C   UNL A   1      31.720  28.058  23.015  1.00  0.00     0.117 C 
ATOM      9  C   UNL A   1      31.420  26.760  22.871  1.00  0.00     0.038 C 
BRANCH   9  10
ATOM     10  C   UNL A   1      32.272  25.618  22.635  1.00  0.00     0.036 A 
ATOM     11  N   UNL A   1      33.576  23.872  23.147  1.00  0.00    -0.221 N 
ATOM     12  N   UNL A   1      33.628  23.954  21.801  1.00  0.00    -0.171 NA
ATOM     13  C   UNL A   1      32.763  24.850  23.671  1.00  0.00     0.140 A 
ATOM     14  C   UNL A   1      32.811  24.968  21.473  1.00  0.00     0.069 A 
ATOM     15  Cl  UNL A   1      32.613  25.046  25.368  1.00  0.00    -0.061 Cl
ATOM     16  C   UNL A   1      32.631  25.191  20.012  1.00  0.00     0.069 C 
BRANCH  11  17
ATOM     17  C   UNL A   1      34.232  22.812  23.818  1.00  0.00     0.069 A 
ATOM     18  C   UNL A   1      37.732  22.158  25.196  1.00  0.00     0.044 C 
ATOM     19  C   UNL A   1      36.297  21.974  24.805  1.00  0.00    -0.049 A 
ATOM     20  C   UNL A   1      35.656  20.757  25.053  1.00  0.00     0.004 A 
ATOM     21  C   UNL A   1      35.578  23.000  24.185  1.00  0.00     0.032 A 
ATOM     22  C   UNL A   1      34.314  20.576  24.708  1.00  0.00     0.006 A 
ATOM     23  C   UNL A   1      33.573  21.600  24.094  1.00  0.00    -0.025 A 
ATOM     24  C   UNL A   1      32.159  21.280  23.693  1.00  0.00     0.047 C 
ENDBRANCH  11  17
ENDBRANCH   9  10
BRANCH   8  25
ATOM     25  C   UNL A   1      30.738  29.161  23.380  1.00  0.00     0.105 C 
ATOM     26  N   UNL A   1      29.923  30.075  23.682  1.00  0.00    -0.192 NA
ENDBRANCH   8  25
ENDBRANCH   5   8
ENDBRANCH   3   4
ENDBRANCH   2   3
ENDBRANCH   1   2
BRANCH   1  27
ATOM     27  C   UNL A   1      35.144  30.920  28.008  1.00  0.00     0.002 C 
BRANCH  27  28
ATOM     28  C   UNL A   1      34.304  32.183  27.738  1.00  0.00     0.021 C 
BRANCH  28  29
ATOM     29  C   UNL A   1      35.094  33.443  27.997  1.00  0.00     0.116 C 
BRANCH  29  30
ATOM     30  N   UNL A   1      34.592  34.223  29.139  1.00  0.00    -0.352 N 
ATOM     31  C   UNL A   1      34.575  33.884  30.477  1.00  0.00     0.251 C 
ATOM     32  H   UNL A   1      34.219  35.107  28.919  1.00  0.00     0.163 HD
ATOM     33  O   UNL A   1      33.761  34.428  31.252  1.00  0.00    -0.269 OA
BRANCH  31  34
ATOM     34  C   UNL A   1      35.614  32.976  31.001  1.00  0.00     0.039 A 
ATOM     35  C   UNL A   1      35.385  31.732  31.589  1.00  0.00     0.014 A 
ATOM     36  C   UNL A   1      36.787  33.577  31.395  1.00  0.00     0.014 A 
ATOM     37  C   UNL A   1      36.315  31.308  32.594  1.00  0.00     0.010 A 
ATOM     38  C   UNL A   1      37.825  32.788  31.715  1.00  0.00     0.010 A 
ATOM     39  C   UNL A   1      37.501  32.063  32.824  1.00  0.00    -0.014 A 
BRANCH  39  40
ATOM     40  C   UNL A   1      38.704  31.672  33.613  1.00  0.00     0.031 A 
ATOM     41  C   UNL A   1      38.683  32.626  34.788  1.00  0.00     0.074 A 
ATOM     42  C   UNL A   1      39.563  30.597  33.446  1.00  0.00     0.049 A 
ATOM     43  N   UNL A   1      39.152  33.835  34.710  1.00  0.00    -0.248 NA
ATOM     44  C   UNL A   1      37.692  32.513  35.901  1.00  0.00     0.031 C 
ATOM     45  C   UNL A   1      39.585  29.489  32.460  1.00  0.00     0.029 A 
ATOM     46  N   UNL A   1      40.722  30.272  34.169  1.00  0.00    -0.354 N 
ATOM     47  C   UNL A   1      38.893  34.402  35.950  1.00  0.00     0.074 A 
ATOM     48  C   UNL A   1      37.718  33.748  36.420  1.00  0.00     0.031 C 
ATOM     49  C   UNL A   1      40.480  28.516  32.816  1.00  0.00     0.029 A 
ATOM     50  C   UNL A   1      41.240  28.939  33.979  1.00  0.00     0.049 A 
ATOM     51  H   UNL A   1      41.157  30.917  34.772  1.00  0.00     0.167 HD
ATOM     52  C   UNL A   1      39.942  34.922  36.648  1.00  0.00     0.037 A 
ATOM     53  C   UNL A   1      42.306  28.327  34.629  1.00  0.00     0.037 A 
ATOM     54  C   UNL A   1      41.058  35.078  35.736  1.00  0.00     0.049 A 
ATOM     55  C   UNL A   1      43.113  29.412  35.246  1.00  0.00     0.074 A 
ATOM     56  C   UNL A   1      41.280  35.765  34.558  1.00  0.00     0.029 A 
ATOM     57  N   UNL A   1      41.897  33.997  35.728  1.00  0.00    -0.354 N 
ATOM     58  N   UNL A   1      43.758  30.288  34.528  1.00  0.00    -0.248 NA
ATOM     59  C   UNL A   1      42.630  29.847  36.547  1.00  0.00     0.031 C 
ATOM     60  C   UNL A   1      42.028  34.873  33.730  1.00  0.00     0.029 A 
ATOM     61  C   UNL A   1      42.412  33.769  34.488  1.00  0.00     0.049 A 
ATOM     62  H   UNL A   1      42.104  33.450  36.521  1.00  0.00     0.167 HD
ATOM     63  C   UNL A   1      43.274  31.493  35.003  1.00  0.00     0.074 A 
ATOM     64  C   UNL A   1      42.564  31.148  36.250  1.00  0.00     0.031 C 
ATOM     65  C   UNL A   1      43.160  32.576  34.178  1.00  0.00     0.037 A 
BRANCH  52  66
ATOM     66  C   UNL A   1      40.170  34.726  38.141  1.00  0.00     0.057 A 
ATOM     67  C   UNL A   1      40.503  35.860  38.906  1.00  0.00     0.134 A 
ATOM     68  C   UNL A   1      40.356  33.496  38.812  1.00  0.00     0.134 A 
ATOM     69  F   UNL A   1      40.397  37.093  38.386  1.00  0.00    -0.206 F 
ATOM     70  C   UNL A   1      41.027  35.776  40.203  1.00  0.00     0.040 A 
ATOM     71  C   UNL A   1      40.840  33.403  40.123  1.00  0.00     0.040 A 
ATOM     72  F   UNL A   1      40.171  32.307  38.233  1.00  0.00    -0.206 F 
ATOM     73  C   UNL A   1      41.198  34.545  40.817  1.00  0.00     0.006 A 
ENDBRANCH  52  66
BRANCH  53  74
ATOM     74  C   UNL A   1      42.538  26.915  35.142  1.00  0.00     0.057 A 
ATOM     75  C   UNL A   1      41.772  26.280  36.162  1.00  0.00     0.134 A 
ATOM     76  C   UNL A   1      43.302  26.033  34.370  1.00  0.00     0.134 A 
ATOM     77  F   UNL A   1      40.947  26.988  36.949  1.00  0.00    -0.206 F 
ATOM     78  C   UNL A   1      41.766  24.876  36.368  1.00  0.00     0.040 A 
ATOM     79  C   UNL A   1      43.290  24.637  34.553  1.00  0.00     0.040 A 
ATOM     80  F   UNL A   1      44.014  26.495  33.335  1.00  0.00    -0.206 F 
ATOM     81  C   UNL A   1      42.517  24.048  35.544  1.00  0.00     0.006 A 
ENDBRANCH  53  74
BRANCH  65  82
ATOM     82  C   UNL A   1      43.827  32.537  32.829  1.00  0.00     0.057 A 
ATOM     83  C   UNL A   1      43.229  32.163  31.614  1.00  0.00     0.134 A 
ATOM     84  C   UNL A   1      45.114  33.079  32.757  1.00  0.00     0.134 A 
ATOM     85  F   UNL A   1      41.958  31.744  31.564  1.00  0.00    -0.206 F 
ATOM     86  C   UNL A   1      43.913  32.281  30.393  1.00  0.00     0.040 A 
ATOM     87  C   UNL A   1      45.790  33.233  31.550  1.00  0.00     0.040 A 
ATOM     88  F   UNL A   1      45.713  33.530  33.871  1.00  0.00    -0.206 F 
ATOM     89  C   UNL A   1      45.199  32.816  30.363  1.00  0.00     0.006 A 
ENDBRANCH  65  82
ENDBRANCH  39  40
ENDBRANCH  31  34
ENDBRANCH  29  30
ENDBRANCH  28  29
ENDBRANCH  27  28
ENDBRANCH   1  27
TORSDOF 16
ENDMDL
MODEL 3
REMARK VINA RESULT:     -10.9      2.948      8.238
REMARK SMILES Cc1ccc(C)c(-n2nc(C)c(/C=C(/C#N)C(=O)NCCCCCCNC(=O)c3ccc(-c4c5nc(c(-c6c(F)cccc6F)c6ccc([nH]6)c(-c6c(F)cccc6F)c6nc(c(-c7c(F)cccc7F)c7ccc4[nH]7)C=C6)C=C5)cc3)c2Cl)c1
REMARK SMILES IDX 22 1 21 2 20 3 19 4 17 5 18 6 14 8 13 9 12 10 8 11 9 12
REMARK SMILES IDX 83 13 10 14 84 15 11 16 7 17 1 18 2 19 3 20 85 21 4 22 5 23
REMARK SMILES IDX 6 24 15 25 16 26 23 27 24 28 25 29 26 30 27 31 28 33 29 34
REMARK SMILES IDX 30 35 82 36 31 37 81 38 32 39 33 40 34 41 75 42 35 43 80 44
REMARK SMILES IDX 74 45 76 46 36 47 79 48 73 49 72 50 37 52 63 53 46 54 62 55
REMARK SMILES IDX 47 56 50 57 61 58 77 59 48 60 49 61 60 63 78 64 51 65 38 66
REMARK SMILES IDX 39 67 44 68 40 69 41 70 43 71 45 72 42 73 64 74 65 75 70 76
REMARK SMILES IDX 66 77 67 78 69 79 71 80 68 81 52 82 53 83 58 84 54 85 55 86
REMARK SMILES IDX 57 87 59 88 56 89
REMARK H PARENT 19 7 26 32 76 51 50 62
REMARK Flexibility Score: inf
ROOT
ATOM      1  C   UNL A   1      34.734  29.006  27.233  1.00  0.00     0.002 C 
ENDROOT
BRANCH   1   2
ATOM      2  C   UNL A   1      33.309  29.070  26.691  1.00  0.00     0.021 C 
BRANCH   2   3
ATOM      3  C   UNL A   1      33.191  28.219  25.432  1.00  0.00     0.116 C 
BRANCH   3   4
ATOM      4  N   UNL A   1      33.109  29.090  24.267  1.00  0.00    -0.351 N 
ATOM      5  C   UNL A   1      32.672  28.739  23.019  1.00  0.00     0.261 C 
ATOM      6  O   UNL A   1      33.407  28.916  22.043  1.00  0.00    -0.268 OA
ATOM      7  H   UNL A   1      33.397  30.024  24.390  1.00  0.00     0.163 HD
BRANCH   5   8
ATOM      8  C   UNL A   1      31.288  28.211  22.880  1.00  0.00     0.117 C 
ATOM      9  C   UNL A   1      30.977  26.924  22.667  1.00  0.00     0.038 C 
BRANCH   9  10
ATOM     10  C   UNL A   1      31.825  25.774  22.453  1.00  0.00     0.036 A 
ATOM     11  N   UNL A   1      32.993  23.940  22.987  1.00  0.00    -0.221 N 
ATOM     12  N   UNL A   1      33.245  24.137  21.675  1.00  0.00    -0.171 NA
ATOM     13  C   UNL A   1      32.138  24.901  23.475  1.00  0.00     0.140 A 
ATOM     14  C   UNL A   1      32.511  25.206  21.327  1.00  0.00     0.069 A 
ATOM     15  Cl  UNL A   1      31.745  24.955  25.144  1.00  0.00    -0.061 Cl
ATOM     16  C   UNL A   1      32.554  25.562  19.881  1.00  0.00     0.069 C 
BRANCH  11  17
ATOM     17  C   UNL A   1      33.515  22.802  23.646  1.00  0.00     0.069 A 
ATOM     18  C   UNL A   1      32.518  19.137  24.042  1.00  0.00     0.044 C 
ATOM     19  C   UNL A   1      33.254  20.437  24.175  1.00  0.00    -0.049 A 
ATOM     20  C   UNL A   1      34.392  20.517  24.982  1.00  0.00     0.004 A 
ATOM     21  C   UNL A   1      32.818  21.586  23.508  1.00  0.00     0.032 A 
ATOM     22  C   UNL A   1      35.097  21.718  25.102  1.00  0.00     0.006 A 
ATOM     23  C   UNL A   1      34.679  22.880  24.431  1.00  0.00    -0.025 A 
ATOM     24  C   UNL A   1      35.461  24.139  24.687  1.00  0.00     0.047 C 
ENDBRANCH  11  17
ENDBRANCH   9  10
BRANCH   8  25
ATOM     25  C   UNL A   1      30.301  29.320  23.211  1.00  0.00     0.105 C 
ATOM     26  N   UNL A   1      29.483  30.239  23.485  1.00  0.00    -0.192 NA
ENDBRANCH   8  25
ENDBRANCH   5   8
ENDBRANCH   3   4
ENDBRANCH   2   3
ENDBRANCH   1   2
BRANCH   1  27
ATOM     27  C   UNL A   1      35.384  30.392  27.440  1.00  0.00     0.002 C 
BRANCH  27  28
ATOM     28  C   UNL A   1      34.460  31.498  27.984  1.00  0.00     0.021 C 
BRANCH  28  29
ATOM     29  C   UNL A   1      35.213  32.785  28.224  1.00  0.00     0.116 C 
BRANCH  29  30
ATOM     30  N   UNL A   1      35.437  33.075  29.648  1.00  0.00    -0.352 N 
ATOM     31  C   UNL A   1      35.854  32.221  30.649  1.00  0.00     0.251 C 
ATOM     32  H   UNL A   1      35.267  34.004  29.925  1.00  0.00     0.163 HD
ATOM     33  O   UNL A   1      35.595  32.479  31.843  1.00  0.00    -0.269 OA
BRANCH  31  34
ATOM     34  C   UNL A   1      36.722  31.078  30.303  1.00  0.00     0.039 A 
ATOM     35  C   UNL A   1      36.499  29.750  30.664  1.00  0.00     0.014 A 
ATOM     36  C   UNL A   1      38.043  31.383  30.066  1.00  0.00     0.014 A 
ATOM     37  C   UNL A   1      37.657  28.927  30.857  1.00  0.00     0.010 A 
ATOM     38  C   UNL A   1      38.837  30.416  29.580  1.00  0.00     0.010 A 
ATOM     39  C   UNL A   1      38.945  29.426  30.512  1.00  0.00    -0.014 A 
BRANCH  39  40
ATOM     40  C   UNL A   1      40.224  28.669  30.383  1.00  0.00     0.031 A 
ATOM     41  C   UNL A   1      40.776  28.664  31.792  1.00  0.00     0.074 A 
ATOM     42  C   UNL A   1      40.737  27.974  29.299  1.00  0.00     0.049 A 
ATOM     43  N   UNL A   1      41.442  29.666  32.281  1.00  0.00    -0.248 NA
ATOM     44  C   UNL A   1      40.185  27.836  32.887  1.00  0.00     0.031 C 
ATOM     45  C   UNL A   1      40.212  27.742  27.931  1.00  0.00     0.029 A 
ATOM     46  N   UNL A   1      41.967  27.308  29.179  1.00  0.00    -0.354 N 
ATOM     47  C   UNL A   1      41.713  29.311  33.595  1.00  0.00     0.074 A 
ATOM     48  C   UNL A   1      40.635  28.465  33.982  1.00  0.00     0.031 C 
ATOM     49  C   UNL A   1      40.945  26.796  27.264  1.00  0.00     0.029 A 
ATOM     50  C   UNL A   1      42.103  26.416  28.055  1.00  0.00     0.049 A 
ATOM     51  H   UNL A   1      42.697  27.442  29.827  1.00  0.00     0.167 HD
ATOM     52  C   UNL A   1      43.013  29.310  34.003  1.00  0.00     0.037 A 
ATOM     53  C   UNL A   1      43.163  25.570  27.747  1.00  0.00     0.037 A 
ATOM     54  C   UNL A   1      43.793  30.049  33.030  1.00  0.00     0.049 A 
ATOM     55  C   UNL A   1      44.335  26.050  28.527  1.00  0.00     0.074 A 
ATOM     56  C   UNL A   1      43.775  31.333  32.521  1.00  0.00     0.029 A 
ATOM     57  N   UNL A   1      44.337  29.248  32.062  1.00  0.00    -0.354 N 
ATOM     58  N   UNL A   1      44.893  27.205  28.297  1.00  0.00    -0.248 NA
ATOM     59  C   UNL A   1      44.389  25.546  29.890  1.00  0.00     0.031 C 
ATOM     60  C   UNL A   1      44.017  31.194  31.121  1.00  0.00     0.029 A 
ATOM     61  C   UNL A   1      44.375  29.875  30.854  1.00  0.00     0.049 A 
ATOM     62  H   UNL A   1      44.661  28.331  32.219  1.00  0.00     0.167 HD
ATOM     63  C   UNL A   1      44.851  27.819  29.535  1.00  0.00     0.074 A 
ATOM     64  C   UNL A   1      44.512  26.738  30.480  1.00  0.00     0.031 C 
ATOM     65  C   UNL A   1      44.716  29.175  29.640  1.00  0.00     0.037 A 
BRANCH  52  66
ATOM     66  C   UNL A   1      43.652  28.223  34.858  1.00  0.00     0.057 A 
ATOM     67  C   UNL A   1      44.442  28.629  35.950  1.00  0.00     0.134 A 
ATOM     68  C   UNL A   1      43.771  26.854  34.530  1.00  0.00     0.134 A 
ATOM     69  F   UNL A   1      44.445  29.908  36.355  1.00  0.00    -0.206 F 
ATOM     70  C   UNL A   1      45.317  27.763  36.620  1.00  0.00     0.040 A 
ATOM     71  C   UNL A   1      44.611  25.970  35.220  1.00  0.00     0.040 A 
ATOM     72  F   UNL A   1      43.164  26.293  33.482  1.00  0.00    -0.206 F 
ATOM     73  C   UNL A   1      45.404  26.428  36.256  1.00  0.00     0.006 A 
ENDBRANCH  52  66
BRANCH  53  74
ATOM     74  C   UNL A   1      43.239  24.161  27.180  1.00  0.00     0.057 A 
ATOM     75  C   UNL A   1      42.697  23.000  27.803  1.00  0.00     0.134 A 
ATOM     76  C   UNL A   1      43.537  23.995  25.823  1.00  0.00     0.134 A 
ATOM     77  F   UNL A   1      42.310  23.022  29.088  1.00  0.00    -0.206 F 
ATOM     78  C   UNL A   1      42.461  21.786  27.109  1.00  0.00     0.040 A 
ATOM     79  C   UNL A   1      43.291  22.801  25.120  1.00  0.00     0.040 A 
ATOM     80  F   UNL A   1      43.989  25.030  25.106  1.00  0.00    -0.206 F 
ATOM     81  C   UNL A   1      42.743  21.693  25.752  1.00  0.00     0.006 A 
ENDBRANCH  53  74
BRANCH  65  82
ATOM     82  C   UNL A   1      44.902  30.022  28.410  1.00  0.00     0.057 A 
ATOM     83  C   UNL A   1      43.886  30.489  27.559  1.00  0.00     0.134 A 
ATOM     84  C   UNL A   1      46.188  30.523  28.189  1.00  0.00     0.134 A 
ATOM     85  F   UNL A   1      42.603  30.160  27.760  1.00  0.00    -0.206 F 
ATOM     86  C   UNL A   1      44.162  31.376  26.505  1.00  0.00     0.040 A 
ATOM     87  C   UNL A   1      46.469  31.430  27.170  1.00  0.00     0.040 A 
ATOM     88  F   UNL A   1      47.190  30.181  29.014  1.00  0.00    -0.206 F 
ATOM     89  C   UNL A   1      45.459  31.846  26.311  1.00  0.00     0.006 A 
ENDBRANCH  65  82
ENDBRANCH  39  40
ENDBRANCH  31  34
ENDBRANCH  29  30
ENDBRANCH  28  29
ENDBRANCH  27  28
ENDBRANCH   1  27
TORSDOF 16
ENDMDL
