MODEL 1
REMARK VINA RESULT:     -10.6      0.000      0.000
REMARK SMILES CC(C)C[C@@H](NC(=O)Cn1nc(O)ccc1=O)C(=O)NCCCCCCNC(=O)c1ccc(-c2c3nc(c(-c4c(F)cccc4F)c4ccc([nH]4)c(-c4c(F)cccc4F)c4nc(c(-c5c(F)cccc5F)c5ccc2[nH]5)C=C4)C=C3)cc1
REMARK SMILES IDX 22 1 21 2 20 3 18 4 19 5 5 7 4 8 2 9 1 10 3 11 6 12 7 13
REMARK SMILES IDX 8 15 9 16 10 17 11 18 16 19 12 20 15 21 17 22 14 23 13 24
REMARK SMILES IDX 23 26 24 27 25 28 26 29 27 30 28 31 29 33 30 34 31 35 83 36
REMARK SMILES IDX 32 37 82 38 33 39 34 40 35 41 76 42 36 43 81 44 75 45 77 46
REMARK SMILES IDX 37 47 80 48 74 49 73 50 38 52 64 53 47 54 63 55 48 56 51 57
REMARK SMILES IDX 62 58 78 59 49 60 50 61 61 63 79 64 52 65 39 66 40 67 45 68
REMARK SMILES IDX 41 69 42 70 44 71 46 72 43 73 65 74 66 75 71 76 67 77 68 78
REMARK SMILES IDX 70 79 72 80 69 81 53 82 54 83 59 84 55 85 56 86 58 87 60 88
REMARK SMILES IDX 57 89
REMARK H PARENT 20 6 6 14 13 25 27 32 77 51 51 62
REMARK Flexibility Score: inf
ROOT
ATOM      1  C   UNL A   1      33.788  27.418  26.462  1.00  0.00     0.021 C 
ENDROOT
BRANCH   1   2
ATOM      2  C   UNL A   1      32.638  26.673  25.753  1.00  0.00     0.116 C 
BRANCH   2   3
ATOM      3  N   UNL A   1      31.923  25.673  26.531  1.00  0.00    -0.354 N 
ATOM      4  C   UNL A   1      32.096  24.316  26.653  1.00  0.00     0.242 C 
ATOM      5  O   UNL A   1      31.413  23.759  27.522  1.00  0.00    -0.273 OA
ATOM      6  H   UNL A   1      31.180  26.035  27.068  1.00  0.00     0.163 HD
BRANCH   4   7
ATOM      7  C   UNL A   1      33.002  23.442  25.719  1.00  0.00     0.171 C 
BRANCH   7   8
ATOM      8  C   UNL A   1      33.973  22.646  26.617  1.00  0.00     0.038 C 
BRANCH   8   9
ATOM      9  C   UNL A   1      35.469  22.583  26.256  1.00  0.00    -0.015 C 
ATOM     10  C   UNL A   1      35.790  21.433  25.308  1.00  0.00     0.007 C 
ATOM     11  C   UNL A   1      35.853  23.920  25.600  1.00  0.00     0.007 C 
ENDBRANCH   8   9
ENDBRANCH   7   8
BRANCH   7  12
ATOM     12  N   UNL A   1      32.325  22.594  24.737  1.00  0.00    -0.343 N 
ATOM     13  C   UNL A   1      32.543  22.504  23.380  1.00  0.00     0.242 C 
ATOM     14  H   UNL A   1      31.619  22.009  25.094  1.00  0.00     0.164 HD
ATOM     15  O   UNL A   1      32.182  21.464  22.818  1.00  0.00    -0.273 OA
BRANCH  13  16
ATOM     16  C   UNL A   1      33.132  23.676  22.583  1.00  0.00     0.248 C 
BRANCH  16  17
ATOM     17  N   UNL A   1      32.123  24.709  22.445  1.00  0.00    -0.217 N 
ATOM     18  N   UNL A   1      30.967  24.521  23.158  1.00  0.00    -0.131 NA
ATOM     19  C   UNL A   1      32.378  25.841  21.681  1.00  0.00     0.267 A 
ATOM     20  C   UNL A   1      30.253  25.565  23.338  1.00  0.00     0.229 A 
ATOM     21  C   UNL A   1      31.550  27.021  22.019  1.00  0.00     0.079 A 
ATOM     22  O   UNL A   1      33.263  25.942  20.839  1.00  0.00    -0.268 OA
ATOM     23  C   UNL A   1      30.529  26.911  22.869  1.00  0.00     0.075 A 
BRANCH  20  24
ATOM     24  O   UNL A   1      29.168  25.410  24.090  1.00  0.00    -0.492 OA
ATOM     25  H   UNL A   1      29.239  25.434  25.024  1.00  0.00     0.295 HD
ENDBRANCH  20  24
ENDBRANCH  16  17
ENDBRANCH  13  16
ENDBRANCH   7  12
ENDBRANCH   4   7
ENDBRANCH   2   3
ENDBRANCH   1   2
BRANCH   1  26
ATOM     26  C   UNL A   1      33.605  28.777  27.148  1.00  0.00     0.002 C 
BRANCH  26  27
ATOM     27  C   UNL A   1      32.240  29.456  27.226  1.00  0.00     0.002 C 
BRANCH  27  28
ATOM     28  C   UNL A   1      32.093  30.892  26.754  1.00  0.00     0.021 C 
BRANCH  28  29
ATOM     29  C   UNL A   1      33.111  31.829  27.353  1.00  0.00     0.116 C 
BRANCH  29  30
ATOM     30  N   UNL A   1      32.594  33.170  27.625  1.00  0.00    -0.352 N 
ATOM     31  C   UNL A   1      33.168  34.144  28.406  1.00  0.00     0.251 C 
ATOM     32  H   UNL A   1      31.736  33.401  27.200  1.00  0.00     0.163 HD
ATOM     33  O   UNL A   1      32.615  35.218  28.618  1.00  0.00    -0.269 OA
BRANCH  31  34
ATOM     34  C   UNL A   1      34.461  33.819  29.025  1.00  0.00     0.039 A 
ATOM     35  C   UNL A   1      35.624  34.114  28.312  1.00  0.00     0.014 A 
ATOM     36  C   UNL A   1      34.494  33.041  30.182  1.00  0.00     0.014 A 
ATOM     37  C   UNL A   1      36.787  33.445  28.632  1.00  0.00     0.010 A 
ATOM     38  C   UNL A   1      35.708  32.492  30.589  1.00  0.00     0.010 A 
ATOM     39  C   UNL A   1      36.853  32.657  29.794  1.00  0.00    -0.014 A 
BRANCH  39  40
ATOM     40  C   UNL A   1      38.159  32.079  30.179  1.00  0.00     0.031 A 
ATOM     41  C   UNL A   1      39.060  32.766  31.164  1.00  0.00     0.074 A 
ATOM     42  C   UNL A   1      38.497  30.891  29.644  1.00  0.00     0.049 A 
ATOM     43  N   UNL A   1      40.264  32.427  31.549  1.00  0.00    -0.248 NA
ATOM     44  C   UNL A   1      38.555  33.997  31.795  1.00  0.00     0.031 C 
ATOM     45  C   UNL A   1      37.678  30.133  28.690  1.00  0.00     0.029 A 
ATOM     46  N   UNL A   1      39.592  30.096  29.838  1.00  0.00    -0.354 N 
ATOM     47  C   UNL A   1      40.678  33.417  32.429  1.00  0.00     0.074 A 
ATOM     48  C   UNL A   1      39.599  34.378  32.521  1.00  0.00     0.031 C 
ATOM     49  C   UNL A   1      38.259  28.953  28.446  1.00  0.00     0.029 A 
ATOM     50  C   UNL A   1      39.544  28.923  29.126  1.00  0.00     0.049 A 
ATOM     51  H   UNL A   1      40.340  30.340  30.431  1.00  0.00     0.167 HD
ATOM     52  C   UNL A   1      41.856  33.511  33.091  1.00  0.00     0.037 A 
ATOM     53  C   UNL A   1      40.459  27.949  28.992  1.00  0.00     0.037 A 
ATOM     54  C   UNL A   1      42.907  32.528  32.999  1.00  0.00     0.049 A 
ATOM     55  C   UNL A   1      41.772  28.113  29.690  1.00  0.00     0.074 A 
ATOM     56  C   UNL A   1      44.132  32.507  33.644  1.00  0.00     0.029 A 
ATOM     57  N   UNL A   1      42.853  31.387  32.209  1.00  0.00    -0.354 N 
ATOM     58  N   UNL A   1      42.161  29.065  30.502  1.00  0.00    -0.248 NA
ATOM     59  C   UNL A   1      42.782  27.083  29.428  1.00  0.00     0.031 C 
ATOM     60  C   UNL A   1      44.836  31.377  33.209  1.00  0.00     0.029 A 
ATOM     61  C   UNL A   1      44.033  30.670  32.328  1.00  0.00     0.049 A 
ATOM     62  H   UNL A   1      42.089  31.126  31.646  1.00  0.00     0.167 HD
ATOM     63  C   UNL A   1      43.464  28.751  30.853  1.00  0.00     0.074 A 
ATOM     64  C   UNL A   1      43.783  27.501  30.188  1.00  0.00     0.031 C 
ATOM     65  C   UNL A   1      44.326  29.436  31.644  1.00  0.00     0.037 A 
BRANCH  52  66
ATOM     66  C   UNL A   1      42.089  34.730  33.937  1.00  0.00     0.057 A 
ATOM     67  C   UNL A   1      42.651  35.886  33.377  1.00  0.00     0.134 A 
ATOM     68  C   UNL A   1      41.793  34.759  35.306  1.00  0.00     0.134 A 
ATOM     69  F   UNL A   1      42.965  35.928  32.073  1.00  0.00    -0.206 F 
ATOM     70  C   UNL A   1      42.912  37.022  34.146  1.00  0.00     0.040 A 
ATOM     71  C   UNL A   1      42.027  35.898  36.081  1.00  0.00     0.040 A 
ATOM     72  F   UNL A   1      41.241  33.693  35.904  1.00  0.00    -0.206 F 
ATOM     73  C   UNL A   1      42.595  37.032  35.503  1.00  0.00     0.006 A 
ENDBRANCH  52  66
BRANCH  53  74
ATOM     74  C   UNL A   1      40.177  26.779  28.127  1.00  0.00     0.057 A 
ATOM     75  C   UNL A   1      40.705  26.681  26.832  1.00  0.00     0.134 A 
ATOM     76  C   UNL A   1      39.358  25.736  28.570  1.00  0.00     0.134 A 
ATOM     77  F   UNL A   1      41.488  27.656  26.344  1.00  0.00    -0.206 F 
ATOM     78  C   UNL A   1      40.414  25.599  26.003  1.00  0.00     0.040 A 
ATOM     79  C   UNL A   1      39.084  24.631  27.763  1.00  0.00     0.040 A 
ATOM     80  F   UNL A   1      38.834  25.768  29.804  1.00  0.00    -0.206 F 
ATOM     81  C   UNL A   1      39.607  24.564  26.473  1.00  0.00     0.006 A 
ENDBRANCH  53  74
BRANCH  65  82
ATOM     82  C   UNL A   1      45.679  28.823  31.832  1.00  0.00     0.057 A 
ATOM     83  C   UNL A   1      46.740  29.163  30.985  1.00  0.00     0.134 A 
ATOM     84  C   UNL A   1      45.933  27.908  32.863  1.00  0.00     0.134 A 
ATOM     85  F   UNL A   1      46.558  30.030  29.979  1.00  0.00    -0.206 F 
ATOM     86  C   UNL A   1      48.011  28.617  31.159  1.00  0.00     0.040 A 
ATOM     87  C   UNL A   1      47.207  27.378  33.064  1.00  0.00     0.040 A 
ATOM     88  F   UNL A   1      44.962  27.563  33.721  1.00  0.00    -0.206 F 
ATOM     89  C   UNL A   1      48.250  27.730  32.208  1.00  0.00     0.006 A 
ENDBRANCH  65  82
ENDBRANCH  39  40
ENDBRANCH  31  34
ENDBRANCH  29  30
ENDBRANCH  28  29
ENDBRANCH  27  28
ENDBRANCH  26  27
ENDBRANCH   1  26
TORSDOF 19
ENDMDL
MODEL 2
REMARK VINA RESULT:     -10.5      2.196      6.936
REMARK SMILES CC(C)C[C@@H](NC(=O)Cn1nc(O)ccc1=O)C(=O)NCCCCCCNC(=O)c1ccc(-c2c3nc(c(-c4c(F)cccc4F)c4ccc([nH]4)c(-c4c(F)cccc4F)c4nc(c(-c5c(F)cccc5F)c5ccc2[nH]5)C=C4)C=C3)cc1
REMARK SMILES IDX 22 1 21 2 20 3 18 4 19 5 5 7 4 8 2 9 1 10 3 11 6 12 7 13
REMARK SMILES IDX 8 15 9 16 10 17 11 18 16 19 12 20 15 21 17 22 14 23 13 24
REMARK SMILES IDX 23 26 24 27 25 28 26 29 27 30 28 31 29 33 30 34 31 35 83 36
REMARK SMILES IDX 32 37 82 38 33 39 34 40 35 41 76 42 36 43 81 44 75 45 77 46
REMARK SMILES IDX 37 47 80 48 74 49 73 50 38 52 64 53 47 54 63 55 48 56 51 57
REMARK SMILES IDX 62 58 78 59 49 60 50 61 61 63 79 64 52 65 39 66 40 67 45 68
REMARK SMILES IDX 41 69 42 70 44 71 46 72 43 73 65 74 66 75 71 76 67 77 68 78
REMARK SMILES IDX 70 79 72 80 69 81 53 82 54 83 59 84 55 85 56 86 58 87 60 88
REMARK SMILES IDX 57 89
REMARK H PARENT 20 6 6 14 13 25 27 32 77 51 51 62
REMARK Flexibility Score: inf
ROOT
ATOM      1  C   UNL A   1      31.493  28.125  27.051  1.00  0.00     0.021 C 
ENDROOT
BRANCH   1   2
ATOM      2  C   UNL A   1      32.190  26.802  26.673  1.00  0.00     0.116 C 
BRANCH   2   3
ATOM      3  N   UNL A   1      33.059  26.824  25.507  1.00  0.00    -0.354 N 
ATOM      4  C   UNL A   1      32.919  26.281  24.254  1.00  0.00     0.242 C 
ATOM      5  O   UNL A   1      33.775  26.608  23.422  1.00  0.00    -0.273 OA
ATOM      6  H   UNL A   1      33.901  27.319  25.641  1.00  0.00     0.163 HD
BRANCH   4   7
ATOM      7  C   UNL A   1      31.832  25.225  23.852  1.00  0.00     0.171 C 
BRANCH   7   8
ATOM      8  C   UNL A   1      30.688  25.977  23.138  1.00  0.00     0.038 C 
BRANCH   8   9
ATOM      9  C   UNL A   1      29.899  27.063  23.895  1.00  0.00    -0.015 C 
ATOM     10  C   UNL A   1      30.050  28.440  23.259  1.00  0.00     0.007 C 
ATOM     11  C   UNL A   1      28.417  26.652  23.900  1.00  0.00     0.007 C 
ENDBRANCH   8   9
ENDBRANCH   7   8
BRANCH   7  12
ATOM     12  N   UNL A   1      32.286  24.053  23.102  1.00  0.00    -0.343 N 
ATOM     13  C   UNL A   1      32.196  22.723  23.445  1.00  0.00     0.242 C 
ATOM     14  H   UNL A   1      32.714  24.242  22.236  1.00  0.00     0.164 HD
ATOM     15  O   UNL A   1      32.245  21.898  22.525  1.00  0.00    -0.273 OA
BRANCH  13  16
ATOM     16  C   UNL A   1      32.119  22.276  24.911  1.00  0.00     0.248 C 
BRANCH  16  17
ATOM     17  N   UNL A   1      32.812  21.009  25.055  1.00  0.00    -0.217 N 
ATOM     18  N   UNL A   1      32.027  19.884  25.010  1.00  0.00    -0.131 NA
ATOM     19  C   UNL A   1      34.197  20.974  25.159  1.00  0.00     0.267 A 
ATOM     20  C   UNL A   1      32.641  18.792  24.764  1.00  0.00     0.229 A 
ATOM     21  C   UNL A   1      34.819  19.685  24.778  1.00  0.00     0.079 A 
ATOM     22  O   UNL A   1      34.909  21.927  25.455  1.00  0.00    -0.268 OA
ATOM     23  C   UNL A   1      34.063  18.614  24.535  1.00  0.00     0.075 A 
BRANCH  20  24
ATOM     24  O   UNL A   1      31.881  17.708  24.646  1.00  0.00    -0.492 OA
ATOM     25  H   UNL A   1      31.220  17.527  25.285  1.00  0.00     0.295 HD
ENDBRANCH  20  24
ENDBRANCH  16  17
ENDBRANCH  13  16
ENDBRANCH   7  12
ENDBRANCH   4   7
ENDBRANCH   2   3
ENDBRANCH   1   2
BRANCH   1  26
ATOM     26  C   UNL A   1      32.173  29.493  26.919  1.00  0.00     0.002 C 
BRANCH  26  27
ATOM     27  C   UNL A   1      31.560  30.613  26.082  1.00  0.00     0.002 C 
BRANCH  27  28
ATOM     28  C   UNL A   1      31.275  31.957  26.729  1.00  0.00     0.021 C 
BRANCH  28  29
ATOM     29  C   UNL A   1      32.477  32.867  26.777  1.00  0.00     0.116 C 
BRANCH  29  30
ATOM     30  N   UNL A   1      32.266  34.085  27.561  1.00  0.00    -0.352 N 
ATOM     31  C   UNL A   1      33.069  34.584  28.559  1.00  0.00     0.251 C 
ATOM     32  H   UNL A   1      31.458  34.604  27.351  1.00  0.00     0.163 HD
ATOM     33  O   UNL A   1      32.765  35.586  29.198  1.00  0.00    -0.269 OA
BRANCH  31  34
ATOM     34  C   UNL A   1      34.293  33.830  28.864  1.00  0.00     0.039 A 
ATOM     35  C   UNL A   1      34.162  32.578  29.466  1.00  0.00     0.014 A 
ATOM     36  C   UNL A   1      35.533  34.459  28.754  1.00  0.00     0.014 A 
ATOM     37  C   UNL A   1      35.237  32.057  30.155  1.00  0.00     0.010 A 
ATOM     38  C   UNL A   1      36.650  33.848  29.322  1.00  0.00     0.010 A 
ATOM     39  C   UNL A   1      36.501  32.665  30.061  1.00  0.00    -0.014 A 
BRANCH  39  40
ATOM     40  C   UNL A   1      37.655  31.991  30.694  1.00  0.00     0.031 A 
ATOM     41  C   UNL A   1      38.455  30.954  29.961  1.00  0.00     0.074 A 
ATOM     42  C   UNL A   1      37.990  32.369  31.942  1.00  0.00     0.049 A 
ATOM     43  N   UNL A   1      39.447  30.222  30.401  1.00  0.00    -0.248 NA
ATOM     44  C   UNL A   1      38.096  30.693  28.557  1.00  0.00     0.031 C 
ATOM     45  C   UNL A   1      37.285  33.386  32.732  1.00  0.00     0.029 A 
ATOM     46  N   UNL A   1      39.015  31.975  32.757  1.00  0.00    -0.354 N 
ATOM     47  C   UNL A   1      39.802  29.387  29.350  1.00  0.00     0.074 A 
ATOM     48  C   UNL A   1      38.917  29.697  28.247  1.00  0.00     0.031 C 
ATOM     49  C   UNL A   1      37.942  33.590  33.880  1.00  0.00     0.029 A 
ATOM     50  C   UNL A   1      39.038  32.637  33.959  1.00  0.00     0.049 A 
ATOM     51  H   UNL A   1      39.671  31.285  32.506  1.00  0.00     0.167 HD
ATOM     52  C   UNL A   1      40.776  28.446  29.320  1.00  0.00     0.037 A 
ATOM     53  C   UNL A   1      39.824  32.463  35.033  1.00  0.00     0.037 A 
ATOM     54  C   UNL A   1      41.660  28.172  30.425  1.00  0.00     0.049 A 
ATOM     55  C   UNL A   1      40.852  31.376  34.987  1.00  0.00     0.074 A 
ATOM     56  C   UNL A   1      42.699  27.259  30.498  1.00  0.00     0.029 A 
ATOM     57  N   UNL A   1      41.606  28.813  31.656  1.00  0.00    -0.354 N 
ATOM     58  N   UNL A   1      41.164  30.578  33.995  1.00  0.00    -0.248 NA
ATOM     59  C   UNL A   1      41.612  31.146  36.219  1.00  0.00     0.031 C 
ATOM     60  C   UNL A   1      43.243  27.318  31.787  1.00  0.00     0.029 A 
ATOM     61  C   UNL A   1      42.575  28.298  32.503  1.00  0.00     0.049 A 
ATOM     62  H   UNL A   1      40.972  29.529  31.892  1.00  0.00     0.167 HD
ATOM     63  C   UNL A   1      42.162  29.748  34.481  1.00  0.00     0.074 A 
ATOM     64  C   UNL A   1      42.422  30.165  35.846  1.00  0.00     0.031 C 
ATOM     65  C   UNL A   1      42.800  28.726  33.861  1.00  0.00     0.037 A 
BRANCH  52  66
ATOM     66  C   UNL A   1      40.913  27.619  28.073  1.00  0.00     0.057 A 
ATOM     67  C   UNL A   1      40.309  26.357  27.988  1.00  0.00     0.134 A 
ATOM     68  C   UNL A   1      41.663  28.047  26.970  1.00  0.00     0.134 A 
ATOM     69  F   UNL A   1      39.580  25.881  29.008  1.00  0.00    -0.206 F 
ATOM     70  C   UNL A   1      40.449  25.552  26.856  1.00  0.00     0.040 A 
ATOM     71  C   UNL A   1      41.790  27.260  25.821  1.00  0.00     0.040 A 
ATOM     72  F   UNL A   1      42.257  29.250  26.977  1.00  0.00    -0.206 F 
ATOM     73  C   UNL A   1      41.187  26.006  25.765  1.00  0.00     0.006 A 
ENDBRANCH  52  66
BRANCH  53  74
ATOM     74  C   UNL A   1      39.628  33.299  36.241  1.00  0.00     0.057 A 
ATOM     75  C   UNL A   1      40.327  34.500  36.422  1.00  0.00     0.134 A 
ATOM     76  C   UNL A   1      38.746  32.907  37.253  1.00  0.00     0.134 A 
ATOM     77  F   UNL A   1      41.197  34.924  35.493  1.00  0.00    -0.206 F 
ATOM     78  C   UNL A   1      40.171  35.272  37.572  1.00  0.00     0.040 A 
ATOM     79  C   UNL A   1      38.556  33.685  38.395  1.00  0.00     0.040 A 
ATOM     80  F   UNL A   1      38.040  31.773  37.131  1.00  0.00    -0.206 F 
ATOM     81  C   UNL A   1      39.275  34.868  38.561  1.00  0.00     0.006 A 
ENDBRANCH  53  74
BRANCH  65  82
ATOM     82  C   UNL A   1      43.846  28.016  34.665  1.00  0.00     0.057 A 
ATOM     83  C   UNL A   1      43.530  26.855  35.380  1.00  0.00     0.134 A 
ATOM     84  C   UNL A   1      45.168  28.476  34.716  1.00  0.00     0.134 A 
ATOM     85  F   UNL A   1      42.281  26.368  35.371  1.00  0.00    -0.206 F 
ATOM     86  C   UNL A   1      44.497  26.171  36.116  1.00  0.00     0.040 A 
ATOM     87  C   UNL A   1      46.149  27.784  35.426  1.00  0.00     0.040 A 
ATOM     88  F   UNL A   1      45.536  29.570  34.032  1.00  0.00    -0.206 F 
ATOM     89  C   UNL A   1      45.813  26.630  36.131  1.00  0.00     0.006 A 
ENDBRANCH  65  82
ENDBRANCH  39  40
ENDBRANCH  31  34
ENDBRANCH  29  30
ENDBRANCH  28  29
ENDBRANCH  27  28
ENDBRANCH  26  27
ENDBRANCH   1  26
TORSDOF 19
ENDMDL
MODEL 3
REMARK VINA RESULT:     -10.5      2.979      8.367
REMARK SMILES CC(C)C[C@@H](NC(=O)Cn1nc(O)ccc1=O)C(=O)NCCCCCCNC(=O)c1ccc(-c2c3nc(c(-c4c(F)cccc4F)c4ccc([nH]4)c(-c4c(F)cccc4F)c4nc(c(-c5c(F)cccc5F)c5ccc2[nH]5)C=C4)C=C3)cc1
REMARK SMILES IDX 22 1 21 2 20 3 18 4 19 5 5 7 4 8 2 9 1 10 3 11 6 12 7 13
REMARK SMILES IDX 8 15 9 16 10 17 11 18 16 19 12 20 15 21 17 22 14 23 13 24
REMARK SMILES IDX 23 26 24 27 25 28 26 29 27 30 28 31 29 33 30 34 31 35 83 36
REMARK SMILES IDX 32 37 82 38 33 39 34 40 35 41 76 42 36 43 81 44 75 45 77 46
REMARK SMILES IDX 37 47 80 48 74 49 73 50 38 52 64 53 47 54 63 55 48 56 51 57
REMARK SMILES IDX 62 58 78 59 49 60 50 61 61 63 79 64 52 65 39 66 40 67 45 68
REMARK SMILES IDX 41 69 42 70 44 71 46 72 43 73 65 74 66 75 71 76 67 77 68 78
REMARK SMILES IDX 70 79 72 80 69 81 53 82 54 83 59 84 55 85 56 86 58 87 60 88
REMARK SMILES IDX 57 89
REMARK H PARENT 20 6 6 14 13 25 27 32 77 51 51 62
REMARK Flexibility Score: inf
ROOT
ATOM      1  C   UNL A   1      35.465  23.465  23.527  1.00  0.00     0.021 C 
ENDROOT
BRANCH   1   2
ATOM      2  C   UNL A   1      34.428  24.570  23.812  1.00  0.00     0.116 C 
BRANCH   2   3
ATOM      3  N   UNL A   1      34.218  25.561  22.767  1.00  0.00    -0.354 N 
ATOM      4  C   UNL A   1      33.481  26.720  22.744  1.00  0.00     0.242 C 
ATOM      5  O   UNL A   1      33.627  27.435  21.745  1.00  0.00    -0.273 OA
ATOM      6  H   UNL A   1      34.689  25.366  21.925  1.00  0.00     0.163 HD
BRANCH   4   7
ATOM      7  C   UNL A   1      32.423  27.130  23.826  1.00  0.00     0.171 C 
BRANCH   7   8
ATOM      8  C   UNL A   1      32.654  28.617  24.170  1.00  0.00     0.038 C 
BRANCH   8   9
ATOM      9  C   UNL A   1      33.494  28.993  25.405  1.00  0.00    -0.015 C 
ATOM     10  C   UNL A   1      32.860  30.113  26.221  1.00  0.00     0.007 C 
ATOM     11  C   UNL A   1      33.642  27.734  26.276  1.00  0.00     0.007 C 
ENDBRANCH   8   9
ENDBRANCH   7   8
BRANCH   7  12
ATOM     12  N   UNL A   1      31.020  26.835  23.532  1.00  0.00    -0.343 N 
ATOM     13  C   UNL A   1      30.038  26.381  24.384  1.00  0.00     0.242 C 
ATOM     14  H   UNL A   1      30.741  26.980  22.599  1.00  0.00     0.164 HD
ATOM     15  O   UNL A   1      28.865  26.595  24.058  1.00  0.00    -0.273 OA
BRANCH  13  16
ATOM     16  C   UNL A   1      30.379  25.572  25.642  1.00  0.00     0.248 C 
BRANCH  16  17
ATOM     17  N   UNL A   1      30.656  24.199  25.261  1.00  0.00    -0.217 N 
ATOM     18  N   UNL A   1      30.844  23.972  23.921  1.00  0.00    -0.131 NA
ATOM     19  C   UNL A   1      30.786  23.214  26.231  1.00  0.00     0.267 A 
ATOM     20  C   UNL A   1      31.440  22.883  23.624  1.00  0.00     0.229 A 
ATOM     21  C   UNL A   1      31.560  22.024  25.813  1.00  0.00     0.079 A 
ATOM     22  O   UNL A   1      30.387  23.302  27.387  1.00  0.00    -0.268 OA
ATOM     23  C   UNL A   1      31.930  21.869  24.541  1.00  0.00     0.075 A 
BRANCH  20  24
ATOM     24  O   UNL A   1      31.693  22.687  22.334  1.00  0.00    -0.492 OA
ATOM     25  H   UNL A   1      32.447  23.080  21.940  1.00  0.00     0.295 HD
ENDBRANCH  20  24
ENDBRANCH  16  17
ENDBRANCH  13  16
ENDBRANCH   7  12
ENDBRANCH   4   7
ENDBRANCH   2   3
ENDBRANCH   1   2
BRANCH   1  26
ATOM     26  C   UNL A   1      35.566  22.180  24.359  1.00  0.00     0.002 C 
BRANCH  26  27
ATOM     27  C   UNL A   1      36.727  21.938  25.319  1.00  0.00     0.002 C 
BRANCH  27  28
ATOM     28  C   UNL A   1      37.743  20.855  25.004  1.00  0.00     0.021 C 
BRANCH  28  29
ATOM     29  C   UNL A   1      39.013  20.971  25.809  1.00  0.00     0.116 C 
BRANCH  29  30
ATOM     30  N   UNL A   1      39.879  19.794  25.720  1.00  0.00    -0.352 N 
ATOM     31  C   UNL A   1      41.211  19.712  26.047  1.00  0.00     0.251 C 
ATOM     32  H   UNL A   1      39.460  18.968  25.388  1.00  0.00     0.163 HD
ATOM     33  O   UNL A   1      41.861  18.686  25.876  1.00  0.00    -0.269 OA
BRANCH  31  34
ATOM     34  C   UNL A   1      41.842  20.933  26.569  1.00  0.00     0.039 A 
ATOM     35  C   UNL A   1      41.785  21.168  27.942  1.00  0.00     0.014 A 
ATOM     36  C   UNL A   1      42.277  21.916  25.679  1.00  0.00     0.014 A 
ATOM     37  C   UNL A   1      41.951  22.457  28.404  1.00  0.00     0.010 A 
ATOM     38  C   UNL A   1      42.593  23.180  26.175  1.00  0.00     0.010 A 
ATOM     39  C   UNL A   1      42.392  23.469  27.534  1.00  0.00    -0.014 A 
BRANCH  39  40
ATOM     40  C   UNL A   1      42.700  24.800  28.100  1.00  0.00     0.031 A 
ATOM     41  C   UNL A   1      41.621  25.814  28.351  1.00  0.00     0.074 A 
ATOM     42  C   UNL A   1      43.982  25.059  28.421  1.00  0.00     0.049 A 
ATOM     43  N   UNL A   1      41.738  27.047  28.772  1.00  0.00    -0.248 NA
ATOM     44  C   UNL A   1      40.233  25.400  28.088  1.00  0.00     0.031 C 
ATOM     45  C   UNL A   1      45.102  24.129  28.234  1.00  0.00     0.029 A 
ATOM     46  N   UNL A   1      44.561  26.157  28.995  1.00  0.00    -0.354 N 
ATOM     47  C   UNL A   1      40.452  27.570  28.785  1.00  0.00     0.074 A 
ATOM     48  C   UNL A   1      39.566  26.523  28.324  1.00  0.00     0.031 C 
ATOM     49  C   UNL A   1      46.213  24.662  28.754  1.00  0.00     0.029 A 
ATOM     50  C   UNL A   1      45.911  26.013  29.199  1.00  0.00     0.049 A 
ATOM     51  H   UNL A   1      44.059  26.969  29.238  1.00  0.00     0.167 HD
ATOM     52  C   UNL A   1      40.058  28.816  29.145  1.00  0.00     0.037 A 
ATOM     53  C   UNL A   1      46.821  26.893  29.648  1.00  0.00     0.037 A 
ATOM     54  C   UNL A   1      40.959  29.834  29.623  1.00  0.00     0.049 A 
ATOM     55  C   UNL A   1      46.360  28.277  29.982  1.00  0.00     0.074 A 
ATOM     56  C   UNL A   1      40.667  31.122  30.039  1.00  0.00     0.029 A 
ATOM     57  N   UNL A   1      42.333  29.677  29.747  1.00  0.00    -0.354 N 
ATOM     58  N   UNL A   1      45.145  28.767  29.969  1.00  0.00    -0.248 NA
ATOM     59  C   UNL A   1      47.402  29.236  30.361  1.00  0.00     0.031 C 
ATOM     60  C   UNL A   1      41.870  31.757  30.373  1.00  0.00     0.029 A 
ATOM     61  C   UNL A   1      42.907  30.852  30.208  1.00  0.00     0.049 A 
ATOM     62  H   UNL A   1      42.828  28.852  29.538  1.00  0.00     0.167 HD
ATOM     63  C   UNL A   1      45.272  30.096  30.341  1.00  0.00     0.074 A 
ATOM     64  C   UNL A   1      46.681  30.321  30.603  1.00  0.00     0.031 C 
ATOM     65  C   UNL A   1      44.314  31.049  30.447  1.00  0.00     0.037 A 
BRANCH  52  66
ATOM     66  C   UNL A   1      38.602  29.158  29.000  1.00  0.00     0.057 A 
ATOM     67  C   UNL A   1      38.096  29.596  27.768  1.00  0.00     0.134 A 
ATOM     68  C   UNL A   1      37.707  29.091  30.075  1.00  0.00     0.134 A 
ATOM     69  F   UNL A   1      38.897  29.690  26.696  1.00  0.00    -0.206 F 
ATOM     70  C   UNL A   1      36.755  29.956  27.612  1.00  0.00     0.040 A 
ATOM     71  C   UNL A   1      36.358  29.425  29.925  1.00  0.00     0.040 A 
ATOM     72  F   UNL A   1      38.120  28.668  31.278  1.00  0.00    -0.206 F 
ATOM     73  C   UNL A   1      35.880  29.865  28.692  1.00  0.00     0.006 A 
ENDBRANCH  52  66
BRANCH  53  74
ATOM     74  C   UNL A   1      48.246  26.500  29.752  1.00  0.00     0.057 A 
ATOM     75  C   UNL A   1      48.746  25.854  30.891  1.00  0.00     0.134 A 
ATOM     76  C   UNL A   1      49.146  26.775  28.718  1.00  0.00     0.134 A 
ATOM     77  F   UNL A   1      47.935  25.574  31.922  1.00  0.00    -0.206 F 
ATOM     78  C   UNL A   1      50.093  25.514  31.007  1.00  0.00     0.040 A 
ATOM     79  C   UNL A   1      50.490  26.411  28.806  1.00  0.00     0.040 A 
ATOM     80  F   UNL A   1      48.724  27.379  27.598  1.00  0.00    -0.206 F 
ATOM     81  C   UNL A   1      50.968  25.785  29.957  1.00  0.00     0.006 A 
ENDBRANCH  53  74
BRANCH  65  82
ATOM     82  C   UNL A   1      44.778  32.405  30.880  1.00  0.00     0.057 A 
ATOM     83  C   UNL A   1      45.106  33.383  29.935  1.00  0.00     0.134 A 
ATOM     84  C   UNL A   1      44.883  32.746  32.236  1.00  0.00     0.134 A 
ATOM     85  F   UNL A   1      45.027  33.116  28.623  1.00  0.00    -0.206 F 
ATOM     86  C   UNL A   1      45.519  34.658  30.322  1.00  0.00     0.040 A 
ATOM     87  C   UNL A   1      45.269  34.026  32.634  1.00  0.00     0.040 A 
ATOM     88  F   UNL A   1      44.560  31.858  33.188  1.00  0.00    -0.206 F 
ATOM     89  C   UNL A   1      45.591  34.984  31.675  1.00  0.00     0.006 A 
ENDBRANCH  65  82
ENDBRANCH  39  40
ENDBRANCH  31  34
ENDBRANCH  29  30
ENDBRANCH  28  29
ENDBRANCH  27  28
ENDBRANCH  26  27
ENDBRANCH   1  26
TORSDOF 19
ENDMDL
