MODEL 1
REMARK VINA RESULT:     -11.9      0.000      0.000
REMARK SMILES CCc1ncc(C[N@H+]2CCC[C@@H](c3cccc(C(=O)NCCCCCCNC(=O)c4ccc(-c5c6nc(c(-c7c(F)cccc7F)c7ccc([nH]7)c(-c7c(F)cccc7F)c7nc(c(-c8c(F)cccc8F)c8ccc5[nH]8)C=C7)C=C6)cc4)c3)C2)cn1
REMARK SMILES IDX 22 1 21 2 20 3 18 4 19 5 17 7 13 8 14 9 84 10 15 11 16 12
REMARK SMILES IDX 12 13 8 14 9 15 85 16 10 18 11 19 7 20 6 21 3 22 4 23 87 24
REMARK SMILES IDX 5 25 86 26 2 27 1 28 23 29 24 30 25 31 26 32 27 33 28 34
REMARK SMILES IDX 29 36 30 37 31 38 83 39 32 40 82 41 33 42 34 43 35 44 76 45
REMARK SMILES IDX 36 46 81 47 75 48 77 49 37 50 80 51 74 52 73 53 38 55 64 56
REMARK SMILES IDX 47 57 63 58 48 59 51 60 62 61 78 62 49 63 50 64 61 66 79 67
REMARK SMILES IDX 52 68 39 69 40 70 45 71 41 72 42 73 44 74 46 75 43 76 65 77
REMARK SMILES IDX 66 78 71 79 67 80 68 81 70 82 72 83 69 84 53 85 54 86 59 87
REMARK SMILES IDX 55 88 56 89 58 90 60 91 57 92
REMARK H PARENT 20 6 8 17 27 35 77 54 51 65
REMARK Flexibility Score: inf
ROOT
ATOM      1  C   UNL A   1      37.003  23.363  24.990  1.00  0.00     0.021 C 
ENDROOT
BRANCH   1   2
ATOM      2  C   UNL A   1      36.020  23.944  25.998  1.00  0.00     0.116 C 
BRANCH   2   3
ATOM      3  N   UNL A   1      35.305  22.957  26.782  1.00  0.00    -0.352 N 
ATOM      4  C   UNL A   1      34.443  21.927  26.482  1.00  0.00     0.251 C 
ATOM      5  O   UNL A   1      34.133  21.190  27.421  1.00  0.00    -0.269 OA
ATOM      6  H   UNL A   1      35.474  23.042  27.748  1.00  0.00     0.163 HD
BRANCH   4   7
ATOM      7  C   UNL A   1      33.797  21.690  25.151  1.00  0.00     0.040 A 
ATOM      8  C   UNL A   1      32.607  22.458  23.170  1.00  0.00    -0.039 A 
ATOM      9  C   UNL A   1      32.188  21.149  22.904  1.00  0.00     0.004 A 
ATOM     10  C   UNL A   1      33.525  22.674  24.205  1.00  0.00     0.018 A 
ATOM     11  C   UNL A   1      32.582  20.109  23.740  1.00  0.00     0.001 A 
ATOM     12  C   UNL A   1      33.336  20.389  24.883  1.00  0.00     0.014 A 
BRANCH   8  13
ATOM     13  C   UNL A   1      31.904  23.674  22.572  1.00  0.00     0.074 C 
ATOM     14  N   UNL A   1      30.809  25.882  23.104  1.00  0.00    -0.331 N 
ATOM     15  C   UNL A   1      31.944  26.589  22.499  1.00  0.00     0.262 C 
ATOM     16  C   UNL A   1      31.211  24.559  23.619  1.00  0.00     0.270 C 
ATOM     17  H   UNL A   1      30.127  25.718  22.365  1.00  0.00     0.348 HD
ATOM     18  C   UNL A   1      32.470  25.806  21.302  1.00  0.00     0.062 C 
ATOM     19  C   UNL A   1      32.955  24.434  21.737  1.00  0.00     0.020 C 
BRANCH  14  20
ATOM     20  C   UNL A   1      30.109  26.701  24.117  1.00  0.00     0.302 C 
BRANCH  20  21
ATOM     21  C   UNL A   1      29.647  28.051  23.653  1.00  0.00     0.043 A 
ATOM     22  C   UNL A   1      28.622  30.505  23.102  1.00  0.00     0.127 A 
ATOM     23  N   UNL A   1      29.844  30.447  23.665  1.00  0.00    -0.241 NA
ATOM     24  N   UNL A   1      27.906  29.429  22.727  1.00  0.00    -0.241 NA
ATOM     25  C   UNL A   1      30.331  29.216  23.923  1.00  0.00     0.124 A 
ATOM     26  C   UNL A   1      28.437  28.228  23.013  1.00  0.00     0.124 A 
BRANCH  22  27
ATOM     27  C   UNL A   1      28.022  31.866  22.877  1.00  0.00     0.074 C 
ATOM     28  C   UNL A   1      28.066  32.293  21.414  1.00  0.00     0.012 C 
ENDBRANCH  22  27
ENDBRANCH  20  21
ENDBRANCH  14  20
ENDBRANCH   8  13
ENDBRANCH   4   7
ENDBRANCH   2   3
ENDBRANCH   1   2
BRANCH   1  29
ATOM     29  C   UNL A   1      37.750  22.106  25.417  1.00  0.00     0.002 C 
BRANCH  29  30
ATOM     30  C   UNL A   1      37.464  20.843  24.601  1.00  0.00     0.002 C 
BRANCH  30  31
ATOM     31  C   UNL A   1      38.292  19.602  24.949  1.00  0.00     0.021 C 
BRANCH  31  32
ATOM     32  C   UNL A   1      39.243  19.744  26.132  1.00  0.00     0.116 C 
BRANCH  32  33
ATOM     33  N   UNL A   1      40.407  18.887  26.019  1.00  0.00    -0.352 N 
ATOM     34  C   UNL A   1      41.741  19.207  26.041  1.00  0.00     0.251 C 
ATOM     35  H   UNL A   1      40.210  17.928  25.909  1.00  0.00     0.163 HD
ATOM     36  O   UNL A   1      42.577  18.353  25.770  1.00  0.00    -0.269 OA
BRANCH  34  37
ATOM     37  C   UNL A   1      42.181  20.581  26.376  1.00  0.00     0.039 A 
ATOM     38  C   UNL A   1      42.277  20.941  27.724  1.00  0.00     0.014 A 
ATOM     39  C   UNL A   1      42.449  21.528  25.383  1.00  0.00     0.014 A 
ATOM     40  C   UNL A   1      42.679  22.231  28.074  1.00  0.00     0.010 A 
ATOM     41  C   UNL A   1      42.915  22.795  25.733  1.00  0.00     0.010 A 
ATOM     42  C   UNL A   1      43.021  23.165  27.083  1.00  0.00    -0.014 A 
BRANCH  42  43
ATOM     43  C   UNL A   1      43.465  24.535  27.447  1.00  0.00     0.031 A 
ATOM     44  C   UNL A   1      42.459  25.569  27.876  1.00  0.00     0.074 A 
ATOM     45  C   UNL A   1      44.769  24.862  27.350  1.00  0.00     0.049 A 
ATOM     46  N   UNL A   1      42.650  26.822  28.203  1.00  0.00    -0.248 NA
ATOM     47  C   UNL A   1      41.049  25.148  27.918  1.00  0.00     0.031 C 
ATOM     48  C   UNL A   1      45.836  23.967  26.899  1.00  0.00     0.029 A 
ATOM     49  N   UNL A   1      45.418  26.041  27.622  1.00  0.00    -0.354 N 
ATOM     50  C   UNL A   1      41.388  27.342  28.468  1.00  0.00     0.074 A 
ATOM     51  C   UNL A   1      40.436  26.282  28.222  1.00  0.00     0.031 C 
ATOM     52  C   UNL A   1      47.008  24.621  26.947  1.00  0.00     0.029 A 
ATOM     53  C   UNL A   1      46.773  25.987  27.404  1.00  0.00     0.049 A 
ATOM     54  H   UNL A   1      44.955  26.848  27.943  1.00  0.00     0.167 HD
ATOM     55  C   UNL A   1      41.056  28.583  28.895  1.00  0.00     0.037 A 
ATOM     56  C   UNL A   1      47.719  26.933  27.556  1.00  0.00     0.037 A 
ATOM     57  C   UNL A   1      42.009  29.623  29.183  1.00  0.00     0.049 A 
ATOM     58  C   UNL A   1      47.323  28.294  28.060  1.00  0.00     0.074 A 
ATOM     59  C   UNL A   1      41.776  30.887  29.698  1.00  0.00     0.029 A 
ATOM     60  N   UNL A   1      43.377  29.518  28.983  1.00  0.00    -0.354 N 
ATOM     61  N   UNL A   1      46.135  28.743  28.385  1.00  0.00    -0.248 NA
ATOM     62  C   UNL A   1      48.403  29.276  28.230  1.00  0.00     0.031 C 
ATOM     63  C   UNL A   1      42.999  31.561  29.772  1.00  0.00     0.029 A 
ATOM     64  C   UNL A   1      43.998  30.701  29.346  1.00  0.00     0.049 A 
ATOM     65  H   UNL A   1      43.837  28.722  28.635  1.00  0.00     0.167 HD
ATOM     66  C   UNL A   1      46.331  30.043  28.833  1.00  0.00     0.074 A 
ATOM     67  C   UNL A   1      47.752  30.306  28.749  1.00  0.00     0.031 C 
ATOM     68  C   UNL A   1      45.416  30.940  29.276  1.00  0.00     0.037 A 
BRANCH  55  69
ATOM     69  C   UNL A   1      39.599  28.890  29.085  1.00  0.00     0.057 A 
ATOM     70  C   UNL A   1      38.785  29.307  28.024  1.00  0.00     0.134 A 
ATOM     71  C   UNL A   1      38.991  28.711  30.334  1.00  0.00     0.134 A 
ATOM     72  F   UNL A   1      39.308  29.509  26.805  1.00  0.00    -0.206 F 
ATOM     73  C   UNL A   1      37.423  29.556  28.203  1.00  0.00     0.040 A 
ATOM     74  C   UNL A   1      37.625  28.931  30.520  1.00  0.00     0.040 A 
ATOM     75  F   UNL A   1      39.711  28.307  31.392  1.00  0.00    -0.206 F 
ATOM     76  C   UNL A   1      36.838  29.359  29.452  1.00  0.00     0.006 A 
ENDBRANCH  55  69
BRANCH  56  77
ATOM     77  C   UNL A   1      49.142  26.628  27.257  1.00  0.00     0.057 A 
ATOM     78  C   UNL A   1      49.680  26.870  25.987  1.00  0.00     0.134 A 
ATOM     79  C   UNL A   1      49.983  26.053  28.215  1.00  0.00     0.134 A 
ATOM     80  F   UNL A   1      48.917  27.402  25.021  1.00  0.00    -0.206 F 
ATOM     81  C   UNL A   1      50.995  26.524  25.671  1.00  0.00     0.040 A 
ATOM     82  C   UNL A   1      51.309  25.727  27.921  1.00  0.00     0.040 A 
ATOM     83  F   UNL A   1      49.530  25.802  29.452  1.00  0.00    -0.206 F 
ATOM     84  C   UNL A   1      51.814  25.952  26.642  1.00  0.00     0.006 A 
ENDBRANCH  56  77
BRANCH  68  85
ATOM     85  C   UNL A   1      45.932  32.266  29.751  1.00  0.00     0.057 A 
ATOM     86  C   UNL A   1      46.314  32.480  31.082  1.00  0.00     0.134 A 
ATOM     87  C   UNL A   1      46.068  33.337  28.858  1.00  0.00     0.134 A 
ATOM     88  F   UNL A   1      46.197  31.500  31.990  1.00  0.00    -0.206 F 
ATOM     89  C   UNL A   1      46.783  33.722  31.514  1.00  0.00     0.040 A 
ATOM     90  C   UNL A   1      46.562  34.574  29.272  1.00  0.00     0.040 A 
ATOM     91  F   UNL A   1      45.730  33.195  27.568  1.00  0.00    -0.206 F 
ATOM     92  C   UNL A   1      46.912  34.772  30.606  1.00  0.00     0.006 A 
ENDBRANCH  68  85
ENDBRANCH  42  43
ENDBRANCH  34  37
ENDBRANCH  32  33
ENDBRANCH  31  32
ENDBRANCH  30  31
ENDBRANCH  29  30
ENDBRANCH   1  29
TORSDOF 17
ENDMDL
MODEL 2
REMARK VINA RESULT:     -11.7      1.404      6.188
REMARK SMILES CCc1ncc(C[N@H+]2CCC[C@@H](c3cccc(C(=O)NCCCCCCNC(=O)c4ccc(-c5c6nc(c(-c7c(F)cccc7F)c7ccc([nH]7)c(-c7c(F)cccc7F)c7nc(c(-c8c(F)cccc8F)c8ccc5[nH]8)C=C7)C=C6)cc4)c3)C2)cn1
REMARK SMILES IDX 22 1 21 2 20 3 18 4 19 5 17 7 13 8 14 9 84 10 15 11 16 12
REMARK SMILES IDX 12 13 8 14 9 15 85 16 10 18 11 19 7 20 6 21 3 22 4 23 87 24
REMARK SMILES IDX 5 25 86 26 2 27 1 28 23 29 24 30 25 31 26 32 27 33 28 34
REMARK SMILES IDX 29 36 30 37 31 38 83 39 32 40 82 41 33 42 34 43 35 44 76 45
REMARK SMILES IDX 36 46 81 47 75 48 77 49 37 50 80 51 74 52 73 53 38 55 64 56
REMARK SMILES IDX 47 57 63 58 48 59 51 60 62 61 78 62 49 63 50 64 61 66 79 67
REMARK SMILES IDX 52 68 39 69 40 70 45 71 41 72 42 73 44 74 46 75 43 76 65 77
REMARK SMILES IDX 66 78 71 79 67 80 68 81 70 82 72 83 69 84 53 85 54 86 59 87
REMARK SMILES IDX 55 88 56 89 58 90 60 91 57 92
REMARK H PARENT 20 6 8 17 27 35 77 54 51 65
REMARK Flexibility Score: inf
ROOT
ATOM      1  C   UNL A   1      37.366  23.498  25.356  1.00  0.00     0.021 C 
ENDROOT
BRANCH   1   2
ATOM      2  C   UNL A   1      36.080  23.980  26.017  1.00  0.00     0.116 C 
BRANCH   2   3
ATOM      3  N   UNL A   1      35.448  23.009  26.886  1.00  0.00    -0.352 N 
ATOM      4  C   UNL A   1      34.642  21.912  26.682  1.00  0.00     0.251 C 
ATOM      5  O   UNL A   1      34.402  21.224  27.678  1.00  0.00    -0.269 OA
ATOM      6  H   UNL A   1      35.637  23.170  27.839  1.00  0.00     0.163 HD
BRANCH   4   7
ATOM      7  C   UNL A   1      33.976  21.547  25.390  1.00  0.00     0.040 A 
ATOM      8  C   UNL A   1      32.854  22.129  23.309  1.00  0.00    -0.039 A 
ATOM      9  C   UNL A   1      32.324  20.837  23.224  1.00  0.00     0.004 A 
ATOM     10  C   UNL A   1      33.789  22.410  24.313  1.00  0.00     0.018 A 
ATOM     11  C   UNL A   1      32.628  19.894  24.201  1.00  0.00     0.001 A 
ATOM     12  C   UNL A   1      33.405  20.266  25.301  1.00  0.00     0.014 A 
BRANCH   8  13
ATOM     13  C   UNL A   1      32.256  23.305  22.540  1.00  0.00     0.074 C 
ATOM     14  N   UNL A   1      31.800  25.784  22.606  1.00  0.00    -0.331 N 
ATOM     15  C   UNL A   1      32.831  26.000  21.585  1.00  0.00     0.262 C 
ATOM     16  C   UNL A   1      32.070  24.567  23.395  1.00  0.00     0.270 C 
ATOM     17  H   UNL A   1      30.919  25.631  22.117  1.00  0.00     0.348 HD
ATOM     18  C   UNL A   1      32.839  24.841  20.596  1.00  0.00     0.062 C 
ATOM     19  C   UNL A   1      33.155  23.538  21.308  1.00  0.00     0.020 C 
BRANCH  14  20
ATOM     20  C   UNL A   1      31.584  26.978  23.451  1.00  0.00     0.302 C 
BRANCH  20  21
ATOM     21  C   UNL A   1      30.552  27.947  22.954  1.00  0.00     0.043 A 
ATOM     22  C   UNL A   1      28.703  29.847  22.366  1.00  0.00     0.127 A 
ATOM     23  N   UNL A   1      29.972  30.062  21.970  1.00  0.00    -0.241 NA
ATOM     24  N   UNL A   1      28.275  28.723  22.969  1.00  0.00    -0.241 NA
ATOM     25  C   UNL A   1      30.868  29.100  22.270  1.00  0.00     0.124 A 
ATOM     26  C   UNL A   1      29.212  27.800  23.248  1.00  0.00     0.124 A 
BRANCH  22  27
ATOM     27  C   UNL A   1      27.699  30.939  22.114  1.00  0.00     0.074 C 
ATOM     28  C   UNL A   1      27.600  31.926  23.271  1.00  0.00     0.012 C 
ENDBRANCH  22  27
ENDBRANCH  20  21
ENDBRANCH  14  20
ENDBRANCH   8  13
ENDBRANCH   4   7
ENDBRANCH   2   3
ENDBRANCH   1   2
BRANCH   1  29
ATOM     29  C   UNL A   1      37.859  22.114  25.758  1.00  0.00     0.002 C 
BRANCH  29  30
ATOM     30  C   UNL A   1      37.597  20.988  24.756  1.00  0.00     0.002 C 
BRANCH  30  31
ATOM     31  C   UNL A   1      38.334  19.668  25.002  1.00  0.00     0.021 C 
BRANCH  31  32
ATOM     32  C   UNL A   1      39.312  19.658  26.172  1.00  0.00     0.116 C 
BRANCH  32  33
ATOM     33  N   UNL A   1      40.578  19.036  25.837  1.00  0.00    -0.352 N 
ATOM     34  C   UNL A   1      41.848  19.553  25.871  1.00  0.00     0.251 C 
ATOM     35  H   UNL A   1      40.517  18.099  25.539  1.00  0.00     0.163 HD
ATOM     36  O   UNL A   1      42.779  18.913  25.394  1.00  0.00    -0.269 OA
BRANCH  34  37
ATOM     37  C   UNL A   1      42.105  20.885  26.463  1.00  0.00     0.039 A 
ATOM     38  C   UNL A   1      42.340  21.963  25.602  1.00  0.00     0.014 A 
ATOM     39  C   UNL A   1      42.165  21.075  27.847  1.00  0.00     0.014 A 
ATOM     40  C   UNL A   1      42.596  23.232  26.127  1.00  0.00     0.010 A 
ATOM     41  C   UNL A   1      42.352  22.354  28.369  1.00  0.00     0.010 A 
ATOM     42  C   UNL A   1      42.585  23.443  27.515  1.00  0.00    -0.014 A 
BRANCH  42  43
ATOM     43  C   UNL A   1      42.840  24.793  28.082  1.00  0.00     0.031 A 
ATOM     44  C   UNL A   1      44.225  25.179  28.527  1.00  0.00     0.074 A 
ATOM     45  C   UNL A   1      41.817  25.657  28.236  1.00  0.00     0.049 A 
ATOM     46  N   UNL A   1      44.636  26.297  29.071  1.00  0.00    -0.248 NA
ATOM     47  C   UNL A   1      45.282  24.168  28.364  1.00  0.00     0.031 C 
ATOM     48  C   UNL A   1      40.420  25.386  27.891  1.00  0.00     0.029 A 
ATOM     49  N   UNL A   1      41.795  26.938  28.727  1.00  0.00    -0.354 N 
ATOM     50  C   UNL A   1      45.990  26.114  29.333  1.00  0.00     0.074 A 
ATOM     51  C   UNL A   1      46.320  24.766  28.929  1.00  0.00     0.031 C 
ATOM     52  C   UNL A   1      39.682  26.475  28.160  1.00  0.00     0.029 A 
ATOM     53  C   UNL A   1      40.545  27.509  28.722  1.00  0.00     0.049 A 
ATOM     54  H   UNL A   1      42.598  27.403  29.054  1.00  0.00     0.167 HD
ATOM     55  C   UNL A   1      46.879  26.998  29.846  1.00  0.00     0.037 A 
ATOM     56  C   UNL A   1      40.142  28.728  29.124  1.00  0.00     0.037 A 
ATOM     57  C   UNL A   1      46.559  28.354  30.206  1.00  0.00     0.049 A 
ATOM     58  C   UNL A   1      41.158  29.698  29.663  1.00  0.00     0.074 A 
ATOM     59  C   UNL A   1      47.409  29.350  30.657  1.00  0.00     0.029 A 
ATOM     60  N   UNL A   1      45.289  28.906  30.152  1.00  0.00    -0.354 N 
ATOM     61  N   UNL A   1      42.449  29.538  29.827  1.00  0.00    -0.248 NA
ATOM     62  C   UNL A   1      40.662  31.023  30.061  1.00  0.00     0.031 C 
ATOM     63  C   UNL A   1      46.645  30.492  30.915  1.00  0.00     0.029 A 
ATOM     64  C   UNL A   1      45.328  30.222  30.581  1.00  0.00     0.049 A 
ATOM     65  H   UNL A   1      44.479  28.433  29.854  1.00  0.00     0.167 HD
ATOM     66  C   UNL A   1      42.923  30.752  30.309  1.00  0.00     0.074 A 
ATOM     67  C   UNL A   1      41.784  31.641  30.400  1.00  0.00     0.031 C 
ATOM     68  C   UNL A   1      44.189  31.100  30.646  1.00  0.00     0.037 A 
BRANCH  55  69
ATOM     69  C   UNL A   1      48.291  26.530  30.047  1.00  0.00     0.057 A 
ATOM     70  C   UNL A   1      48.699  25.887  31.223  1.00  0.00     0.134 A 
ATOM     71  C   UNL A   1      49.241  26.674  29.027  1.00  0.00     0.134 A 
ATOM     72  F   UNL A   1      47.842  25.727  32.242  1.00  0.00    -0.206 F 
ATOM     73  C   UNL A   1      50.006  25.424  31.386  1.00  0.00     0.040 A 
ATOM     74  C   UNL A   1      50.543  26.192  29.168  1.00  0.00     0.040 A 
ATOM     75  F   UNL A   1      48.916  27.275  27.872  1.00  0.00    -0.206 F 
ATOM     76  C   UNL A   1      50.930  25.568  30.353  1.00  0.00     0.006 A 
ENDBRANCH  55  69
BRANCH  56  77
ATOM     77  C   UNL A   1      38.714  29.124  29.010  1.00  0.00     0.057 A 
ATOM     78  C   UNL A   1      37.851  29.030  30.108  1.00  0.00     0.134 A 
ATOM     79  C   UNL A   1      38.172  29.565  27.798  1.00  0.00     0.134 A 
ATOM     80  F   UNL A   1      38.308  28.596  31.292  1.00  0.00    -0.206 F 
ATOM     81  C   UNL A   1      36.492  29.332  29.999  1.00  0.00     0.040 A 
ATOM     82  C   UNL A   1      36.820  29.895  27.681  1.00  0.00     0.040 A 
ATOM     83  F   UNL A   1      38.948  29.683  26.711  1.00  0.00    -0.206 F 
ATOM     84  C   UNL A   1      35.974  29.768  28.780  1.00  0.00     0.006 A 
ENDBRANCH  56  77
BRANCH  68  85
ATOM     85  C   UNL A   1      44.413  32.514  31.093  1.00  0.00     0.057 A 
ATOM     86  C   UNL A   1      44.680  33.547  30.183  1.00  0.00     0.134 A 
ATOM     87  C   UNL A   1      44.341  32.850  32.451  1.00  0.00     0.134 A 
ATOM     88  F   UNL A   1      44.776  33.289  28.871  1.00  0.00    -0.206 F 
ATOM     89  C   UNL A   1      44.897  34.857  30.613  1.00  0.00     0.040 A 
ATOM     90  C   UNL A   1      44.529  34.162  32.889  1.00  0.00     0.040 A 
ATOM     91  F   UNL A   1      44.079  31.911  33.371  1.00  0.00    -0.206 F 
ATOM     92  C   UNL A   1      44.817  35.168  31.969  1.00  0.00     0.006 A 
ENDBRANCH  68  85
ENDBRANCH  42  43
ENDBRANCH  34  37
ENDBRANCH  32  33
ENDBRANCH  31  32
ENDBRANCH  30  31
ENDBRANCH  29  30
ENDBRANCH   1  29
TORSDOF 17
ENDMDL
MODEL 3
REMARK VINA RESULT:     -11.4      3.602      6.817
REMARK SMILES CCc1ncc(C[N@H+]2CCC[C@@H](c3cccc(C(=O)NCCCCCCNC(=O)c4ccc(-c5c6nc(c(-c7c(F)cccc7F)c7ccc([nH]7)c(-c7c(F)cccc7F)c7nc(c(-c8c(F)cccc8F)c8ccc5[nH]8)C=C7)C=C6)cc4)c3)C2)cn1
REMARK SMILES IDX 22 1 21 2 20 3 18 4 19 5 17 7 13 8 14 9 84 10 15 11 16 12
REMARK SMILES IDX 12 13 8 14 9 15 85 16 10 18 11 19 7 20 6 21 3 22 4 23 87 24
REMARK SMILES IDX 5 25 86 26 2 27 1 28 23 29 24 30 25 31 26 32 27 33 28 34
REMARK SMILES IDX 29 36 30 37 31 38 83 39 32 40 82 41 33 42 34 43 35 44 76 45
REMARK SMILES IDX 36 46 81 47 75 48 77 49 37 50 80 51 74 52 73 53 38 55 64 56
REMARK SMILES IDX 47 57 63 58 48 59 51 60 62 61 78 62 49 63 50 64 61 66 79 67
REMARK SMILES IDX 52 68 39 69 40 70 45 71 41 72 42 73 44 74 46 75 43 76 65 77
REMARK SMILES IDX 66 78 71 79 67 80 68 81 70 82 72 83 69 84 53 85 54 86 59 87
REMARK SMILES IDX 55 88 56 89 58 90 60 91 57 92
REMARK H PARENT 20 6 8 17 27 35 77 54 51 65
REMARK Flexibility Score: inf
ROOT
ATOM      1  C   UNL A   1      38.335  29.605  28.103  1.00  0.00     0.021 C 
ENDROOT
BRANCH   1   2
ATOM      2  C   UNL A   1      36.916  29.475  27.564  1.00  0.00     0.116 C 
BRANCH   2   3
ATOM      3  N   UNL A   1      36.055  30.605  27.851  1.00  0.00    -0.352 N 
ATOM      4  C   UNL A   1      34.696  30.817  27.807  1.00  0.00     0.251 C 
ATOM      5  O   UNL A   1      34.302  31.891  28.268  1.00  0.00    -0.269 OA
ATOM      6  H   UNL A   1      36.556  31.400  28.143  1.00  0.00     0.163 HD
BRANCH   4   7
ATOM      7  C   UNL A   1      33.690  29.903  27.177  1.00  0.00     0.040 A 
ATOM      8  C   UNL A   1      33.064  27.815  26.091  1.00  0.00    -0.039 A 
ATOM      9  C   UNL A   1      31.904  28.416  25.587  1.00  0.00     0.004 A 
ATOM     10  C   UNL A   1      33.855  28.532  26.998  1.00  0.00     0.018 A 
ATOM     11  C   UNL A   1      31.623  29.745  25.887  1.00  0.00     0.001 A 
ATOM     12  C   UNL A   1      32.537  30.494  26.632  1.00  0.00     0.014 A 
BRANCH   8  13
ATOM     13  C   UNL A   1      33.646  26.538  25.489  1.00  0.00     0.074 C 
ATOM     14  N   UNL A   1      33.323  24.049  25.247  1.00  0.00    -0.331 N 
ATOM     15  C   UNL A   1      32.987  24.232  23.831  1.00  0.00     0.262 C 
ATOM     16  C   UNL A   1      33.004  25.254  26.036  1.00  0.00     0.270 C 
ATOM     17  H   UNL A   1      34.333  23.917  25.303  1.00  0.00     0.348 HD
ATOM     18  C   UNL A   1      33.817  25.365  23.238  1.00  0.00     0.062 C 
ATOM     19  C   UNL A   1      33.525  26.669  23.957  1.00  0.00     0.020 C 
BRANCH  14  20
ATOM     20  C   UNL A   1      32.729  22.821  25.815  1.00  0.00     0.302 C 
BRANCH  20  21
ATOM     21  C   UNL A   1      33.249  21.529  25.253  1.00  0.00     0.043 A 
ATOM     22  C   UNL A   1      34.181  19.075  24.561  1.00  0.00     0.127 A 
ATOM     23  N   UNL A   1      32.865  19.313  24.405  1.00  0.00    -0.241 NA
ATOM     24  N   UNL A   1      35.077  19.993  24.966  1.00  0.00    -0.241 NA
ATOM     25  C   UNL A   1      32.430  20.541  24.752  1.00  0.00     0.124 A 
ATOM     26  C   UNL A   1      34.588  21.198  25.303  1.00  0.00     0.124 A 
BRANCH  22  27
ATOM     27  C   UNL A   1      34.680  17.688  24.257  1.00  0.00     0.074 C 
ATOM     28  C   UNL A   1      33.869  16.997  23.167  1.00  0.00     0.012 C 
ENDBRANCH  22  27
ENDBRANCH  20  21
ENDBRANCH  14  20
ENDBRANCH   8  13
ENDBRANCH   4   7
ENDBRANCH   2   3
ENDBRANCH   1   2
BRANCH   1  29
ATOM     29  C   UNL A   1      38.953  28.348  28.702  1.00  0.00     0.002 C 
BRANCH  29  30
ATOM     30  C   UNL A   1      39.789  27.490  27.750  1.00  0.00     0.002 C 
BRANCH  30  31
ATOM     31  C   UNL A   1      39.524  25.982  27.777  1.00  0.00     0.021 C 
BRANCH  31  32
ATOM     32  C   UNL A   1      39.707  25.249  26.453  1.00  0.00     0.116 C 
BRANCH  32  33
ATOM     33  N   UNL A   1      40.347  23.958  26.613  1.00  0.00    -0.352 N 
ATOM     34  C   UNL A   1      41.678  23.627  26.583  1.00  0.00     0.251 C 
ATOM     35  H   UNL A   1      39.733  23.203  26.767  1.00  0.00     0.163 HD
ATOM     36  O   UNL A   1      42.013  22.447  26.581  1.00  0.00    -0.269 OA
BRANCH  34  37
ATOM     37  C   UNL A   1      42.717  24.681  26.536  1.00  0.00     0.039 A 
ATOM     38  C   UNL A   1      43.178  25.217  27.743  1.00  0.00     0.014 A 
ATOM     39  C   UNL A   1      43.202  25.180  25.323  1.00  0.00     0.014 A 
ATOM     40  C   UNL A   1      44.150  26.220  27.734  1.00  0.00     0.010 A 
ATOM     41  C   UNL A   1      44.221  26.132  25.317  1.00  0.00     0.010 A 
ATOM     42  C   UNL A   1      44.694  26.674  26.522  1.00  0.00    -0.014 A 
BRANCH  42  43
ATOM     43  C   UNL A   1      45.739  27.729  26.505  1.00  0.00     0.031 A 
ATOM     44  C   UNL A   1      45.358  29.178  26.656  1.00  0.00     0.074 A 
ATOM     45  C   UNL A   1      47.029  27.389  26.310  1.00  0.00     0.049 A 
ATOM     46  N   UNL A   1      46.123  30.240  26.637  1.00  0.00    -0.248 NA
ATOM     47  C   UNL A   1      43.926  29.473  26.824  1.00  0.00     0.031 C 
ATOM     48  C   UNL A   1      47.524  26.027  26.100  1.00  0.00     0.029 A 
ATOM     49  N   UNL A   1      48.160  28.165  26.252  1.00  0.00    -0.354 N 
ATOM     50  C   UNL A   1      45.265  31.326  26.768  1.00  0.00     0.074 A 
ATOM     51  C   UNL A   1      43.920  30.798  26.823  1.00  0.00     0.031 C 
ATOM     52  C   UNL A   1      48.859  26.060  25.960  1.00  0.00     0.029 A 
ATOM     53  C   UNL A   1      49.312  27.445  26.040  1.00  0.00     0.049 A 
ATOM     54  H   UNL A   1      48.147  29.144  26.352  1.00  0.00     0.167 HD
ATOM     55  C   UNL A   1      45.573  32.643  26.855  1.00  0.00     0.037 A 
ATOM     56  C   UNL A   1      50.588  27.857  25.925  1.00  0.00     0.037 A 
ATOM     57  C   UNL A   1      46.915  33.163  26.845  1.00  0.00     0.049 A 
ATOM     58  C   UNL A   1      50.902  29.323  26.055  1.00  0.00     0.074 A 
ATOM     59  C   UNL A   1      47.332  34.473  27.010  1.00  0.00     0.029 A 
ATOM     60  N   UNL A   1      48.057  32.399  26.665  1.00  0.00    -0.354 N 
ATOM     61  N   UNL A   1      50.087  30.329  26.262  1.00  0.00    -0.248 NA
ATOM     62  C   UNL A   1      52.316  29.708  25.946  1.00  0.00     0.031 C 
ATOM     63  C   UNL A   1      48.725  34.507  26.888  1.00  0.00     0.029 A 
ATOM     64  C   UNL A   1      49.178  33.212  26.694  1.00  0.00     0.049 A 
ATOM     65  H   UNL A   1      48.069  31.424  26.535  1.00  0.00     0.167 HD
ATOM     66  C   UNL A   1      50.893  31.458  26.348  1.00  0.00     0.074 A 
ATOM     67  C   UNL A   1      52.259  31.011  26.180  1.00  0.00     0.031 C 
ATOM     68  C   UNL A   1      50.532  32.749  26.546  1.00  0.00     0.037 A 
BRANCH  55  69
ATOM     69  C   UNL A   1      44.439  33.618  26.973  1.00  0.00     0.057 A 
ATOM     70  C   UNL A   1      43.935  34.021  28.217  1.00  0.00     0.134 A 
ATOM     71  C   UNL A   1      43.882  34.205  25.830  1.00  0.00     0.134 A 
ATOM     72  F   UNL A   1      44.417  33.489  29.350  1.00  0.00    -0.206 F 
ATOM     73  C   UNL A   1      42.904  34.957  28.318  1.00  0.00     0.040 A 
ATOM     74  C   UNL A   1      42.868  35.161  25.920  1.00  0.00     0.040 A 
ATOM     75  F   UNL A   1      44.322  33.870  24.608  1.00  0.00    -0.206 F 
ATOM     76  C   UNL A   1      42.373  35.536  27.168  1.00  0.00     0.006 A 
ENDBRANCH  55  69
BRANCH  56  77
ATOM     77  C   UNL A   1      51.678  26.873  25.701  1.00  0.00     0.057 A 
ATOM     78  C   UNL A   1      52.083  26.528  24.407  1.00  0.00     0.134 A 
ATOM     79  C   UNL A   1      52.311  26.228  26.770  1.00  0.00     0.134 A 
ATOM     80  F   UNL A   1      51.500  27.097  23.342  1.00  0.00    -0.206 F 
ATOM     81  C   UNL A   1      53.057  25.554  24.180  1.00  0.00     0.040 A 
ATOM     82  C   UNL A   1      53.306  25.272  26.558  1.00  0.00     0.040 A 
ATOM     83  F   UNL A   1      51.974  26.520  28.034  1.00  0.00    -0.206 F 
ATOM     84  C   UNL A   1      53.673  24.924  25.260  1.00  0.00     0.006 A 
ENDBRANCH  56  77
BRANCH  68  85
ATOM     85  C   UNL A   1      51.637  33.759  26.647  1.00  0.00     0.057 A 
ATOM     86  C   UNL A   1      52.209  34.115  27.876  1.00  0.00     0.134 A 
ATOM     87  C   UNL A   1      52.150  34.369  25.495  1.00  0.00     0.134 A 
ATOM     88  F   UNL A   1      51.755  33.578  29.018  1.00  0.00    -0.206 F 
ATOM     89  C   UNL A   1      53.229  35.064  27.957  1.00  0.00     0.040 A 
ATOM     90  C   UNL A   1      53.189  35.297  25.561  1.00  0.00     0.040 A 
ATOM     91  F   UNL A   1      51.654  34.065  24.286  1.00  0.00    -0.206 F 
ATOM     92  C   UNL A   1      53.725  35.654  26.796  1.00  0.00     0.006 A 
ENDBRANCH  68  85
ENDBRANCH  42  43
ENDBRANCH  34  37
ENDBRANCH  32  33
ENDBRANCH  31  32
ENDBRANCH  30  31
ENDBRANCH  29  30
ENDBRANCH   1  29
TORSDOF 17
ENDMDL
