MODEL 1
REMARK VINA RESULT:     -12.9      0.000      0.000
REMARK SMILES Cc1ccc(S(=O)(=O)n2cc(C(=O)C(=O)NCC(=O)N[C@@H](Cc3c[nH]c4ccccc34)C(=O)NCCCCCCNC(=O)c3ccc(-c4c5nc(c(-c6c(F)cccc6F)c6ccc([nH]6)c(-c6c(F)cccc6F)c6nc(c(-c7c(F)cccc7F)c7ccc4[nH]7)C=C6)C=C5)cc3)c3ccccc32)cc1
REMARK SMILES IDX 35 1 34 2 32 3 33 4 21 6 20 7 18 8 19 9 17 11 16 12 14 13
REMARK SMILES IDX 15 14 12 16 13 17 11 18 9 19 10 20 103 21 98 22 102 23 99 24
REMARK SMILES IDX 101 25 100 26 6 27 7 28 8 29 5 30 1 31 2 32 3 33 105 34 4 35
REMARK SMILES IDX 104 36 22 37 23 38 24 39 31 40 25 41 26 42 30 43 27 45 29 46
REMARK SMILES IDX 28 47 36 48 37 49 38 50 39 51 40 52 41 53 42 54 43 56 44 57
REMARK SMILES IDX 45 58 97 59 46 60 96 61 47 62 48 63 49 64 90 65 50 66 95 67
REMARK SMILES IDX 89 68 91 69 51 70 94 71 88 72 87 73 52 75 78 76 61 77 77 78
REMARK SMILES IDX 62 79 65 80 76 81 92 82 63 83 64 84 75 86 93 87 66 88 53 89
REMARK SMILES IDX 54 90 59 91 55 92 56 93 58 94 60 95 57 96 79 97 80 98 85 99
REMARK SMILES IDX 81 100 82 101 84 102 86 103 83 104 67 105 68 106 73 107
REMARK SMILES IDX 69 108 70 109 72 110 74 111 71 112
REMARK H PARENT 34 5 20 10 16 15 25 44 41 55 91 74 65 85
REMARK Flexibility Score: inf
ROOT
ATOM      1  C   UNL A   1      39.049  21.629  26.289  1.00  0.00     0.116 C 
ENDROOT
BRANCH   1   2
ATOM      2  N   UNL A   1      38.466  22.044  25.033  1.00  0.00    -0.354 N 
ATOM      3  C   UNL A   1      37.163  22.021  24.630  1.00  0.00     0.242 C 
ATOM      4  O   UNL A   1      36.848  22.833  23.750  1.00  0.00    -0.273 OA
ATOM      5  H   UNL A   1      39.103  22.394  24.370  1.00  0.00     0.163 HD
BRANCH   3   6
ATOM      6  C   UNL A   1      36.059  21.132  25.258  1.00  0.00     0.175 C 
BRANCH   6   7
ATOM      7  N   UNL A   1      35.483  21.599  26.520  1.00  0.00    -0.342 N 
ATOM      8  C   UNL A   1      34.618  22.646  26.707  1.00  0.00     0.240 C 
ATOM      9  O   UNL A   1      34.030  22.733  27.786  1.00  0.00    -0.273 OA
ATOM     10  H   UNL A   1      35.748  21.105  27.328  1.00  0.00     0.164 HD
BRANCH   8  11
ATOM     11  C   UNL A   1      34.372  23.654  25.564  1.00  0.00     0.216 C 
BRANCH  11  12
ATOM     12  N   UNL A   1      33.246  23.219  24.732  1.00  0.00    -0.340 N 
ATOM     13  C   UNL A   1      31.905  23.539  24.861  1.00  0.00     0.292 C 
ATOM     14  O   UNL A   1      31.057  23.000  24.159  1.00  0.00    -0.265 OA
ATOM     15  H   UNL A   1      33.472  22.622  23.984  1.00  0.00     0.164 HD
BRANCH  13  16
ATOM     16  C   UNL A   1      31.484  24.576  25.908  1.00  0.00     0.252 C 
ATOM     17  O   UNL A   1      30.843  24.147  26.868  1.00  0.00    -0.283 OA
BRANCH  16  18
ATOM     18  C   UNL A   1      31.681  26.013  25.680  1.00  0.00     0.054 A 
ATOM     19  N   UNL A   1      32.398  28.156  25.655  1.00  0.00    -0.240 N 
ATOM     20  C   UNL A   1      32.619  26.902  26.219  1.00  0.00     0.117 A 
ATOM     21  C   UNL A   1      31.461  28.005  24.622  1.00  0.00     0.065 A 
ATOM     22  C   UNL A   1      30.809  26.798  24.866  1.00  0.00     0.012 A 
ATOM     23  C   UNL A   1      30.970  28.928  23.679  1.00  0.00     0.028 A 
ATOM     24  C   UNL A   1      29.540  26.591  24.285  1.00  0.00     0.011 A 
ATOM     25  C   UNL A   1      29.691  28.728  23.165  1.00  0.00     0.002 A 
ATOM     26  C   UNL A   1      28.966  27.593  23.497  1.00  0.00     0.001 A 
BRANCH  19  27
ATOM     27  S   UNL A   1      32.163  29.646  26.524  1.00  0.00     0.268 S 
ATOM     28  O   UNL A   1      31.403  29.229  27.691  1.00  0.00    -0.201 OA
ATOM     29  O   UNL A   1      31.577  30.519  25.514  1.00  0.00    -0.201 OA
BRANCH  27  30
ATOM     30  C   UNL A   1      33.451  30.656  27.157  1.00  0.00     0.088 A 
ATOM     31  C   UNL A   1      37.040  32.225  28.975  1.00  0.00     0.044 C 
ATOM     32  C   UNL A   1      35.792  31.728  28.303  1.00  0.00    -0.051 A 
ATOM     33  C   UNL A   1      35.801  30.427  27.820  1.00  0.00     0.005 A 
ATOM     34  C   UNL A   1      34.607  32.490  28.194  1.00  0.00     0.005 A 
ATOM     35  C   UNL A   1      34.652  29.911  27.249  1.00  0.00     0.022 A 
ATOM     36  C   UNL A   1      33.423  31.959  27.623  1.00  0.00     0.022 A 
ENDBRANCH  27  30
ENDBRANCH  19  27
ENDBRANCH  16  18
ENDBRANCH  13  16
ENDBRANCH  11  12
ENDBRANCH   8  11
ENDBRANCH   6   7
BRANCH   6  37
ATOM     37  C   UNL A   1      35.011  20.575  24.279  1.00  0.00     0.072 C 
BRANCH  37  38
ATOM     38  C   UNL A   1      34.025  19.593  24.827  1.00  0.00    -0.020 A 
ATOM     39  C   UNL A   1      32.767  19.913  25.302  1.00  0.00     0.087 A 
ATOM     40  C   UNL A   1      34.128  18.162  24.877  1.00  0.00     0.003 A 
ATOM     41  N   UNL A   1      32.155  18.766  25.722  1.00  0.00    -0.361 N 
ATOM     42  C   UNL A   1      32.968  17.683  25.489  1.00  0.00     0.046 A 
ATOM     43  C   UNL A   1      35.088  17.221  24.448  1.00  0.00     0.010 A 
ATOM     44  H   UNL A   1      31.260  18.721  26.130  1.00  0.00     0.166 HD
ATOM     45  C   UNL A   1      32.745  16.326  25.752  1.00  0.00     0.026 A 
ATOM     46  C   UNL A   1      34.860  15.854  24.662  1.00  0.00     0.001 A 
ATOM     47  C   UNL A   1      33.714  15.417  25.320  1.00  0.00     0.002 A 
ENDBRANCH  37  38
ENDBRANCH   6  37
ENDBRANCH   3   6
ENDBRANCH   1   2
BRANCH   1  48
ATOM     48  C   UNL A   1      40.038  20.468  26.186  1.00  0.00     0.021 C 
BRANCH  48  49
ATOM     49  C   UNL A   1      41.099  20.330  27.288  1.00  0.00     0.002 C 
BRANCH  49  50
ATOM     50  C   UNL A   1      42.316  21.269  27.265  1.00  0.00     0.002 C 
BRANCH  50  51
ATOM     51  C   UNL A   1      42.080  22.726  26.865  1.00  0.00     0.021 C 
BRANCH  51  52
ATOM     52  C   UNL A   1      42.477  23.098  25.445  1.00  0.00     0.116 C 
BRANCH  52  53
ATOM     53  N   UNL A   1      43.370  22.151  24.790  1.00  0.00    -0.352 N 
ATOM     54  C   UNL A   1      44.762  22.161  24.730  1.00  0.00     0.251 C 
ATOM     55  H   UNL A   1      42.930  21.402  24.325  1.00  0.00     0.163 HD
ATOM     56  O   UNL A   1      45.364  21.288  24.151  1.00  0.00    -0.269 OA
BRANCH  54  57
ATOM     57  C   UNL A   1      45.493  23.190  25.518  1.00  0.00     0.039 A 
ATOM     58  C   UNL A   1      45.680  22.941  26.881  1.00  0.00     0.014 A 
ATOM     59  C   UNL A   1      45.729  24.457  24.994  1.00  0.00     0.014 A 
ATOM     60  C   UNL A   1      45.814  24.019  27.752  1.00  0.00     0.010 A 
ATOM     61  C   UNL A   1      45.749  25.532  25.861  1.00  0.00     0.010 A 
ATOM     62  C   UNL A   1      45.708  25.312  27.242  1.00  0.00    -0.014 A 
BRANCH  62  63
ATOM     63  C   UNL A   1      45.356  26.459  28.073  1.00  0.00     0.031 A 
ATOM     64  C   UNL A   1      43.948  26.839  28.302  1.00  0.00     0.074 A 
ATOM     65  C   UNL A   1      46.340  27.146  28.699  1.00  0.00     0.049 A 
ATOM     66  N   UNL A   1      43.570  28.039  28.596  1.00  0.00    -0.248 NA
ATOM     67  C   UNL A   1      42.838  25.897  28.186  1.00  0.00     0.031 C 
ATOM     68  C   UNL A   1      46.191  28.129  29.768  1.00  0.00     0.029 A 
ATOM     69  N   UNL A   1      47.693  27.227  28.340  1.00  0.00    -0.354 N 
ATOM     70  C   UNL A   1      42.246  27.982  28.953  1.00  0.00     0.074 A 
ATOM     71  C   UNL A   1      41.818  26.638  28.632  1.00  0.00     0.031 C 
ATOM     72  C   UNL A   1      47.287  28.901  29.805  1.00  0.00     0.029 A 
ATOM     73  C   UNL A   1      48.116  28.532  28.672  1.00  0.00     0.049 A 
ATOM     74  H   UNL A   1      48.240  26.515  27.936  1.00  0.00     0.167 HD
ATOM     75  C   UNL A   1      41.666  29.030  29.601  1.00  0.00     0.037 A 
ATOM     76  C   UNL A   1      48.579  29.399  27.727  1.00  0.00     0.037 A 
ATOM     77  C   UNL A   1      42.597  30.127  29.810  1.00  0.00     0.049 A 
ATOM     78  C   UNL A   1      47.779  30.675  27.617  1.00  0.00     0.074 A 
ATOM     79  C   UNL A   1      43.409  30.469  30.880  1.00  0.00     0.029 A 
ATOM     80  N   UNL A   1      43.045  30.866  28.723  1.00  0.00    -0.354 N 
ATOM     81  N   UNL A   1      46.577  30.821  28.104  1.00  0.00    -0.248 NA
ATOM     82  C   UNL A   1      48.244  31.871  26.919  1.00  0.00     0.031 C 
ATOM     83  C   UNL A   1      44.389  31.377  30.415  1.00  0.00     0.029 A 
ATOM     84  C   UNL A   1      44.158  31.606  29.070  1.00  0.00     0.049 A 
ATOM     85  H   UNL A   1      42.628  30.863  27.831  1.00  0.00     0.167 HD
ATOM     86  C   UNL A   1      46.095  32.059  27.767  1.00  0.00     0.074 A 
ATOM     87  C   UNL A   1      47.184  32.689  27.048  1.00  0.00     0.031 C 
ATOM     88  C   UNL A   1      44.829  32.449  28.096  1.00  0.00     0.037 A 
BRANCH  75  89
ATOM     89  C   UNL A   1      40.334  28.897  30.280  1.00  0.00     0.057 A 
ATOM     90  C   UNL A   1      40.231  28.491  31.622  1.00  0.00     0.134 A 
ATOM     91  C   UNL A   1      39.110  29.115  29.626  1.00  0.00     0.134 A 
ATOM     92  F   UNL A   1      41.315  28.300  32.385  1.00  0.00    -0.206 F 
ATOM     93  C   UNL A   1      39.004  28.232  32.241  1.00  0.00     0.040 A 
ATOM     94  C   UNL A   1      37.875  28.816  30.218  1.00  0.00     0.040 A 
ATOM     95  F   UNL A   1      39.072  29.631  28.388  1.00  0.00    -0.206 F 
ATOM     96  C   UNL A   1      37.820  28.362  31.528  1.00  0.00     0.006 A 
ENDBRANCH  75  89
BRANCH  76  97
ATOM     97  C   UNL A   1      49.271  28.728  26.598  1.00  0.00     0.057 A 
ATOM     98  C   UNL A   1      50.619  28.361  26.759  1.00  0.00     0.134 A 
ATOM     99  C   UNL A   1      48.565  28.119  25.558  1.00  0.00     0.134 A 
ATOM    100  F   UNL A   1      51.353  28.910  27.740  1.00  0.00    -0.206 F 
ATOM    101  C   UNL A   1      51.206  27.352  25.994  1.00  0.00     0.040 A 
ATOM    102  C   UNL A   1      49.145  27.112  24.778  1.00  0.00     0.040 A 
ATOM    103  F   UNL A   1      47.269  28.400  25.358  1.00  0.00    -0.206 F 
ATOM    104  C   UNL A   1      50.455  26.699  25.022  1.00  0.00     0.006 A 
ENDBRANCH  76  97
BRANCH  88 105
ATOM    105  C   UNL A   1      44.127  33.687  27.604  1.00  0.00     0.057 A 
ATOM    106  C   UNL A   1      43.983  34.861  28.356  1.00  0.00     0.134 A 
ATOM    107  C   UNL A   1      43.704  33.779  26.259  1.00  0.00     0.134 A 
ATOM    108  F   UNL A   1      44.434  34.944  29.616  1.00  0.00    -0.206 F 
ATOM    109  C   UNL A   1      43.417  36.027  27.824  1.00  0.00     0.040 A 
ATOM    110  C   UNL A   1      43.184  34.951  25.703  1.00  0.00     0.040 A 
ATOM    111  F   UNL A   1      43.800  32.736  25.419  1.00  0.00    -0.206 F 
ATOM    112  C   UNL A   1      43.027  36.079  26.492  1.00  0.00     0.006 A 
ENDBRANCH  88 105
ENDBRANCH  62  63
ENDBRANCH  54  57
ENDBRANCH  52  53
ENDBRANCH  51  52
ENDBRANCH  50  51
ENDBRANCH  49  50
ENDBRANCH  48  49
ENDBRANCH   1  48
TORSDOF 22
ENDMDL
MODEL 2
REMARK VINA RESULT:     -12.0      2.312      4.132
REMARK SMILES Cc1ccc(S(=O)(=O)n2cc(C(=O)C(=O)NCC(=O)N[C@@H](Cc3c[nH]c4ccccc34)C(=O)NCCCCCCNC(=O)c3ccc(-c4c5nc(c(-c6c(F)cccc6F)c6ccc([nH]6)c(-c6c(F)cccc6F)c6nc(c(-c7c(F)cccc7F)c7ccc4[nH]7)C=C6)C=C5)cc3)c3ccccc32)cc1
REMARK SMILES IDX 35 1 34 2 32 3 33 4 21 6 20 7 18 8 19 9 17 11 16 12 14 13
REMARK SMILES IDX 15 14 12 16 13 17 11 18 9 19 10 20 103 21 98 22 102 23 99 24
REMARK SMILES IDX 101 25 100 26 6 27 7 28 8 29 5 30 1 31 2 32 3 33 105 34 4 35
REMARK SMILES IDX 104 36 22 37 23 38 24 39 31 40 25 41 26 42 30 43 27 45 29 46
REMARK SMILES IDX 28 47 36 48 37 49 38 50 39 51 40 52 41 53 42 54 43 56 44 57
REMARK SMILES IDX 45 58 97 59 46 60 96 61 47 62 48 63 49 64 90 65 50 66 95 67
REMARK SMILES IDX 89 68 91 69 51 70 94 71 88 72 87 73 52 75 78 76 61 77 77 78
REMARK SMILES IDX 62 79 65 80 76 81 92 82 63 83 64 84 75 86 93 87 66 88 53 89
REMARK SMILES IDX 54 90 59 91 55 92 56 93 58 94 60 95 57 96 79 97 80 98 85 99
REMARK SMILES IDX 81 100 82 101 84 102 86 103 83 104 67 105 68 106 73 107
REMARK SMILES IDX 69 108 70 109 72 110 74 111 71 112
REMARK H PARENT 34 5 20 10 16 15 25 44 41 55 91 74 65 85
REMARK Flexibility Score: inf
ROOT
ATOM      1  C   UNL A   1      38.004  21.940  25.483  1.00  0.00     0.116 C 
ENDROOT
BRANCH   1   2
ATOM      2  N   UNL A   1      37.468  22.416  24.227  1.00  0.00    -0.354 N 
ATOM      3  C   UNL A   1      36.186  22.740  23.896  1.00  0.00     0.242 C 
ATOM      4  O   UNL A   1      36.047  23.546  22.966  1.00  0.00    -0.273 OA
ATOM      5  H   UNL A   1      38.127  22.522  23.503  1.00  0.00     0.163 HD
BRANCH   3   6
ATOM      6  C   UNL A   1      34.926  22.251  24.656  1.00  0.00     0.175 C 
BRANCH   6   7
ATOM      7  N   UNL A   1      34.794  22.684  26.048  1.00  0.00    -0.342 N 
ATOM      8  C   UNL A   1      33.785  22.380  26.926  1.00  0.00     0.240 C 
ATOM      9  O   UNL A   1      33.964  22.607  28.123  1.00  0.00    -0.273 OA
ATOM     10  H   UNL A   1      35.512  23.261  26.394  1.00  0.00     0.164 HD
BRANCH   8  11
ATOM     11  C   UNL A   1      32.483  21.735  26.407  1.00  0.00     0.216 C 
BRANCH  11  12
ATOM     12  N   UNL A   1      31.319  22.312  27.087  1.00  0.00    -0.340 N 
ATOM     13  C   UNL A   1      30.511  23.357  26.675  1.00  0.00     0.292 C 
ATOM     14  O   UNL A   1      29.642  23.811  27.412  1.00  0.00    -0.265 OA
ATOM     15  H   UNL A   1      31.082  21.902  27.950  1.00  0.00     0.164 HD
BRANCH  13  16
ATOM     16  C   UNL A   1      30.720  23.956  25.281  1.00  0.00     0.252 C 
ATOM     17  O   UNL A   1      30.378  23.252  24.331  1.00  0.00    -0.283 OA
BRANCH  16  18
ATOM     18  C   UNL A   1      31.450  25.217  25.094  1.00  0.00     0.054 A 
ATOM     19  N   UNL A   1      32.472  27.219  25.323  1.00  0.00    -0.240 N 
ATOM     20  C   UNL A   1      31.712  26.261  25.989  1.00  0.00     0.117 A 
ATOM     21  C   UNL A   1      32.853  26.683  24.084  1.00  0.00     0.065 A 
ATOM     22  C   UNL A   1      31.973  25.633  23.832  1.00  0.00     0.012 A 
ATOM     23  C   UNL A   1      33.700  27.189  23.080  1.00  0.00     0.028 A 
ATOM     24  C   UNL A   1      31.807  25.201  22.498  1.00  0.00     0.011 A 
ATOM     25  C   UNL A   1      33.477  26.788  21.765  1.00  0.00     0.002 A 
ATOM     26  C   UNL A   1      32.513  25.836  21.471  1.00  0.00     0.001 A 
BRANCH  19  27
ATOM     27  S   UNL A   1      32.109  28.918  25.205  1.00  0.00     0.268 S 
ATOM     28  O   UNL A   1      33.407  29.512  24.928  1.00  0.00    -0.201 OA
ATOM     29  O   UNL A   1      31.408  29.185  26.454  1.00  0.00    -0.201 OA
BRANCH  27  30
ATOM     30  C   UNL A   1      31.021  29.635  24.029  1.00  0.00     0.088 A 
ATOM     31  C   UNL A   1      27.864  31.756  21.986  1.00  0.00     0.044 C 
ATOM     32  C   UNL A   1      28.999  31.031  22.648  1.00  0.00    -0.051 A 
ATOM     33  C   UNL A   1      29.342  31.419  23.936  1.00  0.00     0.005 A 
ATOM     34  C   UNL A   1      29.687  29.948  22.055  1.00  0.00     0.005 A 
ATOM     35  C   UNL A   1      30.343  30.738  24.603  1.00  0.00     0.022 A 
ATOM     36  C   UNL A   1      30.704  29.237  22.742  1.00  0.00     0.022 A 
ENDBRANCH  27  30
ENDBRANCH  19  27
ENDBRANCH  16  18
ENDBRANCH  13  16
ENDBRANCH  11  12
ENDBRANCH   8  11
ENDBRANCH   6   7
BRANCH   6  37
ATOM     37  C   UNL A   1      33.604  22.313  23.871  1.00  0.00     0.072 C 
BRANCH  37  38
ATOM     38  C   UNL A   1      33.051  21.017  23.369  1.00  0.00    -0.020 A 
ATOM     39  C   UNL A   1      32.114  20.893  22.361  1.00  0.00     0.087 A 
ATOM     40  C   UNL A   1      33.433  19.684  23.738  1.00  0.00     0.003 A 
ATOM     41  N   UNL A   1      31.846  19.566  22.176  1.00  0.00    -0.361 N 
ATOM     42  C   UNL A   1      32.625  18.805  23.014  1.00  0.00     0.046 A 
ATOM     43  C   UNL A   1      34.400  19.133  24.607  1.00  0.00     0.010 A 
ATOM     44  H   UNL A   1      31.192  19.206  21.535  1.00  0.00     0.166 HD
ATOM     45  C   UNL A   1      32.686  17.413  23.158  1.00  0.00     0.026 A 
ATOM     46  C   UNL A   1      34.506  17.740  24.729  1.00  0.00     0.001 A 
ATOM     47  C   UNL A   1      33.649  16.896  24.028  1.00  0.00     0.002 A 
ENDBRANCH  37  38
ENDBRANCH   6  37
ENDBRANCH   3   6
ENDBRANCH   1   2
BRANCH   1  48
ATOM     48  C   UNL A   1      38.352  20.452  25.509  1.00  0.00     0.021 C 
BRANCH  48  49
ATOM     49  C   UNL A   1      39.810  20.062  25.798  1.00  0.00     0.002 C 
BRANCH  49  50
ATOM     50  C   UNL A   1      40.514  20.681  27.016  1.00  0.00     0.002 C 
BRANCH  50  51
ATOM     51  C   UNL A   1      41.786  21.490  26.765  1.00  0.00     0.021 C 
BRANCH  51  52
ATOM     52  C   UNL A   1      41.693  22.560  25.687  1.00  0.00     0.116 C 
BRANCH  52  53
ATOM     53  N   UNL A   1      42.927  23.298  25.448  1.00  0.00    -0.352 N 
ATOM     54  C   UNL A   1      43.187  24.652  25.648  1.00  0.00     0.251 C 
ATOM     55  H   UNL A   1      43.679  22.767  25.097  1.00  0.00     0.163 HD
ATOM     56  O   UNL A   1      44.277  25.116  25.410  1.00  0.00    -0.269 OA
BRANCH  54  57
ATOM     57  C   UNL A   1      42.137  25.483  26.298  1.00  0.00     0.039 A 
ATOM     58  C   UNL A   1      41.856  26.726  25.724  1.00  0.00     0.014 A 
ATOM     59  C   UNL A   1      41.662  25.169  27.567  1.00  0.00     0.014 A 
ATOM     60  C   UNL A   1      41.359  27.746  26.531  1.00  0.00     0.010 A 
ATOM     61  C   UNL A   1      41.275  26.202  28.397  1.00  0.00     0.010 A 
ATOM     62  C   UNL A   1      41.205  27.506  27.896  1.00  0.00    -0.014 A 
BRANCH  62  63
ATOM     63  C   UNL A   1      41.163  28.582  28.883  1.00  0.00     0.031 A 
ATOM     64  C   UNL A   1      40.002  29.489  28.982  1.00  0.00     0.074 A 
ATOM     65  C   UNL A   1      42.180  28.705  29.767  1.00  0.00     0.049 A 
ATOM     66  N   UNL A   1      40.072  30.689  29.454  1.00  0.00    -0.248 NA
ATOM     67  C   UNL A   1      38.664  29.126  28.524  1.00  0.00     0.031 C 
ATOM     68  C   UNL A   1      42.206  29.518  30.980  1.00  0.00     0.029 A 
ATOM     69  N   UNL A   1      43.500  28.251  29.626  1.00  0.00    -0.354 N 
ATOM     70  C   UNL A   1      38.789  31.152  29.601  1.00  0.00     0.074 A 
ATOM     71  C   UNL A   1      37.947  30.166  28.960  1.00  0.00     0.031 C 
ATOM     72  C   UNL A   1      43.482  29.744  31.325  1.00  0.00     0.029 A 
ATOM     73  C   UNL A   1      44.319  29.202  30.270  1.00  0.00     0.049 A 
ATOM     74  H   UNL A   1      43.796  27.431  29.169  1.00  0.00     0.167 HD
ATOM     75  C   UNL A   1      38.543  32.257  30.358  1.00  0.00     0.037 A 
ATOM     76  C   UNL A   1      45.274  29.904  29.594  1.00  0.00     0.037 A 
ATOM     77  C   UNL A   1      39.762  32.823  30.913  1.00  0.00     0.049 A 
ATOM     78  C   UNL A   1      45.081  31.401  29.630  1.00  0.00     0.074 A 
ATOM     79  C   UNL A   1      40.396  32.655  32.133  1.00  0.00     0.029 A 
ATOM     80  N   UNL A   1      40.682  33.433  30.070  1.00  0.00    -0.354 N 
ATOM     81  N   UNL A   1      43.959  31.979  29.961  1.00  0.00    -0.248 NA
ATOM     82  C   UNL A   1      46.114  32.365  29.259  1.00  0.00     0.031 C 
ATOM     83  C   UNL A   1      41.728  33.114  32.004  1.00  0.00     0.029 A 
ATOM     84  C   UNL A   1      41.895  33.585  30.713  1.00  0.00     0.049 A 
ATOM     85  H   UNL A   1      40.496  33.718  29.147  1.00  0.00     0.167 HD
ATOM     86  C   UNL A   1      44.083  33.336  29.815  1.00  0.00     0.074 A 
ATOM     87  C   UNL A   1      45.457  33.531  29.398  1.00  0.00     0.031 C 
ATOM     88  C   UNL A   1      43.033  34.180  30.033  1.00  0.00     0.037 A 
BRANCH  75  89
ATOM     89  C   UNL A   1      37.154  32.617  30.801  1.00  0.00     0.057 A 
ATOM     90  C   UNL A   1      36.431  33.653  30.183  1.00  0.00     0.134 A 
ATOM     91  C   UNL A   1      36.503  31.994  31.878  1.00  0.00     0.134 A 
ATOM     92  F   UNL A   1      36.904  34.299  29.110  1.00  0.00    -0.206 F 
ATOM     93  C   UNL A   1      35.193  34.097  30.659  1.00  0.00     0.040 A 
ATOM     94  C   UNL A   1      35.284  32.457  32.393  1.00  0.00     0.040 A 
ATOM     95  F   UNL A   1      37.027  30.908  32.466  1.00  0.00    -0.206 F 
ATOM     96  C   UNL A   1      34.630  33.521  31.788  1.00  0.00     0.006 A 
ENDBRANCH  75  89
BRANCH  76  97
ATOM     97  C   UNL A   1      45.870  29.149  28.462  1.00  0.00     0.057 A 
ATOM     98  C   UNL A   1      45.377  29.381  27.166  1.00  0.00     0.134 A 
ATOM     99  C   UNL A   1      47.114  28.524  28.569  1.00  0.00     0.134 A 
ATOM    100  F   UNL A   1      44.187  29.979  26.995  1.00  0.00    -0.206 F 
ATOM    101  C   UNL A   1      46.137  29.108  26.027  1.00  0.00     0.040 A 
ATOM    102  C   UNL A   1      47.882  28.236  27.434  1.00  0.00     0.040 A 
ATOM    103  F   UNL A   1      47.660  28.291  29.772  1.00  0.00    -0.206 F 
ATOM    104  C   UNL A   1      47.411  28.565  26.163  1.00  0.00     0.006 A 
ENDBRANCH  76  97
BRANCH  88 105
ATOM    105  C   UNL A   1      42.992  35.649  29.705  1.00  0.00     0.057 A 
ATOM    106  C   UNL A   1      43.616  36.643  30.472  1.00  0.00     0.134 A 
ATOM    107  C   UNL A   1      42.438  36.091  28.482  1.00  0.00     0.134 A 
ATOM    108  F   UNL A   1      44.267  36.346  31.605  1.00  0.00    -0.206 F 
ATOM    109  C   UNL A   1      43.646  37.986  30.075  1.00  0.00     0.040 A 
ATOM    110  C   UNL A   1      42.506  37.419  28.053  1.00  0.00     0.040 A 
ATOM    111  F   UNL A   1      41.827  35.243  27.641  1.00  0.00    -0.206 F 
ATOM    112  C   UNL A   1      43.102  38.377  28.858  1.00  0.00     0.006 A 
ENDBRANCH  88 105
ENDBRANCH  62  63
ENDBRANCH  54  57
ENDBRANCH  52  53
ENDBRANCH  51  52
ENDBRANCH  50  51
ENDBRANCH  49  50
ENDBRANCH  48  49
ENDBRANCH   1  48
TORSDOF 22
ENDMDL
MODEL 3
REMARK VINA RESULT:     -12.0      1.523      2.166
REMARK SMILES Cc1ccc(S(=O)(=O)n2cc(C(=O)C(=O)NCC(=O)N[C@@H](Cc3c[nH]c4ccccc34)C(=O)NCCCCCCNC(=O)c3ccc(-c4c5nc(c(-c6c(F)cccc6F)c6ccc([nH]6)c(-c6c(F)cccc6F)c6nc(c(-c7c(F)cccc7F)c7ccc4[nH]7)C=C6)C=C5)cc3)c3ccccc32)cc1
REMARK SMILES IDX 35 1 34 2 32 3 33 4 21 6 20 7 18 8 19 9 17 11 16 12 14 13
REMARK SMILES IDX 15 14 12 16 13 17 11 18 9 19 10 20 103 21 98 22 102 23 99 24
REMARK SMILES IDX 101 25 100 26 6 27 7 28 8 29 5 30 1 31 2 32 3 33 105 34 4 35
REMARK SMILES IDX 104 36 22 37 23 38 24 39 31 40 25 41 26 42 30 43 27 45 29 46
REMARK SMILES IDX 28 47 36 48 37 49 38 50 39 51 40 52 41 53 42 54 43 56 44 57
REMARK SMILES IDX 45 58 97 59 46 60 96 61 47 62 48 63 49 64 90 65 50 66 95 67
REMARK SMILES IDX 89 68 91 69 51 70 94 71 88 72 87 73 52 75 78 76 61 77 77 78
REMARK SMILES IDX 62 79 65 80 76 81 92 82 63 83 64 84 75 86 93 87 66 88 53 89
REMARK SMILES IDX 54 90 59 91 55 92 56 93 58 94 60 95 57 96 79 97 80 98 85 99
REMARK SMILES IDX 81 100 82 101 84 102 86 103 83 104 67 105 68 106 73 107
REMARK SMILES IDX 69 108 70 109 72 110 74 111 71 112
REMARK H PARENT 34 5 20 10 16 15 25 44 41 55 91 74 65 85
REMARK Flexibility Score: inf
ROOT
ATOM      1  C   UNL A   1      38.283  21.219  25.555  1.00  0.00     0.116 C 
ENDROOT
BRANCH   1   2
ATOM      2  N   UNL A   1      37.591  21.817  24.435  1.00  0.00    -0.354 N 
ATOM      3  C   UNL A   1      36.254  21.977  24.226  1.00  0.00     0.242 C 
ATOM      4  O   UNL A   1      35.925  22.902  23.471  1.00  0.00    -0.273 OA
ATOM      5  H   UNL A   1      38.172  22.158  23.718  1.00  0.00     0.163 HD
BRANCH   3   6
ATOM      6  C   UNL A   1      35.144  21.157  24.932  1.00  0.00     0.175 C 
BRANCH   6   7
ATOM      7  N   UNL A   1      34.816  21.548  26.305  1.00  0.00    -0.342 N 
ATOM      8  C   UNL A   1      33.579  21.838  26.818  1.00  0.00     0.240 C 
ATOM      9  O   UNL A   1      33.451  21.888  28.042  1.00  0.00    -0.273 OA
ATOM     10  H   UNL A   1      35.572  21.610  26.931  1.00  0.00     0.164 HD
BRANCH   8  11
ATOM     11  C   UNL A   1      32.382  22.053  25.867  1.00  0.00     0.216 C 
BRANCH  11  12
ATOM     12  N   UNL A   1      31.203  22.491  26.620  1.00  0.00    -0.340 N 
ATOM     13  C   UNL A   1      30.463  23.651  26.464  1.00  0.00     0.292 C 
ATOM     14  O   UNL A   1      29.569  23.939  27.252  1.00  0.00    -0.265 OA
ATOM     15  H   UNL A   1      30.896  21.880  27.328  1.00  0.00     0.164 HD
BRANCH  13  16
ATOM     16  C   UNL A   1      30.782  24.587  25.294  1.00  0.00     0.252 C 
ATOM     17  O   UNL A   1      30.434  24.198  24.179  1.00  0.00    -0.283 OA
BRANCH  16  18
ATOM     18  C   UNL A   1      31.610  25.785  25.478  1.00  0.00     0.054 A 
ATOM     19  N   UNL A   1      32.776  27.549  26.276  1.00  0.00    -0.240 N 
ATOM     20  C   UNL A   1      31.930  26.504  26.637  1.00  0.00     0.117 A 
ATOM     21  C   UNL A   1      33.144  27.362  24.935  1.00  0.00     0.065 A 
ATOM     22  C   UNL A   1      32.193  26.503  24.390  1.00  0.00     0.012 A 
ATOM     23  C   UNL A   1      34.052  28.066  24.121  1.00  0.00     0.028 A 
ATOM     24  C   UNL A   1      32.027  26.487  22.989  1.00  0.00     0.011 A 
ATOM     25  C   UNL A   1      33.830  28.079  22.746  1.00  0.00     0.002 A 
ATOM     26  C   UNL A   1      32.803  27.331  22.189  1.00  0.00     0.001 A 
BRANCH  19  27
ATOM     27  S   UNL A   1      32.547  29.233  26.652  1.00  0.00     0.268 S 
ATOM     28  O   UNL A   1      31.516  29.203  27.677  1.00  0.00    -0.201 OA
ATOM     29  O   UNL A   1      32.294  29.823  25.344  1.00  0.00    -0.201 OA
BRANCH  27  30
ATOM     30  C   UNL A   1      33.788  30.301  27.285  1.00  0.00     0.088 A 
ATOM     31  C   UNL A   1      36.196  33.669  28.510  1.00  0.00     0.044 C 
ATOM     32  C   UNL A   1      35.381  32.465  28.133  1.00  0.00    -0.051 A 
ATOM     33  C   UNL A   1      34.014  32.644  27.970  1.00  0.00     0.005 A 
ATOM     34  C   UNL A   1      35.939  31.191  27.881  1.00  0.00     0.005 A 
ATOM     35  C   UNL A   1      33.237  31.575  27.566  1.00  0.00     0.022 A 
ATOM     36  C   UNL A   1      35.147  30.096  27.451  1.00  0.00     0.022 A 
ENDBRANCH  27  30
ENDBRANCH  19  27
ENDBRANCH  16  18
ENDBRANCH  13  16
ENDBRANCH  11  12
ENDBRANCH   8  11
ENDBRANCH   6   7
BRANCH   6  37
ATOM     37  C   UNL A   1      33.904  20.834  24.080  1.00  0.00     0.072 C 
BRANCH  37  38
ATOM     38  C   UNL A   1      33.394  19.429  24.128  1.00  0.00    -0.020 A 
ATOM     39  C   UNL A   1      32.142  19.024  23.705  1.00  0.00     0.087 A 
ATOM     40  C   UNL A   1      34.100  18.238  24.510  1.00  0.00     0.003 A 
ATOM     41  N   UNL A   1      32.030  17.677  23.903  1.00  0.00    -0.361 N 
ATOM     42  C   UNL A   1      33.203  17.173  24.409  1.00  0.00     0.046 A 
ATOM     43  C   UNL A   1      35.421  17.956  24.918  1.00  0.00     0.010 A 
ATOM     44  H   UNL A   1      31.224  17.144  23.711  1.00  0.00     0.166 HD
ATOM     45  C   UNL A   1      33.535  15.857  24.753  1.00  0.00     0.026 A 
ATOM     46  C   UNL A   1      35.784  16.636  25.224  1.00  0.00     0.001 A 
ATOM     47  C   UNL A   1      34.849  15.607  25.158  1.00  0.00     0.002 A 
ENDBRANCH  37  38
ENDBRANCH   6  37
ENDBRANCH   3   6
ENDBRANCH   1   2
BRANCH   1  48
ATOM     48  C   UNL A   1      38.704  19.764  25.348  1.00  0.00     0.021 C 
BRANCH  48  49
ATOM     49  C   UNL A   1      40.137  19.369  25.737  1.00  0.00     0.002 C 
BRANCH  49  50
ATOM     50  C   UNL A   1      40.817  20.107  26.901  1.00  0.00     0.002 C 
BRANCH  50  51
ATOM     51  C   UNL A   1      42.343  20.196  26.889  1.00  0.00     0.021 C 
BRANCH  51  52
ATOM     52  C   UNL A   1      42.964  20.817  25.647  1.00  0.00     0.116 C 
BRANCH  52  53
ATOM     53  N   UNL A   1      44.361  21.209  25.791  1.00  0.00    -0.352 N 
ATOM     54  C   UNL A   1      44.887  22.395  26.296  1.00  0.00     0.251 C 
ATOM     55  H   UNL A   1      45.022  20.545  25.489  1.00  0.00     0.163 HD
ATOM     56  O   UNL A   1      46.082  22.566  26.361  1.00  0.00    -0.269 OA
BRANCH  54  57
ATOM     57  C   UNL A   1      43.948  23.386  26.890  1.00  0.00     0.039 A 
ATOM     58  C   UNL A   1      43.627  24.507  26.119  1.00  0.00     0.014 A 
ATOM     59  C   UNL A   1      43.630  23.347  28.243  1.00  0.00     0.014 A 
ATOM     60  C   UNL A   1      43.262  25.687  26.762  1.00  0.00     0.010 A 
ATOM     61  C   UNL A   1      43.377  24.539  28.892  1.00  0.00     0.010 A 
ATOM     62  C   UNL A   1      43.276  25.724  28.156  1.00  0.00    -0.014 A 
BRANCH  62  63
ATOM     63  C   UNL A   1      43.385  26.970  28.908  1.00  0.00     0.031 A 
ATOM     64  C   UNL A   1      42.189  27.750  29.281  1.00  0.00     0.074 A 
ATOM     65  C   UNL A   1      44.604  27.381  29.328  1.00  0.00     0.049 A 
ATOM     66  N   UNL A   1      42.206  29.023  29.501  1.00  0.00    -0.248 NA
ATOM     67  C   UNL A   1      40.858  27.161  29.405  1.00  0.00     0.031 C 
ATOM     68  C   UNL A   1      44.898  28.427  30.305  1.00  0.00     0.029 A 
ATOM     69  N   UNL A   1      45.856  27.050  28.789  1.00  0.00    -0.354 N 
ATOM     70  C   UNL A   1      40.988  29.369  30.032  1.00  0.00     0.074 A 
ATOM     71  C   UNL A   1      40.163  28.188  29.904  1.00  0.00     0.031 C 
ATOM     72  C   UNL A   1      46.157  28.853  30.121  1.00  0.00     0.029 A 
ATOM     73  C   UNL A   1      46.667  28.196  28.932  1.00  0.00     0.049 A 
ATOM     74  H   UNL A   1      46.117  26.189  28.389  1.00  0.00     0.167 HD
ATOM     75  C   UNL A   1      40.826  30.575  30.642  1.00  0.00     0.037 A 
ATOM     76  C   UNL A   1      47.200  28.837  27.853  1.00  0.00     0.037 A 
ATOM     77  C   UNL A   1      42.043  31.369  30.618  1.00  0.00     0.049 A 
ATOM     78  C   UNL A   1      46.775  30.280  27.722  1.00  0.00     0.074 A 
ATOM     79  C   UNL A   1      43.072  31.526  31.532  1.00  0.00     0.029 A 
ATOM     80  N   UNL A   1      42.504  31.884  29.413  1.00  0.00    -0.354 N 
ATOM     81  N   UNL A   1      45.749  30.793  28.344  1.00  0.00    -0.248 NA
ATOM     82  C   UNL A   1      47.438  31.250  26.853  1.00  0.00     0.031 C 
ATOM     83  C   UNL A   1      44.181  32.087  30.856  1.00  0.00     0.029 A 
ATOM     84  C   UNL A   1      43.818  32.294  29.537  1.00  0.00     0.049 A 
ATOM     85  H   UNL A   1      41.971  31.949  28.589  1.00  0.00     0.167 HD
ATOM     86  C   UNL A   1      45.580  32.095  27.953  1.00  0.00     0.074 A 
ATOM     87  C   UNL A   1      46.677  32.344  27.038  1.00  0.00     0.031 C 
ATOM     88  C   UNL A   1      44.537  32.850  28.404  1.00  0.00     0.037 A 
BRANCH  75  89
ATOM     89  C   UNL A   1      39.629  30.870  31.500  1.00  0.00     0.057 A 
ATOM     90  C   UNL A   1      39.588  30.498  32.855  1.00  0.00     0.134 A 
ATOM     91  C   UNL A   1      38.463  31.482  31.012  1.00  0.00     0.134 A 
ATOM     92  F   UNL A   1      40.646  29.954  33.469  1.00  0.00    -0.206 F 
ATOM     93  C   UNL A   1      38.440  30.640  33.642  1.00  0.00     0.040 A 
ATOM     94  C   UNL A   1      37.292  31.590  31.775  1.00  0.00     0.040 A 
ATOM     95  F   UNL A   1      38.422  32.002  29.776  1.00  0.00    -0.206 F 
ATOM     96  C   UNL A   1      37.275  31.157  33.094  1.00  0.00     0.006 A 
ENDBRANCH  75  89
BRANCH  76  97
ATOM     97  C   UNL A   1      47.499  27.931  26.715  1.00  0.00     0.057 A 
ATOM     98  C   UNL A   1      48.683  27.175  26.752  1.00  0.00     0.134 A 
ATOM     99  C   UNL A   1      46.507  27.521  25.820  1.00  0.00     0.134 A 
ATOM    100  F   UNL A   1      49.674  27.517  27.590  1.00  0.00    -0.206 F 
ATOM    101  C   UNL A   1      48.831  25.997  26.016  1.00  0.00     0.040 A 
ATOM    102  C   UNL A   1      46.647  26.347  25.071  1.00  0.00     0.040 A 
ATOM    103  F   UNL A   1      45.341  28.178  25.745  1.00  0.00    -0.206 F 
ATOM    104  C   UNL A   1      47.793  25.562  25.198  1.00  0.00     0.006 A 
ENDBRANCH  76  97
BRANCH  88 105
ATOM    105  C   UNL A   1      44.135  34.207  27.888  1.00  0.00     0.057 A 
ATOM    106  C   UNL A   1      43.615  34.437  26.606  1.00  0.00     0.134 A 
ATOM    107  C   UNL A   1      44.115  35.323  28.755  1.00  0.00     0.134 A 
ATOM    108  F   UNL A   1      43.482  33.444  25.717  1.00  0.00    -0.206 F 
ATOM    109  C   UNL A   1      43.153  35.696  26.201  1.00  0.00     0.040 A 
ATOM    110  C   UNL A   1      43.611  36.570  28.377  1.00  0.00     0.040 A 
ATOM    111  F   UNL A   1      44.566  35.240  30.016  1.00  0.00    -0.206 F 
ATOM    112  C   UNL A   1      43.138  36.764  27.090  1.00  0.00     0.006 A 
ENDBRANCH  88 105
ENDBRANCH  62  63
ENDBRANCH  54  57
ENDBRANCH  52  53
ENDBRANCH  51  52
ENDBRANCH  50  51
ENDBRANCH  49  50
ENDBRANCH  48  49
ENDBRANCH   1  48
TORSDOF 22
ENDMDL
