MODEL 1
REMARK VINA RESULT:     -11.3      0.000      0.000
REMARK SMILES C#CCOc1ccc(/C=C(\Sc2nc(C)n[nH]2)C(=O)NCCCCCCNC(=O)c2ccc(-c3c4nc(c(-c5c(F)cccc5F)c5ccc([nH]5)c(-c5c(F)cccc5F)c5nc(c(-c6c(F)cccc6F)c6ccc3[nH]6)C=C5)C=C4)cc2)cc1
REMARK SMILES IDX 22 1 21 2 20 3 18 4 19 5 10 7 9 8 8 9 5 10 6 11 85 12 7 13
REMARK SMILES IDX 84 14 4 15 3 16 2 17 1 18 11 19 12 20 13 21 17 22 14 23
REMARK SMILES IDX 16 24 15 26 23 27 24 28 25 29 26 30 27 31 28 32 29 34 30 35
REMARK SMILES IDX 31 36 83 37 32 38 82 39 33 40 34 41 35 42 76 43 36 44 81 45
REMARK SMILES IDX 75 46 77 47 37 48 80 49 74 50 73 51 38 53 64 54 47 55 63 56
REMARK SMILES IDX 48 57 51 58 62 59 78 60 49 61 50 62 61 64 79 65 52 66 39 67
REMARK SMILES IDX 40 68 45 69 41 70 42 71 44 72 46 73 43 74 65 75 66 76 71 77
REMARK SMILES IDX 67 78 68 79 70 80 72 81 69 82 53 83 54 84 59 85 55 86 56 87
REMARK SMILES IDX 58 88 60 89 57 90
REMARK H PARENT 20 6 17 25 27 33 77 52 51 63
REMARK Flexibility Score: inf
ROOT
ATOM      1  C   UNL A   1      37.987  22.898  25.897  1.00  0.00     0.021 C 
ENDROOT
BRANCH   1   2
ATOM      2  C   UNL A   1      36.505  22.906  25.510  1.00  0.00     0.116 C 
BRANCH   2   3
ATOM      3  N   UNL A   1      35.740  22.177  26.500  1.00  0.00    -0.352 N 
ATOM      4  C   UNL A   1      34.402  22.024  26.676  1.00  0.00     0.258 C 
ATOM      5  O   UNL A   1      34.034  21.438  27.699  1.00  0.00    -0.269 OA
ATOM      6  H   UNL A   1      36.291  21.705  27.166  1.00  0.00     0.163 HD
BRANCH   4   7
ATOM      7  C   UNL A   1      33.394  22.494  25.658  1.00  0.00     0.081 C 
ATOM      8  C   UNL A   1      33.016  23.768  25.903  1.00  0.00     0.029 C 
BRANCH   8   9
ATOM      9  C   UNL A   1      32.211  24.597  25.022  1.00  0.00    -0.024 A 
ATOM     10  C   UNL A   1      30.939  26.771  23.856  1.00  0.00     0.120 A 
ATOM     11  C   UNL A   1      32.185  26.360  23.392  1.00  0.00     0.047 A 
ATOM     12  C   UNL A   1      30.254  25.963  24.773  1.00  0.00     0.047 A 
ATOM     13  C   UNL A   1      32.835  25.283  23.984  1.00  0.00     0.012 A 
ATOM     14  C   UNL A   1      30.876  24.846  25.328  1.00  0.00     0.012 A 
BRANCH  10  15
ATOM     15  O   UNL A   1      30.535  27.996  23.374  1.00  0.00    -0.481 OA
BRANCH  15  16
ATOM     16  C   UNL A   1      29.137  28.200  23.121  1.00  0.00     0.318 C 
BRANCH  16  17
ATOM     17  C   UNL A   1      29.030  29.488  22.321  1.00  0.00    -0.065 C 
ATOM     18  C   UNL A   1      28.937  30.593  21.634  1.00  0.00     0.007 C 
ENDBRANCH  16  17
ENDBRANCH  15  16
ENDBRANCH  10  15
ENDBRANCH   8   9
BRANCH   7  19
ATOM     19  S   UNL A   1      33.215  21.528  24.228  1.00  0.00    -0.045 SA
BRANCH  19  20
ATOM     20  C   UNL A   1      33.257  19.865  24.686  1.00  0.00     0.188 A 
ATOM     21  N   UNL A   1      33.761  18.791  24.114  1.00  0.00    -0.206 NA
ATOM     22  N   UNL A   1      32.515  19.487  25.765  1.00  0.00    -0.254 N 
ATOM     23  C   UNL A   1      33.354  17.770  24.966  1.00  0.00     0.148 A 
ATOM     24  N   UNL A   1      32.528  18.158  25.947  1.00  0.00    -0.158 NA
ATOM     25  H   UNL A   1      32.028  20.116  26.344  1.00  0.00     0.192 HD
ATOM     26  C   UNL A   1      33.871  16.380  24.913  1.00  0.00     0.092 C 
ENDBRANCH  19  20
ENDBRANCH   7  19
ENDBRANCH   4   7
ENDBRANCH   2   3
ENDBRANCH   1   2
BRANCH   1  27
ATOM     27  C   UNL A   1      38.693  21.565  25.603  1.00  0.00     0.002 C 
BRANCH  27  28
ATOM     28  C   UNL A   1      40.037  21.355  26.321  1.00  0.00     0.002 C 
BRANCH  28  29
ATOM     29  C   UNL A   1      40.651  19.954  26.196  1.00  0.00     0.021 C 
BRANCH  29  30
ATOM     30  C   UNL A   1      41.964  19.798  26.947  1.00  0.00     0.116 C 
BRANCH  30  31
ATOM     31  N   UNL A   1      43.090  19.571  26.043  1.00  0.00    -0.352 N 
ATOM     32  C   UNL A   1      43.787  20.505  25.299  1.00  0.00     0.251 C 
ATOM     33  H   UNL A   1      43.390  18.638  25.954  1.00  0.00     0.163 HD
ATOM     34  O   UNL A   1      44.436  20.183  24.322  1.00  0.00    -0.269 OA
BRANCH  32  35
ATOM     35  C   UNL A   1      43.734  21.911  25.733  1.00  0.00     0.039 A 
ATOM     36  C   UNL A   1      43.030  22.873  25.005  1.00  0.00     0.014 A 
ATOM     37  C   UNL A   1      44.392  22.242  26.915  1.00  0.00     0.014 A 
ATOM     38  C   UNL A   1      42.933  24.162  25.523  1.00  0.00     0.010 A 
ATOM     39  C   UNL A   1      44.160  23.458  27.500  1.00  0.00     0.010 A 
ATOM     40  C   UNL A   1      43.489  24.440  26.782  1.00  0.00    -0.014 A 
BRANCH  40  41
ATOM     41  C   UNL A   1      43.283  25.730  27.428  1.00  0.00     0.031 A 
ATOM     42  C   UNL A   1      44.273  26.770  27.038  1.00  0.00     0.074 A 
ATOM     43  C   UNL A   1      42.157  26.020  28.116  1.00  0.00     0.049 A 
ATOM     44  N   UNL A   1      45.168  27.330  27.782  1.00  0.00    -0.248 NA
ATOM     45  C   UNL A   1      44.383  27.127  25.612  1.00  0.00     0.031 C 
ATOM     46  C   UNL A   1      40.956  25.192  28.288  1.00  0.00     0.029 A 
ATOM     47  N   UNL A   1      41.799  27.181  28.728  1.00  0.00    -0.354 N 
ATOM     48  C   UNL A   1      45.802  28.273  26.976  1.00  0.00     0.074 A 
ATOM     49  C   UNL A   1      45.422  27.965  25.624  1.00  0.00     0.031 C 
ATOM     50  C   UNL A   1      39.934  25.954  28.739  1.00  0.00     0.029 A 
ATOM     51  C   UNL A   1      40.451  27.269  29.061  1.00  0.00     0.049 A 
ATOM     52  H   UNL A   1      42.443  27.901  28.920  1.00  0.00     0.167 HD
ATOM     53  C   UNL A   1      46.366  29.388  27.519  1.00  0.00     0.037 A 
ATOM     54  C   UNL A   1      39.806  28.358  29.548  1.00  0.00     0.037 A 
ATOM     55  C   UNL A   1      46.549  29.228  28.941  1.00  0.00     0.049 A 
ATOM     56  C   UNL A   1      40.840  29.272  30.087  1.00  0.00     0.074 A 
ATOM     57  C   UNL A   1      47.250  28.352  29.746  1.00  0.00     0.029 A 
ATOM     58  N   UNL A   1      45.627  29.832  29.759  1.00  0.00    -0.354 N 
ATOM     59  N   UNL A   1      41.572  29.005  31.133  1.00  0.00    -0.248 NA
ATOM     60  C   UNL A   1      41.378  30.280  29.188  1.00  0.00     0.031 C 
ATOM     61  C   UNL A   1      46.402  28.128  30.871  1.00  0.00     0.029 A 
ATOM     62  C   UNL A   1      45.271  28.934  30.729  1.00  0.00     0.049 A 
ATOM     63  H   UNL A   1      45.283  30.750  29.666  1.00  0.00     0.167 HD
ATOM     64  C   UNL A   1      42.838  29.464  30.803  1.00  0.00     0.074 A 
ATOM     65  C   UNL A   1      42.636  30.322  29.634  1.00  0.00     0.031 C 
ATOM     66  C   UNL A   1      43.955  28.876  31.323  1.00  0.00     0.037 A 
BRANCH  53  67
ATOM     67  C   UNL A   1      46.360  30.756  26.872  1.00  0.00     0.057 A 
ATOM     68  C   UNL A   1      47.546  31.516  26.879  1.00  0.00     0.134 A 
ATOM     69  C   UNL A   1      45.197  31.479  26.534  1.00  0.00     0.134 A 
ATOM     70  F   UNL A   1      48.724  30.952  27.185  1.00  0.00    -0.206 F 
ATOM     71  C   UNL A   1      47.557  32.900  26.668  1.00  0.00     0.040 A 
ATOM     72  C   UNL A   1      45.205  32.853  26.271  1.00  0.00     0.040 A 
ATOM     73  F   UNL A   1      43.977  30.931  26.537  1.00  0.00    -0.206 F 
ATOM     74  C   UNL A   1      46.380  33.575  26.375  1.00  0.00     0.006 A 
ENDBRANCH  53  67
BRANCH  54  75
ATOM     75  C   UNL A   1      38.416  28.806  29.306  1.00  0.00     0.057 A 
ATOM     76  C   UNL A   1      37.514  28.972  30.367  1.00  0.00     0.134 A 
ATOM     77  C   UNL A   1      38.031  29.366  28.076  1.00  0.00     0.134 A 
ATOM     78  F   UNL A   1      37.809  28.507  31.590  1.00  0.00    -0.206 F 
ATOM     79  C   UNL A   1      36.314  29.683  30.223  1.00  0.00     0.040 A 
ATOM     80  C   UNL A   1      36.834  30.075  27.917  1.00  0.00     0.040 A 
ATOM     81  F   UNL A   1      38.848  29.326  27.013  1.00  0.00    -0.206 F 
ATOM     82  C   UNL A   1      35.979  30.250  28.998  1.00  0.00     0.006 A 
ENDBRANCH  54  75
BRANCH  66  83
ATOM     83  C   UNL A   1      43.775  27.915  32.468  1.00  0.00     0.057 A 
ATOM     84  C   UNL A   1      43.766  26.518  32.341  1.00  0.00     0.134 A 
ATOM     85  C   UNL A   1      43.767  28.431  33.768  1.00  0.00     0.134 A 
ATOM     86  F   UNL A   1      43.862  25.927  31.145  1.00  0.00    -0.206 F 
ATOM     87  C   UNL A   1      43.717  25.676  33.458  1.00  0.00     0.040 A 
ATOM     88  C   UNL A   1      43.753  27.602  34.892  1.00  0.00     0.040 A 
ATOM     89  F   UNL A   1      43.826  29.757  33.969  1.00  0.00    -0.206 F 
ATOM     90  C   UNL A   1      43.719  26.219  34.739  1.00  0.00     0.006 A 
ENDBRANCH  66  83
ENDBRANCH  40  41
ENDBRANCH  32  35
ENDBRANCH  30  31
ENDBRANCH  29  30
ENDBRANCH  28  29
ENDBRANCH  27  28
ENDBRANCH   1  27
TORSDOF 19
ENDMDL
MODEL 2
REMARK VINA RESULT:     -11.3      1.536      2.075
REMARK SMILES C#CCOc1ccc(/C=C(\Sc2nc(C)n[nH]2)C(=O)NCCCCCCNC(=O)c2ccc(-c3c4nc(c(-c5c(F)cccc5F)c5ccc([nH]5)c(-c5c(F)cccc5F)c5nc(c(-c6c(F)cccc6F)c6ccc3[nH]6)C=C5)C=C4)cc2)cc1
REMARK SMILES IDX 22 1 21 2 20 3 18 4 19 5 10 7 9 8 8 9 5 10 6 11 85 12 7 13
REMARK SMILES IDX 84 14 4 15 3 16 2 17 1 18 11 19 12 20 13 21 17 22 14 23
REMARK SMILES IDX 16 24 15 26 23 27 24 28 25 29 26 30 27 31 28 32 29 34 30 35
REMARK SMILES IDX 31 36 83 37 32 38 82 39 33 40 34 41 35 42 76 43 36 44 81 45
REMARK SMILES IDX 75 46 77 47 37 48 80 49 74 50 73 51 38 53 64 54 47 55 63 56
REMARK SMILES IDX 48 57 51 58 62 59 78 60 49 61 50 62 61 64 79 65 52 66 39 67
REMARK SMILES IDX 40 68 45 69 41 70 42 71 44 72 46 73 43 74 65 75 66 76 71 77
REMARK SMILES IDX 67 78 68 79 70 80 72 81 69 82 53 83 54 84 59 85 55 86 56 87
REMARK SMILES IDX 58 88 60 89 57 90
REMARK H PARENT 20 6 17 25 27 33 77 52 51 63
REMARK Flexibility Score: inf
ROOT
ATOM      1  C   UNL A   1      40.197  22.683  26.468  1.00  0.00     0.021 C 
ENDROOT
BRANCH   1   2
ATOM      2  C   UNL A   1      38.702  22.792  26.157  1.00  0.00     0.116 C 
BRANCH   2   3
ATOM      3  N   UNL A   1      38.257  21.593  25.477  1.00  0.00    -0.352 N 
ATOM      4  C   UNL A   1      37.017  21.140  25.164  1.00  0.00     0.258 C 
ATOM      5  O   UNL A   1      36.939  20.004  24.685  1.00  0.00    -0.269 OA
ATOM      6  H   UNL A   1      38.988  21.000  25.189  1.00  0.00     0.163 HD
BRANCH   4   7
ATOM      7  C   UNL A   1      35.779  21.984  25.334  1.00  0.00     0.081 C 
ATOM      8  C   UNL A   1      35.739  22.974  24.416  1.00  0.00     0.029 C 
BRANCH   8   9
ATOM      9  C   UNL A   1      34.608  23.851  24.166  1.00  0.00    -0.024 A 
ATOM     10  C   UNL A   1      32.997  25.890  23.186  1.00  0.00     0.120 A 
ATOM     11  C   UNL A   1      32.989  24.639  22.576  1.00  0.00     0.047 A 
ATOM     12  C   UNL A   1      33.669  26.047  24.407  1.00  0.00     0.047 A 
ATOM     13  C   UNL A   1      33.807  23.620  23.051  1.00  0.00     0.012 A 
ATOM     14  C   UNL A   1      34.444  25.009  24.921  1.00  0.00     0.012 A 
BRANCH  10  15
ATOM     15  O   UNL A   1      32.359  26.873  22.464  1.00  0.00    -0.481 OA
BRANCH  15  16
ATOM     16  C   UNL A   1      30.925  26.913  22.491  1.00  0.00     0.318 C 
BRANCH  16  17
ATOM     17  C   UNL A   1      30.534  28.374  22.339  1.00  0.00    -0.065 C 
ATOM     18  C   UNL A   1      30.199  29.627  22.208  1.00  0.00     0.007 C 
ENDBRANCH  16  17
ENDBRANCH  15  16
ENDBRANCH  10  15
ENDBRANCH   8   9
BRANCH   7  19
ATOM     19  S   UNL A   1      34.523  21.338  26.342  1.00  0.00    -0.045 SA
BRANCH  19  20
ATOM     20  C   UNL A   1      33.671  20.134  25.446  1.00  0.00     0.188 A 
ATOM     21  N   UNL A   1      33.440  19.973  24.160  1.00  0.00    -0.206 NA
ATOM     22  N   UNL A   1      32.944  19.219  26.147  1.00  0.00    -0.254 N 
ATOM     23  C   UNL A   1      32.611  18.857  24.135  1.00  0.00     0.148 A 
ATOM     24  N   UNL A   1      32.231  18.417  25.342  1.00  0.00    -0.158 NA
ATOM     25  H   UNL A   1      32.943  19.154  27.129  1.00  0.00     0.192 HD
ATOM     26  C   UNL A   1      32.259  18.102  22.907  1.00  0.00     0.092 C 
ENDBRANCH  19  20
ENDBRANCH   7  19
ENDBRANCH   4   7
ENDBRANCH   2   3
ENDBRANCH   1   2
BRANCH   1  27
ATOM     27  C   UNL A   1      40.518  21.731  27.630  1.00  0.00     0.002 C 
BRANCH  27  28
ATOM     28  C   UNL A   1      41.993  21.313  27.758  1.00  0.00     0.002 C 
BRANCH  28  29
ATOM     29  C   UNL A   1      42.334  19.901  27.262  1.00  0.00     0.021 C 
BRANCH  29  30
ATOM     30  C   UNL A   1      42.175  19.731  25.760  1.00  0.00     0.116 C 
BRANCH  30  31
ATOM     31  N   UNL A   1      43.439  19.393  25.108  1.00  0.00    -0.352 N 
ATOM     32  C   UNL A   1      44.401  20.256  24.614  1.00  0.00     0.251 C 
ATOM     33  H   UNL A   1      43.630  18.433  25.010  1.00  0.00     0.163 HD
ATOM     34  O   UNL A   1      45.209  19.896  23.779  1.00  0.00    -0.269 OA
BRANCH  32  35
ATOM     35  C   UNL A   1      44.430  21.630  25.141  1.00  0.00     0.039 A 
ATOM     36  C   UNL A   1      43.545  22.608  24.680  1.00  0.00     0.014 A 
ATOM     37  C   UNL A   1      45.357  21.914  26.141  1.00  0.00     0.014 A 
ATOM     38  C   UNL A   1      43.555  23.859  25.291  1.00  0.00     0.010 A 
ATOM     39  C   UNL A   1      45.255  23.083  26.846  1.00  0.00     0.010 A 
ATOM     40  C   UNL A   1      44.405  24.080  26.387  1.00  0.00    -0.014 A 
BRANCH  40  41
ATOM     41  C   UNL A   1      44.341  25.321  27.149  1.00  0.00     0.031 A 
ATOM     42  C   UNL A   1      45.459  26.264  26.871  1.00  0.00     0.074 A 
ATOM     43  C   UNL A   1      43.244  25.682  27.849  1.00  0.00     0.049 A 
ATOM     44  N   UNL A   1      46.398  26.638  27.674  1.00  0.00    -0.248 NA
ATOM     45  C   UNL A   1      45.643  26.735  25.487  1.00  0.00     0.031 C 
ATOM     46  C   UNL A   1      41.948  24.995  27.928  1.00  0.00     0.029 A 
ATOM     47  N   UNL A   1      43.015  26.817  28.564  1.00  0.00    -0.354 N 
ATOM     48  C   UNL A   1      47.159  27.567  26.969  1.00  0.00     0.074 A 
ATOM     49  C   UNL A   1      46.776  27.434  25.589  1.00  0.00     0.031 C 
ATOM     50  C   UNL A   1      41.016  25.831  28.438  1.00  0.00     0.029 A 
ATOM     51  C   UNL A   1      41.680  27.038  28.889  1.00  0.00     0.049 A 
ATOM     52  H   UNL A   1      43.737  27.431  28.830  1.00  0.00     0.167 HD
ATOM     53  C   UNL A   1      47.842  28.549  27.621  1.00  0.00     0.037 A 
ATOM     54  C   UNL A   1      41.161  28.148  29.469  1.00  0.00     0.037 A 
ATOM     55  C   UNL A   1      47.971  28.238  29.023  1.00  0.00     0.049 A 
ATOM     56  C   UNL A   1      42.286  28.875  30.104  1.00  0.00     0.074 A 
ATOM     57  C   UNL A   1      48.543  27.212  29.750  1.00  0.00     0.029 A 
ATOM     58  N   UNL A   1      47.111  28.872  29.884  1.00  0.00    -0.354 N 
ATOM     59  N   UNL A   1      42.955  28.425  31.128  1.00  0.00    -0.248 NA
ATOM     60  C   UNL A   1      42.962  29.888  29.309  1.00  0.00     0.031 C 
ATOM     61  C   UNL A   1      47.648  26.991  30.839  1.00  0.00     0.029 A 
ATOM     62  C   UNL A   1      46.627  27.939  30.761  1.00  0.00     0.049 A 
ATOM     63  H   UNL A   1      46.883  29.830  29.874  1.00  0.00     0.167 HD
ATOM     64  C   UNL A   1      44.275  28.754  30.857  1.00  0.00     0.074 A 
ATOM     65  C   UNL A   1      44.205  29.734  29.772  1.00  0.00     0.031 C 
ATOM     66  C   UNL A   1      45.300  27.988  31.331  1.00  0.00     0.037 A 
BRANCH  53  67
ATOM     67  C   UNL A   1      48.016  29.962  27.106  1.00  0.00     0.057 A 
ATOM     68  C   UNL A   1      49.296  30.549  27.151  1.00  0.00     0.134 A 
ATOM     69  C   UNL A   1      46.960  30.866  26.869  1.00  0.00     0.134 A 
ATOM     70  F   UNL A   1      50.389  29.801  27.371  1.00  0.00    -0.206 F 
ATOM     71  C   UNL A   1      49.496  31.932  27.071  1.00  0.00     0.040 A 
ATOM     72  C   UNL A   1      47.154  32.245  26.737  1.00  0.00     0.040 A 
ATOM     73  F   UNL A   1      45.676  30.492  26.855  1.00  0.00    -0.206 F 
ATOM     74  C   UNL A   1      48.420  32.787  26.876  1.00  0.00     0.006 A 
ENDBRANCH  53  67
BRANCH  54  75
ATOM     75  C   UNL A   1      39.841  28.784  29.254  1.00  0.00     0.057 A 
ATOM     76  C   UNL A   1      39.456  29.240  27.985  1.00  0.00     0.134 A 
ATOM     77  C   UNL A   1      38.817  28.687  30.212  1.00  0.00     0.134 A 
ATOM     78  F   UNL A   1      40.354  29.329  26.993  1.00  0.00    -0.206 F 
ATOM     79  C   UNL A   1      38.124  29.550  27.675  1.00  0.00     0.040 A 
ATOM     80  C   UNL A   1      37.484  28.998  29.918  1.00  0.00     0.040 A 
ATOM     81  F   UNL A   1      39.060  28.197  31.436  1.00  0.00    -0.206 F 
ATOM     82  C   UNL A   1      37.131  29.415  28.641  1.00  0.00     0.006 A 
ENDBRANCH  54  75
BRANCH  66  83
ATOM     83  C   UNL A   1      44.980  26.954  32.379  1.00  0.00     0.057 A 
ATOM     84  C   UNL A   1      44.700  25.606  32.108  1.00  0.00     0.134 A 
ATOM     85  C   UNL A   1      45.114  27.313  33.724  1.00  0.00     0.134 A 
ATOM     86  F   UNL A   1      44.640  25.146  30.854  1.00  0.00    -0.206 F 
ATOM     87  C   UNL A   1      44.529  24.668  33.133  1.00  0.00     0.040 A 
ATOM     88  C   UNL A   1      44.980  26.380  34.754  1.00  0.00     0.040 A 
ATOM     89  F   UNL A   1      45.432  28.574  34.058  1.00  0.00    -0.206 F 
ATOM     90  C   UNL A   1      44.678  25.054  34.461  1.00  0.00     0.006 A 
ENDBRANCH  66  83
ENDBRANCH  40  41
ENDBRANCH  32  35
ENDBRANCH  30  31
ENDBRANCH  29  30
ENDBRANCH  28  29
ENDBRANCH  27  28
ENDBRANCH   1  27
TORSDOF 19
ENDMDL
MODEL 3
REMARK VINA RESULT:     -10.8      3.158      8.663
REMARK SMILES C#CCOc1ccc(/C=C(\Sc2nc(C)n[nH]2)C(=O)NCCCCCCNC(=O)c2ccc(-c3c4nc(c(-c5c(F)cccc5F)c5ccc([nH]5)c(-c5c(F)cccc5F)c5nc(c(-c6c(F)cccc6F)c6ccc3[nH]6)C=C5)C=C4)cc2)cc1
REMARK SMILES IDX 22 1 21 2 20 3 18 4 19 5 10 7 9 8 8 9 5 10 6 11 85 12 7 13
REMARK SMILES IDX 84 14 4 15 3 16 2 17 1 18 11 19 12 20 13 21 17 22 14 23
REMARK SMILES IDX 16 24 15 26 23 27 24 28 25 29 26 30 27 31 28 32 29 34 30 35
REMARK SMILES IDX 31 36 83 37 32 38 82 39 33 40 34 41 35 42 76 43 36 44 81 45
REMARK SMILES IDX 75 46 77 47 37 48 80 49 74 50 73 51 38 53 64 54 47 55 63 56
REMARK SMILES IDX 48 57 51 58 62 59 78 60 49 61 50 62 61 64 79 65 52 66 39 67
REMARK SMILES IDX 40 68 45 69 41 70 42 71 44 72 46 73 43 74 65 75 66 76 71 77
REMARK SMILES IDX 67 78 68 79 70 80 72 81 69 82 53 83 54 84 59 85 55 86 56 87
REMARK SMILES IDX 58 88 60 89 57 90
REMARK H PARENT 20 6 17 25 27 33 77 52 51 63
REMARK Flexibility Score: inf
ROOT
ATOM      1  C   UNL A   1      31.805  28.420  27.421  1.00  0.00     0.021 C 
ENDROOT
BRANCH   1   2
ATOM      2  C   UNL A   1      32.183  27.227  26.539  1.00  0.00     0.116 C 
BRANCH   2   3
ATOM      3  N   UNL A   1      32.951  27.687  25.401  1.00  0.00    -0.352 N 
ATOM      4  C   UNL A   1      33.243  27.102  24.211  1.00  0.00     0.258 C 
ATOM      5  O   UNL A   1      34.038  27.694  23.475  1.00  0.00    -0.269 OA
ATOM      6  H   UNL A   1      33.330  28.590  25.510  1.00  0.00     0.163 HD
BRANCH   4   7
ATOM      7  C   UNL A   1      32.600  25.814  23.764  1.00  0.00     0.081 C 
ATOM      8  C   UNL A   1      33.198  24.749  24.340  1.00  0.00     0.029 C 
BRANCH   8   9
ATOM      9  C   UNL A   1      32.720  23.377  24.287  1.00  0.00    -0.024 A 
ATOM     10  C   UNL A   1      32.452  20.644  24.692  1.00  0.00     0.120 A 
ATOM     11  C   UNL A   1      31.746  21.541  25.489  1.00  0.00     0.047 A 
ATOM     12  C   UNL A   1      33.136  21.126  23.567  1.00  0.00     0.047 A 
ATOM     13  C   UNL A   1      31.891  22.911  25.303  1.00  0.00     0.012 A 
ATOM     14  C   UNL A   1      33.235  22.497  23.339  1.00  0.00     0.012 A 
BRANCH  10  15
ATOM     15  O   UNL A   1      32.431  19.346  25.150  1.00  0.00    -0.481 OA
BRANCH  15  16
ATOM     16  C   UNL A   1      32.312  18.287  24.189  1.00  0.00     0.318 C 
BRANCH  16  17
ATOM     17  C   UNL A   1      33.440  17.312  24.484  1.00  0.00    -0.065 C 
ATOM     18  C   UNL A   1      34.408  16.475  24.738  1.00  0.00     0.007 C 
ENDBRANCH  16  17
ENDBRANCH  15  16
ENDBRANCH  10  15
ENDBRANCH   8   9
BRANCH   7  19
ATOM     19  S   UNL A   1      31.065  25.941  22.965  1.00  0.00    -0.045 SA
BRANCH  19  20
ATOM     20  C   UNL A   1      30.595  27.601  22.950  1.00  0.00     0.188 A 
ATOM     21  N   UNL A   1      30.001  28.371  23.839  1.00  0.00    -0.206 NA
ATOM     22  N   UNL A   1      30.689  28.276  21.770  1.00  0.00    -0.254 N 
ATOM     23  C   UNL A   1      29.835  29.565  23.147  1.00  0.00     0.148 A 
ATOM     24  N   UNL A   1      30.181  29.514  21.853  1.00  0.00    -0.158 NA
ATOM     25  H   UNL A   1      31.085  27.898  20.952  1.00  0.00     0.192 HD
ATOM     26  C   UNL A   1      29.437  30.849  23.776  1.00  0.00     0.092 C 
ENDBRANCH  19  20
ENDBRANCH   7  19
ENDBRANCH   4   7
ENDBRANCH   2   3
ENDBRANCH   1   2
BRANCH   1  27
ATOM     27  C   UNL A   1      31.772  29.758  26.668  1.00  0.00     0.002 C 
BRANCH  27  28
ATOM     28  C   UNL A   1      32.728  30.841  27.197  1.00  0.00     0.002 C 
BRANCH  28  29
ATOM     29  C   UNL A   1      34.206  30.439  27.298  1.00  0.00     0.021 C 
BRANCH  29  30
ATOM     30  C   UNL A   1      35.130  31.604  27.616  1.00  0.00     0.116 C 
BRANCH  30  31
ATOM     31  N   UNL A   1      34.759  32.275  28.860  1.00  0.00    -0.352 N 
ATOM     32  C   UNL A   1      35.173  31.977  30.146  1.00  0.00     0.251 C 
ATOM     33  H   UNL A   1      34.139  33.033  28.772  1.00  0.00     0.163 HD
ATOM     34  O   UNL A   1      34.537  32.336  31.118  1.00  0.00    -0.269 OA
BRANCH  32  35
ATOM     35  C   UNL A   1      36.425  31.218  30.308  1.00  0.00     0.039 A 
ATOM     36  C   UNL A   1      36.421  29.834  30.492  1.00  0.00     0.014 A 
ATOM     37  C   UNL A   1      37.620  31.931  30.243  1.00  0.00     0.014 A 
ATOM     38  C   UNL A   1      37.640  29.163  30.536  1.00  0.00     0.010 A 
ATOM     39  C   UNL A   1      38.804  31.256  30.123  1.00  0.00     0.010 A 
ATOM     40  C   UNL A   1      38.827  29.883  30.333  1.00  0.00    -0.014 A 
BRANCH  40  41
ATOM     41  C   UNL A   1      40.111  29.203  30.222  1.00  0.00     0.031 A 
ATOM     42  C   UNL A   1      40.813  29.011  31.521  1.00  0.00     0.074 A 
ATOM     43  C   UNL A   1      40.504  28.586  29.086  1.00  0.00     0.049 A 
ATOM     44  N   UNL A   1      41.923  29.545  31.908  1.00  0.00    -0.248 NA
ATOM     45  C   UNL A   1      40.124  28.249  32.578  1.00  0.00     0.031 C 
ATOM     46  C   UNL A   1      39.752  28.414  27.836  1.00  0.00     0.029 A 
ATOM     47  N   UNL A   1      41.638  27.875  28.842  1.00  0.00    -0.354 N 
ATOM     48  C   UNL A   1      42.188  29.010  33.166  1.00  0.00     0.074 A 
ATOM     49  C   UNL A   1      40.967  28.388  33.603  1.00  0.00     0.031 C 
ATOM     50  C   UNL A   1      40.338  27.463  27.075  1.00  0.00     0.029 A 
ATOM     51  C   UNL A   1      41.597  27.093  27.692  1.00  0.00     0.049 A 
ATOM     52  H   UNL A   1      42.425  27.912  29.433  1.00  0.00     0.167 HD
ATOM     53  C   UNL A   1      43.468  28.893  33.619  1.00  0.00     0.037 A 
ATOM     54  C   UNL A   1      42.526  26.191  27.291  1.00  0.00     0.037 A 
ATOM     55  C   UNL A   1      44.363  29.715  32.841  1.00  0.00     0.049 A 
ATOM     56  C   UNL A   1      43.779  26.502  28.021  1.00  0.00     0.074 A 
ATOM     57  C   UNL A   1      44.468  31.066  32.575  1.00  0.00     0.029 A 
ATOM     58  N   UNL A   1      45.112  29.084  31.880  1.00  0.00    -0.354 N 
ATOM     59  N   UNL A   1      44.478  27.587  27.833  1.00  0.00    -0.248 NA
ATOM     60  C   UNL A   1      44.002  25.824  29.287  1.00  0.00     0.031 C 
ATOM     61  C   UNL A   1      44.867  31.141  31.207  1.00  0.00     0.029 A 
ATOM     62  C   UNL A   1      45.056  29.839  30.739  1.00  0.00     0.049 A 
ATOM     63  H   UNL A   1      45.603  28.238  31.990  1.00  0.00     0.167 HD
ATOM     64  C   UNL A   1      44.882  27.968  29.104  1.00  0.00     0.074 A 
ATOM     65  C   UNL A   1      44.639  26.796  29.946  1.00  0.00     0.031 C 
ATOM     66  C   UNL A   1      45.096  29.282  29.407  1.00  0.00     0.037 A 
BRANCH  53  67
ATOM     67  C   UNL A   1      43.981  27.741  34.457  1.00  0.00     0.057 A 
ATOM     68  C   UNL A   1      43.863  26.430  33.955  1.00  0.00     0.134 A 
ATOM     69  C   UNL A   1      44.288  27.823  35.831  1.00  0.00     0.134 A 
ATOM     70  F   UNL A   1      43.572  26.210  32.664  1.00  0.00    -0.206 F 
ATOM     71  C   UNL A   1      43.941  25.298  34.776  1.00  0.00     0.040 A 
ATOM     72  C   UNL A   1      44.419  26.696  36.649  1.00  0.00     0.040 A 
ATOM     73  F   UNL A   1      44.377  28.986  36.486  1.00  0.00    -0.206 F 
ATOM     74  C   UNL A   1      44.207  25.431  36.131  1.00  0.00     0.006 A 
ENDBRANCH  53  67
BRANCH  54  75
ATOM     75  C   UNL A   1      42.336  24.909  26.576  1.00  0.00     0.057 A 
ATOM     76  C   UNL A   1      43.126  24.575  25.467  1.00  0.00     0.134 A 
ATOM     77  C   UNL A   1      41.589  23.860  27.140  1.00  0.00     0.134 A 
ATOM     78  F   UNL A   1      43.904  25.498  24.884  1.00  0.00    -0.206 F 
ATOM     79  C   UNL A   1      43.197  23.267  24.967  1.00  0.00     0.040 A 
ATOM     80  C   UNL A   1      41.647  22.551  26.648  1.00  0.00     0.040 A 
ATOM     81  F   UNL A   1      40.854  24.052  28.245  1.00  0.00    -0.206 F 
ATOM     82  C   UNL A   1      42.466  22.247  25.568  1.00  0.00     0.006 A 
ENDBRANCH  54  75
BRANCH  66  83
ATOM     83  C   UNL A   1      45.158  30.265  28.267  1.00  0.00     0.057 A 
ATOM     84  C   UNL A   1      44.056  30.973  27.765  1.00  0.00     0.134 A 
ATOM     85  C   UNL A   1      46.416  30.619  27.767  1.00  0.00     0.134 A 
ATOM     86  F   UNL A   1      42.823  30.771  28.243  1.00  0.00    -0.206 F 
ATOM     87  C   UNL A   1      44.199  31.963  26.786  1.00  0.00     0.040 A 
ATOM     88  C   UNL A   1      46.576  31.628  26.816  1.00  0.00     0.040 A 
ATOM     89  F   UNL A   1      47.522  30.021  28.238  1.00  0.00    -0.206 F 
ATOM     90  C   UNL A   1      45.463  32.298  26.315  1.00  0.00     0.006 A 
ENDBRANCH  66  83
ENDBRANCH  40  41
ENDBRANCH  32  35
ENDBRANCH  30  31
ENDBRANCH  29  30
ENDBRANCH  28  29
ENDBRANCH  27  28
ENDBRANCH   1  27
TORSDOF 19
ENDMDL
