MODEL 1
REMARK VINA RESULT:     -12.3      0.000      0.000
REMARK SMILES O=C(NCCCCCCNC(=O)[C@H]1CC[C@@H]2CCCC[C@H]2N1C(=O)N1CCSCC1)c1ccc(-c2c3nc(c(-c4c(F)cccc4F)c4ccc([nH]4)c(-c4c(F)cccc4F)c4nc(c(-c5c(F)cccc5F)c5ccc2[nH]5)C=C4)C=C3)cc1
REMARK SMILES IDX 6 1 5 2 4 3 3 4 1 5 2 6 31 8 32 9 84 10 33 11 83 12 34 13
REMARK SMILES IDX 35 14 36 15 77 16 37 17 82 18 76 19 78 20 38 21 81 22 75 23
REMARK SMILES IDX 74 24 39 26 65 27 48 28 64 29 49 30 52 31 63 32 79 33 50 34
REMARK SMILES IDX 51 35 62 37 80 38 53 39 40 40 41 41 46 42 42 43 43 44 45 45
REMARK SMILES IDX 47 46 44 47 66 48 67 49 72 50 68 51 69 52 71 53 73 54 70 55
REMARK SMILES IDX 54 56 55 57 60 58 56 59 57 60 59 61 61 62 58 63 7 64 8 65
REMARK SMILES IDX 9 66 10 67 11 68 12 70 13 71 14 72 22 73 15 74 21 75 16 76
REMARK SMILES IDX 20 77 17 78 19 79 18 80 23 81 24 82 25 83 26 84 30 85 27 86
REMARK SMILES IDX 29 87 28 88
REMARK H PARENT 3 7 78 25 52 36 10 69
REMARK Flexibility Score: inf
ROOT
ATOM      1  C   UNL A   1      31.676  30.051  26.173  1.00  0.00     0.002 C 
ENDROOT
BRANCH   1   2
ATOM      2  C   UNL A   1      31.492  31.525  26.502  1.00  0.00     0.021 C 
BRANCH   2   3
ATOM      3  C   UNL A   1      32.732  32.188  27.075  1.00  0.00     0.116 C 
BRANCH   3   4
ATOM      4  N   UNL A   1      32.498  33.574  27.454  1.00  0.00    -0.352 N 
ATOM      5  O   UNL A   1      32.709  35.428  28.730  1.00  0.00    -0.269 OA
ATOM      6  C   UNL A   1      33.125  34.327  28.418  1.00  0.00     0.251 C 
ATOM      7  H   UNL A   1      31.791  34.037  26.949  1.00  0.00     0.163 HD
BRANCH   6   8
ATOM      8  C   UNL A   1      34.308  33.753  29.092  1.00  0.00     0.039 A 
ATOM      9  C   UNL A   1      35.587  34.205  28.762  1.00  0.00     0.014 A 
ATOM     10  C   UNL A   1      34.130  32.727  30.021  1.00  0.00     0.014 A 
ATOM     11  C   UNL A   1      36.697  33.523  29.235  1.00  0.00     0.010 A 
ATOM     12  C   UNL A   1      35.250  32.115  30.582  1.00  0.00     0.010 A 
ATOM     13  C   UNL A   1      36.539  32.491  30.171  1.00  0.00    -0.014 A 
BRANCH  13  14
ATOM     14  C   UNL A   1      37.737  31.868  30.777  1.00  0.00     0.031 A 
ATOM     15  C   UNL A   1      38.530  30.835  30.037  1.00  0.00     0.074 A 
ATOM     16  C   UNL A   1      38.083  32.238  32.025  1.00  0.00     0.049 A 
ATOM     17  N   UNL A   1      39.531  30.107  30.461  1.00  0.00    -0.248 NA
ATOM     18  C   UNL A   1      38.144  30.575  28.642  1.00  0.00     0.031 C 
ATOM     19  C   UNL A   1      37.378  33.238  32.832  1.00  0.00     0.029 A 
ATOM     20  N   UNL A   1      39.103  31.816  32.835  1.00  0.00    -0.354 N 
ATOM     21  C   UNL A   1      39.870  29.276  29.402  1.00  0.00     0.074 A 
ATOM     22  C   UNL A   1      38.963  29.584  28.316  1.00  0.00     0.031 C 
ATOM     23  C   UNL A   1      37.998  33.367  34.011  1.00  0.00     0.029 A 
ATOM     24  C   UNL A   1      39.087  32.403  34.075  1.00  0.00     0.049 A 
ATOM     25  H   UNL A   1      39.779  31.157  32.555  1.00  0.00     0.167 HD
ATOM     26  C   UNL A   1      40.847  28.339  29.352  1.00  0.00     0.037 A 
ATOM     27  C   UNL A   1      39.836  32.160  35.165  1.00  0.00     0.037 A 
ATOM     28  C   UNL A   1      41.751  28.061  30.439  1.00  0.00     0.049 A 
ATOM     29  C   UNL A   1      40.893  31.105  35.094  1.00  0.00     0.074 A 
ATOM     30  C   UNL A   1      42.802  27.162  30.480  1.00  0.00     0.029 A 
ATOM     31  N   UNL A   1      41.704  28.678  31.682  1.00  0.00    -0.354 N 
ATOM     32  N   UNL A   1      41.214  30.332  34.085  1.00  0.00    -0.248 NA
ATOM     33  C   UNL A   1      41.687  30.880  36.307  1.00  0.00     0.031 C 
ATOM     34  C   UNL A   1      43.362  27.205  31.762  1.00  0.00     0.029 A 
ATOM     35  C   UNL A   1      42.692  28.164  32.504  1.00  0.00     0.049 A 
ATOM     36  H   UNL A   1      41.062  29.379  31.940  1.00  0.00     0.167 HD
ATOM     37  C   UNL A   1      42.257  29.537  34.532  1.00  0.00     0.074 A 
ATOM     38  C   UNL A   1      42.520  29.929  35.903  1.00  0.00     0.031 C 
ATOM     39  C   UNL A   1      42.937  28.573  33.866  1.00  0.00     0.037 A 
BRANCH  26  40
ATOM     40  C   UNL A   1      40.960  27.523  28.096  1.00  0.00     0.057 A 
ATOM     41  C   UNL A   1      41.757  27.921  27.015  1.00  0.00     0.134 A 
ATOM     42  C   UNL A   1      40.271  26.309  27.975  1.00  0.00     0.134 A 
ATOM     43  F   UNL A   1      42.436  29.078  27.060  1.00  0.00    -0.206 F 
ATOM     44  C   UNL A   1      41.840  27.157  25.848  1.00  0.00     0.040 A 
ATOM     45  C   UNL A   1      40.364  25.525  26.823  1.00  0.00     0.040 A 
ATOM     46  F   UNL A   1      39.495  25.864  28.975  1.00  0.00    -0.206 F 
ATOM     47  C   UNL A   1      41.145  25.953  25.752  1.00  0.00     0.006 A 
ENDBRANCH  26  40
BRANCH  27  48
ATOM     48  C   UNL A   1      39.566  32.927  36.405  1.00  0.00     0.057 A 
ATOM     49  C   UNL A   1      40.229  34.128  36.669  1.00  0.00     0.134 A 
ATOM     50  C   UNL A   1      38.574  32.520  37.306  1.00  0.00     0.134 A 
ATOM     51  F   UNL A   1      41.192  34.565  35.846  1.00  0.00    -0.206 F 
ATOM     52  C   UNL A   1      39.911  34.903  37.787  1.00  0.00     0.040 A 
ATOM     53  C   UNL A   1      38.229  33.296  38.413  1.00  0.00     0.040 A 
ATOM     54  F   UNL A   1      37.890  31.385  37.093  1.00  0.00    -0.206 F 
ATOM     55  C   UNL A   1      38.901  34.491  38.655  1.00  0.00     0.006 A 
ENDBRANCH  27  48
BRANCH  39  56
ATOM     56  C   UNL A   1      44.054  27.899  34.600  1.00  0.00     0.057 A 
ATOM     57  C   UNL A   1      43.867  26.686  35.273  1.00  0.00     0.134 A 
ATOM     58  C   UNL A   1      45.344  28.443  34.583  1.00  0.00     0.134 A 
ATOM     59  F   UNL A   1      42.651  26.124  35.339  1.00  0.00    -0.206 F 
ATOM     60  C   UNL A   1      44.927  26.041  35.913  1.00  0.00     0.040 A 
ATOM     61  C   UNL A   1      46.415  27.797  35.200  1.00  0.00     0.040 A 
ATOM     62  F   UNL A   1      45.586  29.601  33.949  1.00  0.00    -0.206 F 
ATOM     63  C   UNL A   1      46.207  26.593  35.869  1.00  0.00     0.006 A 
ENDBRANCH  39  56
ENDBRANCH  13  14
ENDBRANCH   6   8
ENDBRANCH   3   4
ENDBRANCH   2   3
ENDBRANCH   1   2
BRANCH   1  64
ATOM     64  C   UNL A   1      32.162  29.176  27.329  1.00  0.00     0.002 C 
BRANCH  64  65
ATOM     65  C   UNL A   1      31.472  27.809  27.443  1.00  0.00     0.021 C 
BRANCH  65  66
ATOM     66  C   UNL A   1      31.162  27.150  26.099  1.00  0.00     0.116 C 
BRANCH  66  67
ATOM     67  N   UNL A   1      30.614  25.820  26.286  1.00  0.00    -0.354 N 
ATOM     68  C   UNL A   1      31.240  24.618  26.369  1.00  0.00     0.242 C 
ATOM     69  H   UNL A   1      29.634  25.784  26.365  1.00  0.00     0.163 HD
ATOM     70  O   UNL A   1      30.515  23.619  26.458  1.00  0.00    -0.273 OA
BRANCH  68  71
ATOM     71  C   UNL A   1      32.752  24.444  26.127  1.00  0.00     0.176 C 
ATOM     72  C   UNL A   1      33.143  23.427  27.227  1.00  0.00     0.036 C 
ATOM     73  N   UNL A   1      33.245  24.084  24.770  1.00  0.00    -0.309 N 
ATOM     74  C   UNL A   1      34.573  22.953  27.156  1.00  0.00     0.008 C 
ATOM     75  C   UNL A   1      34.659  23.561  24.722  1.00  0.00     0.091 C 
ATOM     76  C   UNL A   1      34.873  22.427  25.756  1.00  0.00     0.012 C 
ATOM     77  C   UNL A   1      35.217  23.126  23.347  1.00  0.00     0.025 C 
ATOM     78  C   UNL A   1      36.293  21.841  25.757  1.00  0.00     0.006 C 
ATOM     79  C   UNL A   1      36.646  22.593  23.412  1.00  0.00     0.002 C 
ATOM     80  C   UNL A   1      36.749  21.422  24.371  1.00  0.00     0.000 C 
BRANCH  73  81
ATOM     81  C   UNL A   1      32.656  24.552  23.591  1.00  0.00     0.321 C 
ATOM     82  O   UNL A   1      32.110  23.792  22.788  1.00  0.00    -0.248 OA
ATOM     83  N   UNL A   1      32.542  25.923  23.380  1.00  0.00    -0.323 N 
ATOM     84  C   UNL A   1      31.396  26.323  22.548  1.00  0.00     0.132 C 
ATOM     85  C   UNL A   1      33.735  26.767  23.209  1.00  0.00     0.132 C 
ATOM     86  C   UNL A   1      30.915  27.749  22.800  1.00  0.00     0.091 C 
ATOM     87  C   UNL A   1      33.498  28.265  23.450  1.00  0.00     0.091 C 
ATOM     88  S   UNL A   1      32.200  28.954  22.376  1.00  0.00    -0.158 SA
ENDBRANCH  73  81
ENDBRANCH  68  71
ENDBRANCH  66  67
ENDBRANCH  65  66
ENDBRANCH  64  65
ENDBRANCH   1  64
TORSDOF 14
ENDMDL
MODEL 2
REMARK VINA RESULT:     -11.9      4.676     10.480
REMARK SMILES O=C(NCCCCCCNC(=O)[C@H]1CC[C@@H]2CCCC[C@H]2N1C(=O)N1CCSCC1)c1ccc(-c2c3nc(c(-c4c(F)cccc4F)c4ccc([nH]4)c(-c4c(F)cccc4F)c4nc(c(-c5c(F)cccc5F)c5ccc2[nH]5)C=C4)C=C3)cc1
REMARK SMILES IDX 6 1 5 2 4 3 3 4 1 5 2 6 31 8 32 9 84 10 33 11 83 12 34 13
REMARK SMILES IDX 35 14 36 15 77 16 37 17 82 18 76 19 78 20 38 21 81 22 75 23
REMARK SMILES IDX 74 24 39 26 65 27 48 28 64 29 49 30 52 31 63 32 79 33 50 34
REMARK SMILES IDX 51 35 62 37 80 38 53 39 40 40 41 41 46 42 42 43 43 44 45 45
REMARK SMILES IDX 47 46 44 47 66 48 67 49 72 50 68 51 69 52 71 53 73 54 70 55
REMARK SMILES IDX 54 56 55 57 60 58 56 59 57 60 59 61 61 62 58 63 7 64 8 65
REMARK SMILES IDX 9 66 10 67 11 68 12 70 13 71 14 72 22 73 15 74 21 75 16 76
REMARK SMILES IDX 20 77 17 78 19 79 18 80 23 81 24 82 25 83 26 84 30 85 27 86
REMARK SMILES IDX 29 87 28 88
REMARK H PARENT 3 7 78 25 52 36 10 69
REMARK Flexibility Score: inf
ROOT
ATOM      1  C   UNL A   1      36.441  33.605  28.204  1.00  0.00     0.002 C 
ENDROOT
BRANCH   1   2
ATOM      2  C   UNL A   1      35.066  33.543  28.853  1.00  0.00     0.021 C 
BRANCH   2   3
ATOM      3  C   UNL A   1      34.764  32.220  29.533  1.00  0.00     0.116 C 
BRANCH   3   4
ATOM      4  N   UNL A   1      34.168  31.250  28.625  1.00  0.00    -0.352 N 
ATOM      5  O   UNL A   1      34.166  29.584  27.098  1.00  0.00    -0.269 OA
ATOM      6  C   UNL A   1      34.767  30.213  27.950  1.00  0.00     0.251 C 
ATOM      7  H   UNL A   1      33.200  31.352  28.473  1.00  0.00     0.163 HD
BRANCH   6   8
ATOM      8  C   UNL A   1      36.175  29.896  28.264  1.00  0.00     0.039 A 
ATOM      9  C   UNL A   1      37.173  30.135  27.318  1.00  0.00     0.014 A 
ATOM     10  C   UNL A   1      36.482  29.314  29.495  1.00  0.00     0.014 A 
ATOM     11  C   UNL A   1      38.451  29.644  27.532  1.00  0.00     0.010 A 
ATOM     12  C   UNL A   1      37.794  28.921  29.754  1.00  0.00     0.010 A 
ATOM     13  C   UNL A   1      38.780  29.059  28.763  1.00  0.00    -0.014 A 
BRANCH  13  14
ATOM     14  C   UNL A   1      40.182  28.669  29.033  1.00  0.00     0.031 A 
ATOM     15  C   UNL A   1      41.143  29.628  29.668  1.00  0.00     0.074 A 
ATOM     16  C   UNL A   1      40.579  27.435  28.670  1.00  0.00     0.049 A 
ATOM     17  N   UNL A   1      42.428  29.492  29.867  1.00  0.00    -0.248 NA
ATOM     18  C   UNL A   1      40.593  30.911  30.130  1.00  0.00     0.031 C 
ATOM     19  C   UNL A   1      39.720  26.424  28.046  1.00  0.00     0.029 A 
ATOM     20  N   UNL A   1      41.800  26.823  28.763  1.00  0.00    -0.354 N 
ATOM     21  C   UNL A   1      42.851  30.684  30.440  1.00  0.00     0.074 A 
ATOM     22  C   UNL A   1      41.685  31.535  30.550  1.00  0.00     0.031 C 
ATOM     23  C   UNL A   1      40.434  25.312  27.833  1.00  0.00     0.029 A 
ATOM     24  C   UNL A   1      41.814  25.561  28.225  1.00  0.00     0.049 A 
ATOM     25  H   UNL A   1      42.588  27.246  29.175  1.00  0.00     0.167 HD
ATOM     26  C   UNL A   1      44.101  31.029  30.830  1.00  0.00     0.037 A 
ATOM     27  C   UNL A   1      42.835  24.710  28.022  1.00  0.00     0.037 A 
ATOM     28  C   UNL A   1      45.245  30.158  30.727  1.00  0.00     0.049 A 
ATOM     29  C   UNL A   1      44.211  25.122  28.439  1.00  0.00     0.074 A 
ATOM     30  C   UNL A   1      46.548  30.392  31.129  1.00  0.00     0.029 A 
ATOM     31  N   UNL A   1      45.219  28.884  30.175  1.00  0.00    -0.354 N 
ATOM     32  N   UNL A   1      44.599  26.246  28.990  1.00  0.00    -0.248 NA
ATOM     33  C   UNL A   1      45.292  24.159  28.201  1.00  0.00     0.031 C 
ATOM     34  C   UNL A   1      47.319  29.278  30.780  1.00  0.00     0.029 A 
ATOM     35  C   UNL A   1      46.488  28.329  30.206  1.00  0.00     0.049 A 
ATOM     36  H   UNL A   1      44.417  28.441  29.816  1.00  0.00     0.167 HD
ATOM     37  C   UNL A   1      45.966  26.124  29.182  1.00  0.00     0.074 A 
ATOM     38  C   UNL A   1      46.338  24.810  28.694  1.00  0.00     0.031 C 
ATOM     39  C   UNL A   1      46.833  27.017  29.717  1.00  0.00     0.037 A 
BRANCH  26  40
ATOM     40  C   UNL A   1      44.301  32.418  31.364  1.00  0.00     0.057 A 
ATOM     41  C   UNL A   1      44.520  33.517  30.523  1.00  0.00     0.134 A 
ATOM     42  C   UNL A   1      44.258  32.662  32.743  1.00  0.00     0.134 A 
ATOM     43  F   UNL A   1      44.585  33.354  29.193  1.00  0.00    -0.206 F 
ATOM     44  C   UNL A   1      44.719  34.802  31.036  1.00  0.00     0.040 A 
ATOM     45  C   UNL A   1      44.431  33.945  33.267  1.00  0.00     0.040 A 
ATOM     46  F   UNL A   1      44.044  31.656  33.605  1.00  0.00    -0.206 F 
ATOM     47  C   UNL A   1      44.671  35.018  32.412  1.00  0.00     0.006 A 
ENDBRANCH  26  40
BRANCH  27  48
ATOM     48  C   UNL A   1      42.565  23.408  27.367  1.00  0.00     0.057 A 
ATOM     49  C   UNL A   1      42.768  23.234  25.995  1.00  0.00     0.134 A 
ATOM     50  C   UNL A   1      42.185  22.286  28.115  1.00  0.00     0.134 A 
ATOM     51  F   UNL A   1      43.126  24.273  25.227  1.00  0.00    -0.206 F 
ATOM     52  C   UNL A   1      42.606  21.987  25.389  1.00  0.00     0.040 A 
ATOM     53  C   UNL A   1      42.044  21.029  27.527  1.00  0.00     0.040 A 
ATOM     54  F   UNL A   1      41.995  22.388  29.439  1.00  0.00    -0.206 F 
ATOM     55  C   UNL A   1      42.255  20.878  26.159  1.00  0.00     0.006 A 
ENDBRANCH  27  48
BRANCH  39  56
ATOM     56  C   UNL A   1      48.263  26.590  29.833  1.00  0.00     0.057 A 
ATOM     57  C   UNL A   1      49.213  26.918  28.859  1.00  0.00     0.134 A 
ATOM     58  C   UNL A   1      48.704  25.891  30.964  1.00  0.00     0.134 A 
ATOM     59  F   UNL A   1      48.847  27.571  27.745  1.00  0.00    -0.206 F 
ATOM     60  C   UNL A   1      50.553  26.558  29.001  1.00  0.00     0.040 A 
ATOM     61  C   UNL A   1      50.045  25.544  31.128  1.00  0.00     0.040 A 
ATOM     62  F   UNL A   1      47.842  25.553  31.935  1.00  0.00    -0.206 F 
ATOM     63  C   UNL A   1      50.973  25.876  30.143  1.00  0.00     0.006 A 
ENDBRANCH  39  56
ENDBRANCH  13  14
ENDBRANCH   6   8
ENDBRANCH   3   4
ENDBRANCH   2   3
ENDBRANCH   1   2
BRANCH   1  64
ATOM     64  C   UNL A   1      37.613  33.246  29.118  1.00  0.00     0.002 C 
BRANCH  64  65
ATOM     65  C   UNL A   1      38.445  34.441  29.606  1.00  0.00     0.021 C 
BRANCH  65  66
ATOM     66  C   UNL A   1      38.925  34.323  31.052  1.00  0.00     0.116 C 
BRANCH  66  67
ATOM     67  N   UNL A   1      37.952  34.882  31.971  1.00  0.00    -0.354 N 
ATOM     68  C   UNL A   1      37.474  34.397  33.145  1.00  0.00     0.242 C 
ATOM     69  H   UNL A   1      37.578  35.751  31.699  1.00  0.00     0.163 HD
ATOM     70  O   UNL A   1      36.583  35.053  33.698  1.00  0.00    -0.273 OA
BRANCH  68  71
ATOM     71  C   UNL A   1      37.823  32.990  33.672  1.00  0.00     0.176 C 
ATOM     72  C   UNL A   1      37.099  32.074  32.656  1.00  0.00     0.036 C 
ATOM     73  N   UNL A   1      39.246  32.623  33.909  1.00  0.00    -0.309 N 
ATOM     74  C   UNL A   1      37.371  30.602  32.843  1.00  0.00     0.008 C 
ATOM     75  C   UNL A   1      39.510  31.144  34.039  1.00  0.00     0.091 C 
ATOM     76  C   UNL A   1      38.876  30.355  32.867  1.00  0.00     0.012 C 
ATOM     77  C   UNL A   1      40.975  30.692  34.242  1.00  0.00     0.025 C 
ATOM     78  C   UNL A   1      39.113  28.838  32.933  1.00  0.00     0.006 C 
ATOM     79  C   UNL A   1      41.135  29.177  34.341  1.00  0.00     0.002 C 
ATOM     80  C   UNL A   1      40.579  28.487  33.110  1.00  0.00     0.000 C 
BRANCH  73  81
ATOM     81  C   UNL A   1      40.202  33.527  34.383  1.00  0.00     0.321 C 
ATOM     82  O   UNL A   1      41.085  33.985  33.655  1.00  0.00    -0.248 OA
ATOM     83  N   UNL A   1      40.075  34.045  35.668  1.00  0.00    -0.323 N 
ATOM     84  C   UNL A   1      40.643  35.392  35.845  1.00  0.00     0.132 C 
ATOM     85  C   UNL A   1      40.194  33.181  36.853  1.00  0.00     0.132 C 
ATOM     86  C   UNL A   1      40.011  36.187  36.984  1.00  0.00     0.091 C 
ATOM     87  C   UNL A   1      39.586  33.766  38.136  1.00  0.00     0.091 C 
ATOM     88  S   UNL A   1      40.302  35.380  38.581  1.00  0.00    -0.158 SA
ENDBRANCH  73  81
ENDBRANCH  68  71
ENDBRANCH  66  67
ENDBRANCH  65  66
ENDBRANCH  64  65
ENDBRANCH   1  64
TORSDOF 14
ENDMDL
MODEL 3
REMARK VINA RESULT:     -11.8      0.515      6.014
REMARK SMILES O=C(NCCCCCCNC(=O)[C@H]1CC[C@@H]2CCCC[C@H]2N1C(=O)N1CCSCC1)c1ccc(-c2c3nc(c(-c4c(F)cccc4F)c4ccc([nH]4)c(-c4c(F)cccc4F)c4nc(c(-c5c(F)cccc5F)c5ccc2[nH]5)C=C4)C=C3)cc1
REMARK SMILES IDX 6 1 5 2 4 3 3 4 1 5 2 6 31 8 32 9 84 10 33 11 83 12 34 13
REMARK SMILES IDX 35 14 36 15 77 16 37 17 82 18 76 19 78 20 38 21 81 22 75 23
REMARK SMILES IDX 74 24 39 26 65 27 48 28 64 29 49 30 52 31 63 32 79 33 50 34
REMARK SMILES IDX 51 35 62 37 80 38 53 39 40 40 41 41 46 42 42 43 43 44 45 45
REMARK SMILES IDX 47 46 44 47 66 48 67 49 72 50 68 51 69 52 71 53 73 54 70 55
REMARK SMILES IDX 54 56 55 57 60 58 56 59 57 60 59 61 61 62 58 63 7 64 8 65
REMARK SMILES IDX 9 66 10 67 11 68 12 70 13 71 14 72 22 73 15 74 21 75 16 76
REMARK SMILES IDX 20 77 17 78 19 79 18 80 23 81 24 82 25 83 26 84 30 85 27 86
REMARK SMILES IDX 29 87 28 88
REMARK H PARENT 3 7 78 25 52 36 10 69
REMARK Flexibility Score: inf
ROOT
ATOM      1  C   UNL A   1      31.533  30.256  26.212  1.00  0.00     0.002 C 
ENDROOT
BRANCH   1   2
ATOM      2  C   UNL A   1      31.391  31.731  26.557  1.00  0.00     0.021 C 
BRANCH   2   3
ATOM      3  C   UNL A   1      32.690  32.391  26.985  1.00  0.00     0.116 C 
BRANCH   3   4
ATOM      4  N   UNL A   1      32.500  33.775  27.399  1.00  0.00    -0.352 N 
ATOM      5  O   UNL A   1      32.754  35.582  28.732  1.00  0.00    -0.269 OA
ATOM      6  C   UNL A   1      33.134  34.474  28.399  1.00  0.00     0.251 C 
ATOM      7  H   UNL A   1      31.825  34.280  26.891  1.00  0.00     0.163 HD
BRANCH   6   8
ATOM      8  C   UNL A   1      34.277  33.835  29.082  1.00  0.00     0.039 A 
ATOM      9  C   UNL A   1      35.581  34.235  28.785  1.00  0.00     0.014 A 
ATOM     10  C   UNL A   1      34.035  32.801  29.987  1.00  0.00     0.014 A 
ATOM     11  C   UNL A   1      36.650  33.495  29.265  1.00  0.00     0.010 A 
ATOM     12  C   UNL A   1      35.116  32.129  30.557  1.00  0.00     0.010 A 
ATOM     13  C   UNL A   1      36.428  32.454  30.177  1.00  0.00    -0.014 A 
BRANCH  13  14
ATOM     14  C   UNL A   1      37.585  31.766  30.793  1.00  0.00     0.031 A 
ATOM     15  C   UNL A   1      38.103  32.176  32.137  1.00  0.00     0.074 A 
ATOM     16  C   UNL A   1      38.176  30.775  30.099  1.00  0.00     0.049 A 
ATOM     17  N   UNL A   1      39.172  31.761  32.767  1.00  0.00    -0.248 NA
ATOM     18  C   UNL A   1      37.328  33.190  32.867  1.00  0.00     0.031 C 
ATOM     19  C   UNL A   1      37.748  30.298  28.781  1.00  0.00     0.029 A 
ATOM     20  N   UNL A   1      39.264  29.998  30.397  1.00  0.00    -0.354 N 
ATOM     21  C   UNL A   1      39.222  32.490  33.948  1.00  0.00     0.074 A 
ATOM     22  C   UNL A   1      38.079  33.379  33.944  1.00  0.00     0.031 C 
ATOM     23  C   UNL A   1      38.549  29.298  28.394  1.00  0.00     0.029 A 
ATOM     24  C   UNL A   1      39.593  29.122  29.394  1.00  0.00     0.049 A 
ATOM     25  H   UNL A   1      39.759  30.062  31.245  1.00  0.00     0.167 HD
ATOM     26  C   UNL A   1      40.145  32.421  34.937  1.00  0.00     0.037 A 
ATOM     27  C   UNL A   1      40.648  28.298  29.266  1.00  0.00     0.037 A 
ATOM     28  C   UNL A   1      41.266  31.516  34.928  1.00  0.00     0.049 A 
ATOM     29  C   UNL A   1      41.667  28.256  30.359  1.00  0.00     0.074 A 
ATOM     30  C   UNL A   1      42.238  31.335  35.897  1.00  0.00     0.029 A 
ATOM     31  N   UNL A   1      41.566  30.641  33.893  1.00  0.00    -0.354 N 
ATOM     32  N   UNL A   1      41.700  28.940  31.477  1.00  0.00    -0.248 NA
ATOM     33  C   UNL A   1      42.797  27.339  30.176  1.00  0.00     0.031 C 
ATOM     34  C   UNL A   1      43.150  30.384  35.428  1.00  0.00     0.029 A 
ATOM     35  C   UNL A   1      42.720  29.935  34.188  1.00  0.00     0.049 A 
ATOM     36  H   UNL A   1      41.036  30.539  33.069  1.00  0.00     0.167 HD
ATOM     37  C   UNL A   1      42.844  28.528  32.141  1.00  0.00     0.074 A 
ATOM     38  C   UNL A   1      43.474  27.527  31.303  1.00  0.00     0.031 C 
ATOM     39  C   UNL A   1      43.326  28.940  33.339  1.00  0.00     0.037 A 
BRANCH  26  40
ATOM     40  C   UNL A   1      40.002  33.377  36.086  1.00  0.00     0.057 A 
ATOM     41  C   UNL A   1      40.671  34.608  36.122  1.00  0.00     0.134 A 
ATOM     42  C   UNL A   1      39.166  33.067  37.168  1.00  0.00     0.134 A 
ATOM     43  F   UNL A   1      41.495  34.963  35.125  1.00  0.00    -0.206 F 
ATOM     44  C   UNL A   1      40.539  35.480  37.205  1.00  0.00     0.040 A 
ATOM     45  C   UNL A   1      39.007  33.941  38.245  1.00  0.00     0.040 A 
ATOM     46  F   UNL A   1      38.490  31.909  37.195  1.00  0.00    -0.206 F 
ATOM     47  C   UNL A   1      39.701  35.149  38.269  1.00  0.00     0.006 A 
ENDBRANCH  26  40
BRANCH  27  48
ATOM     48  C   UNL A   1      40.776  27.484  28.033  1.00  0.00     0.057 A 
ATOM     49  C   UNL A   1      41.514  27.943  26.939  1.00  0.00     0.134 A 
ATOM     50  C   UNL A   1      40.240  26.192  27.960  1.00  0.00     0.134 A 
ATOM     51  F   UNL A   1      42.046  29.174  26.950  1.00  0.00    -0.206 F 
ATOM     52  C   UNL A   1      41.719  27.143  25.813  1.00  0.00     0.040 A 
ATOM     53  C   UNL A   1      40.457  25.373  26.852  1.00  0.00     0.040 A 
ATOM     54  F   UNL A   1      39.539  25.691  28.988  1.00  0.00    -0.206 F 
ATOM     55  C   UNL A   1      41.199  25.849  25.774  1.00  0.00     0.006 A 
ENDBRANCH  27  48
BRANCH  39  56
ATOM     56  C   UNL A   1      44.579  28.282  33.829  1.00  0.00     0.057 A 
ATOM     57  C   UNL A   1      44.548  27.087  34.557  1.00  0.00     0.134 A 
ATOM     58  C   UNL A   1      45.832  28.823  33.518  1.00  0.00     0.134 A 
ATOM     59  F   UNL A   1      43.377  26.530  34.900  1.00  0.00    -0.206 F 
ATOM     60  C   UNL A   1      45.723  26.456  34.967  1.00  0.00     0.040 A 
ATOM     61  C   UNL A   1      47.014  28.191  33.903  1.00  0.00     0.040 A 
ATOM     62  F   UNL A   1      45.927  29.965  32.818  1.00  0.00    -0.206 F 
ATOM     63  C   UNL A   1      46.961  27.005  34.632  1.00  0.00     0.006 A 
ENDBRANCH  39  56
ENDBRANCH  13  14
ENDBRANCH   6   8
ENDBRANCH   3   4
ENDBRANCH   2   3
ENDBRANCH   1   2
BRANCH   1  64
ATOM     64  C   UNL A   1      32.105  29.375  27.324  1.00  0.00     0.002 C 
BRANCH  64  65
ATOM     65  C   UNL A   1      31.465  27.984  27.442  1.00  0.00     0.021 C 
BRANCH  65  66
ATOM     66  C   UNL A   1      31.242  27.280  26.104  1.00  0.00     0.116 C 
BRANCH  66  67
ATOM     67  N   UNL A   1      30.707  25.947  26.300  1.00  0.00    -0.354 N 
ATOM     68  C   UNL A   1      31.339  24.747  26.359  1.00  0.00     0.242 C 
ATOM     69  H   UNL A   1      29.729  25.905  26.408  1.00  0.00     0.163 HD
ATOM     70  O   UNL A   1      30.622  23.744  26.465  1.00  0.00    -0.273 OA
BRANCH  68  71
ATOM     71  C   UNL A   1      32.845  24.581  26.071  1.00  0.00     0.176 C 
ATOM     72  C   UNL A   1      33.280  23.590  27.178  1.00  0.00     0.036 C 
ATOM     73  N   UNL A   1      33.297  24.198  24.706  1.00  0.00    -0.309 N 
ATOM     74  C   UNL A   1      34.712  23.127  27.069  1.00  0.00     0.008 C 
ATOM     75  C   UNL A   1      34.713  23.686  24.623  1.00  0.00     0.091 C 
ATOM     76  C   UNL A   1      34.971  22.576  25.672  1.00  0.00     0.012 C 
ATOM     77  C   UNL A   1      35.230  23.228  23.239  1.00  0.00     0.025 C 
ATOM     78  C   UNL A   1      36.396  22.002  25.638  1.00  0.00     0.006 C 
ATOM     79  C   UNL A   1      36.666  22.709  23.268  1.00  0.00     0.002 C 
ATOM     80  C   UNL A   1      36.811  21.559  24.246  1.00  0.00     0.000 C 
BRANCH  73  81
ATOM     81  C   UNL A   1      32.665  24.637  23.538  1.00  0.00     0.321 C 
ATOM     82  O   UNL A   1      32.133  23.852  22.750  1.00  0.00    -0.248 OA
ATOM     83  N   UNL A   1      32.494  26.001  23.324  1.00  0.00    -0.323 N 
ATOM     84  C   UNL A   1      31.315  26.352  22.515  1.00  0.00     0.132 C 
ATOM     85  C   UNL A   1      33.649  26.890  23.123  1.00  0.00     0.132 C 
ATOM     86  C   UNL A   1      30.785  27.760  22.771  1.00  0.00     0.091 C 
ATOM     87  C   UNL A   1      33.360  28.379  23.364  1.00  0.00     0.091 C 
ATOM     88  S   UNL A   1      32.013  29.012  22.314  1.00  0.00    -0.158 SA
ENDBRANCH  73  81
ENDBRANCH  68  71
ENDBRANCH  66  67
ENDBRANCH  65  66
ENDBRANCH  64  65
ENDBRANCH   1  64
TORSDOF 14
ENDMDL
