MODEL 1
REMARK VINA RESULT:     -12.8      0.000      0.000
REMARK SMILES COc1ccc(NS(=O)(=O)c2ccc(NC(=O)[C@H]3CCCC[C@@H]3C(=O)NCCCCCCNC(=O)c3ccc(-c4c5nc(c(-c6c(F)cccc6F)c6ccc([nH]6)c(-c6c(F)cccc6F)c6nc(c(-c7c(F)cccc7F)c7ccc4[nH]7)C=C6)C=C5)cc3)cc2)cc1
REMARK SMILES IDX 27 1 26 2 24 3 25 4 23 6 18 7 19 8 20 9 22 10 21 11 16 12
REMARK SMILES IDX 15 13 17 15 14 16 11 17 12 18 91 19 13 20 90 21 8 22 9 23
REMARK SMILES IDX 10 24 7 25 6 27 3 28 4 29 93 30 5 31 92 32 2 33 1 34 28 35
REMARK SMILES IDX 29 36 30 37 31 38 32 39 33 40 34 41 35 43 36 44 37 45 89 46
REMARK SMILES IDX 38 47 88 48 39 49 40 50 41 51 82 52 42 53 87 54 81 55 83 56
REMARK SMILES IDX 43 57 86 58 80 59 79 60 44 62 70 63 53 64 69 65 54 66 57 67
REMARK SMILES IDX 68 68 84 69 55 70 56 71 67 73 85 74 58 75 45 76 46 77 51 78
REMARK SMILES IDX 47 79 48 80 50 81 52 82 49 83 71 84 72 85 77 86 73 87 74 88
REMARK SMILES IDX 76 89 78 90 75 91 59 92 60 93 65 94 61 95 62 96 64 97 66 98
REMARK SMILES IDX 63 99
REMARK H PARENT 26 5 15 14 7 26 33 42 83 61 57 72
REMARK Flexibility Score: inf
ROOT
ATOM      1  C   UNL A   1      32.456  27.490  27.263  1.00  0.00     0.116 C 
ENDROOT
BRANCH   1   2
ATOM      2  N   UNL A   1      31.074  27.308  26.876  1.00  0.00    -0.356 N 
ATOM      3  C   UNL A   1      30.620  26.360  25.995  1.00  0.00     0.223 C 
ATOM      4  O   UNL A   1      29.794  25.547  26.418  1.00  0.00    -0.275 OA
ATOM      5  H   UNL A   1      30.408  27.911  27.277  1.00  0.00     0.163 HD
BRANCH   3   6
ATOM      6  C   UNL A   1      30.844  26.522  24.477  1.00  0.00     0.091 C 
ATOM      7  C   UNL A   1      31.334  27.889  23.951  1.00  0.00     0.091 C 
ATOM      8  C   UNL A   1      30.265  28.899  23.514  1.00  0.00     0.014 C 
ATOM      9  C   UNL A   1      28.872  28.381  23.147  1.00  0.00     0.001 C 
ATOM     10  C   UNL A   1      29.568  25.959  23.838  1.00  0.00     0.014 C 
ATOM     11  C   UNL A   1      28.462  26.990  23.631  1.00  0.00     0.001 C 
BRANCH   7  12
ATOM     12  C   UNL A   1      32.634  27.857  23.076  1.00  0.00     0.228 C 
ATOM     13  N   UNL A   1      33.513  26.824  22.880  1.00  0.00    -0.326 N 
ATOM     14  H   UNL A   1      34.140  26.998  22.141  1.00  0.00     0.169 HD
ATOM     15  O   UNL A   1      32.898  28.882  22.424  1.00  0.00    -0.274 OA
BRANCH  13  16
ATOM     16  C   UNL A   1      33.730  25.575  23.484  1.00  0.00     0.041 A 
ATOM     17  C   UNL A   1      34.269  23.023  24.573  1.00  0.00     0.087 A 
ATOM     18  C   UNL A   1      33.666  23.144  23.337  1.00  0.00     0.024 A 
ATOM     19  C   UNL A   1      34.494  24.177  25.336  1.00  0.00     0.024 A 
ATOM     20  C   UNL A   1      33.390  24.411  22.846  1.00  0.00     0.027 A 
ATOM     21  C   UNL A   1      34.246  25.454  24.778  1.00  0.00     0.027 A 
BRANCH  17  22
ATOM     22  S   UNL A   1      34.649  21.389  25.146  1.00  0.00     0.261 S 
ATOM     23  O   UNL A   1      34.188  21.284  26.521  1.00  0.00    -0.201 OA
ATOM     24  O   UNL A   1      36.030  21.127  24.823  1.00  0.00    -0.201 OA
BRANCH  22  25
ATOM     25  N   UNL A   1      33.715  20.254  24.282  1.00  0.00    -0.280 N 
ATOM     26  H   UNL A   1      33.140  20.552  23.542  1.00  0.00     0.180 HD
BRANCH  25  27
ATOM     27  C   UNL A   1      33.769  18.871  24.636  1.00  0.00     0.049 A 
ATOM     28  C   UNL A   1      33.828  16.151  25.232  1.00  0.00     0.119 A 
ATOM     29  C   UNL A   1      32.696  16.903  25.537  1.00  0.00     0.048 A 
ATOM     30  C   UNL A   1      34.942  16.757  24.651  1.00  0.00     0.048 A 
ATOM     31  C   UNL A   1      32.682  18.272  25.274  1.00  0.00     0.030 A 
ATOM     32  C   UNL A   1      34.911  18.121  24.349  1.00  0.00     0.030 A 
BRANCH  28  33
ATOM     33  O   UNL A   1      33.749  14.798  25.414  1.00  0.00    -0.497 OA
ATOM     34  C   UNL A   1      32.440  14.372  25.783  1.00  0.00     0.278 C 
ENDBRANCH  28  33
ENDBRANCH  25  27
ENDBRANCH  22  25
ENDBRANCH  17  22
ENDBRANCH  13  16
ENDBRANCH   7  12
ENDBRANCH   3   6
ENDBRANCH   1   2
BRANCH   1  35
ATOM     35  C   UNL A   1      33.096  28.763  26.721  1.00  0.00     0.021 C 
BRANCH  35  36
ATOM     36  C   UNL A   1      32.613  30.091  27.305  1.00  0.00     0.002 C 
BRANCH  36  37
ATOM     37  C   UNL A   1      31.457  30.772  26.573  1.00  0.00     0.002 C 
BRANCH  37  38
ATOM     38  C   UNL A   1      31.442  32.302  26.615  1.00  0.00     0.021 C 
BRANCH  38  39
ATOM     39  C   UNL A   1      32.754  32.971  27.015  1.00  0.00     0.116 C 
BRANCH  39  40
ATOM     40  N   UNL A   1      32.551  34.196  27.762  1.00  0.00    -0.352 N 
ATOM     41  C   UNL A   1      33.191  34.650  28.887  1.00  0.00     0.251 C 
ATOM     42  H   UNL A   1      31.851  34.791  27.410  1.00  0.00     0.163 HD
ATOM     43  O   UNL A   1      32.769  35.644  29.471  1.00  0.00    -0.269 OA
BRANCH  41  44
ATOM     44  C   UNL A   1      34.378  33.942  29.417  1.00  0.00     0.039 A 
ATOM     45  C   UNL A   1      35.640  34.328  28.958  1.00  0.00     0.014 A 
ATOM     46  C   UNL A   1      34.257  32.878  30.317  1.00  0.00     0.014 A 
ATOM     47  C   UNL A   1      36.779  33.672  29.424  1.00  0.00     0.010 A 
ATOM     48  C   UNL A   1      35.399  32.268  30.833  1.00  0.00     0.010 A 
ATOM     49  C   UNL A   1      36.670  32.645  30.377  1.00  0.00    -0.014 A 
BRANCH  49  50
ATOM     50  C   UNL A   1      37.887  31.956  30.873  1.00  0.00     0.031 A 
ATOM     51  C   UNL A   1      38.446  32.275  32.231  1.00  0.00     0.074 A 
ATOM     52  C   UNL A   1      38.504  31.053  30.089  1.00  0.00     0.049 A 
ATOM     53  N   UNL A   1      39.460  31.731  32.856  1.00  0.00    -0.248 NA
ATOM     54  C   UNL A   1      37.801  33.368  32.974  1.00  0.00     0.031 C 
ATOM     55  C   UNL A   1      38.109  30.714  28.720  1.00  0.00     0.029 A 
ATOM     56  N   UNL A   1      39.594  30.256  30.329  1.00  0.00    -0.354 N 
ATOM     57  C   UNL A   1      39.578  32.418  34.057  1.00  0.00     0.074 A 
ATOM     58  C   UNL A   1      38.570  33.456  34.049  1.00  0.00     0.031 C 
ATOM     59  C   UNL A   1      38.929  29.760  28.252  1.00  0.00     0.029 A 
ATOM     60  C   UNL A   1      39.910  29.429  29.281  1.00  0.00     0.049 A 
ATOM     61  H   UNL A   1      40.101  30.276  31.173  1.00  0.00     0.167 HD
ATOM     62  C   UNL A   1      40.430  32.190  35.086  1.00  0.00     0.037 A 
ATOM     63  C   UNL A   1      40.871  28.493  29.168  1.00  0.00     0.037 A 
ATOM     64  C   UNL A   1      41.416  31.141  35.101  1.00  0.00     0.049 A 
ATOM     65  C   UNL A   1      41.764  28.209  30.342  1.00  0.00     0.074 A 
ATOM     66  C   UNL A   1      42.278  30.779  36.121  1.00  0.00     0.029 A 
ATOM     67  N   UNL A   1      41.674  30.288  34.039  1.00  0.00    -0.354 N 
ATOM     68  N   UNL A   1      41.798  28.799  31.513  1.00  0.00    -0.248 NA
ATOM     69  C   UNL A   1      42.731  27.114  30.190  1.00  0.00     0.031 C 
ATOM     70  C   UNL A   1      43.081  29.728  35.663  1.00  0.00     0.029 A 
ATOM     71  C   UNL A   1      42.692  29.409  34.372  1.00  0.00     0.049 A 
ATOM     72  H   UNL A   1      41.202  30.303  33.174  1.00  0.00     0.167 HD
ATOM     73  C   UNL A   1      42.777  28.137  32.244  1.00  0.00     0.074 A 
ATOM     74  C   UNL A   1      43.298  27.089  31.389  1.00  0.00     0.031 C 
ATOM     75  C   UNL A   1      43.204  28.376  33.507  1.00  0.00     0.037 A 
BRANCH  62  76
ATOM     76  C   UNL A   1      40.321  33.095  36.278  1.00  0.00     0.057 A 
ATOM     77  C   UNL A   1      41.116  34.243  36.408  1.00  0.00     0.134 A 
ATOM     78  C   UNL A   1      39.412  32.820  37.307  1.00  0.00     0.134 A 
ATOM     79  F   UNL A   1      42.017  34.557  35.465  1.00  0.00    -0.206 F 
ATOM     80  C   UNL A   1      41.037  35.062  37.535  1.00  0.00     0.040 A 
ATOM     81  C   UNL A   1      39.305  33.648  38.426  1.00  0.00     0.040 A 
ATOM     82  F   UNL A   1      38.617  31.741  37.243  1.00  0.00    -0.206 F 
ATOM     83  C   UNL A   1      40.125  34.767  38.547  1.00  0.00     0.006 A 
ENDBRANCH  62  76
BRANCH  63  84
ATOM     84  C   UNL A   1      40.992  27.722  27.908  1.00  0.00     0.057 A 
ATOM     85  C   UNL A   1      41.796  28.177  26.857  1.00  0.00     0.134 A 
ATOM     86  C   UNL A   1      40.340  26.495  27.741  1.00  0.00     0.134 A 
ATOM     87  F   UNL A   1      42.435  29.352  26.955  1.00  0.00    -0.206 F 
ATOM     88  C   UNL A   1      41.942  27.442  25.679  1.00  0.00     0.040 A 
ATOM     89  C   UNL A   1      40.493  25.740  26.578  1.00  0.00     0.040 A 
ATOM     90  F   UNL A   1      39.565  26.003  28.718  1.00  0.00    -0.206 F 
ATOM     91  C   UNL A   1      41.294  26.215  25.541  1.00  0.00     0.006 A 
ENDBRANCH  63  84
BRANCH  75  92
ATOM     92  C   UNL A   1      44.279  27.478  34.044  1.00  0.00     0.057 A 
ATOM     93  C   UNL A   1      45.633  27.832  33.983  1.00  0.00     0.134 A 
ATOM     94  C   UNL A   1      43.954  26.259  34.650  1.00  0.00     0.134 A 
ATOM     95  F   UNL A   1      46.010  28.982  33.404  1.00  0.00    -0.206 F 
ATOM     96  C   UNL A   1      46.628  26.990  34.483  1.00  0.00     0.040 A 
ATOM     97  C   UNL A   1      44.938  25.420  35.174  1.00  0.00     0.040 A 
ATOM     98  F   UNL A   1      42.675  25.865  34.747  1.00  0.00    -0.206 F 
ATOM     99  C   UNL A   1      46.281  25.782  35.086  1.00  0.00     0.006 A 
ENDBRANCH  75  92
ENDBRANCH  49  50
ENDBRANCH  41  44
ENDBRANCH  39  40
ENDBRANCH  38  39
ENDBRANCH  37  38
ENDBRANCH  36  37
ENDBRANCH  35  36
ENDBRANCH   1  35
TORSDOF 19
ENDMDL
MODEL 2
REMARK VINA RESULT:     -11.9      2.848      4.255
REMARK SMILES COc1ccc(NS(=O)(=O)c2ccc(NC(=O)[C@H]3CCCC[C@@H]3C(=O)NCCCCCCNC(=O)c3ccc(-c4c5nc(c(-c6c(F)cccc6F)c6ccc([nH]6)c(-c6c(F)cccc6F)c6nc(c(-c7c(F)cccc7F)c7ccc4[nH]7)C=C6)C=C5)cc3)cc2)cc1
REMARK SMILES IDX 27 1 26 2 24 3 25 4 23 6 18 7 19 8 20 9 22 10 21 11 16 12
REMARK SMILES IDX 15 13 17 15 14 16 11 17 12 18 91 19 13 20 90 21 8 22 9 23
REMARK SMILES IDX 10 24 7 25 6 27 3 28 4 29 93 30 5 31 92 32 2 33 1 34 28 35
REMARK SMILES IDX 29 36 30 37 31 38 32 39 33 40 34 41 35 43 36 44 37 45 89 46
REMARK SMILES IDX 38 47 88 48 39 49 40 50 41 51 82 52 42 53 87 54 81 55 83 56
REMARK SMILES IDX 43 57 86 58 80 59 79 60 44 62 70 63 53 64 69 65 54 66 57 67
REMARK SMILES IDX 68 68 84 69 55 70 56 71 67 73 85 74 58 75 45 76 46 77 51 78
REMARK SMILES IDX 47 79 48 80 50 81 52 82 49 83 71 84 72 85 77 86 73 87 74 88
REMARK SMILES IDX 76 89 78 90 75 91 59 92 60 93 65 94 61 95 62 96 64 97 66 98
REMARK SMILES IDX 63 99
REMARK H PARENT 26 5 15 14 7 26 33 42 83 61 57 72
REMARK Flexibility Score: inf
ROOT
ATOM      1  C   UNL A   1      32.086  28.236  23.070  1.00  0.00     0.116 C 
ENDROOT
BRANCH   1   2
ATOM      2  N   UNL A   1      31.853  29.626  23.399  1.00  0.00    -0.356 N 
ATOM      3  C   UNL A   1      30.973  30.075  24.349  1.00  0.00     0.223 C 
ATOM      4  O   UNL A   1      31.437  30.743  25.276  1.00  0.00    -0.275 OA
ATOM      5  H   UNL A   1      32.368  30.301  22.901  1.00  0.00     0.163 HD
BRANCH   3   6
ATOM      6  C   UNL A   1      29.452  30.062  24.085  1.00  0.00     0.091 C 
ATOM      7  C   UNL A   1      28.915  29.167  22.948  1.00  0.00     0.091 C 
ATOM      8  C   UNL A   1      28.763  29.805  21.561  1.00  0.00     0.014 C 
ATOM      9  C   UNL A   1      28.660  31.330  21.463  1.00  0.00     0.001 C 
ATOM     10  C   UNL A   1      29.058  31.544  24.036  1.00  0.00     0.014 C 
ATOM     11  C   UNL A   1      29.140  32.170  22.647  1.00  0.00     0.001 C 
BRANCH   7  12
ATOM     12  C   UNL A   1      27.791  28.151  23.352  1.00  0.00     0.228 C 
ATOM     13  N   UNL A   1      27.921  26.897  23.892  1.00  0.00    -0.326 N 
ATOM     14  H   UNL A   1      27.067  26.543  24.228  1.00  0.00     0.169 HD
ATOM     15  O   UNL A   1      26.615  28.530  23.219  1.00  0.00    -0.274 OA
BRANCH  13  16
ATOM     16  C   UNL A   1      28.984  26.000  24.078  1.00  0.00     0.041 A 
ATOM     17  C   UNL A   1      31.018  24.090  24.531  1.00  0.00     0.087 A 
ATOM     18  C   UNL A   1      30.369  24.687  25.594  1.00  0.00     0.024 A 
ATOM     19  C   UNL A   1      30.746  24.535  23.230  1.00  0.00     0.024 A 
ATOM     20  C   UNL A   1      29.397  25.641  25.335  1.00  0.00     0.027 A 
ATOM     21  C   UNL A   1      29.710  25.473  23.005  1.00  0.00     0.027 A 
BRANCH  17  22
ATOM     22  S   UNL A   1      32.222  22.842  24.900  1.00  0.00     0.261 S 
ATOM     23  O   UNL A   1      32.957  22.562  23.677  1.00  0.00    -0.201 OA
ATOM     24  O   UNL A   1      31.542  21.778  25.598  1.00  0.00    -0.201 OA
BRANCH  22  25
ATOM     25  N   UNL A   1      33.383  23.475  25.975  1.00  0.00    -0.280 N 
ATOM     26  H   UNL A   1      33.107  24.091  26.692  1.00  0.00     0.180 HD
BRANCH  25  27
ATOM     27  C   UNL A   1      34.758  23.110  25.834  1.00  0.00     0.049 A 
ATOM     28  C   UNL A   1      37.450  22.416  25.663  1.00  0.00     0.119 A 
ATOM     29  C   UNL A   1      37.073  23.754  25.576  1.00  0.00     0.048 A 
ATOM     30  C   UNL A   1      36.485  21.419  25.811  1.00  0.00     0.048 A 
ATOM     31  C   UNL A   1      35.722  24.098  25.623  1.00  0.00     0.030 A 
ATOM     32  C   UNL A   1      35.135  21.768  25.899  1.00  0.00     0.030 A 
BRANCH  28  33
ATOM     33  O   UNL A   1      38.788  22.144  25.717  1.00  0.00    -0.497 OA
ATOM     34  C   UNL A   1      39.063  20.747  25.703  1.00  0.00     0.278 C 
ENDBRANCH  28  33
ENDBRANCH  25  27
ENDBRANCH  22  25
ENDBRANCH  17  22
ENDBRANCH  13  16
ENDBRANCH   7  12
ENDBRANCH   3   6
ENDBRANCH   1   2
BRANCH   1  35
ATOM     35  C   UNL A   1      33.437  27.700  23.532  1.00  0.00     0.021 C 
BRANCH  35  36
ATOM     36  C   UNL A   1      33.450  26.829  24.788  1.00  0.00     0.002 C 
BRANCH  36  37
ATOM     37  C   UNL A   1      32.607  27.322  25.964  1.00  0.00     0.002 C 
BRANCH  37  38
ATOM     38  C   UNL A   1      33.333  28.185  26.997  1.00  0.00     0.021 C 
BRANCH  38  39
ATOM     39  C   UNL A   1      34.232  29.283  26.436  1.00  0.00     0.116 C 
BRANCH  39  40
ATOM     40  N   UNL A   1      33.997  30.570  27.059  1.00  0.00    -0.352 N 
ATOM     41  C   UNL A   1      34.682  31.188  28.075  1.00  0.00     0.251 C 
ATOM     42  H   UNL A   1      33.235  31.077  26.700  1.00  0.00     0.163 HD
ATOM     43  O   UNL A   1      34.233  32.214  28.578  1.00  0.00    -0.269 OA
BRANCH  41  44
ATOM     44  C   UNL A   1      35.949  30.618  28.585  1.00  0.00     0.039 A 
ATOM     45  C   UNL A   1      37.147  31.033  27.996  1.00  0.00     0.014 A 
ATOM     46  C   UNL A   1      35.966  29.652  29.596  1.00  0.00     0.014 A 
ATOM     47  C   UNL A   1      38.359  30.505  28.442  1.00  0.00     0.010 A 
ATOM     48  C   UNL A   1      37.181  29.175  30.086  1.00  0.00     0.010 A 
ATOM     49  C   UNL A   1      38.388  29.582  29.500  1.00  0.00    -0.014 A 
BRANCH  49  50
ATOM     50  C   UNL A   1      39.681  29.030  29.973  1.00  0.00     0.031 A 
ATOM     51  C   UNL A   1      40.341  29.579  31.206  1.00  0.00     0.074 A 
ATOM     52  C   UNL A   1      40.275  28.043  29.276  1.00  0.00     0.049 A 
ATOM     53  N   UNL A   1      41.437  29.180  31.804  1.00  0.00    -0.248 NA
ATOM     54  C   UNL A   1      39.705  30.745  31.836  1.00  0.00     0.031 C 
ATOM     55  C   UNL A   1      39.778  27.480  28.019  1.00  0.00     0.029 A 
ATOM     56  N   UNL A   1      41.426  27.340  29.526  1.00  0.00    -0.354 N 
ATOM     57  C   UNL A   1      41.624  30.050  32.871  1.00  0.00     0.074 A 
ATOM     58  C   UNL A   1      40.562  31.031  32.806  1.00  0.00     0.031 C 
ATOM     59  C   UNL A   1      40.605  26.501  27.622  1.00  0.00     0.029 A 
ATOM     60  C   UNL A   1      41.692  26.375  28.588  1.00  0.00     0.049 A 
ATOM     61  H   UNL A   1      42.005  27.512  30.303  1.00  0.00     0.167 HD
ATOM     62  C   UNL A   1      42.576  30.019  33.834  1.00  0.00     0.037 A 
ATOM     63  C   UNL A   1      42.691  25.474  28.523  1.00  0.00     0.037 A 
ATOM     64  C   UNL A   1      43.618  29.028  33.910  1.00  0.00     0.049 A 
ATOM     65  C   UNL A   1      43.700  25.413  29.634  1.00  0.00     0.074 A 
ATOM     66  C   UNL A   1      44.587  28.865  34.884  1.00  0.00     0.029 A 
ATOM     67  N   UNL A   1      43.826  28.032  32.968  1.00  0.00    -0.354 N 
ATOM     68  N   UNL A   1      43.807  26.178  30.694  1.00  0.00    -0.248 NA
ATOM     69  C   UNL A   1      44.710  24.349  29.553  1.00  0.00     0.031 C 
ATOM     70  C   UNL A   1      45.404  27.790  34.512  1.00  0.00     0.029 A 
ATOM     71  C   UNL A   1      44.918  27.259  33.328  1.00  0.00     0.049 A 
ATOM     72  H   UNL A   1      43.279  27.894  32.161  1.00  0.00     0.167 HD
ATOM     73  C   UNL A   1      44.883  25.679  31.416  1.00  0.00     0.074 A 
ATOM     74  C   UNL A   1      45.383  24.534  30.681  1.00  0.00     0.031 C 
ATOM     75  C   UNL A   1      45.408  26.128  32.582  1.00  0.00     0.037 A 
BRANCH  62  76
ATOM     76  C   UNL A   1      42.524  31.093  34.882  1.00  0.00     0.057 A 
ATOM     77  C   UNL A   1      41.708  30.978  36.016  1.00  0.00     0.134 A 
ATOM     78  C   UNL A   1      43.299  32.252  34.759  1.00  0.00     0.134 A 
ATOM     79  F   UNL A   1      40.930  29.898  36.188  1.00  0.00    -0.206 F 
ATOM     80  C   UNL A   1      41.636  31.995  36.970  1.00  0.00     0.040 A 
ATOM     81  C   UNL A   1      43.256  33.264  35.721  1.00  0.00     0.040 A 
ATOM     82  F   UNL A   1      44.107  32.424  33.702  1.00  0.00    -0.206 F 
ATOM     83  C   UNL A   1      42.416  33.141  36.826  1.00  0.00     0.006 A 
ENDBRANCH  62  76
BRANCH  63  84
ATOM     84  C   UNL A   1      42.742  24.524  27.387  1.00  0.00     0.057 A 
ATOM     85  C   UNL A   1      43.361  24.870  26.181  1.00  0.00     0.134 A 
ATOM     86  C   UNL A   1      42.208  23.233  27.495  1.00  0.00     0.134 A 
ATOM     87  F   UNL A   1      43.877  26.097  26.016  1.00  0.00    -0.206 F 
ATOM     88  C   UNL A   1      43.441  23.971  25.117  1.00  0.00     0.040 A 
ATOM     89  C   UNL A   1      42.300  22.317  26.446  1.00  0.00     0.040 A 
ATOM     90  F   UNL A   1      41.614  22.840  28.629  1.00  0.00    -0.206 F 
ATOM     91  C   UNL A   1      42.916  22.686  25.252  1.00  0.00     0.006 A 
ENDBRANCH  63  84
BRANCH  75  92
ATOM     92  C   UNL A   1      46.576  25.370  33.140  1.00  0.00     0.057 A 
ATOM     93  C   UNL A   1      47.896  25.706  32.814  1.00  0.00     0.134 A 
ATOM     94  C   UNL A   1      46.378  24.308  34.031  1.00  0.00     0.134 A 
ATOM     95  F   UNL A   1      48.151  26.706  31.956  1.00  0.00    -0.206 F 
ATOM     96  C   UNL A   1      48.978  24.995  33.335  1.00  0.00     0.040 A 
ATOM     97  C   UNL A   1      47.453  23.605  34.576  1.00  0.00     0.040 A 
ATOM     98  F   UNL A   1      45.139  23.941  34.389  1.00  0.00    -0.206 F 
ATOM     99  C   UNL A   1      48.758  23.944  34.224  1.00  0.00     0.006 A 
ENDBRANCH  75  92
ENDBRANCH  49  50
ENDBRANCH  41  44
ENDBRANCH  39  40
ENDBRANCH  38  39
ENDBRANCH  37  38
ENDBRANCH  36  37
ENDBRANCH  35  36
ENDBRANCH   1  35
TORSDOF 19
ENDMDL
MODEL 3
REMARK VINA RESULT:     -11.9      2.412      3.880
REMARK SMILES COc1ccc(NS(=O)(=O)c2ccc(NC(=O)[C@H]3CCCC[C@@H]3C(=O)NCCCCCCNC(=O)c3ccc(-c4c5nc(c(-c6c(F)cccc6F)c6ccc([nH]6)c(-c6c(F)cccc6F)c6nc(c(-c7c(F)cccc7F)c7ccc4[nH]7)C=C6)C=C5)cc3)cc2)cc1
REMARK SMILES IDX 27 1 26 2 24 3 25 4 23 6 18 7 19 8 20 9 22 10 21 11 16 12
REMARK SMILES IDX 15 13 17 15 14 16 11 17 12 18 91 19 13 20 90 21 8 22 9 23
REMARK SMILES IDX 10 24 7 25 6 27 3 28 4 29 93 30 5 31 92 32 2 33 1 34 28 35
REMARK SMILES IDX 29 36 30 37 31 38 32 39 33 40 34 41 35 43 36 44 37 45 89 46
REMARK SMILES IDX 38 47 88 48 39 49 40 50 41 51 82 52 42 53 87 54 81 55 83 56
REMARK SMILES IDX 43 57 86 58 80 59 79 60 44 62 70 63 53 64 69 65 54 66 57 67
REMARK SMILES IDX 68 68 84 69 55 70 56 71 67 73 85 74 58 75 45 76 46 77 51 78
REMARK SMILES IDX 47 79 48 80 50 81 52 82 49 83 71 84 72 85 77 86 73 87 74 88
REMARK SMILES IDX 76 89 78 90 75 91 59 92 60 93 65 94 61 95 62 96 64 97 66 98
REMARK SMILES IDX 63 99
REMARK H PARENT 26 5 15 14 7 26 33 42 83 61 57 72
REMARK Flexibility Score: inf
ROOT
ATOM      1  C   UNL A   1      32.158  28.277  23.259  1.00  0.00     0.116 C 
ENDROOT
BRANCH   1   2
ATOM      2  N   UNL A   1      31.899  29.666  23.572  1.00  0.00    -0.356 N 
ATOM      3  C   UNL A   1      30.969  30.110  24.476  1.00  0.00     0.223 C 
ATOM      4  O   UNL A   1      31.381  30.784  25.424  1.00  0.00    -0.275 OA
ATOM      5  H   UNL A   1      32.434  30.344  23.099  1.00  0.00     0.163 HD
BRANCH   3   6
ATOM      6  C   UNL A   1      29.464  30.085  24.136  1.00  0.00     0.091 C 
ATOM      7  C   UNL A   1      29.004  29.267  22.911  1.00  0.00     0.091 C 
ATOM      8  C   UNL A   1      28.904  30.004  21.569  1.00  0.00     0.014 C 
ATOM      9  C   UNL A   1      28.769  31.529  21.578  1.00  0.00     0.001 C 
ATOM     10  C   UNL A   1      29.037  31.559  24.177  1.00  0.00     0.014 C 
ATOM     11  C   UNL A   1      29.170  32.288  22.844  1.00  0.00     0.001 C 
BRANCH   7  12
ATOM     12  C   UNL A   1      27.888  28.200  23.182  1.00  0.00     0.228 C 
ATOM     13  N   UNL A   1      28.002  26.969  23.773  1.00  0.00    -0.326 N 
ATOM     14  H   UNL A   1      27.128  26.576  23.996  1.00  0.00     0.169 HD
ATOM     15  O   UNL A   1      26.725  28.511  22.872  1.00  0.00    -0.274 OA
BRANCH  13  16
ATOM     16  C   UNL A   1      29.072  26.136  24.137  1.00  0.00     0.041 A 
ATOM     17  C   UNL A   1      31.117  24.363  24.953  1.00  0.00     0.087 A 
ATOM     18  C   UNL A   1      30.386  25.068  25.889  1.00  0.00     0.024 A 
ATOM     19  C   UNL A   1      30.919  24.633  23.592  1.00  0.00     0.024 A 
ATOM     20  C   UNL A   1      29.410  25.951  25.452  1.00  0.00     0.027 A 
ATOM     21  C   UNL A   1      29.878  25.502  23.187  1.00  0.00     0.027 A 
BRANCH  17  22
ATOM     22  S   UNL A   1      32.323  23.210  25.551  1.00  0.00     0.261 S 
ATOM     23  O   UNL A   1      31.609  22.112  26.184  1.00  0.00    -0.201 OA
ATOM     24  O   UNL A   1      33.307  23.958  26.294  1.00  0.00    -0.201 OA
BRANCH  22  25
ATOM     25  N   UNL A   1      33.134  22.502  24.230  1.00  0.00    -0.280 N 
ATOM     26  H   UNL A   1      33.658  23.064  23.615  1.00  0.00     0.180 HD
BRANCH  25  27
ATOM     27  C   UNL A   1      33.052  21.091  24.017  1.00  0.00     0.049 A 
ATOM     28  C   UNL A   1      32.965  18.351  23.525  1.00  0.00     0.119 A 
ATOM     29  C   UNL A   1      32.172  19.216  22.774  1.00  0.00     0.048 A 
ATOM     30  C   UNL A   1      33.785  18.848  24.538  1.00  0.00     0.048 A 
ATOM     31  C   UNL A   1      32.187  20.583  23.046  1.00  0.00     0.030 A 
ATOM     32  C   UNL A   1      33.831  20.222  24.783  1.00  0.00     0.030 A 
BRANCH  28  33
ATOM     33  O   UNL A   1      32.991  17.038  23.147  1.00  0.00    -0.497 OA
ATOM     34  C   UNL A   1      34.315  16.516  23.075  1.00  0.00     0.278 C 
ENDBRANCH  28  33
ENDBRANCH  25  27
ENDBRANCH  22  25
ENDBRANCH  17  22
ENDBRANCH  13  16
ENDBRANCH   7  12
ENDBRANCH   3   6
ENDBRANCH   1   2
BRANCH   1  35
ATOM     35  C   UNL A   1      33.590  27.829  23.533  1.00  0.00     0.021 C 
BRANCH  35  36
ATOM     36  C   UNL A   1      33.846  27.067  24.834  1.00  0.00     0.002 C 
BRANCH  36  37
ATOM     37  C   UNL A   1      32.966  27.444  26.025  1.00  0.00     0.002 C 
BRANCH  37  38
ATOM     38  C   UNL A   1      33.595  28.386  27.054  1.00  0.00     0.021 C 
BRANCH  38  39
ATOM     39  C   UNL A   1      34.322  29.602  26.489  1.00  0.00     0.116 C 
BRANCH  39  40
ATOM     40  N   UNL A   1      34.035  30.817  27.226  1.00  0.00    -0.352 N 
ATOM     41  C   UNL A   1      34.710  31.381  28.278  1.00  0.00     0.251 C 
ATOM     42  H   UNL A   1      33.240  31.311  26.926  1.00  0.00     0.163 HD
ATOM     43  O   UNL A   1      34.220  32.335  28.877  1.00  0.00    -0.269 OA
BRANCH  41  44
ATOM     44  C   UNL A   1      36.017  30.839  28.714  1.00  0.00     0.039 A 
ATOM     45  C   UNL A   1      36.026  29.721  29.551  1.00  0.00     0.014 A 
ATOM     46  C   UNL A   1      37.222  31.447  28.347  1.00  0.00     0.014 A 
ATOM     47  C   UNL A   1      37.240  29.194  29.992  1.00  0.00     0.010 A 
ATOM     48  C   UNL A   1      38.436  30.880  28.733  1.00  0.00     0.010 A 
ATOM     49  C   UNL A   1      38.456  29.760  29.576  1.00  0.00    -0.014 A 
BRANCH  49  50
ATOM     50  C   UNL A   1      39.743  29.190  30.045  1.00  0.00     0.031 A 
ATOM     51  C   UNL A   1      40.401  29.711  31.291  1.00  0.00     0.074 A 
ATOM     52  C   UNL A   1      40.334  28.212  29.333  1.00  0.00     0.049 A 
ATOM     53  N   UNL A   1      41.492  29.294  31.886  1.00  0.00    -0.248 NA
ATOM     54  C   UNL A   1      39.770  30.871  31.939  1.00  0.00     0.031 C 
ATOM     55  C   UNL A   1      39.838  27.676  28.064  1.00  0.00     0.029 A 
ATOM     56  N   UNL A   1      41.478  27.496  29.575  1.00  0.00    -0.354 N 
ATOM     57  C   UNL A   1      41.679  30.143  32.970  1.00  0.00     0.074 A 
ATOM     58  C   UNL A   1      40.625  31.132  32.917  1.00  0.00     0.031 C 
ATOM     59  C   UNL A   1      40.660  26.698  27.652  1.00  0.00     0.029 A 
ATOM     60  C   UNL A   1      41.742  26.546  28.621  1.00  0.00     0.049 A 
ATOM     61  H   UNL A   1      42.055  27.649  30.358  1.00  0.00     0.167 HD
ATOM     62  C   UNL A   1      42.627  30.088  33.936  1.00  0.00     0.037 A 
ATOM     63  C   UNL A   1      42.734  25.640  28.544  1.00  0.00     0.037 A 
ATOM     64  C   UNL A   1      43.661  29.088  33.999  1.00  0.00     0.049 A 
ATOM     65  C   UNL A   1      43.738  25.551  29.658  1.00  0.00     0.074 A 
ATOM     66  C   UNL A   1      44.625  28.900  34.974  1.00  0.00     0.029 A 
ATOM     67  N   UNL A   1      43.867  28.108  33.040  1.00  0.00    -0.354 N 
ATOM     68  N   UNL A   1      43.845  26.295  30.733  1.00  0.00    -0.248 NA
ATOM     69  C   UNL A   1      44.741  24.482  29.563  1.00  0.00     0.031 C 
ATOM     70  C   UNL A   1      45.435  27.827  34.587  1.00  0.00     0.029 A 
ATOM     71  C   UNL A   1      44.952  27.321  33.391  1.00  0.00     0.049 A 
ATOM     72  H   UNL A   1      43.322  27.988  32.228  1.00  0.00     0.167 HD
ATOM     73  C   UNL A   1      44.914  25.776  31.450  1.00  0.00     0.074 A 
ATOM     74  C   UNL A   1      45.410  24.641  30.697  1.00  0.00     0.031 C 
ATOM     75  C   UNL A   1      45.437  26.200  32.626  1.00  0.00     0.037 A 
BRANCH  62  76
ATOM     76  C   UNL A   1      42.578  31.143  35.004  1.00  0.00     0.057 A 
ATOM     77  C   UNL A   1      41.895  30.939  36.211  1.00  0.00     0.134 A 
ATOM     78  C   UNL A   1      43.221  32.374  34.825  1.00  0.00     0.134 A 
ATOM     79  F   UNL A   1      41.247  29.787  36.440  1.00  0.00    -0.206 F 
ATOM     80  C   UNL A   1      41.822  31.936  37.186  1.00  0.00     0.040 A 
ATOM     81  C   UNL A   1      43.177  33.368  35.804  1.00  0.00     0.040 A 
ATOM     82  F   UNL A   1      43.896  32.632  33.696  1.00  0.00    -0.206 F 
ATOM     83  C   UNL A   1      42.468  33.154  36.985  1.00  0.00     0.006 A 
ENDBRANCH  62  76
BRANCH  63  84
ATOM     84  C   UNL A   1      42.784  24.709  27.391  1.00  0.00     0.057 A 
ATOM     85  C   UNL A   1      43.429  25.066  26.201  1.00  0.00     0.134 A 
ATOM     86  C   UNL A   1      42.222  23.429  27.466  1.00  0.00     0.134 A 
ATOM     87  F   UNL A   1      43.973  26.284  26.067  1.00  0.00    -0.206 F 
ATOM     88  C   UNL A   1      43.508  24.185  25.122  1.00  0.00     0.040 A 
ATOM     89  C   UNL A   1      42.312  22.530  26.402  1.00  0.00     0.040 A 
ATOM     90  F   UNL A   1      41.601  23.027  28.583  1.00  0.00    -0.206 F 
ATOM     91  C   UNL A   1      42.955  22.909  25.224  1.00  0.00     0.006 A 
ENDBRANCH  63  84
BRANCH  75  92
ATOM     92  C   UNL A   1      46.597  25.424  33.176  1.00  0.00     0.057 A 
ATOM     93  C   UNL A   1      46.413  24.332  34.033  1.00  0.00     0.134 A 
ATOM     94  C   UNL A   1      47.910  25.758  32.825  1.00  0.00     0.134 A 
ATOM     95  F   UNL A   1      45.179  23.969  34.417  1.00  0.00    -0.206 F 
ATOM     96  C   UNL A   1      47.497  23.615  34.543  1.00  0.00     0.040 A 
ATOM     97  C   UNL A   1      49.001  25.035  33.309  1.00  0.00     0.040 A 
ATOM     98  F   UNL A   1      48.155  26.788  32.002  1.00  0.00    -0.206 F 
ATOM     99  C   UNL A   1      48.796  23.963  34.176  1.00  0.00     0.006 A 
ENDBRANCH  75  92
ENDBRANCH  49  50
ENDBRANCH  41  44
ENDBRANCH  39  40
ENDBRANCH  38  39
ENDBRANCH  37  38
ENDBRANCH  36  37
ENDBRANCH  35  36
ENDBRANCH   1  35
TORSDOF 19
ENDMDL
