MODEL 1
REMARK VINA RESULT:     -11.2      0.000      0.000
REMARK SMILES Cn1cc(SCC[C@@H]2CCC[C@@]2([NH3+])C(=O)NCCCCCCNC(=O)c2ccc(-c3c4nc(c(-c5c(F)cccc5F)c5ccc([nH]5)c(-c5c(F)cccc5F)c5nc(c(-c6c(F)cccc6F)c6ccc3[nH]6)C=C5)C=C4)cc2)cn1
REMARK SMILES IDX 18 1 17 2 16 3 14 4 15 5 12 7 8 8 9 9 10 10 11 11 7 12 6 13
REMARK SMILES IDX 5 14 4 15 1 16 2 17 3 18 81 19 80 20 13 21 19 25 20 26 21 27
REMARK SMILES IDX 22 28 23 29 24 30 25 32 26 33 27 34 79 35 28 36 78 37 29 38
REMARK SMILES IDX 30 39 31 40 72 41 32 42 77 43 71 44 73 45 33 46 76 47 70 48
REMARK SMILES IDX 69 49 34 51 60 52 43 53 59 54 44 55 47 56 58 57 74 58 45 59
REMARK SMILES IDX 46 60 57 62 75 63 48 64 35 65 36 66 41 67 37 68 38 69 40 70
REMARK SMILES IDX 42 71 39 72 61 73 62 74 67 75 63 76 64 77 66 78 68 79 65 80
REMARK SMILES IDX 49 81 50 82 55 83 51 84 52 85 54 86 56 87 53 88
REMARK H PARENT 16 6 13 22 13 23 13 24 23 31 73 50 47 61
REMARK Flexibility Score: inf
ROOT
ATOM      1  C   UNL A   1      33.034  28.605  27.234  1.00  0.00     0.021 C 
ENDROOT
BRANCH   1   2
ATOM      2  C   UNL A   1      31.648  27.966  27.182  1.00  0.00     0.116 C 
BRANCH   2   3
ATOM      3  N   UNL A   1      31.715  26.541  27.361  1.00  0.00    -0.351 N 
ATOM      4  C   UNL A   1      31.298  25.491  26.626  1.00  0.00     0.281 C 
ATOM      5  O   UNL A   1      31.339  24.407  27.233  1.00  0.00    -0.268 OA
ATOM      6  H   UNL A   1      32.160  26.276  28.199  1.00  0.00     0.163 HD
BRANCH   4   7
ATOM      7  C   UNL A   1      30.772  25.513  25.148  1.00  0.00     0.176 C 
ATOM      8  C   UNL A   1      31.430  26.315  23.989  1.00  0.00     0.061 C 
ATOM      9  C   UNL A   1      31.038  25.485  22.744  1.00  0.00     0.011 C 
ATOM     10  C   UNL A   1      31.107  24.034  23.160  1.00  0.00     0.008 C 
ATOM     11  C   UNL A   1      31.092  24.055  24.675  1.00  0.00     0.079 C 
BRANCH   8  12
ATOM     12  C   UNL A   1      31.008  27.785  23.741  1.00  0.00     0.022 C 
BRANCH  12  13
ATOM     13  C   UNL A   1      30.025  27.980  22.563  1.00  0.00     0.075 C 
BRANCH  13  14
ATOM     14  S   UNL A   1      28.327  28.507  22.956  1.00  0.00    -0.123 SA
BRANCH  14  15
ATOM     15  C   UNL A   1      28.268  30.182  22.497  1.00  0.00     0.045 A 
ATOM     16  C   UNL A   1      27.641  33.002  20.396  1.00  0.00     0.173 C 
ATOM     17  N   UNL A   1      28.007  32.067  21.434  1.00  0.00    -0.275 N 
ATOM     18  C   UNL A   1      28.401  30.769  21.262  1.00  0.00     0.123 A 
ATOM     19  N   UNL A   1      27.833  32.409  22.724  1.00  0.00    -0.181 NA
ATOM     20  C   UNL A   1      27.993  31.251  23.374  1.00  0.00     0.150 A 
ENDBRANCH  14  15
ENDBRANCH  13  14
ENDBRANCH  12  13
ENDBRANCH   8  12
BRANCH   7  21
ATOM     21  N   UNL A   1      29.310  25.735  25.193  1.00  0.00    -0.345 N 
ATOM     22  H   UNL A   1      28.849  25.093  24.549  1.00  0.00     0.345 HD
ATOM     23  H   UNL A   1      29.104  26.696  24.921  1.00  0.00     0.345 HD
ATOM     24  H   UNL A   1      28.971  25.571  26.141  1.00  0.00     0.345 HD
ENDBRANCH   7  21
ENDBRANCH   4   7
ENDBRANCH   2   3
ENDBRANCH   1   2
BRANCH   1  25
ATOM     25  C   UNL A   1      33.119  29.984  26.570  1.00  0.00     0.002 C 
BRANCH  25  26
ATOM     26  C   UNL A   1      31.776  30.568  26.117  1.00  0.00     0.002 C 
BRANCH  26  27
ATOM     27  C   UNL A   1      31.464  31.963  26.662  1.00  0.00     0.021 C 
BRANCH  27  28
ATOM     28  C   UNL A   1      32.648  32.662  27.321  1.00  0.00     0.116 C 
BRANCH  28  29
ATOM     29  N   UNL A   1      32.375  34.066  27.592  1.00  0.00    -0.352 N 
ATOM     30  C   UNL A   1      32.957  34.897  28.515  1.00  0.00     0.251 C 
ATOM     31  H   UNL A   1      31.675  34.477  27.035  1.00  0.00     0.163 HD
ATOM     32  O   UNL A   1      32.474  36.003  28.750  1.00  0.00    -0.269 OA
BRANCH  30  33
ATOM     33  C   UNL A   1      34.160  34.448  29.244  1.00  0.00     0.039 A 
ATOM     34  C   UNL A   1      34.016  33.879  30.512  1.00  0.00     0.014 A 
ATOM     35  C   UNL A   1      35.426  34.578  28.668  1.00  0.00     0.014 A 
ATOM     36  C   UNL A   1      35.138  33.377  31.175  1.00  0.00     0.010 A 
ATOM     37  C   UNL A   1      36.530  34.011  29.296  1.00  0.00     0.010 A 
ATOM     38  C   UNL A   1      36.398  33.405  30.556  1.00  0.00    -0.014 A 
BRANCH  38  39
ATOM     39  C   UNL A   1      37.595  32.806  31.198  1.00  0.00     0.031 A 
ATOM     40  C   UNL A   1      38.251  31.600  30.584  1.00  0.00     0.074 A 
ATOM     41  C   UNL A   1      38.036  33.290  32.374  1.00  0.00     0.049 A 
ATOM     42  N   UNL A   1      39.220  30.857  31.052  1.00  0.00    -0.248 NA
ATOM     43  C   UNL A   1      37.726  31.153  29.283  1.00  0.00     0.031 C 
ATOM     44  C   UNL A   1      37.464  34.433  33.088  1.00  0.00     0.029 A 
ATOM     45  N   UNL A   1      39.057  32.869  33.190  1.00  0.00    -0.354 N 
ATOM     46  C   UNL A   1      39.408  29.848  30.117  1.00  0.00     0.074 A 
ATOM     47  C   UNL A   1      38.420  30.044  29.078  1.00  0.00     0.031 C 
ATOM     48  C   UNL A   1      38.147  34.628  34.228  1.00  0.00     0.029 A 
ATOM     49  C   UNL A   1      39.172  33.596  34.350  1.00  0.00     0.049 A 
ATOM     50  H   UNL A   1      39.650  32.115  32.965  1.00  0.00     0.167 HD
ATOM     51  C   UNL A   1      40.333  28.859  30.116  1.00  0.00     0.037 A 
ATOM     52  C   UNL A   1      39.997  33.439  35.403  1.00  0.00     0.037 A 
ATOM     53  C   UNL A   1      41.327  28.682  31.141  1.00  0.00     0.049 A 
ATOM     54  C   UNL A   1      41.000  32.316  35.388  1.00  0.00     0.074 A 
ATOM     55  C   UNL A   1      42.345  27.747  31.200  1.00  0.00     0.029 A 
ATOM     56  N   UNL A   1      41.425  29.455  32.289  1.00  0.00    -0.354 N 
ATOM     57  N   UNL A   1      41.209  31.407  34.467  1.00  0.00    -0.248 NA
ATOM     58  C   UNL A   1      41.883  32.198  36.557  1.00  0.00     0.031 C 
ATOM     59  C   UNL A   1      43.023  27.916  32.409  1.00  0.00     0.029 A 
ATOM     60  C   UNL A   1      42.468  28.998  33.075  1.00  0.00     0.049 A 
ATOM     61  H   UNL A   1      40.838  30.213  32.511  1.00  0.00     0.167 HD
ATOM     62  C   UNL A   1      42.268  30.635  34.927  1.00  0.00     0.074 A 
ATOM     63  C   UNL A   1      42.663  31.185  36.206  1.00  0.00     0.031 C 
ATOM     64  C   UNL A   1      42.863  29.568  34.339  1.00  0.00     0.037 A 
BRANCH  51  65
ATOM     65  C   UNL A   1      40.312  27.887  28.971  1.00  0.00     0.057 A 
ATOM     66  C   UNL A   1      39.543  26.716  29.005  1.00  0.00     0.134 A 
ATOM     67  C   UNL A   1      41.035  28.149  27.800  1.00  0.00     0.134 A 
ATOM     68  F   UNL A   1      38.835  26.400  30.100  1.00  0.00    -0.206 F 
ATOM     69  C   UNL A   1      39.514  25.829  27.928  1.00  0.00     0.040 A 
ATOM     70  C   UNL A   1      40.991  27.285  26.704  1.00  0.00     0.040 A 
ATOM     71  F   UNL A   1      41.787  29.255  27.695  1.00  0.00    -0.206 F 
ATOM     72  C   UNL A   1      40.233  26.117  26.769  1.00  0.00     0.006 A 
ENDBRANCH  51  65
BRANCH  52  73
ATOM     73  C   UNL A   1      39.916  34.367  36.560  1.00  0.00     0.057 A 
ATOM     74  C   UNL A   1      39.167  34.042  37.697  1.00  0.00     0.134 A 
ATOM     75  C   UNL A   1      40.570  35.605  36.552  1.00  0.00     0.134 A 
ATOM     76  F   UNL A   1      38.503  32.879  37.758  1.00  0.00    -0.206 F 
ATOM     77  C   UNL A   1      39.054  34.921  38.775  1.00  0.00     0.040 A 
ATOM     78  C   UNL A   1      40.488  36.483  37.635  1.00  0.00     0.040 A 
ATOM     79  F   UNL A   1      41.310  35.974  35.497  1.00  0.00    -0.206 F 
ATOM     80  C   UNL A   1      39.719  36.145  38.747  1.00  0.00     0.006 A 
ENDBRANCH  52  73
BRANCH  64  81
ATOM     81  C   UNL A   1      44.039  28.954  35.039  1.00  0.00     0.057 A 
ATOM     82  C   UNL A   1      43.890  27.944  35.997  1.00  0.00     0.134 A 
ATOM     83  C   UNL A   1      45.344  29.333  34.694  1.00  0.00     0.134 A 
ATOM     84  F   UNL A   1      42.669  27.544  36.381  1.00  0.00    -0.206 F 
ATOM     85  C   UNL A   1      44.998  27.342  36.597  1.00  0.00     0.040 A 
ATOM     86  C   UNL A   1      46.458  28.718  35.266  1.00  0.00     0.040 A 
ATOM     87  F   UNL A   1      45.556  30.288  33.776  1.00  0.00    -0.206 F 
ATOM     88  C   UNL A   1      46.287  27.722  36.224  1.00  0.00     0.006 A 
ENDBRANCH  64  81
ENDBRANCH  38  39
ENDBRANCH  30  33
ENDBRANCH  28  29
ENDBRANCH  27  28
ENDBRANCH  26  27
ENDBRANCH  25  26
ENDBRANCH   1  25
TORSDOF 18
ENDMDL
MODEL 2
REMARK VINA RESULT:     -11.1      4.727      9.234
REMARK SMILES Cn1cc(SCC[C@@H]2CCC[C@@]2([NH3+])C(=O)NCCCCCCNC(=O)c2ccc(-c3c4nc(c(-c5c(F)cccc5F)c5ccc([nH]5)c(-c5c(F)cccc5F)c5nc(c(-c6c(F)cccc6F)c6ccc3[nH]6)C=C5)C=C4)cc2)cn1
REMARK SMILES IDX 18 1 17 2 16 3 14 4 15 5 12 7 8 8 9 9 10 10 11 11 7 12 6 13
REMARK SMILES IDX 5 14 4 15 1 16 2 17 3 18 81 19 80 20 13 21 19 25 20 26 21 27
REMARK SMILES IDX 22 28 23 29 24 30 25 32 26 33 27 34 79 35 28 36 78 37 29 38
REMARK SMILES IDX 30 39 31 40 72 41 32 42 77 43 71 44 73 45 33 46 76 47 70 48
REMARK SMILES IDX 69 49 34 51 60 52 43 53 59 54 44 55 47 56 58 57 74 58 45 59
REMARK SMILES IDX 46 60 57 62 75 63 48 64 35 65 36 66 41 67 37 68 38 69 40 70
REMARK SMILES IDX 42 71 39 72 61 73 62 74 67 75 63 76 64 77 66 78 68 79 65 80
REMARK SMILES IDX 49 81 50 82 55 83 51 84 52 85 54 86 56 87 53 88
REMARK H PARENT 16 6 13 22 13 23 13 24 23 31 73 50 47 61
REMARK Flexibility Score: inf
ROOT
ATOM      1  C   UNL A   1      36.520  23.299  24.601  1.00  0.00     0.021 C 
ENDROOT
BRANCH   1   2
ATOM      2  C   UNL A   1      35.443  24.134  23.910  1.00  0.00     0.116 C 
BRANCH   2   3
ATOM      3  N   UNL A   1      34.775  25.006  24.837  1.00  0.00    -0.351 N 
ATOM      4  C   UNL A   1      33.793  24.825  25.741  1.00  0.00     0.281 C 
ATOM      5  O   UNL A   1      33.328  25.886  26.195  1.00  0.00    -0.268 OA
ATOM      6  H   UNL A   1      35.105  25.934  24.802  1.00  0.00     0.163 HD
BRANCH   4   7
ATOM      7  C   UNL A   1      33.198  23.462  26.239  1.00  0.00     0.176 C 
ATOM      8  C   UNL A   1      33.093  22.175  25.372  1.00  0.00     0.061 C 
ATOM      9  C   UNL A   1      33.149  21.051  26.433  1.00  0.00     0.011 C 
ATOM     10  C   UNL A   1      34.134  21.506  27.484  1.00  0.00     0.008 C 
ATOM     11  C   UNL A   1      34.284  22.998  27.269  1.00  0.00     0.079 C 
BRANCH   8  12
ATOM     12  C   UNL A   1      31.839  21.946  24.493  1.00  0.00     0.022 C 
BRANCH  12  13
ATOM     13  C   UNL A   1      31.775  22.830  23.225  1.00  0.00     0.075 C 
BRANCH  13  14
ATOM     14  S   UNL A   1      30.818  24.376  23.319  1.00  0.00    -0.123 SA
BRANCH  14  15
ATOM     15  C   UNL A   1      31.871  25.587  22.653  1.00  0.00     0.045 A 
ATOM     16  C   UNL A   1      33.992  28.462  22.637  1.00  0.00     0.173 C 
ATOM     17  N   UNL A   1      33.182  27.302  22.347  1.00  0.00    -0.275 N 
ATOM     18  C   UNL A   1      32.065  26.896  23.022  1.00  0.00     0.123 A 
ATOM     19  N   UNL A   1      33.596  26.422  21.416  1.00  0.00    -0.181 NA
ATOM     20  C   UNL A   1      32.791  25.370  21.607  1.00  0.00     0.150 A 
ENDBRANCH  14  15
ENDBRANCH  13  14
ENDBRANCH  12  13
ENDBRANCH   8  12
BRANCH   7  21
ATOM     21  N   UNL A   1      31.921  23.752  26.926  1.00  0.00    -0.345 N 
ATOM     22  H   UNL A   1      31.907  23.282  27.831  1.00  0.00     0.345 HD
ATOM     23  H   UNL A   1      31.144  23.416  26.357  1.00  0.00     0.345 HD
ATOM     24  H   UNL A   1      31.830  24.759  27.064  1.00  0.00     0.345 HD
ENDBRANCH   7  21
ENDBRANCH   4   7
ENDBRANCH   2   3
ENDBRANCH   1   2
BRANCH   1  25
ATOM     25  C   UNL A   1      36.780  21.937  23.947  1.00  0.00     0.002 C 
BRANCH  25  26
ATOM     26  C   UNL A   1      36.765  20.744  24.909  1.00  0.00     0.002 C 
BRANCH  26  27
ATOM     27  C   UNL A   1      38.014  19.863  24.861  1.00  0.00     0.021 C 
BRANCH  27  28
ATOM     28  C   UNL A   1      39.070  20.208  25.906  1.00  0.00     0.116 C 
BRANCH  28  29
ATOM     29  N   UNL A   1      40.186  19.273  25.890  1.00  0.00    -0.352 N 
ATOM     30  C   UNL A   1      41.521  19.517  26.083  1.00  0.00     0.251 C 
ATOM     31  H   UNL A   1      39.947  18.333  25.716  1.00  0.00     0.163 HD
ATOM     32  O   UNL A   1      42.355  18.646  25.842  1.00  0.00    -0.269 OA
BRANCH  30  33
ATOM     33  C   UNL A   1      41.958  20.842  26.564  1.00  0.00     0.039 A 
ATOM     34  C   UNL A   1      42.411  21.788  25.641  1.00  0.00     0.014 A 
ATOM     35  C   UNL A   1      41.907  21.153  27.926  1.00  0.00     0.014 A 
ATOM     36  C   UNL A   1      42.749  23.071  26.076  1.00  0.00     0.010 A 
ATOM     37  C   UNL A   1      42.172  22.452  28.347  1.00  0.00     0.010 A 
ATOM     38  C   UNL A   1      42.595  23.425  27.427  1.00  0.00    -0.014 A 
BRANCH  38  39
ATOM     39  C   UNL A   1      42.867  24.803  27.907  1.00  0.00     0.031 A 
ATOM     40  C   UNL A   1      44.257  25.189  28.328  1.00  0.00     0.074 A 
ATOM     41  C   UNL A   1      41.850  25.675  28.047  1.00  0.00     0.049 A 
ATOM     42  N   UNL A   1      44.674  26.294  28.891  1.00  0.00    -0.248 NA
ATOM     43  C   UNL A   1      45.314  24.189  28.114  1.00  0.00     0.031 C 
ATOM     44  C   UNL A   1      40.452  25.408  27.706  1.00  0.00     0.029 A 
ATOM     45  N   UNL A   1      41.832  26.958  28.533  1.00  0.00    -0.354 N 
ATOM     46  C   UNL A   1      46.032  26.114  29.116  1.00  0.00     0.074 A 
ATOM     47  C   UNL A   1      46.361  24.777  28.674  1.00  0.00     0.031 C 
ATOM     48  C   UNL A   1      39.715  26.496  27.983  1.00  0.00     0.029 A 
ATOM     49  C   UNL A   1      40.578  27.518  28.566  1.00  0.00     0.049 A 
ATOM     50  H   UNL A   1      42.642  27.433  28.831  1.00  0.00     0.167 HD
ATOM     51  C   UNL A   1      46.927  26.993  29.626  1.00  0.00     0.037 A 
ATOM     52  C   UNL A   1      40.165  28.713  29.033  1.00  0.00     0.037 A 
ATOM     53  C   UNL A   1      46.598  28.330  30.044  1.00  0.00     0.049 A 
ATOM     54  C   UNL A   1      41.176  29.661  29.619  1.00  0.00     0.074 A 
ATOM     55  C   UNL A   1      47.446  29.316  30.519  1.00  0.00     0.029 A 
ATOM     56  N   UNL A   1      45.320  28.867  30.040  1.00  0.00    -0.354 N 
ATOM     57  N   UNL A   1      42.470  29.502  29.766  1.00  0.00    -0.248 NA
ATOM     58  C   UNL A   1      40.673  30.955  30.101  1.00  0.00     0.031 C 
ATOM     59  C   UNL A   1      46.672  30.429  30.857  1.00  0.00     0.029 A 
ATOM     60  C   UNL A   1      45.352  30.160  30.532  1.00  0.00     0.049 A 
ATOM     61  H   UNL A   1      44.510  28.397  29.735  1.00  0.00     0.167 HD
ATOM     62  C   UNL A   1      42.938  30.686  30.322  1.00  0.00     0.074 A 
ATOM     63  C   UNL A   1      41.792  31.557  30.480  1.00  0.00     0.031 C 
ATOM     64  C   UNL A   1      44.205  31.023  30.666  1.00  0.00     0.037 A 
BRANCH  51  65
ATOM     65  C   UNL A   1      48.351  26.534  29.767  1.00  0.00     0.057 A 
ATOM     66  C   UNL A   1      48.810  25.880  30.917  1.00  0.00     0.134 A 
ATOM     67  C   UNL A   1      49.263  26.710  28.718  1.00  0.00     0.134 A 
ATOM     68  F   UNL A   1      47.992  25.688  31.963  1.00  0.00    -0.206 F 
ATOM     69  C   UNL A   1      50.130  25.439  31.030  1.00  0.00     0.040 A 
ATOM     70  C   UNL A   1      50.577  26.247  28.806  1.00  0.00     0.040 A 
ATOM     71  F   UNL A   1      48.890  27.322  27.584  1.00  0.00    -0.206 F 
ATOM     72  C   UNL A   1      51.016  25.615  29.968  1.00  0.00     0.006 A 
ENDBRANCH  51  65
BRANCH  52  73
ATOM     73  C   UNL A   1      38.729  29.085  28.963  1.00  0.00     0.057 A 
ATOM     74  C   UNL A   1      38.164  29.569  27.777  1.00  0.00     0.134 A 
ATOM     75  C   UNL A   1      37.890  28.980  30.079  1.00  0.00     0.134 A 
ATOM     76  F   UNL A   1      38.920  29.710  26.678  1.00  0.00    -0.206 F 
ATOM     77  C   UNL A   1      36.825  29.956  27.708  1.00  0.00     0.040 A 
ATOM     78  C   UNL A   1      36.541  29.337  30.017  1.00  0.00     0.040 A 
ATOM     79  F   UNL A   1      38.366  28.515  31.243  1.00  0.00    -0.206 F 
ATOM     80  C   UNL A   1      36.008  29.836  28.830  1.00  0.00     0.006 A 
ENDBRANCH  52  73
BRANCH  64  81
ATOM     81  C   UNL A   1      44.438  32.407  31.196  1.00  0.00     0.057 A 
ATOM     82  C   UNL A   1      44.645  33.503  30.350  1.00  0.00     0.134 A 
ATOM     83  C   UNL A   1      44.383  32.655  32.574  1.00  0.00     0.134 A 
ATOM     84  F   UNL A   1      44.721  33.333  29.021  1.00  0.00    -0.206 F 
ATOM     85  C   UNL A   1      44.802  34.795  30.857  1.00  0.00     0.040 A 
ATOM     86  C   UNL A   1      44.510  33.945  33.090  1.00  0.00     0.040 A 
ATOM     87  F   UNL A   1      44.177  31.650  33.440  1.00  0.00    -0.206 F 
ATOM     88  C   UNL A   1      44.724  35.019  32.231  1.00  0.00     0.006 A 
ENDBRANCH  64  81
ENDBRANCH  38  39
ENDBRANCH  30  33
ENDBRANCH  28  29
ENDBRANCH  27  28
ENDBRANCH  26  27
ENDBRANCH  25  26
ENDBRANCH   1  25
TORSDOF 18
ENDMDL
MODEL 3
REMARK VINA RESULT:     -11.1      1.882      3.633
REMARK SMILES Cn1cc(SCC[C@@H]2CCC[C@@]2([NH3+])C(=O)NCCCCCCNC(=O)c2ccc(-c3c4nc(c(-c5c(F)cccc5F)c5ccc([nH]5)c(-c5c(F)cccc5F)c5nc(c(-c6c(F)cccc6F)c6ccc3[nH]6)C=C5)C=C4)cc2)cn1
REMARK SMILES IDX 18 1 17 2 16 3 14 4 15 5 12 7 8 8 9 9 10 10 11 11 7 12 6 13
REMARK SMILES IDX 5 14 4 15 1 16 2 17 3 18 81 19 80 20 13 21 19 25 20 26 21 27
REMARK SMILES IDX 22 28 23 29 24 30 25 32 26 33 27 34 79 35 28 36 78 37 29 38
REMARK SMILES IDX 30 39 31 40 72 41 32 42 77 43 71 44 73 45 33 46 76 47 70 48
REMARK SMILES IDX 69 49 34 51 60 52 43 53 59 54 44 55 47 56 58 57 74 58 45 59
REMARK SMILES IDX 46 60 57 62 75 63 48 64 35 65 36 66 41 67 37 68 38 69 40 70
REMARK SMILES IDX 42 71 39 72 61 73 62 74 67 75 63 76 64 77 66 78 68 79 65 80
REMARK SMILES IDX 49 81 50 82 55 83 51 84 52 85 54 86 56 87 53 88
REMARK H PARENT 16 6 13 22 13 23 13 24 23 31 73 50 47 61
REMARK Flexibility Score: inf
ROOT
ATOM      1  C   UNL A   1      33.766  28.494  26.312  1.00  0.00     0.021 C 
ENDROOT
BRANCH   1   2
ATOM      2  C   UNL A   1      33.502  27.172  25.592  1.00  0.00     0.116 C 
BRANCH   2   3
ATOM      3  N   UNL A   1      33.935  27.220  24.223  1.00  0.00    -0.351 N 
ATOM      4  C   UNL A   1      33.285  27.220  23.042  1.00  0.00     0.281 C 
ATOM      5  O   UNL A   1      34.029  27.039  22.061  1.00  0.00    -0.268 OA
ATOM      6  H   UNL A   1      34.915  27.260  24.127  1.00  0.00     0.163 HD
BRANCH   4   7
ATOM      7  C   UNL A   1      31.745  27.401  22.803  1.00  0.00     0.176 C 
ATOM      8  C   UNL A   1      30.652  27.184  23.888  1.00  0.00     0.061 C 
ATOM      9  C   UNL A   1      29.520  28.124  23.414  1.00  0.00     0.011 C 
ATOM     10  C   UNL A   1      30.194  29.360  22.865  1.00  0.00     0.008 C 
ATOM     11  C   UNL A   1      31.632  28.953  22.621  1.00  0.00     0.079 C 
BRANCH   8  12
ATOM     12  C   UNL A   1      30.051  25.772  24.095  1.00  0.00     0.022 C 
BRANCH  12  13
ATOM     13  C   UNL A   1      30.631  24.999  25.303  1.00  0.00     0.075 C 
BRANCH  13  14
ATOM     14  S   UNL A   1      31.219  23.299  25.016  1.00  0.00    -0.123 SA
BRANCH  14  15
ATOM     15  C   UNL A   1      32.722  23.491  24.165  1.00  0.00     0.045 A 
ATOM     16  C   UNL A   1      36.206  23.070  23.496  1.00  0.00     0.173 C 
ATOM     17  N   UNL A   1      34.806  23.422  23.527  1.00  0.00    -0.275 N 
ATOM     18  C   UNL A   1      34.012  23.517  24.636  1.00  0.00     0.123 A 
ATOM     19  N   UNL A   1      34.129  23.548  22.371  1.00  0.00    -0.181 NA
ATOM     20  C   UNL A   1      32.851  23.589  22.765  1.00  0.00     0.150 A 
ENDBRANCH  14  15
ENDBRANCH  13  14
ENDBRANCH  12  13
ENDBRANCH   8  12
BRANCH   7  21
ATOM     21  N   UNL A   1      31.400  26.704  21.545  1.00  0.00    -0.345 N 
ATOM     22  H   UNL A   1      30.741  27.271  21.012  1.00  0.00     0.345 HD
ATOM     23  H   UNL A   1      30.974  25.803  21.762  1.00  0.00     0.345 HD
ATOM     24  H   UNL A   1      32.246  26.556  20.995  1.00  0.00     0.345 HD
ENDBRANCH   7  21
ENDBRANCH   4   7
ENDBRANCH   2   3
ENDBRANCH   1   2
BRANCH   1  25
ATOM     25  C   UNL A   1      33.076  29.707  25.677  1.00  0.00     0.002 C 
BRANCH  25  26
ATOM     26  C   UNL A   1      31.757  30.121  26.340  1.00  0.00     0.002 C 
BRANCH  26  27
ATOM     27  C   UNL A   1      31.576  31.628  26.527  1.00  0.00     0.021 C 
BRANCH  27  28
ATOM     28  C   UNL A   1      32.752  32.326  27.203  1.00  0.00     0.116 C 
BRANCH  28  29
ATOM     29  N   UNL A   1      32.455  33.714  27.525  1.00  0.00    -0.352 N 
ATOM     30  C   UNL A   1      33.029  34.523  28.472  1.00  0.00     0.251 C 
ATOM     31  H   UNL A   1      31.742  34.130  26.988  1.00  0.00     0.163 HD
ATOM     32  O   UNL A   1      32.529  35.610  28.749  1.00  0.00    -0.269 OA
BRANCH  30  33
ATOM     33  C   UNL A   1      34.246  34.071  29.176  1.00  0.00     0.039 A 
ATOM     34  C   UNL A   1      34.119  33.266  30.310  1.00  0.00     0.014 A 
ATOM     35  C   UNL A   1      35.512  34.434  28.706  1.00  0.00     0.014 A 
ATOM     36  C   UNL A   1      35.264  32.766  30.935  1.00  0.00     0.010 A 
ATOM     37  C   UNL A   1      36.647  33.876  29.283  1.00  0.00     0.010 A 
ATOM     38  C   UNL A   1      36.535  33.036  30.403  1.00  0.00    -0.014 A 
BRANCH  38  39
ATOM     39  C   UNL A   1      37.766  32.454  30.994  1.00  0.00     0.031 A 
ATOM     40  C   UNL A   1      38.409  31.255  30.355  1.00  0.00     0.074 A 
ATOM     41  C   UNL A   1      38.252  32.947  32.149  1.00  0.00     0.049 A 
ATOM     42  N   UNL A   1      39.408  30.525  30.782  1.00  0.00    -0.248 NA
ATOM     43  C   UNL A   1      37.835  30.798  29.080  1.00  0.00     0.031 C 
ATOM     44  C   UNL A   1      37.698  34.085  32.884  1.00  0.00     0.029 A 
ATOM     45  N   UNL A   1      39.313  32.540  32.920  1.00  0.00    -0.354 N 
ATOM     46  C   UNL A   1      39.567  29.515  29.842  1.00  0.00     0.074 A 
ATOM     47  C   UNL A   1      38.532  29.696  28.847  1.00  0.00     0.031 C 
ATOM     48  C   UNL A   1      38.427  34.291  33.993  1.00  0.00     0.029 A 
ATOM     49  C   UNL A   1      39.470  33.273  34.072  1.00  0.00     0.049 A 
ATOM     50  H   UNL A   1      39.905  31.794  32.672  1.00  0.00     0.167 HD
ATOM     51  C   UNL A   1      40.503  28.538  29.803  1.00  0.00     0.037 A 
ATOM     52  C   UNL A   1      40.341  33.128  35.089  1.00  0.00     0.037 A 
ATOM     53  C   UNL A   1      41.543  28.376  30.784  1.00  0.00     0.049 A 
ATOM     54  C   UNL A   1      41.356  32.018  35.033  1.00  0.00     0.074 A 
ATOM     55  C   UNL A   1      42.574  27.453  30.801  1.00  0.00     0.029 A 
ATOM     56  N   UNL A   1      41.681  29.152  31.925  1.00  0.00    -0.354 N 
ATOM     57  N   UNL A   1      41.536  31.109  34.106  1.00  0.00    -0.248 NA
ATOM     58  C   UNL A   1      42.291  31.914  36.163  1.00  0.00     0.031 C 
ATOM     59  C   UNL A   1      43.302  27.634  31.980  1.00  0.00     0.029 A 
ATOM     60  C   UNL A   1      42.763  28.711  32.666  1.00  0.00     0.049 A 
ATOM     61  H   UNL A   1      41.095  29.905  32.171  1.00  0.00     0.167 HD
ATOM     62  C   UNL A   1      42.624  30.350  34.521  1.00  0.00     0.074 A 
ATOM     63  C   UNL A   1      43.067  30.909  35.780  1.00  0.00     0.031 C 
ATOM     64  C   UNL A   1      43.205  29.290  33.910  1.00  0.00     0.037 A 
BRANCH  51  65
ATOM     65  C   UNL A   1      40.444  27.561  28.663  1.00  0.00     0.057 A 
ATOM     66  C   UNL A   1      41.199  27.736  27.496  1.00  0.00     0.134 A 
ATOM     67  C   UNL A   1      39.655  26.407  28.753  1.00  0.00     0.134 A 
ATOM     68  F   UNL A   1      41.967  28.825  27.340  1.00  0.00    -0.206 F 
ATOM     69  C   UNL A   1      41.153  26.813  26.450  1.00  0.00     0.040 A 
ATOM     70  C   UNL A   1      39.624  25.460  27.728  1.00  0.00     0.040 A 
ATOM     71  F   UNL A   1      38.912  26.172  29.845  1.00  0.00    -0.206 F 
ATOM     72  C   UNL A   1      40.369  25.666  26.568  1.00  0.00     0.006 A 
ENDBRANCH  51  65
BRANCH  52  73
ATOM     73  C   UNL A   1      40.299  34.059  36.246  1.00  0.00     0.057 A 
ATOM     74  C   UNL A   1      41.078  35.222  36.267  1.00  0.00     0.134 A 
ATOM     75  C   UNL A   1      39.493  33.804  37.362  1.00  0.00     0.134 A 
ATOM     76  F   UNL A   1      41.884  35.513  35.236  1.00  0.00    -0.206 F 
ATOM     77  C   UNL A   1      41.074  36.086  37.363  1.00  0.00     0.040 A 
ATOM     78  C   UNL A   1      39.458  34.673  38.454  1.00  0.00     0.040 A 
ATOM     79  F   UNL A   1      38.716  32.712  37.401  1.00  0.00    -0.206 F 
ATOM     80  C   UNL A   1      40.259  35.814  38.460  1.00  0.00     0.006 A 
ENDBRANCH  52  73
BRANCH  64  81
ATOM     81  C   UNL A   1      44.418  28.692  34.560  1.00  0.00     0.057 A 
ATOM     82  C   UNL A   1      44.331  27.613  35.448  1.00  0.00     0.134 A 
ATOM     83  C   UNL A   1      45.698  29.161  34.234  1.00  0.00     0.134 A 
ATOM     84  F   UNL A   1      43.135  27.124  35.810  1.00  0.00    -0.206 F 
ATOM     85  C   UNL A   1      45.474  27.030  35.999  1.00  0.00     0.040 A 
ATOM     86  C   UNL A   1      46.848  28.568  34.757  1.00  0.00     0.040 A 
ATOM     87  F   UNL A   1      45.852  30.186  33.383  1.00  0.00    -0.206 F 
ATOM     88  C   UNL A   1      46.738  27.501  35.645  1.00  0.00     0.006 A 
ENDBRANCH  64  81
ENDBRANCH  38  39
ENDBRANCH  30  33
ENDBRANCH  28  29
ENDBRANCH  27  28
ENDBRANCH  26  27
ENDBRANCH  25  26
ENDBRANCH   1  25
TORSDOF 18
ENDMDL
