MODEL 1
REMARK VINA RESULT:     -10.4      0.000      0.000
REMARK SMILES CC(=O)Oc1ccccc1C(=O)NCCCCCCNC(=O)c1ccc(-c2c3nc(c(-c4c(F)cccc4F)c4ccc([nH]4)c(-c4c(F)cccc4F)c4nc(c(-c5c(F)cccc5F)c5ccc2[nH]5)C=C4)C=C3)cc1
REMARK SMILES IDX 16 1 15 2 14 3 13 4 11 5 12 6 10 8 5 9 6 10 7 11 9 12 8 13
REMARK SMILES IDX 4 14 2 15 1 16 3 17 17 18 18 19 19 20 20 21 21 22 22 24
REMARK SMILES IDX 23 25 24 26 76 27 25 28 75 29 26 30 27 31 28 32 69 33 29 34
REMARK SMILES IDX 74 35 68 36 70 37 30 38 73 39 67 40 66 41 31 43 57 44 40 45
REMARK SMILES IDX 56 46 41 47 44 48 55 49 71 50 42 51 43 52 54 54 72 55 45 56
REMARK SMILES IDX 32 57 33 58 38 59 34 60 35 61 37 62 39 63 36 64 58 65 59 66
REMARK SMILES IDX 64 67 60 68 61 69 63 70 65 71 62 72 46 73 47 74 52 75 48 76
REMARK SMILES IDX 49 77 51 78 53 79 50 80
REMARK H PARENT 13 7 20 23 70 42 44 53
REMARK Flexibility Score: inf
ROOT
ATOM      1  C   UNL A   1      32.322  29.722  26.891  1.00  0.00     0.002 C 
ENDROOT
BRANCH   1   2
ATOM      2  C   UNL A   1      31.722  28.413  27.416  1.00  0.00     0.021 C 
BRANCH   2   3
ATOM      3  C   UNL A   1      32.317  27.120  26.872  1.00  0.00     0.116 C 
BRANCH   3   4
ATOM      4  N   UNL A   1      31.374  26.170  26.336  1.00  0.00    -0.352 N 
ATOM      5  C   UNL A   1      30.718  26.148  25.127  1.00  0.00     0.255 C 
ATOM      6  O   UNL A   1      29.990  25.178  24.904  1.00  0.00    -0.269 OA
ATOM      7  H   UNL A   1      31.166  25.414  26.932  1.00  0.00     0.163 HD
BRANCH   5   8
ATOM      8  C   UNL A   1      30.752  27.258  24.126  1.00  0.00     0.082 A 
ATOM      9  C   UNL A   1      31.863  27.792  23.461  1.00  0.00     0.143 A 
ATOM     10  C   UNL A   1      31.738  28.897  22.603  1.00  0.00     0.048 A 
ATOM     11  C   UNL A   1      30.487  29.448  22.342  1.00  0.00     0.004 A 
ATOM     12  C   UNL A   1      29.491  27.811  23.813  1.00  0.00     0.018 A 
ATOM     13  C   UNL A   1      29.359  28.892  22.932  1.00  0.00     0.001 A 
BRANCH   9  14
ATOM     14  O   UNL A   1      33.180  27.356  23.638  1.00  0.00    -0.426 OA
BRANCH  14  15
ATOM     15  C   UNL A   1      33.599  26.301  22.838  1.00  0.00     0.308 C 
ATOM     16  C   UNL A   1      34.003  25.158  23.724  1.00  0.00     0.139 C 
ATOM     17  O   UNL A   1      33.654  26.287  21.614  1.00  0.00    -0.252 OA
ENDBRANCH  14  15
ENDBRANCH   9  14
ENDBRANCH   5   8
ENDBRANCH   3   4
ENDBRANCH   2   3
ENDBRANCH   1   2
BRANCH   1  18
ATOM     18  C   UNL A   1      31.412  30.639  26.065  1.00  0.00     0.002 C 
BRANCH  18  19
ATOM     19  C   UNL A   1      31.321  32.104  26.496  1.00  0.00     0.021 C 
BRANCH  19  20
ATOM     20  C   UNL A   1      32.600  32.738  27.033  1.00  0.00     0.116 C 
BRANCH  20  21
ATOM     21  N   UNL A   1      32.398  34.068  27.577  1.00  0.00    -0.352 N 
ATOM     22  C   UNL A   1      33.051  34.720  28.594  1.00  0.00     0.251 C 
ATOM     23  H   UNL A   1      31.678  34.585  27.148  1.00  0.00     0.163 HD
ATOM     24  O   UNL A   1      32.635  35.809  28.980  1.00  0.00    -0.269 OA
BRANCH  22  25
ATOM     25  C   UNL A   1      34.236  34.119  29.254  1.00  0.00     0.039 A 
ATOM     26  C   UNL A   1      34.029  33.179  30.271  1.00  0.00     0.014 A 
ATOM     27  C   UNL A   1      35.538  34.492  28.914  1.00  0.00     0.014 A 
ATOM     28  C   UNL A   1      35.122  32.575  30.899  1.00  0.00     0.010 A 
ATOM     29  C   UNL A   1      36.627  33.831  29.486  1.00  0.00     0.010 A 
ATOM     30  C   UNL A   1      36.432  32.870  30.491  1.00  0.00    -0.014 A 
BRANCH  30  31
ATOM     31  C   UNL A   1      37.603  32.193  31.110  1.00  0.00     0.031 A 
ATOM     32  C   UNL A   1      38.329  31.100  30.368  1.00  0.00     0.074 A 
ATOM     33  C   UNL A   1      37.981  32.518  32.364  1.00  0.00     0.049 A 
ATOM     34  N   UNL A   1      39.329  30.353  30.765  1.00  0.00    -0.248 NA
ATOM     35  C   UNL A   1      37.854  30.787  29.010  1.00  0.00     0.031 C 
ATOM     36  C   UNL A   1      37.336  33.524  33.209  1.00  0.00     0.029 A 
ATOM     37  N   UNL A   1      38.994  32.027  33.151  1.00  0.00    -0.354 N 
ATOM     38  C   UNL A   1      39.583  29.472  29.721  1.00  0.00     0.074 A 
ATOM     39  C   UNL A   1      38.607  29.746  28.690  1.00  0.00     0.031 C 
ATOM     40  C   UNL A   1      37.979  33.590  34.385  1.00  0.00     0.029 A 
ATOM     41  C   UNL A   1      39.055  32.604  34.397  1.00  0.00     0.049 A 
ATOM     42  H   UNL A   1      39.618  31.327  32.851  1.00  0.00     0.167 HD
ATOM     43  C   UNL A   1      40.553  28.531  29.625  1.00  0.00     0.037 A 
ATOM     44  C   UNL A   1      39.878  32.360  35.437  1.00  0.00     0.037 A 
ATOM     45  C   UNL A   1      41.550  28.289  30.633  1.00  0.00     0.049 A 
ATOM     46  C   UNL A   1      40.948  31.311  35.295  1.00  0.00     0.074 A 
ATOM     47  C   UNL A   1      42.627  27.420  30.586  1.00  0.00     0.029 A 
ATOM     48  N   UNL A   1      41.592  28.911  31.870  1.00  0.00    -0.354 N 
ATOM     49  N   UNL A   1      41.231  30.550  34.266  1.00  0.00    -0.248 NA
ATOM     50  C   UNL A   1      41.819  31.092  36.459  1.00  0.00     0.031 C 
ATOM     51  C   UNL A   1      43.287  27.474  31.817  1.00  0.00     0.029 A 
ATOM     52  C   UNL A   1      42.656  28.420  32.609  1.00  0.00     0.049 A 
ATOM     53  H   UNL A   1      40.959  29.599  32.179  1.00  0.00     0.167 HD
ATOM     54  C   UNL A   1      42.330  29.789  34.646  1.00  0.00     0.074 A 
ATOM     55  C   UNL A   1      42.673  30.193  35.993  1.00  0.00     0.031 C 
ATOM     56  C   UNL A   1      42.997  28.842  33.942  1.00  0.00     0.037 A 
BRANCH  43  57
ATOM     57  C   UNL A   1      40.593  27.685  28.385  1.00  0.00     0.057 A 
ATOM     58  C   UNL A   1      41.325  28.061  27.251  1.00  0.00     0.134 A 
ATOM     59  C   UNL A   1      39.950  26.440  28.354  1.00  0.00     0.134 A 
ATOM     60  F   UNL A   1      41.957  29.244  27.211  1.00  0.00    -0.206 F 
ATOM     61  C   UNL A   1      41.403  27.237  26.126  1.00  0.00     0.040 A 
ATOM     62  C   UNL A   1      40.043  25.596  27.246  1.00  0.00     0.040 A 
ATOM     63  F   UNL A   1      39.237  26.014  29.408  1.00  0.00    -0.206 F 
ATOM     64  C   UNL A   1      40.769  25.995  26.126  1.00  0.00     0.006 A 
ENDBRANCH  43  57
BRANCH  44  65
ATOM     65  C   UNL A   1      39.734  33.118  36.707  1.00  0.00     0.057 A 
ATOM     66  C   UNL A   1      40.525  34.242  36.975  1.00  0.00     0.134 A 
ATOM     67  C   UNL A   1      38.839  32.711  37.704  1.00  0.00     0.134 A 
ATOM     68  F   UNL A   1      41.416  34.671  36.069  1.00  0.00    -0.206 F 
ATOM     69  C   UNL A   1      40.458  34.911  38.198  1.00  0.00     0.040 A 
ATOM     70  C   UNL A   1      38.739  33.389  38.920  1.00  0.00     0.040 A 
ATOM     71  F   UNL A   1      38.046  31.647  37.510  1.00  0.00    -0.206 F 
ATOM     72  C   UNL A   1      39.560  34.486  39.175  1.00  0.00     0.006 A 
ENDBRANCH  44  65
BRANCH  56  73
ATOM     73  C   UNL A   1      44.191  28.210  34.595  1.00  0.00     0.057 A 
ATOM     74  C   UNL A   1      45.471  28.772  34.507  1.00  0.00     0.134 A 
ATOM     75  C   UNL A   1      44.050  27.042  35.357  1.00  0.00     0.134 A 
ATOM     76  F   UNL A   1      45.678  29.884  33.784  1.00  0.00    -0.206 F 
ATOM     77  C   UNL A   1      46.572  28.182  35.132  1.00  0.00     0.040 A 
ATOM     78  C   UNL A   1      45.136  26.460  36.010  1.00  0.00     0.040 A 
ATOM     79  F   UNL A   1      42.850  26.458  35.491  1.00  0.00    -0.206 F 
ATOM     80  C   UNL A   1      46.403  27.027  35.893  1.00  0.00     0.006 A 
ENDBRANCH  56  73
ENDBRANCH  30  31
ENDBRANCH  22  25
ENDBRANCH  20  21
ENDBRANCH  19  20
ENDBRANCH  18  19
ENDBRANCH   1  18
TORSDOF 15
ENDMDL
MODEL 2
REMARK VINA RESULT:     -10.3      4.456      8.984
REMARK SMILES CC(=O)Oc1ccccc1C(=O)NCCCCCCNC(=O)c1ccc(-c2c3nc(c(-c4c(F)cccc4F)c4ccc([nH]4)c(-c4c(F)cccc4F)c4nc(c(-c5c(F)cccc5F)c5ccc2[nH]5)C=C4)C=C3)cc1
REMARK SMILES IDX 16 1 15 2 14 3 13 4 11 5 12 6 10 8 5 9 6 10 7 11 9 12 8 13
REMARK SMILES IDX 4 14 2 15 1 16 3 17 17 18 18 19 19 20 20 21 21 22 22 24
REMARK SMILES IDX 23 25 24 26 76 27 25 28 75 29 26 30 27 31 28 32 69 33 29 34
REMARK SMILES IDX 74 35 68 36 70 37 30 38 73 39 67 40 66 41 31 43 57 44 40 45
REMARK SMILES IDX 56 46 41 47 44 48 55 49 71 50 42 51 43 52 54 54 72 55 45 56
REMARK SMILES IDX 32 57 33 58 38 59 34 60 35 61 37 62 39 63 36 64 58 65 59 66
REMARK SMILES IDX 64 67 60 68 61 69 63 70 65 71 62 72 46 73 47 74 52 75 48 76
REMARK SMILES IDX 49 77 51 78 53 79 50 80
REMARK H PARENT 13 7 20 23 70 42 44 53
REMARK Flexibility Score: inf
ROOT
ATOM      1  C   UNL A   1      36.070  21.605  25.780  1.00  0.00     0.002 C 
ENDROOT
BRANCH   1   2
ATOM      2  C   UNL A   1      36.188  22.943  25.043  1.00  0.00     0.021 C 
BRANCH   2   3
ATOM      3  C   UNL A   1      35.097  23.972  25.312  1.00  0.00     0.116 C 
BRANCH   3   4
ATOM      4  N   UNL A   1      34.532  24.610  24.150  1.00  0.00    -0.352 N 
ATOM      5  C   UNL A   1      33.762  25.745  24.040  1.00  0.00     0.255 C 
ATOM      6  O   UNL A   1      33.447  26.098  22.901  1.00  0.00    -0.269 OA
ATOM      7  H   UNL A   1      34.728  24.161  23.296  1.00  0.00     0.163 HD
BRANCH   5   8
ATOM      8  C   UNL A   1      33.206  26.507  25.201  1.00  0.00     0.082 A 
ATOM      9  C   UNL A   1      31.983  26.316  25.856  1.00  0.00     0.143 A 
ATOM     10  C   UNL A   1      31.567  27.174  26.887  1.00  0.00     0.048 A 
ATOM     11  C   UNL A   1      32.398  28.200  27.328  1.00  0.00     0.004 A 
ATOM     12  C   UNL A   1      34.045  27.530  25.693  1.00  0.00     0.018 A 
ATOM     13  C   UNL A   1      33.647  28.367  26.743  1.00  0.00     0.001 A 
BRANCH   9  14
ATOM     14  O   UNL A   1      31.040  25.343  25.511  1.00  0.00    -0.426 OA
BRANCH  14  15
ATOM     15  C   UNL A   1      31.194  24.093  26.095  1.00  0.00     0.308 C 
ATOM     16  C   UNL A   1      31.335  23.068  25.005  1.00  0.00     0.139 C 
ATOM     17  O   UNL A   1      31.203  23.840  27.294  1.00  0.00    -0.252 OA
ENDBRANCH  14  15
ENDBRANCH   9  14
ENDBRANCH   5   8
ENDBRANCH   3   4
ENDBRANCH   2   3
ENDBRANCH   1   2
BRANCH   1  18
ATOM     18  C   UNL A   1      36.264  20.323  24.961  1.00  0.00     0.002 C 
BRANCH  18  19
ATOM     19  C   UNL A   1      37.701  19.860  24.717  1.00  0.00     0.021 C 
BRANCH  19  20
ATOM     20  C   UNL A   1      38.708  20.147  25.826  1.00  0.00     0.116 C 
BRANCH  20  21
ATOM     21  N   UNL A   1      39.883  19.298  25.767  1.00  0.00    -0.352 N 
ATOM     22  C   UNL A   1      41.199  19.583  26.040  1.00  0.00     0.251 C 
ATOM     23  H   UNL A   1      39.710  18.370  25.488  1.00  0.00     0.163 HD
ATOM     24  O   UNL A   1      42.062  18.741  25.806  1.00  0.00    -0.269 OA
BRANCH  22  25
ATOM     25  C   UNL A   1      41.600  20.902  26.588  1.00  0.00     0.039 A 
ATOM     26  C   UNL A   1      42.067  21.880  25.702  1.00  0.00     0.014 A 
ATOM     27  C   UNL A   1      41.557  21.176  27.957  1.00  0.00     0.014 A 
ATOM     28  C   UNL A   1      42.432  23.142  26.179  1.00  0.00     0.010 A 
ATOM     29  C   UNL A   1      41.847  22.461  28.422  1.00  0.00     0.010 A 
ATOM     30  C   UNL A   1      42.295  23.457  27.540  1.00  0.00    -0.014 A 
BRANCH  30  31
ATOM     31  C   UNL A   1      42.623  24.813  28.055  1.00  0.00     0.031 A 
ATOM     32  C   UNL A   1      44.037  25.156  28.446  1.00  0.00     0.074 A 
ATOM     33  C   UNL A   1      41.641  25.722  28.227  1.00  0.00     0.049 A 
ATOM     34  N   UNL A   1      44.506  26.260  28.972  1.00  0.00    -0.248 NA
ATOM     35  C   UNL A   1      45.056  24.112  28.247  1.00  0.00     0.031 C 
ATOM     36  C   UNL A   1      40.224  25.503  27.931  1.00  0.00     0.029 A 
ATOM     37  N   UNL A   1      41.682  27.010  28.703  1.00  0.00    -0.354 N 
ATOM     38  C   UNL A   1      45.860  26.035  29.185  1.00  0.00     0.074 A 
ATOM     39  C   UNL A   1      46.133  24.676  28.774  1.00  0.00     0.031 C 
ATOM     40  C   UNL A   1      39.536  26.621  28.212  1.00  0.00     0.029 A 
ATOM     41  C   UNL A   1      40.453  27.623  28.747  1.00  0.00     0.049 A 
ATOM     42  H   UNL A   1      42.515  27.452  28.986  1.00  0.00     0.167 HD
ATOM     43  C   UNL A   1      46.796  26.890  29.664  1.00  0.00     0.037 A 
ATOM     44  C   UNL A   1      40.101  28.850  29.179  1.00  0.00     0.037 A 
ATOM     45  C   UNL A   1      46.533  28.256  30.031  1.00  0.00     0.049 A 
ATOM     46  C   UNL A   1      41.165  29.777  29.703  1.00  0.00     0.074 A 
ATOM     47  C   UNL A   1      47.433  29.225  30.441  1.00  0.00     0.029 A 
ATOM     48  N   UNL A   1      45.279  28.846  30.039  1.00  0.00    -0.354 N 
ATOM     49  N   UNL A   1      42.457  29.578  29.812  1.00  0.00    -0.248 NA
ATOM     50  C   UNL A   1      40.724  31.105  30.155  1.00  0.00     0.031 C 
ATOM     51  C   UNL A   1      46.717  30.384  30.751  1.00  0.00     0.029 A 
ATOM     52  C   UNL A   1      45.378  30.156  30.479  1.00  0.00     0.049 A 
ATOM     53  H   UNL A   1      44.443  28.401  29.772  1.00  0.00     0.167 HD
ATOM     54  C   UNL A   1      42.983  30.763  30.311  1.00  0.00     0.074 A 
ATOM     55  C   UNL A   1      41.875  31.681  30.468  1.00  0.00     0.031 C 
ATOM     56  C   UNL A   1      44.269  31.065  30.614  1.00  0.00     0.037 A 
BRANCH  43  57
ATOM     57  C   UNL A   1      48.200  26.382  29.822  1.00  0.00     0.057 A 
ATOM     58  C   UNL A   1      49.172  26.560  28.828  1.00  0.00     0.134 A 
ATOM     59  C   UNL A   1      48.604  25.772  31.017  1.00  0.00     0.134 A 
ATOM     60  F   UNL A   1      48.850  27.129  27.656  1.00  0.00    -0.206 F 
ATOM     61  C   UNL A   1      50.489  26.136  29.011  1.00  0.00     0.040 A 
ATOM     62  C   UNL A   1      49.925  25.369  31.222  1.00  0.00     0.040 A 
ATOM     63  F   UNL A   1      47.727  25.576  32.013  1.00  0.00    -0.206 F 
ATOM     64  C   UNL A   1      50.871  25.548  30.216  1.00  0.00     0.006 A 
ENDBRANCH  43  57
BRANCH  44  65
ATOM     65  C   UNL A   1      38.681  29.286  29.140  1.00  0.00     0.057 A 
ATOM     66  C   UNL A   1      37.872  29.229  30.282  1.00  0.00     0.134 A 
ATOM     67  C   UNL A   1      38.083  29.724  27.952  1.00  0.00     0.134 A 
ATOM     68  F   UNL A   1      38.379  28.799  31.447  1.00  0.00    -0.206 F 
ATOM     69  C   UNL A   1      36.516  29.556  30.237  1.00  0.00     0.040 A 
ATOM     70  C   UNL A   1      36.735  30.084  27.900  1.00  0.00     0.040 A 
ATOM     71  F   UNL A   1      38.802  29.810  26.823  1.00  0.00    -0.206 F 
ATOM     72  C   UNL A   1      35.944  29.987  29.043  1.00  0.00     0.006 A 
ENDBRANCH  44  65
BRANCH  56  73
ATOM     73  C   UNL A   1      44.557  32.456  31.098  1.00  0.00     0.057 A 
ATOM     74  C   UNL A   1      44.571  32.780  32.461  1.00  0.00     0.134 A 
ATOM     75  C   UNL A   1      44.864  33.476  30.188  1.00  0.00     0.134 A 
ATOM     76  F   UNL A   1      44.275  31.852  33.384  1.00  0.00    -0.206 F 
ATOM     77  C   UNL A   1      44.855  34.075  32.900  1.00  0.00     0.040 A 
ATOM     78  C   UNL A   1      45.179  34.766  30.616  1.00  0.00     0.040 A 
ATOM     79  F   UNL A   1      44.879  33.231  28.869  1.00  0.00    -0.206 F 
ATOM     80  C   UNL A   1      45.168  35.070  31.975  1.00  0.00     0.006 A 
ENDBRANCH  56  73
ENDBRANCH  30  31
ENDBRANCH  22  25
ENDBRANCH  20  21
ENDBRANCH  19  20
ENDBRANCH  18  19
ENDBRANCH   1  18
TORSDOF 15
ENDMDL
MODEL 3
REMARK VINA RESULT:     -10.3      1.223      6.683
REMARK SMILES CC(=O)Oc1ccccc1C(=O)NCCCCCCNC(=O)c1ccc(-c2c3nc(c(-c4c(F)cccc4F)c4ccc([nH]4)c(-c4c(F)cccc4F)c4nc(c(-c5c(F)cccc5F)c5ccc2[nH]5)C=C4)C=C3)cc1
REMARK SMILES IDX 16 1 15 2 14 3 13 4 11 5 12 6 10 8 5 9 6 10 7 11 9 12 8 13
REMARK SMILES IDX 4 14 2 15 1 16 3 17 17 18 18 19 19 20 20 21 21 22 22 24
REMARK SMILES IDX 23 25 24 26 76 27 25 28 75 29 26 30 27 31 28 32 69 33 29 34
REMARK SMILES IDX 74 35 68 36 70 37 30 38 73 39 67 40 66 41 31 43 57 44 40 45
REMARK SMILES IDX 56 46 41 47 44 48 55 49 71 50 42 51 43 52 54 54 72 55 45 56
REMARK SMILES IDX 32 57 33 58 38 59 34 60 35 61 37 62 39 63 36 64 58 65 59 66
REMARK SMILES IDX 64 67 60 68 61 69 63 70 65 71 62 72 46 73 47 74 52 75 48 76
REMARK SMILES IDX 49 77 51 78 53 79 50 80
REMARK H PARENT 13 7 20 23 70 42 44 53
REMARK Flexibility Score: inf
ROOT
ATOM      1  C   UNL A   1      32.006  29.735  27.064  1.00  0.00     0.002 C 
ENDROOT
BRANCH   1   2
ATOM      2  C   UNL A   1      33.509  29.440  27.028  1.00  0.00     0.021 C 
BRANCH   2   3
ATOM      3  C   UNL A   1      33.983  28.423  25.998  1.00  0.00     0.116 C 
BRANCH   3   4
ATOM      4  N   UNL A   1      34.003  28.875  24.629  1.00  0.00    -0.352 N 
ATOM      5  C   UNL A   1      33.105  28.667  23.607  1.00  0.00     0.255 C 
ATOM      6  O   UNL A   1      33.349  29.217  22.530  1.00  0.00    -0.269 OA
ATOM      7  H   UNL A   1      34.786  29.421  24.386  1.00  0.00     0.163 HD
BRANCH   5   8
ATOM      8  C   UNL A   1      31.927  27.750  23.689  1.00  0.00     0.082 A 
ATOM      9  C   UNL A   1      30.567  28.086  23.705  1.00  0.00     0.143 A 
ATOM     10  C   UNL A   1      29.576  27.105  23.868  1.00  0.00     0.048 A 
ATOM     11  C   UNL A   1      29.924  25.759  23.951  1.00  0.00     0.004 A 
ATOM     12  C   UNL A   1      32.249  26.376  23.736  1.00  0.00     0.018 A 
ATOM     13  C   UNL A   1      31.260  25.393  23.866  1.00  0.00     0.001 A 
BRANCH   9  14
ATOM     14  O   UNL A   1      30.070  29.392  23.650  1.00  0.00    -0.426 OA
BRANCH  14  15
ATOM     15  C   UNL A   1      29.282  29.711  22.553  1.00  0.00     0.308 C 
ATOM     16  C   UNL A   1      27.965  30.240  23.046  1.00  0.00     0.139 C 
ATOM     17  O   UNL A   1      29.581  29.579  21.372  1.00  0.00    -0.252 OA
ENDBRANCH  14  15
ENDBRANCH   9  14
ENDBRANCH   5   8
ENDBRANCH   3   4
ENDBRANCH   2   3
ENDBRANCH   1   2
BRANCH   1  18
ATOM     18  C   UNL A   1      31.490  30.906  26.218  1.00  0.00     0.002 C 
BRANCH  18  19
ATOM     19  C   UNL A   1      31.413  32.275  26.895  1.00  0.00     0.021 C 
BRANCH  19  20
ATOM     20  C   UNL A   1      32.684  33.117  26.879  1.00  0.00     0.116 C 
BRANCH  20  21
ATOM     21  N   UNL A   1      32.591  34.313  27.696  1.00  0.00    -0.352 N 
ATOM     22  C   UNL A   1      33.302  34.685  28.812  1.00  0.00     0.251 C 
ATOM     23  H   UNL A   1      31.911  34.962  27.404  1.00  0.00     0.163 HD
ATOM     24  O   UNL A   1      32.975  35.695  29.428  1.00  0.00    -0.269 OA
BRANCH  22  25
ATOM     25  C   UNL A   1      34.440  33.870  29.301  1.00  0.00     0.039 A 
ATOM     26  C   UNL A   1      35.739  34.254  28.945  1.00  0.00     0.014 A 
ATOM     27  C   UNL A   1      34.248  32.719  30.069  1.00  0.00     0.014 A 
ATOM     28  C   UNL A   1      36.837  33.523  29.406  1.00  0.00     0.010 A 
ATOM     29  C   UNL A   1      35.348  32.036  30.593  1.00  0.00     0.010 A 
ATOM     30  C   UNL A   1      36.655  32.426  30.262  1.00  0.00    -0.014 A 
BRANCH  30  31
ATOM     31  C   UNL A   1      37.816  31.673  30.808  1.00  0.00     0.031 A 
ATOM     32  C   UNL A   1      38.326  31.964  32.196  1.00  0.00     0.074 A 
ATOM     33  C   UNL A   1      38.452  30.767  30.037  1.00  0.00     0.049 A 
ATOM     34  N   UNL A   1      39.360  31.459  32.821  1.00  0.00    -0.248 NA
ATOM     35  C   UNL A   1      37.594  32.975  32.977  1.00  0.00     0.031 C 
ATOM     36  C   UNL A   1      38.089  30.425  28.660  1.00  0.00     0.029 A 
ATOM     37  N   UNL A   1      39.545  29.976  30.296  1.00  0.00    -0.354 N 
ATOM     38  C   UNL A   1      39.415  32.104  34.050  1.00  0.00     0.074 A 
ATOM     39  C   UNL A   1      38.338  33.068  34.069  1.00  0.00     0.031 C 
ATOM     40  C   UNL A   1      38.929  29.481  28.205  1.00  0.00     0.029 A 
ATOM     41  C   UNL A   1      39.915  29.180  29.238  1.00  0.00     0.049 A 
ATOM     42  H   UNL A   1      40.018  29.979  31.159  1.00  0.00     0.167 HD
ATOM     43  C   UNL A   1      40.275  31.899  35.077  1.00  0.00     0.037 A 
ATOM     44  C   UNL A   1      40.940  28.314  29.110  1.00  0.00     0.037 A 
ATOM     45  C   UNL A   1      41.318  30.909  35.074  1.00  0.00     0.049 A 
ATOM     46  C   UNL A   1      41.875  28.107  30.271  1.00  0.00     0.074 A 
ATOM     47  C   UNL A   1      42.181  30.566  36.102  1.00  0.00     0.029 A 
ATOM     48  N   UNL A   1      41.646  30.107  33.992  1.00  0.00    -0.354 N 
ATOM     49  N   UNL A   1      41.856  28.661  31.459  1.00  0.00    -0.248 NA
ATOM     50  C   UNL A   1      42.971  27.146  30.075  1.00  0.00     0.031 C 
ATOM     51  C   UNL A   1      43.068  29.597  35.623  1.00  0.00     0.029 A 
ATOM     52  C   UNL A   1      42.720  29.294  34.317  1.00  0.00     0.049 A 
ATOM     53  H   UNL A   1      41.185  30.114  33.123  1.00  0.00     0.167 HD
ATOM     54  C   UNL A   1      42.912  28.092  32.161  1.00  0.00     0.074 A 
ATOM     55  C   UNL A   1      43.540  27.138  31.272  1.00  0.00     0.031 C 
ATOM     56  C   UNL A   1      43.325  28.336  33.428  1.00  0.00     0.037 A 
BRANCH  43  57
ATOM     57  C   UNL A   1      40.131  32.759  36.299  1.00  0.00     0.057 A 
ATOM     58  C   UNL A   1      40.928  33.892  36.510  1.00  0.00     0.134 A 
ATOM     59  C   UNL A   1      39.129  32.491  37.242  1.00  0.00     0.134 A 
ATOM     60  F   UNL A   1      41.910  34.201  35.650  1.00  0.00    -0.206 F 
ATOM     61  C   UNL A   1      40.744  34.717  37.621  1.00  0.00     0.040 A 
ATOM     62  C   UNL A   1      38.919  33.324  38.342  1.00  0.00     0.040 A 
ATOM     63  F   UNL A   1      38.325  31.426  37.099  1.00  0.00    -0.206 F 
ATOM     64  C   UNL A   1      39.729  34.440  38.536  1.00  0.00     0.006 A 
ENDBRANCH  43  57
BRANCH  44  65
ATOM     65  C   UNL A   1      41.145  27.570  27.840  1.00  0.00     0.057 A 
ATOM     66  C   UNL A   1      40.609  26.290  27.654  1.00  0.00     0.134 A 
ATOM     67  C   UNL A   1      41.919  28.099  26.800  1.00  0.00     0.134 A 
ATOM     68  F   UNL A   1      39.875  25.719  28.620  1.00  0.00    -0.206 F 
ATOM     69  C   UNL A   1      40.866  25.548  26.499  1.00  0.00     0.040 A 
ATOM     70  C   UNL A   1      42.158  27.381  25.627  1.00  0.00     0.040 A 
ATOM     71  F   UNL A   1      42.455  29.324  26.908  1.00  0.00    -0.206 F 
ATOM     72  C   UNL A   1      41.641  26.095  25.480  1.00  0.00     0.006 A 
ENDBRANCH  44  65
BRANCH  56  73
ATOM     73  C   UNL A   1      44.479  27.529  33.946  1.00  0.00     0.057 A 
ATOM     74  C   UNL A   1      45.797  28.000  33.896  1.00  0.00     0.134 A 
ATOM     75  C   UNL A   1      44.262  26.279  34.542  1.00  0.00     0.134 A 
ATOM     76  F   UNL A   1      46.076  29.184  33.329  1.00  0.00    -0.206 F 
ATOM     77  C   UNL A   1      46.861  27.246  34.395  1.00  0.00     0.040 A 
ATOM     78  C   UNL A   1      45.313  25.531  35.072  1.00  0.00     0.040 A 
ATOM     79  F   UNL A   1      43.023  25.774  34.633  1.00  0.00    -0.206 F 
ATOM     80  C   UNL A   1      46.618  26.011  34.993  1.00  0.00     0.006 A 
ENDBRANCH  56  73
ENDBRANCH  30  31
ENDBRANCH  22  25
ENDBRANCH  20  21
ENDBRANCH  19  20
ENDBRANCH  18  19
ENDBRANCH   1  18
TORSDOF 15
ENDMDL
