MODEL 1
REMARK VINA RESULT:      -9.8      0.000      0.000
REMARK SMILES CCCCSc1ccccc1C(=O)NCCCCCCNC(=O)c1ccc(-c2c3nc(c(-c4c(F)cccc4F)c4ccc([nH]4)c(-c4c(F)cccc4F)c4nc(c(-c5c(F)cccc5F)c5ccc2[nH]5)C=C4)C=C3)cc1
REMARK SMILES IDX 16 1 15 2 14 3 12 4 13 5 11 7 6 8 7 9 8 10 10 11 9 12 5 13
REMARK SMILES IDX 4 14 3 15 2 16 1 17 17 18 18 19 19 20 20 21 21 22 22 23
REMARK SMILES IDX 23 25 24 26 25 27 77 28 26 29 76 30 27 31 28 32 29 33 70 34
REMARK SMILES IDX 30 35 75 36 69 37 71 38 31 39 74 40 68 41 67 42 32 44 58 45
REMARK SMILES IDX 41 46 57 47 42 48 45 49 56 50 72 51 43 52 44 53 55 55 73 56
REMARK SMILES IDX 46 57 33 58 34 59 39 60 35 61 36 62 38 63 40 64 37 65 59 66
REMARK SMILES IDX 60 67 65 68 61 69 62 70 64 71 66 72 63 73 47 74 48 75 53 76
REMARK SMILES IDX 49 77 50 78 52 79 54 80 51 81
REMARK H PARENT 14 6 21 24 71 43 45 54
REMARK Flexibility Score: inf
ROOT
ATOM      1  C   UNL A   1      37.432  22.757  25.558  1.00  0.00     0.021 C 
ENDROOT
BRANCH   1   2
ATOM      2  C   UNL A   1      36.330  23.783  25.857  1.00  0.00     0.116 C 
BRANCH   2   3
ATOM      3  N   UNL A   1      35.444  23.214  26.849  1.00  0.00    -0.352 N 
ATOM      4  C   UNL A   1      34.225  22.601  26.774  1.00  0.00     0.252 C 
ATOM      5  O   UNL A   1      33.596  22.517  27.833  1.00  0.00    -0.269 OA
ATOM      6  H   UNL A   1      35.790  23.284  27.769  1.00  0.00     0.163 HD
BRANCH   4   7
ATOM      7  C   UNL A   1      33.667  21.905  25.578  1.00  0.00     0.053 A 
ATOM      8  C   UNL A   1      33.359  22.404  24.301  1.00  0.00     0.020 A 
ATOM      9  C   UNL A   1      32.807  21.517  23.345  1.00  0.00     0.016 A 
ATOM     10  C   UNL A   1      32.469  20.201  23.661  1.00  0.00     0.001 A 
ATOM     11  C   UNL A   1      33.315  20.563  25.873  1.00  0.00     0.015 A 
ATOM     12  C   UNL A   1      32.709  19.726  24.937  1.00  0.00     0.001 A 
BRANCH   8  13
ATOM     13  S   UNL A   1      33.502  24.070  23.668  1.00  0.00    -0.125 SA
BRANCH  13  14
ATOM     14  C   UNL A   1      32.319  24.997  24.699  1.00  0.00     0.075 C 
BRANCH  14  15
ATOM     15  C   UNL A   1      30.952  24.329  24.837  1.00  0.00     0.011 C 
BRANCH  15  16
ATOM     16  C   UNL A   1      30.457  24.090  26.264  1.00  0.00    -0.003 C 
ATOM     17  C   UNL A   1      30.195  22.627  26.583  1.00  0.00     0.004 C 
ENDBRANCH  15  16
ENDBRANCH  14  15
ENDBRANCH  13  14
ENDBRANCH   8  13
ENDBRANCH   4   7
ENDBRANCH   2   3
ENDBRANCH   1   2
BRANCH   1  18
ATOM     18  C   UNL A   1      37.097  21.795  24.417  1.00  0.00     0.002 C 
BRANCH  18  19
ATOM     19  C   UNL A   1      36.921  20.339  24.857  1.00  0.00     0.002 C 
BRANCH  19  20
ATOM     20  C   UNL A   1      38.207  19.505  24.884  1.00  0.00     0.021 C 
BRANCH  20  21
ATOM     21  C   UNL A   1      39.193  19.872  25.993  1.00  0.00     0.116 C 
BRANCH  21  22
ATOM     22  N   UNL A   1      40.375  19.026  25.969  1.00  0.00    -0.352 N 
ATOM     23  C   UNL A   1      41.695  19.371  26.075  1.00  0.00     0.251 C 
ATOM     24  H   UNL A   1      40.200  18.063  25.860  1.00  0.00     0.163 HD
ATOM     25  O   UNL A   1      42.573  18.552  25.789  1.00  0.00    -0.269 OA
BRANCH  23  26
ATOM     26  C   UNL A   1      42.079  20.724  26.525  1.00  0.00     0.039 A 
ATOM     27  C   UNL A   1      42.390  21.693  25.569  1.00  0.00     0.014 A 
ATOM     28  C   UNL A   1      42.168  21.026  27.887  1.00  0.00     0.014 A 
ATOM     29  C   UNL A   1      42.740  22.981  25.977  1.00  0.00     0.010 A 
ATOM     30  C   UNL A   1      42.454  22.328  28.292  1.00  0.00     0.010 A 
ATOM     31  C   UNL A   1      42.749  23.316  27.341  1.00  0.00    -0.014 A 
BRANCH  31  32
ATOM     32  C   UNL A   1      43.070  24.695  27.787  1.00  0.00     0.031 A 
ATOM     33  C   UNL A   1      44.500  25.123  27.967  1.00  0.00     0.074 A 
ATOM     34  C   UNL A   1      42.069  25.546  28.084  1.00  0.00     0.049 A 
ATOM     35  N   UNL A   1      44.974  26.267  28.390  1.00  0.00    -0.248 NA
ATOM     36  C   UNL A   1      45.534  24.123  27.653  1.00  0.00     0.031 C 
ATOM     37  C   UNL A   1      40.641  25.235  27.999  1.00  0.00     0.029 A 
ATOM     38  N   UNL A   1      42.101  26.845  28.525  1.00  0.00    -0.354 N 
ATOM     39  C   UNL A   1      46.356  26.121  28.406  1.00  0.00     0.074 A 
ATOM     40  C   UNL A   1      46.642  24.763  27.998  1.00  0.00     0.031 C 
ATOM     41  C   UNL A   1      39.933  26.319  28.354  1.00  0.00     0.029 A 
ATOM     42  C   UNL A   1      40.855  27.390  28.721  1.00  0.00     0.049 A 
ATOM     43  H   UNL A   1      42.936  27.340  28.686  1.00  0.00     0.167 HD
ATOM     44  C   UNL A   1      47.300  27.043  28.712  1.00  0.00     0.037 A 
ATOM     45  C   UNL A   1      40.497  28.615  29.151  1.00  0.00     0.037 A 
ATOM     46  C   UNL A   1      47.014  28.401  29.091  1.00  0.00     0.049 A 
ATOM     47  C   UNL A   1      41.563  29.620  29.478  1.00  0.00     0.074 A 
ATOM     48  C   UNL A   1      47.902  29.429  29.356  1.00  0.00     0.029 A 
ATOM     49  N   UNL A   1      45.739  28.921  29.259  1.00  0.00    -0.354 N 
ATOM     50  N   UNL A   1      42.867  29.491  29.420  1.00  0.00    -0.248 NA
ATOM     51  C   UNL A   1      41.111  30.945  29.924  1.00  0.00     0.031 C 
ATOM     52  C   UNL A   1      47.166  30.560  29.723  1.00  0.00     0.029 A 
ATOM     53  C   UNL A   1      45.818  30.249  29.646  1.00  0.00     0.049 A 
ATOM     54  H   UNL A   1      44.902  28.420  29.125  1.00  0.00     0.167 HD
ATOM     55  C   UNL A   1      43.388  30.722  29.796  1.00  0.00     0.074 A 
ATOM     56  C   UNL A   1      42.261  31.589  30.068  1.00  0.00     0.031 C 
ATOM     57  C   UNL A   1      44.686  31.100  29.906  1.00  0.00     0.037 A 
BRANCH  44  58
ATOM     58  C   UNL A   1      48.736  26.611  28.641  1.00  0.00     0.057 A 
ATOM     59  C   UNL A   1      49.405  26.090  29.756  1.00  0.00     0.134 A 
ATOM     60  C   UNL A   1      49.447  26.682  27.437  1.00  0.00     0.134 A 
ATOM     61  F   UNL A   1      48.784  26.005  30.943  1.00  0.00    -0.206 F 
ATOM     62  C   UNL A   1      50.738  25.680  29.683  1.00  0.00     0.040 A 
ATOM     63  C   UNL A   1      50.772  26.252  27.345  1.00  0.00     0.040 A 
ATOM     64  F   UNL A   1      48.865  27.164  26.329  1.00  0.00    -0.206 F 
ATOM     65  C   UNL A   1      51.422  25.755  28.473  1.00  0.00     0.006 A 
ENDBRANCH  44  58
BRANCH  45  66
ATOM     66  C   UNL A   1      39.060  28.966  29.269  1.00  0.00     0.057 A 
ATOM     67  C   UNL A   1      38.384  28.829  30.488  1.00  0.00     0.134 A 
ATOM     68  C   UNL A   1      38.330  29.444  28.175  1.00  0.00     0.134 A 
ATOM     69  F   UNL A   1      39.026  28.360  31.566  1.00  0.00    -0.206 F 
ATOM     70  C   UNL A   1      37.029  29.139  30.609  1.00  0.00     0.040 A 
ATOM     71  C   UNL A   1      36.979  29.780  28.288  1.00  0.00     0.040 A 
ATOM     72  F   UNL A   1      38.923  29.604  26.983  1.00  0.00    -0.206 F 
ATOM     73  C   UNL A   1      36.324  29.621  29.509  1.00  0.00     0.006 A 
ENDBRANCH  45  66
BRANCH  57  74
ATOM     74  C   UNL A   1      44.954  32.519  30.310  1.00  0.00     0.057 A 
ATOM     75  C   UNL A   1      45.159  32.879  31.647  1.00  0.00     0.134 A 
ATOM     76  C   UNL A   1      45.048  33.529  29.343  1.00  0.00     0.134 A 
ATOM     77  F   UNL A   1      45.067  31.961  32.620  1.00  0.00    -0.206 F 
ATOM     78  C   UNL A   1      45.429  34.199  32.011  1.00  0.00     0.040 A 
ATOM     79  C   UNL A   1      45.342  34.847  29.693  1.00  0.00     0.040 A 
ATOM     80  F   UNL A   1      44.870  33.247  28.043  1.00  0.00    -0.206 F 
ATOM     81  C   UNL A   1      45.529  35.186  31.032  1.00  0.00     0.006 A 
ENDBRANCH  57  74
ENDBRANCH  31  32
ENDBRANCH  23  26
ENDBRANCH  21  22
ENDBRANCH  20  21
ENDBRANCH  19  20
ENDBRANCH  18  19
ENDBRANCH   1  18
TORSDOF 17
ENDMDL
MODEL 2
REMARK VINA RESULT:      -9.6      0.974      6.592
REMARK SMILES CCCCSc1ccccc1C(=O)NCCCCCCNC(=O)c1ccc(-c2c3nc(c(-c4c(F)cccc4F)c4ccc([nH]4)c(-c4c(F)cccc4F)c4nc(c(-c5c(F)cccc5F)c5ccc2[nH]5)C=C4)C=C3)cc1
REMARK SMILES IDX 16 1 15 2 14 3 12 4 13 5 11 7 6 8 7 9 8 10 10 11 9 12 5 13
REMARK SMILES IDX 4 14 3 15 2 16 1 17 17 18 18 19 19 20 20 21 21 22 22 23
REMARK SMILES IDX 23 25 24 26 25 27 77 28 26 29 76 30 27 31 28 32 29 33 70 34
REMARK SMILES IDX 30 35 75 36 69 37 71 38 31 39 74 40 68 41 67 42 32 44 58 45
REMARK SMILES IDX 41 46 57 47 42 48 45 49 56 50 72 51 43 52 44 53 55 55 73 56
REMARK SMILES IDX 46 57 33 58 34 59 39 60 35 61 36 62 38 63 40 64 37 65 59 66
REMARK SMILES IDX 60 67 65 68 61 69 62 70 64 71 66 72 63 73 47 74 48 75 53 76
REMARK SMILES IDX 49 77 50 78 52 79 54 80 51 81
REMARK H PARENT 14 6 21 24 71 43 45 54
REMARK Flexibility Score: inf
ROOT
ATOM      1  C   UNL A   1      37.324  22.991  25.432  1.00  0.00     0.021 C 
ENDROOT
BRANCH   1   2
ATOM      2  C   UNL A   1      36.032  23.743  25.783  1.00  0.00     0.116 C 
BRANCH   2   3
ATOM      3  N   UNL A   1      35.271  22.925  26.702  1.00  0.00    -0.352 N 
ATOM      4  C   UNL A   1      33.942  22.854  27.011  1.00  0.00     0.252 C 
ATOM      5  O   UNL A   1      33.662  22.273  28.063  1.00  0.00    -0.269 OA
ATOM      6  H   UNL A   1      35.825  22.289  27.210  1.00  0.00     0.163 HD
BRANCH   4   7
ATOM      7  C   UNL A   1      32.814  23.277  26.130  1.00  0.00     0.053 A 
ATOM      8  C   UNL A   1      32.501  22.897  24.813  1.00  0.00     0.020 A 
ATOM      9  C   UNL A   1      31.369  23.480  24.193  1.00  0.00     0.016 A 
ATOM     10  C   UNL A   1      30.621  24.484  24.808  1.00  0.00     0.001 A 
ATOM     11  C   UNL A   1      32.037  24.299  26.732  1.00  0.00     0.015 A 
ATOM     12  C   UNL A   1      30.967  24.908  26.078  1.00  0.00     0.001 A 
BRANCH   8  13
ATOM     13  S   UNL A   1      33.372  21.788  23.714  1.00  0.00    -0.125 SA
BRANCH  13  14
ATOM     14  C   UNL A   1      32.446  20.229  23.896  1.00  0.00     0.075 C 
BRANCH  14  15
ATOM     15  C   UNL A   1      33.062  19.247  24.891  1.00  0.00     0.011 C 
BRANCH  15  16
ATOM     16  C   UNL A   1      34.027  18.212  24.311  1.00  0.00    -0.003 C 
ATOM     17  C   UNL A   1      33.400  17.317  23.254  1.00  0.00     0.004 C 
ENDBRANCH  15  16
ENDBRANCH  14  15
ENDBRANCH  13  14
ENDBRANCH   8  13
ENDBRANCH   4   7
ENDBRANCH   2   3
ENDBRANCH   1   2
BRANCH   1  18
ATOM     18  C   UNL A   1      37.157  21.947  24.326  1.00  0.00     0.002 C 
BRANCH  18  19
ATOM     19  C   UNL A   1      36.823  20.542  24.836  1.00  0.00     0.002 C 
BRANCH  19  20
ATOM     20  C   UNL A   1      38.016  19.585  24.942  1.00  0.00     0.021 C 
BRANCH  20  21
ATOM     21  C   UNL A   1      39.119  20.032  25.901  1.00  0.00     0.116 C 
BRANCH  21  22
ATOM     22  N   UNL A   1      40.212  19.074  25.953  1.00  0.00    -0.352 N 
ATOM     23  C   UNL A   1      41.557  19.295  26.069  1.00  0.00     0.251 C 
ATOM     24  H   UNL A   1      39.945  18.128  25.895  1.00  0.00     0.163 HD
ATOM     25  O   UNL A   1      42.355  18.379  25.850  1.00  0.00    -0.269 OA
BRANCH  23  26
ATOM     26  C   UNL A   1      42.066  20.628  26.449  1.00  0.00     0.039 A 
ATOM     27  C   UNL A   1      42.414  21.532  25.444  1.00  0.00     0.014 A 
ATOM     28  C   UNL A   1      42.232  20.973  27.794  1.00  0.00     0.014 A 
ATOM     29  C   UNL A   1      42.881  22.802  25.786  1.00  0.00     0.010 A 
ATOM     30  C   UNL A   1      42.637  22.262  28.135  1.00  0.00     0.010 A 
ATOM     31  C   UNL A   1      42.972  23.186  27.134  1.00  0.00    -0.014 A 
BRANCH  31  32
ATOM     32  C   UNL A   1      43.419  24.550  27.512  1.00  0.00     0.031 A 
ATOM     33  C   UNL A   1      42.417  25.589  27.932  1.00  0.00     0.074 A 
ATOM     34  C   UNL A   1      44.724  24.870  27.422  1.00  0.00     0.049 A 
ATOM     35  N   UNL A   1      42.611  26.843  28.254  1.00  0.00    -0.248 NA
ATOM     36  C   UNL A   1      41.006  25.170  27.972  1.00  0.00     0.031 C 
ATOM     37  C   UNL A   1      45.788  23.966  26.979  1.00  0.00     0.029 A 
ATOM     38  N   UNL A   1      45.378  26.045  27.692  1.00  0.00    -0.354 N 
ATOM     39  C   UNL A   1      41.351  27.365  28.521  1.00  0.00     0.074 A 
ATOM     40  C   UNL A   1      40.395  26.306  28.276  1.00  0.00     0.031 C 
ATOM     41  C   UNL A   1      46.963  24.614  27.029  1.00  0.00     0.029 A 
ATOM     42  C   UNL A   1      46.733  25.984  27.475  1.00  0.00     0.049 A 
ATOM     43  H   UNL A   1      44.920  26.856  28.010  1.00  0.00     0.167 HD
ATOM     44  C   UNL A   1      41.023  28.606  28.952  1.00  0.00     0.037 A 
ATOM     45  C   UNL A   1      47.683  26.927  27.619  1.00  0.00     0.037 A 
ATOM     46  C   UNL A   1      41.978  29.648  29.222  1.00  0.00     0.049 A 
ATOM     47  C   UNL A   1      47.294  28.294  28.105  1.00  0.00     0.074 A 
ATOM     48  C   UNL A   1      41.751  30.917  29.725  1.00  0.00     0.029 A 
ATOM     49  N   UNL A   1      43.344  29.541  29.010  1.00  0.00    -0.354 N 
ATOM     50  N   UNL A   1      46.107  28.752  28.422  1.00  0.00    -0.248 NA
ATOM     51  C   UNL A   1      48.377  29.275  28.260  1.00  0.00     0.031 C 
ATOM     52  C   UNL A   1      42.975  31.592  29.780  1.00  0.00     0.029 A 
ATOM     53  C   UNL A   1      43.970  30.728  29.351  1.00  0.00     0.049 A 
ATOM     54  H   UNL A   1      43.801  28.739  28.666  1.00  0.00     0.167 HD
ATOM     55  C   UNL A   1      46.303  30.062  28.838  1.00  0.00     0.074 A 
ATOM     56  C   UNL A   1      47.724  30.323  28.745  1.00  0.00     0.031 C 
ATOM     57  C   UNL A   1      45.387  30.969  29.259  1.00  0.00     0.037 A 
BRANCH  44  58
ATOM     58  C   UNL A   1      39.567  28.901  29.167  1.00  0.00     0.057 A 
ATOM     59  C   UNL A   1      38.743  29.342  28.123  1.00  0.00     0.134 A 
ATOM     60  C   UNL A   1      38.974  28.706  30.420  1.00  0.00     0.134 A 
ATOM     61  F   UNL A   1      39.251  29.559  26.900  1.00  0.00    -0.206 F 
ATOM     62  C   UNL A   1      37.387  29.606  28.325  1.00  0.00     0.040 A 
ATOM     63  C   UNL A   1      37.614  28.943  30.629  1.00  0.00     0.040 A 
ATOM     64  F   UNL A   1      39.704  28.279  31.461  1.00  0.00    -0.206 F 
ATOM     65  C   UNL A   1      36.818  29.400  29.580  1.00  0.00     0.006 A 
ENDBRANCH  44  58
BRANCH  45  66
ATOM     66  C   UNL A   1      49.101  26.600  27.326  1.00  0.00     0.057 A 
ATOM     67  C   UNL A   1      49.932  26.058  28.314  1.00  0.00     0.134 A 
ATOM     68  C   UNL A   1      49.657  26.820  26.062  1.00  0.00     0.134 A 
ATOM     69  F   UNL A   1      49.460  25.841  29.549  1.00  0.00    -0.206 F 
ATOM     70  C   UNL A   1      51.271  25.762  28.058  1.00  0.00     0.040 A 
ATOM     71  C   UNL A   1      50.990  26.507  25.785  1.00  0.00     0.040 A 
ATOM     72  F   UNL A   1      48.910  27.330  25.072  1.00  0.00    -0.206 F 
ATOM     73  C   UNL A   1      51.803  25.981  26.789  1.00  0.00     0.006 A 
ENDBRANCH  45  66
BRANCH  57  74
ATOM     74  C   UNL A   1      45.897  32.315  29.678  1.00  0.00     0.057 A 
ATOM     75  C   UNL A   1      46.315  32.569  30.990  1.00  0.00     0.134 A 
ATOM     76  C   UNL A   1      46.009  33.356  28.748  1.00  0.00     0.134 A 
ATOM     77  F   UNL A   1      46.220  31.618  31.930  1.00  0.00    -0.206 F 
ATOM     78  C   UNL A   1      46.809  33.819  31.366  1.00  0.00     0.040 A 
ATOM     79  C   UNL A   1      46.524  34.602  29.106  1.00  0.00     0.040 A 
ATOM     80  F   UNL A   1      45.633  33.174  27.472  1.00  0.00    -0.206 F 
ATOM     81  C   UNL A   1      46.922  34.837  30.421  1.00  0.00     0.006 A 
ENDBRANCH  57  74
ENDBRANCH  31  32
ENDBRANCH  23  26
ENDBRANCH  21  22
ENDBRANCH  20  21
ENDBRANCH  19  20
ENDBRANCH  18  19
ENDBRANCH   1  18
TORSDOF 17
ENDMDL
MODEL 3
REMARK VINA RESULT:      -9.5      2.672      7.685
REMARK SMILES CCCCSc1ccccc1C(=O)NCCCCCCNC(=O)c1ccc(-c2c3nc(c(-c4c(F)cccc4F)c4ccc([nH]4)c(-c4c(F)cccc4F)c4nc(c(-c5c(F)cccc5F)c5ccc2[nH]5)C=C4)C=C3)cc1
REMARK SMILES IDX 16 1 15 2 14 3 12 4 13 5 11 7 6 8 7 9 8 10 10 11 9 12 5 13
REMARK SMILES IDX 4 14 3 15 2 16 1 17 17 18 18 19 19 20 20 21 21 22 22 23
REMARK SMILES IDX 23 25 24 26 25 27 77 28 26 29 76 30 27 31 28 32 29 33 70 34
REMARK SMILES IDX 30 35 75 36 69 37 71 38 31 39 74 40 68 41 67 42 32 44 58 45
REMARK SMILES IDX 41 46 57 47 42 48 45 49 56 50 72 51 43 52 44 53 55 55 73 56
REMARK SMILES IDX 46 57 33 58 34 59 39 60 35 61 36 62 38 63 40 64 37 65 59 66
REMARK SMILES IDX 60 67 65 68 61 69 62 70 64 71 66 72 63 73 47 74 48 75 53 76
REMARK SMILES IDX 49 77 50 78 52 79 54 80 51 81
REMARK H PARENT 14 6 21 24 71 43 45 54
REMARK Flexibility Score: inf
ROOT
ATOM      1  C   UNL A   1      32.683  29.101  23.691  1.00  0.00     0.021 C 
ENDROOT
BRANCH   1   2
ATOM      2  C   UNL A   1      33.786  28.038  23.588  1.00  0.00     0.116 C 
BRANCH   2   3
ATOM      3  N   UNL A   1      33.548  27.257  22.395  1.00  0.00    -0.352 N 
ATOM      4  C   UNL A   1      33.334  25.925  22.175  1.00  0.00     0.252 C 
ATOM      5  O   UNL A   1      33.481  25.538  21.012  1.00  0.00    -0.269 OA
ATOM      6  H   UNL A   1      33.538  27.795  21.570  1.00  0.00     0.163 HD
BRANCH   4   7
ATOM      7  C   UNL A   1      32.803  24.947  23.170  1.00  0.00     0.053 A 
ATOM      8  C   UNL A   1      33.475  24.199  24.152  1.00  0.00     0.020 A 
ATOM      9  C   UNL A   1      32.721  23.311  24.957  1.00  0.00     0.016 A 
ATOM     10  C   UNL A   1      31.361  23.085  24.740  1.00  0.00     0.001 A 
ATOM     11  C   UNL A   1      31.421  24.699  22.970  1.00  0.00     0.015 A 
ATOM     12  C   UNL A   1      30.712  23.770  23.730  1.00  0.00     0.001 A 
BRANCH   8  13
ATOM     13  S   UNL A   1      35.220  24.135  24.535  1.00  0.00    -0.125 SA
BRANCH  13  14
ATOM     14  C   UNL A   1      35.343  22.674  25.618  1.00  0.00     0.075 C 
BRANCH  14  15
ATOM     15  C   UNL A   1      35.950  21.445  24.944  1.00  0.00     0.011 C 
BRANCH  15  16
ATOM     16  C   UNL A   1      37.471  21.443  24.786  1.00  0.00    -0.003 C 
ATOM     17  C   UNL A   1      38.198  22.249  25.851  1.00  0.00     0.004 C 
ENDBRANCH  15  16
ENDBRANCH  14  15
ENDBRANCH  13  14
ENDBRANCH   8  13
ENDBRANCH   4   7
ENDBRANCH   2   3
ENDBRANCH   1   2
BRANCH   1  18
ATOM     18  C   UNL A   1      31.663  28.836  24.800  1.00  0.00     0.002 C 
BRANCH  18  19
ATOM     19  C   UNL A   1      31.989  27.622  25.674  1.00  0.00     0.002 C 
BRANCH  19  20
ATOM     20  C   UNL A   1      32.404  27.946  27.114  1.00  0.00     0.021 C 
BRANCH  20  21
ATOM     21  C   UNL A   1      33.799  28.551  27.263  1.00  0.00     0.116 C 
BRANCH  21  22
ATOM     22  N   UNL A   1      33.743  29.949  27.658  1.00  0.00    -0.352 N 
ATOM     23  C   UNL A   1      34.666  30.700  28.334  1.00  0.00     0.251 C 
ATOM     24  H   UNL A   1      32.920  30.425  27.402  1.00  0.00     0.163 HD
ATOM     25  O   UNL A   1      34.349  31.800  28.796  1.00  0.00    -0.269 OA
BRANCH  23  26
ATOM     26  C   UNL A   1      36.043  30.201  28.521  1.00  0.00     0.039 A 
ATOM     27  C   UNL A   1      36.931  30.241  27.444  1.00  0.00     0.014 A 
ATOM     28  C   UNL A   1      36.447  29.660  29.745  1.00  0.00     0.014 A 
ATOM     29  C   UNL A   1      38.241  29.788  27.608  1.00  0.00     0.010 A 
ATOM     30  C   UNL A   1      37.772  29.269  29.927  1.00  0.00     0.010 A 
ATOM     31  C   UNL A   1      38.679  29.321  28.859  1.00  0.00    -0.014 A 
BRANCH  31  32
ATOM     32  C   UNL A   1      40.083  28.883  29.062  1.00  0.00     0.031 A 
ATOM     33  C   UNL A   1      41.089  29.817  29.674  1.00  0.00     0.074 A 
ATOM     34  C   UNL A   1      40.464  27.661  28.643  1.00  0.00     0.049 A 
ATOM     35  N   UNL A   1      42.367  29.630  29.889  1.00  0.00    -0.248 NA
ATOM     36  C   UNL A   1      40.601  31.147  30.074  1.00  0.00     0.031 C 
ATOM     37  C   UNL A   1      39.594  26.682  27.989  1.00  0.00     0.029 A 
ATOM     38  N   UNL A   1      41.684  27.037  28.698  1.00  0.00    -0.354 N 
ATOM     39  C   UNL A   1      42.836  30.818  30.435  1.00  0.00     0.074 A 
ATOM     40  C   UNL A   1      41.718  31.736  30.473  1.00  0.00     0.031 C 
ATOM     41  C   UNL A   1      40.303  25.573  27.724  1.00  0.00     0.029 A 
ATOM     42  C   UNL A   1      41.681  25.773  28.159  1.00  0.00     0.049 A 
ATOM     43  H   UNL A   1      42.486  27.455  29.087  1.00  0.00     0.167 HD
ATOM     44  C   UNL A   1      44.080  31.110  30.885  1.00  0.00     0.037 A 
ATOM     45  C   UNL A   1      42.679  24.878  28.029  1.00  0.00     0.037 A 
ATOM     46  C   UNL A   1      45.183  30.186  30.872  1.00  0.00     0.049 A 
ATOM     47  C   UNL A   1      44.048  25.223  28.542  1.00  0.00     0.074 A 
ATOM     48  C   UNL A   1      46.464  30.364  31.365  1.00  0.00     0.029 A 
ATOM     49  N   UNL A   1      45.135  28.907  30.336  1.00  0.00    -0.354 N 
ATOM     50  N   UNL A   1      44.460  26.325  29.122  1.00  0.00    -0.248 NA
ATOM     51  C   UNL A   1      45.090  24.199  28.388  1.00  0.00     0.031 C 
ATOM     52  C   UNL A   1      47.203  29.208  31.092  1.00  0.00     0.029 A 
ATOM     53  C   UNL A   1      46.370  28.294  30.467  1.00  0.00     0.049 A 
ATOM     54  H   UNL A   1      44.341  28.498  29.923  1.00  0.00     0.167 HD
ATOM     55  C   UNL A   1      45.799  26.117  29.425  1.00  0.00     0.074 A 
ATOM     56  C   UNL A   1      46.127  24.780  28.976  1.00  0.00     0.031 C 
ATOM     57  C   UNL A   1      46.678  26.959  30.021  1.00  0.00     0.037 A 
BRANCH  44  58
ATOM     58  C   UNL A   1      44.311  32.486  31.438  1.00  0.00     0.057 A 
ATOM     59  C   UNL A   1      44.121  32.776  32.796  1.00  0.00     0.134 A 
ATOM     60  C   UNL A   1      44.763  33.523  30.613  1.00  0.00     0.134 A 
ATOM     61  F   UNL A   1      43.679  31.830  33.638  1.00  0.00    -0.206 F 
ATOM     62  C   UNL A   1      44.346  34.056  33.307  1.00  0.00     0.040 A 
ATOM     63  C   UNL A   1      45.016  34.800  31.117  1.00  0.00     0.040 A 
ATOM     64  F   UNL A   1      44.971  33.312  29.305  1.00  0.00    -0.206 F 
ATOM     65  C   UNL A   1      44.801  35.070  32.468  1.00  0.00     0.006 A 
ENDBRANCH  44  58
BRANCH  45  66
ATOM     66  C   UNL A   1      42.410  23.556  27.411  1.00  0.00     0.057 A 
ATOM     67  C   UNL A   1      42.037  22.458  28.196  1.00  0.00     0.134 A 
ATOM     68  C   UNL A   1      42.519  23.357  26.031  1.00  0.00     0.134 A 
ATOM     69  F   UNL A   1      41.933  22.584  29.526  1.00  0.00    -0.206 F 
ATOM     70  C   UNL A   1      41.798  21.205  27.631  1.00  0.00     0.040 A 
ATOM     71  C   UNL A   1      42.261  22.114  25.449  1.00  0.00     0.040 A 
ATOM     72  F   UNL A   1      42.866  24.371  25.225  1.00  0.00    -0.206 F 
ATOM     73  C   UNL A   1      41.905  21.031  26.253  1.00  0.00     0.006 A 
ENDBRANCH  45  66
BRANCH  57  74
ATOM     74  C   UNL A   1      48.069  26.448  30.250  1.00  0.00     0.057 A 
ATOM     75  C   UNL A   1      49.084  26.623  29.302  1.00  0.00     0.134 A 
ATOM     76  C   UNL A   1      48.405  25.808  31.450  1.00  0.00     0.134 A 
ATOM     77  F   UNL A   1      48.823  27.215  28.128  1.00  0.00    -0.206 F 
ATOM     78  C   UNL A   1      50.381  26.163  29.532  1.00  0.00     0.040 A 
ATOM     79  C   UNL A   1      49.704  25.366  31.703  1.00  0.00     0.040 A 
ATOM     80  F   UNL A   1      47.479  25.617  32.403  1.00  0.00    -0.206 F 
ATOM     81  C   UNL A   1      50.696  25.539  30.738  1.00  0.00     0.006 A 
ENDBRANCH  57  74
ENDBRANCH  31  32
ENDBRANCH  23  26
ENDBRANCH  21  22
ENDBRANCH  20  21
ENDBRANCH  19  20
ENDBRANCH  18  19
ENDBRANCH   1  18
TORSDOF 17
ENDMDL
