MODEL 1
REMARK VINA RESULT:     -11.5      0.000      0.000
REMARK SMILES Cc1ccccc1/C=C1\SC(=S)N(CCC(=O)N[C@@H](C)C(=O)NCCCCCCNC(=O)c2ccc(-c3c4nc(c(-c5c(F)cccc5F)c5ccc([nH]5)c(-c5c(F)cccc5F)c5nc(c(-c6c(F)cccc6F)c6ccc3[nH]6)C=C5)C=C4)cc2)C1=O
REMARK SMILES IDX 25 1 24 2 23 3 21 4 22 5 19 7 20 8 18 9 16 10 17 11 15 13
REMARK SMILES IDX 14 14 13 15 8 16 9 17 10 18 87 19 11 20 88 21 12 22 7 23
REMARK SMILES IDX 1 24 2 25 3 26 4 27 6 28 5 29 26 30 27 31 28 32 29 33 30 34
REMARK SMILES IDX 31 35 32 37 33 38 34 39 86 40 35 41 85 42 36 43 37 44 38 45
REMARK SMILES IDX 79 46 39 47 84 48 78 49 80 50 40 51 83 52 77 53 76 54 41 56
REMARK SMILES IDX 67 57 50 58 66 59 51 60 54 61 65 62 81 63 52 64 53 65 64 67
REMARK SMILES IDX 82 68 55 69 42 70 43 71 48 72 44 73 45 74 47 75 49 76 46 77
REMARK SMILES IDX 68 78 69 79 74 80 70 81 71 82 73 83 75 84 72 85 56 86 57 87
REMARK SMILES IDX 62 88 58 89 59 90 61 91 63 92 60 93
REMARK H PARENT 23 6 18 12 30 36 80 55 54 66
REMARK Flexibility Score: inf
ROOT
ATOM      1  C   UNL A   1      38.407  24.033  26.814  1.00  0.00     0.021 C 
ENDROOT
BRANCH   1   2
ATOM      2  C   UNL A   1      37.372  23.581  25.789  1.00  0.00     0.116 C 
BRANCH   2   3
ATOM      3  N   UNL A   1      37.394  22.154  25.536  1.00  0.00    -0.354 N 
ATOM      4  C   UNL A   1      36.377  21.250  25.449  1.00  0.00     0.242 C 
ATOM      5  O   UNL A   1      36.670  20.108  25.086  1.00  0.00    -0.273 OA
ATOM      6  H   UNL A   1      38.294  21.774  25.404  1.00  0.00     0.163 HD
BRANCH   4   7
ATOM      7  C   UNL A   1      34.904  21.614  25.735  1.00  0.00     0.168 C 
ATOM      8  C   UNL A   1      34.752  22.204  27.117  1.00  0.00     0.041 C 
BRANCH   7   9
ATOM      9  N   UNL A   1      33.915  20.556  25.564  1.00  0.00    -0.345 N 
ATOM     10  C   UNL A   1      32.853  20.550  24.695  1.00  0.00     0.222 C 
ATOM     11  O   UNL A   1      31.939  19.748  24.889  1.00  0.00    -0.275 OA
ATOM     12  H   UNL A   1      34.021  19.759  26.133  1.00  0.00     0.164 HD
BRANCH  10  13
ATOM     13  C   UNL A   1      32.837  21.470  23.478  1.00  0.00     0.122 C 
BRANCH  13  14
ATOM     14  C   UNL A   1      31.879  22.674  23.553  1.00  0.00     0.137 C 
BRANCH  14  15
ATOM     15  N   UNL A   1      32.231  23.690  24.569  1.00  0.00    -0.292 N 
ATOM     16  C   UNL A   1      33.656  26.924  24.922  1.00  0.00     0.029 C 
ATOM     17  C   UNL A   1      33.209  25.710  25.281  1.00  0.00     0.081 C 
ATOM     18  S   UNL A   1      32.231  25.274  26.618  1.00  0.00    -0.054 SA
ATOM     19  C   UNL A   1      33.267  24.578  24.311  1.00  0.00     0.266 C 
ATOM     20  C   UNL A   1      31.635  23.820  25.809  1.00  0.00     0.148 C 
ATOM     21  O   UNL A   1      34.053  24.529  23.376  1.00  0.00    -0.268 OA
ATOM     22  S   UNL A   1      30.495  22.827  26.516  1.00  0.00    -0.052 S 
BRANCH  16  23
ATOM     23  C   UNL A   1      33.399  28.206  25.601  1.00  0.00    -0.021 A 
ATOM     24  C   UNL A   1      31.309  28.646  24.223  1.00  0.00     0.045 C 
ATOM     25  C   UNL A   1      32.288  29.008  25.304  1.00  0.00    -0.044 A 
ATOM     26  C   UNL A   1      32.103  30.209  26.014  1.00  0.00     0.004 A 
ATOM     27  C   UNL A   1      32.986  30.596  27.023  1.00  0.00     0.000 A 
ATOM     28  C   UNL A   1      34.273  28.605  26.628  1.00  0.00     0.008 A 
ATOM     29  C   UNL A   1      34.073  29.792  27.332  1.00  0.00     0.001 A 
ENDBRANCH  16  23
ENDBRANCH  14  15
ENDBRANCH  13  14
ENDBRANCH  10  13
ENDBRANCH   7   9
ENDBRANCH   4   7
ENDBRANCH   2   3
ENDBRANCH   1   2
BRANCH   1  30
ATOM     30  C   UNL A   1      39.855  23.601  26.539  1.00  0.00     0.002 C 
BRANCH  30  31
ATOM     31  C   UNL A   1      40.477  22.527  27.448  1.00  0.00     0.002 C 
BRANCH  31  32
ATOM     32  C   UNL A   1      41.748  21.828  26.959  1.00  0.00     0.021 C 
BRANCH  32  33
ATOM     33  C   UNL A   1      42.227  22.233  25.574  1.00  0.00     0.116 C 
BRANCH  33  34
ATOM     34  N   UNL A   1      43.298  21.428  25.012  1.00  0.00    -0.352 N 
ATOM     35  C   UNL A   1      44.661  21.706  24.982  1.00  0.00     0.251 C 
ATOM     36  H   UNL A   1      43.025  20.577  24.600  1.00  0.00     0.163 HD
ATOM     37  O   UNL A   1      45.437  20.951  24.436  1.00  0.00    -0.269 OA
BRANCH  35  38
ATOM     38  C   UNL A   1      45.165  22.880  25.746  1.00  0.00     0.039 A 
ATOM     39  C   UNL A   1      45.426  22.705  27.108  1.00  0.00     0.014 A 
ATOM     40  C   UNL A   1      45.158  24.158  25.191  1.00  0.00     0.014 A 
ATOM     41  C   UNL A   1      45.416  23.815  27.952  1.00  0.00     0.010 A 
ATOM     42  C   UNL A   1      45.058  25.251  26.033  1.00  0.00     0.010 A 
ATOM     43  C   UNL A   1      45.116  25.070  27.418  1.00  0.00    -0.014 A 
BRANCH  43  44
ATOM     44  C   UNL A   1      44.727  26.204  28.248  1.00  0.00     0.031 A 
ATOM     45  C   UNL A   1      43.328  26.668  28.290  1.00  0.00     0.074 A 
ATOM     46  C   UNL A   1      45.653  26.862  28.982  1.00  0.00     0.049 A 
ATOM     47  N   UNL A   1      42.990  27.909  28.418  1.00  0.00    -0.248 NA
ATOM     48  C   UNL A   1      42.192  25.762  28.162  1.00  0.00     0.031 C 
ATOM     49  C   UNL A   1      45.408  27.887  29.993  1.00  0.00     0.029 A 
ATOM     50  N   UNL A   1      47.038  26.878  28.798  1.00  0.00    -0.354 N 
ATOM     51  C   UNL A   1      41.638  27.941  28.656  1.00  0.00     0.074 A 
ATOM     52  C   UNL A   1      41.174  26.591  28.415  1.00  0.00     0.031 C 
ATOM     53  C   UNL A   1      46.521  28.619  30.147  1.00  0.00     0.029 A 
ATOM     54  C   UNL A   1      47.481  28.167  29.158  1.00  0.00     0.049 A 
ATOM     55  H   UNL A   1      47.595  26.132  28.478  1.00  0.00     0.167 HD
ATOM     56  C   UNL A   1      41.057  29.057  29.178  1.00  0.00     0.037 A 
ATOM     57  C   UNL A   1      48.148  28.969  28.278  1.00  0.00     0.037 A 
ATOM     58  C   UNL A   1      42.032  30.104  29.456  1.00  0.00     0.049 A 
ATOM     59  C   UNL A   1      47.463  30.287  28.006  1.00  0.00     0.074 A 
ATOM     60  C   UNL A   1      42.713  30.448  30.613  1.00  0.00     0.029 A 
ATOM     61  N   UNL A   1      42.669  30.764  28.413  1.00  0.00    -0.354 N 
ATOM     62  N   UNL A   1      46.219  30.529  28.308  1.00  0.00    -0.248 NA
ATOM     63  C   UNL A   1      48.100  31.417  27.333  1.00  0.00     0.031 C 
ATOM     64  C   UNL A   1      43.788  31.293  30.261  1.00  0.00     0.029 A 
ATOM     65  C   UNL A   1      43.754  31.476  28.889  1.00  0.00     0.049 A 
ATOM     66  H   UNL A   1      42.388  30.730  27.471  1.00  0.00     0.167 HD
ATOM     67  C   UNL A   1      45.869  31.777  27.859  1.00  0.00     0.074 A 
ATOM     68  C   UNL A   1      47.089  32.304  27.279  1.00  0.00     0.031 C 
ATOM     69  C   UNL A   1      44.597  32.253  27.995  1.00  0.00     0.037 A 
BRANCH  56  70
ATOM     70  C   UNL A   1      39.656  29.035  29.727  1.00  0.00     0.057 A 
ATOM     71  C   UNL A   1      38.544  29.362  28.931  1.00  0.00     0.134 A 
ATOM     72  C   UNL A   1      39.358  28.743  31.069  1.00  0.00     0.134 A 
ATOM     73  F   UNL A   1      38.656  29.576  27.615  1.00  0.00    -0.206 F 
ATOM     74  C   UNL A   1      37.254  29.506  29.455  1.00  0.00     0.040 A 
ATOM     75  C   UNL A   1      38.082  28.928  31.617  1.00  0.00     0.040 A 
ATOM     76  F   UNL A   1      40.300  28.264  31.897  1.00  0.00    -0.206 F 
ATOM     77  C   UNL A   1      37.025  29.327  30.810  1.00  0.00     0.006 A 
ENDBRANCH  56  70
BRANCH  57  78
ATOM     78  C   UNL A   1      48.950  28.201  27.292  1.00  0.00     0.057 A 
ATOM     79  C   UNL A   1      50.211  27.723  27.689  1.00  0.00     0.134 A 
ATOM     80  C   UNL A   1      48.354  27.593  26.185  1.00  0.00     0.134 A 
ATOM     81  F   UNL A   1      50.834  28.263  28.748  1.00  0.00    -0.206 F 
ATOM     82  C   UNL A   1      50.795  26.602  27.095  1.00  0.00     0.040 A 
ATOM     83  C   UNL A   1      48.937  26.478  25.572  1.00  0.00     0.040 A 
ATOM     84  F   UNL A   1      47.146  27.986  25.758  1.00  0.00    -0.206 F 
ATOM     85  C   UNL A   1      50.136  25.953  26.056  1.00  0.00     0.006 A 
ENDBRANCH  57  78
BRANCH  69  86
ATOM     86  C   UNL A   1      44.038  33.520  27.396  1.00  0.00     0.057 A 
ATOM     87  C   UNL A   1      43.819  33.718  26.027  1.00  0.00     0.134 A 
ATOM     88  C   UNL A   1      43.559  34.552  28.236  1.00  0.00     0.134 A 
ATOM     89  F   UNL A   1      44.128  32.780  25.124  1.00  0.00    -0.206 F 
ATOM     90  C   UNL A   1      43.212  34.880  25.526  1.00  0.00     0.040 A 
ATOM     91  C   UNL A   1      42.909  35.690  27.751  1.00  0.00     0.040 A 
ATOM     92  F   UNL A   1      43.685  34.492  29.571  1.00  0.00    -0.206 F 
ATOM     93  C   UNL A   1      42.743  35.864  26.387  1.00  0.00     0.006 A 
ENDBRANCH  69  86
ENDBRANCH  43  44
ENDBRANCH  35  38
ENDBRANCH  33  34
ENDBRANCH  32  33
ENDBRANCH  31  32
ENDBRANCH  30  31
ENDBRANCH   1  30
TORSDOF 18
ENDMDL
MODEL 2
REMARK VINA RESULT:     -11.4      1.659      2.628
REMARK SMILES Cc1ccccc1/C=C1\SC(=S)N(CCC(=O)N[C@@H](C)C(=O)NCCCCCCNC(=O)c2ccc(-c3c4nc(c(-c5c(F)cccc5F)c5ccc([nH]5)c(-c5c(F)cccc5F)c5nc(c(-c6c(F)cccc6F)c6ccc3[nH]6)C=C5)C=C4)cc2)C1=O
REMARK SMILES IDX 25 1 24 2 23 3 21 4 22 5 19 7 20 8 18 9 16 10 17 11 15 13
REMARK SMILES IDX 14 14 13 15 8 16 9 17 10 18 87 19 11 20 88 21 12 22 7 23
REMARK SMILES IDX 1 24 2 25 3 26 4 27 6 28 5 29 26 30 27 31 28 32 29 33 30 34
REMARK SMILES IDX 31 35 32 37 33 38 34 39 86 40 35 41 85 42 36 43 37 44 38 45
REMARK SMILES IDX 79 46 39 47 84 48 78 49 80 50 40 51 83 52 77 53 76 54 41 56
REMARK SMILES IDX 67 57 50 58 66 59 51 60 54 61 65 62 81 63 52 64 53 65 64 67
REMARK SMILES IDX 82 68 55 69 42 70 43 71 48 72 44 73 45 74 47 75 49 76 46 77
REMARK SMILES IDX 68 78 69 79 74 80 70 81 71 82 73 83 75 84 72 85 56 86 57 87
REMARK SMILES IDX 62 88 58 89 59 90 61 91 63 92 60 93
REMARK H PARENT 23 6 18 12 30 36 80 55 54 66
REMARK Flexibility Score: inf
ROOT
ATOM      1  C   UNL A   1      37.690  22.618  25.505  1.00  0.00     0.021 C 
ENDROOT
BRANCH   1   2
ATOM      2  C   UNL A   1      36.278  22.256  25.954  1.00  0.00     0.116 C 
BRANCH   2   3
ATOM      3  N   UNL A   1      35.884  20.910  25.590  1.00  0.00    -0.354 N 
ATOM      4  C   UNL A   1      34.748  20.445  24.996  1.00  0.00     0.242 C 
ATOM      5  O   UNL A   1      34.729  19.254  24.674  1.00  0.00    -0.273 OA
ATOM      6  H   UNL A   1      36.548  20.215  25.808  1.00  0.00     0.163 HD
BRANCH   4   7
ATOM      7  C   UNL A   1      33.538  21.349  24.677  1.00  0.00     0.168 C 
ATOM      8  C   UNL A   1      32.241  20.590  24.828  1.00  0.00     0.041 C 
BRANCH   7   9
ATOM      9  N   UNL A   1      33.540  22.026  23.384  1.00  0.00    -0.345 N 
ATOM     10  C   UNL A   1      33.179  23.325  23.131  1.00  0.00     0.222 C 
ATOM     11  O   UNL A   1      32.928  23.650  21.970  1.00  0.00    -0.275 OA
ATOM     12  H   UNL A   1      33.832  21.493  22.610  1.00  0.00     0.164 HD
BRANCH  10  13
ATOM     13  C   UNL A   1      33.155  24.360  24.252  1.00  0.00     0.122 C 
BRANCH  13  14
ATOM     14  C   UNL A   1      34.043  25.602  24.045  1.00  0.00     0.137 C 
BRANCH  14  15
ATOM     15  N   UNL A   1      33.312  26.884  23.951  1.00  0.00    -0.292 N 
ATOM     16  C   UNL A   1      30.719  28.508  22.147  1.00  0.00     0.029 C 
ATOM     17  C   UNL A   1      31.779  28.371  22.960  1.00  0.00     0.081 C 
ATOM     18  S   UNL A   1      32.066  29.091  24.488  1.00  0.00    -0.054 SA
ATOM     19  C   UNL A   1      32.748  27.258  22.739  1.00  0.00     0.266 C 
ATOM     20  C   UNL A   1      33.165  27.796  24.980  1.00  0.00     0.148 C 
ATOM     21  O   UNL A   1      32.914  26.711  21.659  1.00  0.00    -0.268 OA
ATOM     22  S   UNL A   1      33.852  27.758  26.500  1.00  0.00    -0.052 S 
BRANCH  16  23
ATOM     23  C   UNL A   1      29.514  29.320  22.384  1.00  0.00    -0.021 A 
ATOM     24  C   UNL A   1      28.296  27.390  23.502  1.00  0.00     0.045 C 
ATOM     25  C   UNL A   1      28.382  28.818  23.043  1.00  0.00    -0.044 A 
ATOM     26  C   UNL A   1      27.278  29.667  23.249  1.00  0.00     0.004 A 
ATOM     27  C   UNL A   1      27.304  30.999  22.836  1.00  0.00     0.000 A 
ATOM     28  C   UNL A   1      29.527  30.669  21.985  1.00  0.00     0.008 A 
ATOM     29  C   UNL A   1      28.431  31.503  22.204  1.00  0.00     0.001 A 
ENDBRANCH  16  23
ENDBRANCH  14  15
ENDBRANCH  13  14
ENDBRANCH  10  13
ENDBRANCH   7   9
ENDBRANCH   4   7
ENDBRANCH   2   3
ENDBRANCH   1   2
BRANCH   1  30
ATOM     30  C   UNL A   1      38.772  21.564  25.782  1.00  0.00     0.002 C 
BRANCH  30  31
ATOM     31  C   UNL A   1      39.929  21.943  26.723  1.00  0.00     0.002 C 
BRANCH  31  32
ATOM     32  C   UNL A   1      41.338  22.017  26.127  1.00  0.00     0.021 C 
BRANCH  32  33
ATOM     33  C   UNL A   1      42.254  20.851  26.465  1.00  0.00     0.116 C 
BRANCH  33  34
ATOM     34  N   UNL A   1      43.073  20.350  25.374  1.00  0.00    -0.352 N 
ATOM     35  C   UNL A   1      44.107  20.996  24.706  1.00  0.00     0.251 C 
ATOM     36  H   UNL A   1      42.869  19.436  25.069  1.00  0.00     0.163 HD
ATOM     37  O   UNL A   1      44.677  20.460  23.779  1.00  0.00    -0.269 OA
BRANCH  35  38
ATOM     38  C   UNL A   1      44.591  22.302  25.233  1.00  0.00     0.039 A 
ATOM     39  C   UNL A   1      45.269  22.297  26.455  1.00  0.00     0.014 A 
ATOM     40  C   UNL A   1      44.187  23.505  24.659  1.00  0.00     0.014 A 
ATOM     41  C   UNL A   1      45.305  23.463  27.219  1.00  0.00     0.010 A 
ATOM     42  C   UNL A   1      44.141  24.640  25.448  1.00  0.00     0.010 A 
ATOM     43  C   UNL A   1      44.637  24.598  26.755  1.00  0.00    -0.014 A 
BRANCH  43  44
ATOM     44  C   UNL A   1      44.309  25.725  27.620  1.00  0.00     0.031 A 
ATOM     45  C   UNL A   1      42.948  26.294  27.640  1.00  0.00     0.074 A 
ATOM     46  C   UNL A   1      45.257  26.280  28.408  1.00  0.00     0.049 A 
ATOM     47  N   UNL A   1      42.702  27.552  27.811  1.00  0.00    -0.248 NA
ATOM     48  C   UNL A   1      41.751  25.485  27.442  1.00  0.00     0.031 C 
ATOM     49  C   UNL A   1      45.059  27.280  29.454  1.00  0.00     0.029 A 
ATOM     50  N   UNL A   1      46.645  26.195  28.265  1.00  0.00    -0.354 N 
ATOM     51  C   UNL A   1      41.350  27.679  28.011  1.00  0.00     0.074 A 
ATOM     52  C   UNL A   1      40.792  26.380  27.699  1.00  0.00     0.031 C 
ATOM     53  C   UNL A   1      46.219  27.916  29.671  1.00  0.00     0.029 A 
ATOM     54  C   UNL A   1      47.174  27.431  28.691  1.00  0.00     0.049 A 
ATOM     55  H   UNL A   1      47.154  25.422  27.930  1.00  0.00     0.167 HD
ATOM     56  C   UNL A   1      40.839  28.815  28.562  1.00  0.00     0.037 A 
ATOM     57  C   UNL A   1      47.928  28.213  27.866  1.00  0.00     0.037 A 
ATOM     58  C   UNL A   1      41.881  29.771  28.912  1.00  0.00     0.049 A 
ATOM     59  C   UNL A   1      47.354  29.590  27.630  1.00  0.00     0.074 A 
ATOM     60  C   UNL A   1      42.549  30.015  30.102  1.00  0.00     0.029 A 
ATOM     61  N   UNL A   1      42.600  30.421  27.916  1.00  0.00    -0.354 N 
ATOM     62  N   UNL A   1      46.123  29.916  27.906  1.00  0.00    -0.248 NA
ATOM     63  C   UNL A   1      48.097  30.693  27.024  1.00  0.00     0.031 C 
ATOM     64  C   UNL A   1      43.696  30.788  29.817  1.00  0.00     0.029 A 
ATOM     65  C   UNL A   1      43.721  31.027  28.454  1.00  0.00     0.049 A 
ATOM     66  H   UNL A   1      42.348  30.446  26.966  1.00  0.00     0.167 HD
ATOM     67  C   UNL A   1      45.884  31.204  27.499  1.00  0.00     0.074 A 
ATOM     68  C   UNL A   1      47.159  31.658  26.978  1.00  0.00     0.031 C 
ATOM     69  C   UNL A   1      44.648  31.771  27.618  1.00  0.00     0.037 A 
BRANCH  56  70
ATOM     70  C   UNL A   1      39.423  28.880  29.069  1.00  0.00     0.057 A 
ATOM     71  C   UNL A   1      38.376  29.384  28.276  1.00  0.00     0.134 A 
ATOM     72  C   UNL A   1      39.051  28.499  30.369  1.00  0.00     0.134 A 
ATOM     73  F   UNL A   1      38.555  29.704  26.989  1.00  0.00    -0.206 F 
ATOM     74  C   UNL A   1      37.088  29.604  28.776  1.00  0.00     0.040 A 
ATOM     75  C   UNL A   1      37.779  28.756  30.897  1.00  0.00     0.040 A 
ATOM     76  F   UNL A   1      39.913  27.857  31.173  1.00  0.00    -0.206 F 
ATOM     77  C   UNL A   1      36.795  29.328  30.102  1.00  0.00     0.006 A 
ENDBRANCH  56  70
BRANCH  57  78
ATOM     78  C   UNL A   1      48.700  27.425  26.873  1.00  0.00     0.057 A 
ATOM     79  C   UNL A   1      48.163  27.271  25.582  1.00  0.00     0.134 A 
ATOM     80  C   UNL A   1      50.070  27.201  27.027  1.00  0.00     0.134 A 
ATOM     81  F   UNL A   1      46.854  27.475  25.368  1.00  0.00    -0.206 F 
ATOM     82  C   UNL A   1      48.975  27.038  24.470  1.00  0.00     0.040 A 
ATOM     83  C   UNL A   1      50.890  26.952  25.922  1.00  0.00     0.040 A 
ATOM     84  F   UNL A   1      50.655  27.343  28.225  1.00  0.00    -0.206 F 
ATOM     85  C   UNL A   1      50.350  26.916  24.635  1.00  0.00     0.006 A 
ENDBRANCH  57  78
BRANCH  69  86
ATOM     86  C   UNL A   1      44.208  33.100  27.057  1.00  0.00     0.057 A 
ATOM     87  C   UNL A   1      43.896  33.327  25.711  1.00  0.00     0.134 A 
ATOM     88  C   UNL A   1      43.942  34.185  27.925  1.00  0.00     0.134 A 
ATOM     89  F   UNL A   1      44.001  32.357  24.794  1.00  0.00    -0.206 F 
ATOM     90  C   UNL A   1      43.403  34.558  25.252  1.00  0.00     0.040 A 
ATOM     91  C   UNL A   1      43.403  35.398  27.487  1.00  0.00     0.040 A 
ATOM     92  F   UNL A   1      44.175  34.108  29.244  1.00  0.00    -0.206 F 
ATOM     93  C   UNL A   1      43.142  35.593  26.141  1.00  0.00     0.006 A 
ENDBRANCH  69  86
ENDBRANCH  43  44
ENDBRANCH  35  38
ENDBRANCH  33  34
ENDBRANCH  32  33
ENDBRANCH  31  32
ENDBRANCH  30  31
ENDBRANCH   1  30
TORSDOF 18
ENDMDL
MODEL 3
REMARK VINA RESULT:     -11.3      4.706     10.273
REMARK SMILES Cc1ccccc1/C=C1\SC(=S)N(CCC(=O)N[C@@H](C)C(=O)NCCCCCCNC(=O)c2ccc(-c3c4nc(c(-c5c(F)cccc5F)c5ccc([nH]5)c(-c5c(F)cccc5F)c5nc(c(-c6c(F)cccc6F)c6ccc3[nH]6)C=C5)C=C4)cc2)C1=O
REMARK SMILES IDX 25 1 24 2 23 3 21 4 22 5 19 7 20 8 18 9 16 10 17 11 15 13
REMARK SMILES IDX 14 14 13 15 8 16 9 17 10 18 87 19 11 20 88 21 12 22 7 23
REMARK SMILES IDX 1 24 2 25 3 26 4 27 6 28 5 29 26 30 27 31 28 32 29 33 30 34
REMARK SMILES IDX 31 35 32 37 33 38 34 39 86 40 35 41 85 42 36 43 37 44 38 45
REMARK SMILES IDX 79 46 39 47 84 48 78 49 80 50 40 51 83 52 77 53 76 54 41 56
REMARK SMILES IDX 67 57 50 58 66 59 51 60 54 61 65 62 81 63 52 64 53 65 64 67
REMARK SMILES IDX 82 68 55 69 42 70 43 71 48 72 44 73 45 74 47 75 49 76 46 77
REMARK SMILES IDX 68 78 69 79 74 80 70 81 71 82 73 83 75 84 72 85 56 86 57 87
REMARK SMILES IDX 62 88 58 89 59 90 61 91 63 92 60 93
REMARK H PARENT 23 6 18 12 30 36 80 55 54 66
REMARK Flexibility Score: inf
ROOT
ATOM      1  C   UNL A   1      33.389  30.308  26.500  1.00  0.00     0.021 C 
ENDROOT
BRANCH   1   2
ATOM      2  C   UNL A   1      31.933  30.047  26.874  1.00  0.00     0.116 C 
BRANCH   2   3
ATOM      3  N   UNL A   1      31.668  28.668  27.231  1.00  0.00    -0.354 N 
ATOM      4  C   UNL A   1      31.321  27.600  26.456  1.00  0.00     0.242 C 
ATOM      5  O   UNL A   1      31.287  26.495  27.005  1.00  0.00    -0.273 OA
ATOM      6  H   UNL A   1      31.753  28.468  28.192  1.00  0.00     0.163 HD
BRANCH   4   7
ATOM      7  C   UNL A   1      31.025  27.720  24.946  1.00  0.00     0.168 C 
ATOM      8  C   UNL A   1      30.264  26.515  24.446  1.00  0.00     0.041 C 
BRANCH   7   9
ATOM      9  N   UNL A   1      32.163  27.957  24.065  1.00  0.00    -0.345 N 
ATOM     10  C   UNL A   1      33.256  27.146  23.890  1.00  0.00     0.222 C 
ATOM     11  O   UNL A   1      34.265  27.623  23.369  1.00  0.00    -0.275 OA
ATOM     12  H   UNL A   1      32.145  28.789  23.537  1.00  0.00     0.164 HD
BRANCH  10  13
ATOM     13  C   UNL A   1      33.199  25.670  24.270  1.00  0.00     0.122 C 
BRANCH  13  14
ATOM     14  C   UNL A   1      34.086  25.242  25.455  1.00  0.00     0.137 C 
BRANCH  14  15
ATOM     15  N   UNL A   1      34.241  23.781  25.623  1.00  0.00    -0.292 N 
ATOM     16  C   UNL A   1      32.450  20.724  25.380  1.00  0.00     0.029 C 
ATOM     17  C   UNL A   1      33.436  21.571  25.717  1.00  0.00     0.081 C 
ATOM     18  S   UNL A   1      35.131  21.348  25.608  1.00  0.00    -0.054 SA
ATOM     19  C   UNL A   1      33.133  23.012  25.951  1.00  0.00     0.266 C 
ATOM     20  C   UNL A   1      35.434  23.088  25.522  1.00  0.00     0.148 C 
ATOM     21  O   UNL A   1      32.029  23.427  26.276  1.00  0.00    -0.268 OA
ATOM     22  S   UNL A   1      36.972  23.702  25.319  1.00  0.00    -0.052 S 
BRANCH  16  23
ATOM     23  C   UNL A   1      32.591  19.373  24.811  1.00  0.00    -0.021 A 
ATOM     24  C   UNL A   1      32.154  20.198  22.448  1.00  0.00     0.045 C 
ATOM     25  C   UNL A   1      32.483  19.116  23.436  1.00  0.00    -0.044 A 
ATOM     26  C   UNL A   1      32.653  17.799  22.971  1.00  0.00     0.004 A 
ATOM     27  C   UNL A   1      32.952  16.756  23.848  1.00  0.00     0.000 A 
ATOM     28  C   UNL A   1      32.905  18.311  25.680  1.00  0.00     0.008 A 
ATOM     29  C   UNL A   1      33.080  17.012  25.206  1.00  0.00     0.001 A 
ENDBRANCH  16  23
ENDBRANCH  14  15
ENDBRANCH  13  14
ENDBRANCH  10  13
ENDBRANCH   7   9
ENDBRANCH   4   7
ENDBRANCH   2   3
ENDBRANCH   1   2
BRANCH   1  30
ATOM     30  C   UNL A   1      34.347  30.564  27.672  1.00  0.00     0.002 C 
BRANCH  30  31
ATOM     31  C   UNL A   1      34.928  31.979  27.838  1.00  0.00     0.002 C 
BRANCH  31  32
ATOM     32  C   UNL A   1      33.943  33.137  28.026  1.00  0.00     0.021 C 
BRANCH  32  33
ATOM     33  C   UNL A   1      34.452  34.300  28.863  1.00  0.00     0.116 C 
BRANCH  33  34
ATOM     34  N   UNL A   1      33.539  34.798  29.878  1.00  0.00    -0.352 N 
ATOM     35  C   UNL A   1      33.576  34.582  31.252  1.00  0.00     0.251 C 
ATOM     36  H   UNL A   1      32.800  35.361  29.551  1.00  0.00     0.163 HD
ATOM     37  O   UNL A   1      32.713  35.034  31.974  1.00  0.00    -0.269 OA
BRANCH  35  38
ATOM     38  C   UNL A   1      34.764  33.899  31.834  1.00  0.00     0.039 A 
ATOM     39  C   UNL A   1      35.893  34.679  32.106  1.00  0.00     0.014 A 
ATOM     40  C   UNL A   1      34.841  32.510  31.891  1.00  0.00     0.014 A 
ATOM     41  C   UNL A   1      37.143  34.067  32.172  1.00  0.00     0.010 A 
ATOM     42  C   UNL A   1      36.086  31.908  31.866  1.00  0.00     0.010 A 
ATOM     43  C   UNL A   1      37.240  32.695  31.935  1.00  0.00    -0.014 A 
BRANCH  43  44
ATOM     44  C   UNL A   1      38.504  32.038  31.625  1.00  0.00     0.031 A 
ATOM     45  C   UNL A   1      38.543  30.829  30.781  1.00  0.00     0.074 A 
ATOM     46  C   UNL A   1      39.665  32.520  32.123  1.00  0.00     0.049 A 
ATOM     47  N   UNL A   1      39.386  29.864  30.953  1.00  0.00    -0.248 NA
ATOM     48  C   UNL A   1      37.608  30.601  29.685  1.00  0.00     0.031 C 
ATOM     49  C   UNL A   1      41.018  32.100  31.767  1.00  0.00     0.029 A 
ATOM     50  N   UNL A   1      39.839  33.359  33.227  1.00  0.00    -0.354 N 
ATOM     51  C   UNL A   1      39.289  29.038  29.860  1.00  0.00     0.074 A 
ATOM     52  C   UNL A   1      38.121  29.495  29.137  1.00  0.00     0.031 C 
ATOM     53  C   UNL A   1      41.851  32.434  32.763  1.00  0.00     0.029 A 
ATOM     54  C   UNL A   1      41.047  32.973  33.844  1.00  0.00     0.049 A 
ATOM     55  H   UNL A   1      39.234  34.080  33.517  1.00  0.00     0.167 HD
ATOM     56  C   UNL A   1      40.279  28.145  29.582  1.00  0.00     0.037 A 
ATOM     57  C   UNL A   1      41.090  32.562  35.144  1.00  0.00     0.037 A 
ATOM     58  C   UNL A   1      41.380  28.234  30.532  1.00  0.00     0.049 A 
ATOM     59  C   UNL A   1      41.622  31.161  35.329  1.00  0.00     0.074 A 
ATOM     60  C   UNL A   1      42.584  28.920  30.487  1.00  0.00     0.029 A 
ATOM     61  N   UNL A   1      41.206  27.830  31.849  1.00  0.00    -0.354 N 
ATOM     62  N   UNL A   1      41.734  30.298  34.359  1.00  0.00    -0.248 NA
ATOM     63  C   UNL A   1      42.025  30.601  36.617  1.00  0.00     0.031 C 
ATOM     64  C   UNL A   1      43.122  28.959  31.793  1.00  0.00     0.029 A 
ATOM     65  C   UNL A   1      42.252  28.284  32.631  1.00  0.00     0.049 A 
ATOM     66  H   UNL A   1      40.448  27.297  32.178  1.00  0.00     0.167 HD
ATOM     67  C   UNL A   1      42.164  29.095  34.858  1.00  0.00     0.074 A 
ATOM     68  C   UNL A   1      42.359  29.344  36.274  1.00  0.00     0.031 C 
ATOM     69  C   UNL A   1      42.306  28.000  34.056  1.00  0.00     0.037 A 
BRANCH  56  70
ATOM     70  C   UNL A   1      40.359  27.442  28.254  1.00  0.00     0.057 A 
ATOM     71  C   UNL A   1      39.847  26.146  28.071  1.00  0.00     0.134 A 
ATOM     72  C   UNL A   1      40.989  27.995  27.126  1.00  0.00     0.134 A 
ATOM     73  F   UNL A   1      39.142  25.523  29.023  1.00  0.00    -0.206 F 
ATOM     74  C   UNL A   1      40.050  25.410  26.897  1.00  0.00     0.040 A 
ATOM     75  C   UNL A   1      41.240  27.255  25.963  1.00  0.00     0.040 A 
ATOM     76  F   UNL A   1      41.379  29.279  27.113  1.00  0.00    -0.206 F 
ATOM     77  C   UNL A   1      40.783  25.949  25.852  1.00  0.00     0.006 A 
ENDBRANCH  56  70
BRANCH  57  78
ATOM     78  C   UNL A   1      40.045  33.199  35.984  1.00  0.00     0.057 A 
ATOM     79  C   UNL A   1      38.863  32.479  36.236  1.00  0.00     0.134 A 
ATOM     80  C   UNL A   1      40.348  34.255  36.846  1.00  0.00     0.134 A 
ATOM     81  F   UNL A   1      38.519  31.451  35.445  1.00  0.00    -0.206 F 
ATOM     82  C   UNL A   1      38.088  32.713  37.374  1.00  0.00     0.040 A 
ATOM     83  C   UNL A   1      39.569  34.508  37.981  1.00  0.00     0.040 A 
ATOM     84  F   UNL A   1      41.465  34.977  36.677  1.00  0.00    -0.206 F 
ATOM     85  C   UNL A   1      38.464  33.707  38.271  1.00  0.00     0.006 A 
ENDBRANCH  57  78
BRANCH  69  86
ATOM     86  C   UNL A   1      42.597  26.588  34.500  1.00  0.00     0.057 A 
ATOM     87  C   UNL A   1      41.694  25.775  35.196  1.00  0.00     0.134 A 
ATOM     88  C   UNL A   1      43.790  25.946  34.092  1.00  0.00     0.134 A 
ATOM     89  F   UNL A   1      40.483  26.220  35.555  1.00  0.00    -0.206 F 
ATOM     90  C   UNL A   1      41.976  24.436  35.508  1.00  0.00     0.040 A 
ATOM     91  C   UNL A   1      44.059  24.600  34.353  1.00  0.00     0.040 A 
ATOM     92  F   UNL A   1      44.740  26.595  33.403  1.00  0.00    -0.206 F 
ATOM     93  C   UNL A   1      43.154  23.840  35.076  1.00  0.00     0.006 A 
ENDBRANCH  69  86
ENDBRANCH  43  44
ENDBRANCH  35  38
ENDBRANCH  33  34
ENDBRANCH  32  33
ENDBRANCH  31  32
ENDBRANCH  30  31
ENDBRANCH   1  30
TORSDOF 18
ENDMDL
