MODEL 1
REMARK VINA RESULT:     -10.8      0.000      0.000
REMARK SMILES COC(=O)c1nccc(N2CCO[C@H](CC(=O)NCCCCCCNC(=O)c3ccc(-c4c5nc(c(-c6c(F)cccc6F)c6ccc([nH]6)c(-c6c(F)cccc6F)c6nc(c(-c7c(F)cccc7F)c7ccc4[nH]7)C=C6)C=C5)cc3)C2)n1
REMARK SMILES IDX 20 1 19 2 18 3 16 4 17 5 15 7 14 8 10 9 11 10 82 11 12 12
REMARK SMILES IDX 13 13 9 14 5 15 6 16 83 17 7 18 8 19 3 20 4 21 2 22 1 23
REMARK SMILES IDX 21 24 22 25 23 26 24 27 25 28 26 29 27 31 28 32 29 33 81 34
REMARK SMILES IDX 30 35 80 36 31 37 32 38 33 39 74 40 34 41 79 42 73 43 75 44
REMARK SMILES IDX 35 45 78 46 72 47 71 48 36 50 62 51 45 52 61 53 46 54 49 55
REMARK SMILES IDX 60 56 76 57 47 58 48 59 59 61 77 62 50 63 37 64 38 65 43 66
REMARK SMILES IDX 39 67 40 68 42 69 44 70 41 71 63 72 64 73 69 74 65 75 66 76
REMARK SMILES IDX 68 77 70 78 67 79 51 80 52 81 57 82 53 83 54 84 56 85 58 86
REMARK SMILES IDX 55 87
REMARK H PARENT 18 6 25 30 75 49 49 60
REMARK Flexibility Score: inf
ROOT
ATOM      1  C   UNL A   1      36.641  23.304  24.906  1.00  0.00     0.021 C 
ENDROOT
BRANCH   1   2
ATOM      2  C   UNL A   1      35.356  24.050  24.551  1.00  0.00     0.116 C 
BRANCH   2   3
ATOM      3  N   UNL A   1      34.732  23.592  23.326  1.00  0.00    -0.356 N 
ATOM      4  C   UNL A   1      33.653  22.786  23.135  1.00  0.00     0.222 C 
ATOM      5  O   UNL A   1      33.179  22.694  22.002  1.00  0.00    -0.275 OA
ATOM      6  H   UNL A   1      35.156  23.916  22.499  1.00  0.00     0.163 HD
BRANCH   4   7
ATOM      7  C   UNL A   1      33.028  22.056  24.296  1.00  0.00     0.133 C 
BRANCH   7   8
ATOM      8  C   UNL A   1      31.521  22.269  24.523  1.00  0.00     0.147 C 
ATOM      9  N   UNL A   1      31.281  24.569  25.395  1.00  0.00    -0.352 N 
ATOM     10  C   UNL A   1      30.942  24.071  26.721  1.00  0.00     0.146 C 
ATOM     11  C   UNL A   1      30.919  23.679  24.299  1.00  0.00     0.150 C 
ATOM     12  C   UNL A   1      31.518  22.660  26.903  1.00  0.00     0.182 C 
ATOM     13  O   UNL A   1      31.142  21.768  25.834  1.00  0.00    -0.374 OA
BRANCH   9  14
ATOM     14  C   UNL A   1      32.026  25.690  25.120  1.00  0.00     0.133 A 
ATOM     15  C   UNL A   1      33.270  26.918  23.617  1.00  0.00     0.241 A 
ATOM     16  N   UNL A   1      33.709  27.797  24.538  1.00  0.00    -0.231 NA
ATOM     17  N   UNL A   1      32.457  25.865  23.855  1.00  0.00    -0.205 NA
ATOM     18  C   UNL A   1      33.256  27.591  25.780  1.00  0.00     0.117 A 
ATOM     19  C   UNL A   1      32.391  26.574  26.117  1.00  0.00     0.067 A 
BRANCH  15  20
ATOM     20  C   UNL A   1      33.749  27.142  22.211  1.00  0.00     0.376 C 
ATOM     21  O   UNL A   1      34.062  28.229  21.744  1.00  0.00    -0.242 OA
BRANCH  20  22
ATOM     22  O   UNL A   1      33.729  25.971  21.510  1.00  0.00    -0.463 OA
ATOM     23  C   UNL A   1      32.595  25.834  20.651  1.00  0.00     0.282 C 
ENDBRANCH  20  22
ENDBRANCH  15  20
ENDBRANCH   9  14
ENDBRANCH   7   8
ENDBRANCH   4   7
ENDBRANCH   2   3
ENDBRANCH   1   2
BRANCH   1  24
ATOM     24  C   UNL A   1      36.461  22.108  25.852  1.00  0.00     0.002 C 
BRANCH  24  25
ATOM     25  C   UNL A   1      36.358  20.741  25.173  1.00  0.00     0.002 C 
BRANCH  25  26
ATOM     26  C   UNL A   1      37.695  20.105  24.795  1.00  0.00     0.021 C 
BRANCH  26  27
ATOM     27  C   UNL A   1      38.851  20.449  25.725  1.00  0.00     0.116 C 
BRANCH  27  28
ATOM     28  N   UNL A   1      39.865  19.408  25.759  1.00  0.00    -0.352 N 
ATOM     29  C   UNL A   1      41.197  19.525  26.076  1.00  0.00     0.251 C 
ATOM     30  H   UNL A   1      39.558  18.502  25.527  1.00  0.00     0.163 HD
ATOM     31  O   UNL A   1      41.970  18.587  25.909  1.00  0.00    -0.269 OA
BRANCH  29  32
ATOM     32  C   UNL A   1      41.699  20.813  26.597  1.00  0.00     0.039 A 
ATOM     33  C   UNL A   1      42.244  21.740  25.706  1.00  0.00     0.014 A 
ATOM     34  C   UNL A   1      41.588  21.116  27.957  1.00  0.00     0.014 A 
ATOM     35  C   UNL A   1      42.610  23.006  26.168  1.00  0.00     0.010 A 
ATOM     36  C   UNL A   1      41.897  22.398  28.404  1.00  0.00     0.010 A 
ATOM     37  C   UNL A   1      42.404  23.356  27.512  1.00  0.00    -0.014 A 
BRANCH  37  38
ATOM     38  C   UNL A   1      42.691  24.727  28.004  1.00  0.00     0.031 A 
ATOM     39  C   UNL A   1      44.083  25.099  28.431  1.00  0.00     0.074 A 
ATOM     40  C   UNL A   1      41.685  25.612  28.139  1.00  0.00     0.049 A 
ATOM     41  N   UNL A   1      44.511  26.210  28.974  1.00  0.00    -0.248 NA
ATOM     42  C   UNL A   1      45.125  24.078  28.246  1.00  0.00     0.031 C 
ATOM     43  C   UNL A   1      40.283  25.358  27.800  1.00  0.00     0.029 A 
ATOM     44  N   UNL A   1      41.684  26.900  28.615  1.00  0.00    -0.354 N 
ATOM     45  C   UNL A   1      45.866  26.018  29.207  1.00  0.00     0.074 A 
ATOM     46  C   UNL A   1      46.180  24.668  28.789  1.00  0.00     0.031 C 
ATOM     47  C   UNL A   1      39.561  26.459  28.067  1.00  0.00     0.029 A 
ATOM     48  C   UNL A   1      40.440  27.481  28.628  1.00  0.00     0.049 A 
ATOM     49  H   UNL A   1      42.498  27.362  28.918  1.00  0.00     0.167 HD
ATOM     50  C   UNL A   1      46.771  26.893  29.707  1.00  0.00     0.037 A 
ATOM     51  C   UNL A   1      40.048  28.696  29.055  1.00  0.00     0.037 A 
ATOM     52  C   UNL A   1      46.464  28.242  30.100  1.00  0.00     0.049 A 
ATOM     53  C   UNL A   1      41.070  29.644  29.618  1.00  0.00     0.074 A 
ATOM     54  C   UNL A   1      47.325  29.225  30.556  1.00  0.00     0.029 A 
ATOM     55  N   UNL A   1      45.193  28.799  30.087  1.00  0.00    -0.354 N 
ATOM     56  N   UNL A   1      42.359  29.471  29.774  1.00  0.00    -0.248 NA
ATOM     57  C   UNL A   1      40.582  30.958  30.061  1.00  0.00     0.031 C 
ATOM     58  C   UNL A   1      46.570  30.365  30.855  1.00  0.00     0.029 A 
ATOM     59  C   UNL A   1      45.245  30.104  30.548  1.00  0.00     0.049 A 
ATOM     60  H   UNL A   1      44.377  28.335  29.793  1.00  0.00     0.167 HD
ATOM     61  C   UNL A   1      42.839  30.657  30.314  1.00  0.00     0.074 A 
ATOM     62  C   UNL A   1      41.705  31.547  30.443  1.00  0.00     0.031 C 
ATOM     63  C   UNL A   1      44.107  30.977  30.673  1.00  0.00     0.037 A 
BRANCH  50  64
ATOM     64  C   UNL A   1      48.185  26.414  29.856  1.00  0.00     0.057 A 
ATOM     65  C   UNL A   1      49.128  26.577  28.833  1.00  0.00     0.134 A 
ATOM     66  C   UNL A   1      48.617  25.816  31.045  1.00  0.00     0.134 A 
ATOM     67  F   UNL A   1      48.774  27.130  27.663  1.00  0.00    -0.206 F 
ATOM     68  C   UNL A   1      50.446  26.139  28.979  1.00  0.00     0.040 A 
ATOM     69  C   UNL A   1      49.938  25.397  31.213  1.00  0.00     0.040 A 
ATOM     70  F   UNL A   1      47.765  25.636  32.067  1.00  0.00    -0.206 F 
ATOM     71  C   UNL A   1      50.856  25.553  30.175  1.00  0.00     0.006 A 
ENDBRANCH  50  64
BRANCH  51  72
ATOM     72  C   UNL A   1      38.622  29.093  28.960  1.00  0.00     0.057 A 
ATOM     73  C   UNL A   1      38.088  29.575  27.759  1.00  0.00     0.134 A 
ATOM     74  C   UNL A   1      37.763  29.009  30.062  1.00  0.00     0.134 A 
ATOM     75  F   UNL A   1      38.867  29.698  26.676  1.00  0.00    -0.206 F 
ATOM     76  C   UNL A   1      36.754  29.975  27.662  1.00  0.00     0.040 A 
ATOM     77  C   UNL A   1      36.421  29.383  29.972  1.00  0.00     0.040 A 
ATOM     78  F   UNL A   1      38.214  28.549  31.239  1.00  0.00    -0.206 F 
ATOM     79  C   UNL A   1      35.916  29.875  28.770  1.00  0.00     0.006 A 
ENDBRANCH  51  72
BRANCH  63  80
ATOM     80  C   UNL A   1      44.335  32.355  31.218  1.00  0.00     0.057 A 
ATOM     81  C   UNL A   1      44.287  32.620  32.593  1.00  0.00     0.134 A 
ATOM     82  C   UNL A   1      44.640  33.422  30.363  1.00  0.00     0.134 A 
ATOM     83  F   UNL A   1      43.985  31.643  33.463  1.00  0.00    -0.206 F 
ATOM     84  C   UNL A   1      44.516  33.900  33.097  1.00  0.00     0.040 A 
ATOM     85  C   UNL A   1      44.894  34.702  30.857  1.00  0.00     0.040 A 
ATOM     86  F   UNL A   1      44.708  33.234  29.037  1.00  0.00    -0.206 F 
ATOM     87  C   UNL A   1      44.827  34.945  32.228  1.00  0.00     0.006 A 
ENDBRANCH  63  80
ENDBRANCH  37  38
ENDBRANCH  29  32
ENDBRANCH  27  28
ENDBRANCH  26  27
ENDBRANCH  25  26
ENDBRANCH  24  25
ENDBRANCH   1  24
TORSDOF 17
ENDMDL
MODEL 2
REMARK VINA RESULT:     -10.7      3.220      4.907
REMARK SMILES COC(=O)c1nccc(N2CCO[C@H](CC(=O)NCCCCCCNC(=O)c3ccc(-c4c5nc(c(-c6c(F)cccc6F)c6ccc([nH]6)c(-c6c(F)cccc6F)c6nc(c(-c7c(F)cccc7F)c7ccc4[nH]7)C=C6)C=C5)cc3)C2)n1
REMARK SMILES IDX 20 1 19 2 18 3 16 4 17 5 15 7 14 8 10 9 11 10 82 11 12 12
REMARK SMILES IDX 13 13 9 14 5 15 6 16 83 17 7 18 8 19 3 20 4 21 2 22 1 23
REMARK SMILES IDX 21 24 22 25 23 26 24 27 25 28 26 29 27 31 28 32 29 33 81 34
REMARK SMILES IDX 30 35 80 36 31 37 32 38 33 39 74 40 34 41 79 42 73 43 75 44
REMARK SMILES IDX 35 45 78 46 72 47 71 48 36 50 62 51 45 52 61 53 46 54 49 55
REMARK SMILES IDX 60 56 76 57 47 58 48 59 59 61 77 62 50 63 37 64 38 65 43 66
REMARK SMILES IDX 39 67 40 68 42 69 44 70 41 71 63 72 64 73 69 74 65 75 66 76
REMARK SMILES IDX 68 77 70 78 67 79 51 80 52 81 57 82 53 83 54 84 56 85 58 86
REMARK SMILES IDX 55 87
REMARK H PARENT 18 6 25 30 75 49 49 60
REMARK Flexibility Score: inf
ROOT
ATOM      1  C   UNL A   1      39.071  23.391  26.577  1.00  0.00     0.021 C 
ENDROOT
BRANCH   1   2
ATOM      2  C   UNL A   1      37.649  23.706  26.116  1.00  0.00     0.116 C 
BRANCH   2   3
ATOM      3  N   UNL A   1      37.459  23.597  24.684  1.00  0.00    -0.356 N 
ATOM      4  C   UNL A   1      36.704  22.728  23.959  1.00  0.00     0.222 C 
ATOM      5  O   UNL A   1      36.538  22.951  22.760  1.00  0.00    -0.275 OA
ATOM      6  H   UNL A   1      37.956  24.257  24.149  1.00  0.00     0.163 HD
BRANCH   4   7
ATOM      7  C   UNL A   1      36.053  21.543  24.623  1.00  0.00     0.133 C 
BRANCH   7   8
ATOM      8  C   UNL A   1      34.903  21.838  25.603  1.00  0.00     0.147 C 
ATOM      9  N   UNL A   1      33.014  20.415  24.885  1.00  0.00    -0.352 N 
ATOM     10  C   UNL A   1      32.280  21.574  24.395  1.00  0.00     0.146 C 
ATOM     11  C   UNL A   1      33.929  20.694  25.984  1.00  0.00     0.150 C 
ATOM     12  C   UNL A   1      33.264  22.703  24.060  1.00  0.00     0.182 C 
ATOM     13  O   UNL A   1      34.156  23.000  25.154  1.00  0.00    -0.374 OA
BRANCH   9  14
ATOM     14  C   UNL A   1      33.028  19.167  24.311  1.00  0.00     0.133 A 
ATOM     15  C   UNL A   1      33.734  16.973  24.365  1.00  0.00     0.241 A 
ATOM     16  N   UNL A   1      33.291  16.690  23.126  1.00  0.00    -0.231 NA
ATOM     17  N   UNL A   1      33.641  18.173  24.982  1.00  0.00    -0.205 NA
ATOM     18  C   UNL A   1      32.686  17.703  22.494  1.00  0.00     0.117 A 
ATOM     19  C   UNL A   1      32.502  18.949  23.052  1.00  0.00     0.067 A 
BRANCH  15  20
ATOM     20  C   UNL A   1      34.398  15.845  25.102  1.00  0.00     0.376 C 
ATOM     21  O   UNL A   1      35.553  15.859  25.507  1.00  0.00    -0.242 OA
BRANCH  20  22
ATOM     22  O   UNL A   1      33.551  14.780  25.204  1.00  0.00    -0.463 OA
ATOM     23  C   UNL A   1      32.331  15.078  25.885  1.00  0.00     0.282 C 
ENDBRANCH  20  22
ENDBRANCH  15  20
ENDBRANCH   9  14
ENDBRANCH   7   8
ENDBRANCH   4   7
ENDBRANCH   2   3
ENDBRANCH   1   2
BRANCH   1  24
ATOM     24  C   UNL A   1      39.728  22.186  25.887  1.00  0.00     0.002 C 
BRANCH  24  25
ATOM     25  C   UNL A   1      40.726  21.402  26.741  1.00  0.00     0.002 C 
BRANCH  25  26
ATOM     26  C   UNL A   1      41.042  19.995  26.237  1.00  0.00     0.021 C 
BRANCH  26  27
ATOM     27  C   UNL A   1      42.353  19.412  26.750  1.00  0.00     0.116 C 
BRANCH  27  28
ATOM     28  N   UNL A   1      43.150  18.818  25.689  1.00  0.00    -0.352 N 
ATOM     29  C   UNL A   1      44.038  19.435  24.842  1.00  0.00     0.251 C 
ATOM     30  H   UNL A   1      43.039  17.849  25.562  1.00  0.00     0.163 HD
ATOM     31  O   UNL A   1      44.522  18.834  23.888  1.00  0.00    -0.269 OA
BRANCH  29  32
ATOM     32  C   UNL A   1      44.386  20.852  25.077  1.00  0.00     0.039 A 
ATOM     33  C   UNL A   1      43.814  21.835  24.266  1.00  0.00     0.014 A 
ATOM     34  C   UNL A   1      45.240  21.205  26.126  1.00  0.00     0.014 A 
ATOM     35  C   UNL A   1      44.041  23.182  24.554  1.00  0.00     0.010 A 
ATOM     36  C   UNL A   1      45.415  22.548  26.449  1.00  0.00     0.010 A 
ATOM     37  C   UNL A   1      44.811  23.548  25.670  1.00  0.00    -0.014 A 
BRANCH  37  38
ATOM     38  C   UNL A   1      44.983  24.971  26.055  1.00  0.00     0.031 A 
ATOM     39  C   UNL A   1      46.334  25.620  25.965  1.00  0.00     0.074 A 
ATOM     40  C   UNL A   1      43.938  25.656  26.559  1.00  0.00     0.049 A 
ATOM     41  N   UNL A   1      46.703  26.818  26.342  1.00  0.00    -0.248 NA
ATOM     42  C   UNL A   1      47.421  24.805  25.399  1.00  0.00     0.031 C 
ATOM     43  C   UNL A   1      42.585  25.127  26.738  1.00  0.00     0.029 A 
ATOM     44  N   UNL A   1      43.855  26.943  27.030  1.00  0.00    -0.354 N 
ATOM     45  C   UNL A   1      48.063  26.896  26.072  1.00  0.00     0.074 A 
ATOM     46  C   UNL A   1      48.464  25.611  25.542  1.00  0.00     0.031 C 
ATOM     47  C   UNL A   1      41.805  26.083  27.267  1.00  0.00     0.029 A 
ATOM     48  C   UNL A   1      42.609  27.279  27.499  1.00  0.00     0.049 A 
ATOM     49  H   UNL A   1      44.618  27.566  27.032  1.00  0.00     0.167 HD
ATOM     50  C   UNL A   1      48.898  27.950  26.234  1.00  0.00     0.037 A 
ATOM     51  C   UNL A   1      42.167  28.419  28.062  1.00  0.00     0.037 A 
ATOM     52  C   UNL A   1      48.494  29.235  26.738  1.00  0.00     0.049 A 
ATOM     53  C   UNL A   1      43.117  29.570  28.242  1.00  0.00     0.074 A 
ATOM     54  C   UNL A   1      49.253  30.385  26.877  1.00  0.00     0.029 A 
ATOM     55  N   UNL A   1      47.219  29.541  27.191  1.00  0.00    -0.354 N 
ATOM     56  N   UNL A   1      44.385  29.651  27.925  1.00  0.00    -0.248 NA
ATOM     57  C   UNL A   1      42.572  30.789  28.857  1.00  0.00     0.031 C 
ATOM     58  C   UNL A   1      48.447  31.376  27.449  1.00  0.00     0.029 A 
ATOM     59  C   UNL A   1      47.177  30.854  27.630  1.00  0.00     0.049 A 
ATOM     60  H   UNL A   1      46.458  28.918  27.198  1.00  0.00     0.167 HD
ATOM     61  C   UNL A   1      44.786  30.932  28.282  1.00  0.00     0.074 A 
ATOM     62  C   UNL A   1      43.621  31.598  28.826  1.00  0.00     0.031 C 
ATOM     63  C   UNL A   1      46.010  31.503  28.171  1.00  0.00     0.037 A 
BRANCH  50  64
ATOM     64  C   UNL A   1      50.337  27.754  25.858  1.00  0.00     0.057 A 
ATOM     65  C   UNL A   1      50.766  27.828  24.526  1.00  0.00     0.134 A 
ATOM     66  C   UNL A   1      51.308  27.526  26.839  1.00  0.00     0.134 A 
ATOM     67  F   UNL A   1      49.882  28.031  23.537  1.00  0.00    -0.206 F 
ATOM     68  C   UNL A   1      52.108  27.655  24.182  1.00  0.00     0.040 A 
ATOM     69  C   UNL A   1      52.657  27.377  26.510  1.00  0.00     0.040 A 
ATOM     70  F   UNL A   1      50.965  27.450  28.134  1.00  0.00    -0.206 F 
ATOM     71  C   UNL A   1      53.059  27.436  25.176  1.00  0.00     0.006 A 
ENDBRANCH  50  64
BRANCH  51  72
ATOM     72  C   UNL A   1      40.751  28.535  28.491  1.00  0.00     0.057 A 
ATOM     73  C   UNL A   1      39.765  28.982  27.604  1.00  0.00     0.134 A 
ATOM     74  C   UNL A   1      40.351  28.211  29.792  1.00  0.00     0.134 A 
ATOM     75  F   UNL A   1      40.092  29.327  26.350  1.00  0.00    -0.206 F 
ATOM     76  C   UNL A   1      38.434  29.119  28.000  1.00  0.00     0.040 A 
ATOM     77  C   UNL A   1      39.019  28.321  30.195  1.00  0.00     0.040 A 
ATOM     78  F   UNL A   1      41.248  27.771  30.687  1.00  0.00    -0.206 F 
ATOM     79  C   UNL A   1      38.057  28.783  29.299  1.00  0.00     0.006 A 
ENDBRANCH  51  72
BRANCH  63  80
ATOM     80  C   UNL A   1      46.144  32.925  28.627  1.00  0.00     0.057 A 
ATOM     81  C   UNL A   1      46.537  33.245  29.933  1.00  0.00     0.134 A 
ATOM     82  C   UNL A   1      45.913  33.986  27.742  1.00  0.00     0.134 A 
ATOM     83  F   UNL A   1      46.760  32.274  30.832  1.00  0.00    -0.206 F 
ATOM     84  C   UNL A   1      46.677  34.569  30.348  1.00  0.00     0.040 A 
ATOM     85  C   UNL A   1      46.071  35.313  28.139  1.00  0.00     0.040 A 
ATOM     86  F   UNL A   1      45.540  33.747  26.476  1.00  0.00    -0.206 F 
ATOM     87  C   UNL A   1      46.450  35.609  29.447  1.00  0.00     0.006 A 
ENDBRANCH  63  80
ENDBRANCH  37  38
ENDBRANCH  29  32
ENDBRANCH  27  28
ENDBRANCH  26  27
ENDBRANCH  25  26
ENDBRANCH  24  25
ENDBRANCH   1  24
TORSDOF 17
ENDMDL
MODEL 3
REMARK VINA RESULT:     -10.7      2.560      7.941
REMARK SMILES COC(=O)c1nccc(N2CCO[C@H](CC(=O)NCCCCCCNC(=O)c3ccc(-c4c5nc(c(-c6c(F)cccc6F)c6ccc([nH]6)c(-c6c(F)cccc6F)c6nc(c(-c7c(F)cccc7F)c7ccc4[nH]7)C=C6)C=C5)cc3)C2)n1
REMARK SMILES IDX 20 1 19 2 18 3 16 4 17 5 15 7 14 8 10 9 11 10 82 11 12 12
REMARK SMILES IDX 13 13 9 14 5 15 6 16 83 17 7 18 8 19 3 20 4 21 2 22 1 23
REMARK SMILES IDX 21 24 22 25 23 26 24 27 25 28 26 29 27 31 28 32 29 33 81 34
REMARK SMILES IDX 30 35 80 36 31 37 32 38 33 39 74 40 34 41 79 42 73 43 75 44
REMARK SMILES IDX 35 45 78 46 72 47 71 48 36 50 62 51 45 52 61 53 46 54 49 55
REMARK SMILES IDX 60 56 76 57 47 58 48 59 59 61 77 62 50 63 37 64 38 65 43 66
REMARK SMILES IDX 39 67 40 68 42 69 44 70 41 71 63 72 64 73 69 74 65 75 66 76
REMARK SMILES IDX 68 77 70 78 67 79 51 80 52 81 57 82 53 83 54 84 56 85 58 86
REMARK SMILES IDX 55 87
REMARK H PARENT 18 6 25 30 75 49 49 60
REMARK Flexibility Score: inf
ROOT
ATOM      1  C   UNL A   1      30.737  26.592  26.087  1.00  0.00     0.021 C 
ENDROOT
BRANCH   1   2
ATOM      2  C   UNL A   1      30.208  25.265  25.547  1.00  0.00     0.116 C 
BRANCH   2   3
ATOM      3  N   UNL A   1      29.676  24.386  26.570  1.00  0.00    -0.356 N 
ATOM      4  C   UNL A   1      29.966  23.088  26.853  1.00  0.00     0.222 C 
ATOM      5  O   UNL A   1      29.533  22.603  27.898  1.00  0.00    -0.275 OA
ATOM      6  H   UNL A   1      28.996  24.794  27.153  1.00  0.00     0.163 HD
BRANCH   4   7
ATOM      7  C   UNL A   1      30.832  22.277  25.924  1.00  0.00     0.133 C 
BRANCH   7   8
ATOM      8  C   UNL A   1      32.205  22.868  25.559  1.00  0.00     0.147 C 
ATOM      9  N   UNL A   1      33.644  20.943  24.981  1.00  0.00    -0.352 N 
ATOM     10  C   UNL A   1      34.415  21.105  26.207  1.00  0.00     0.146 C 
ATOM     11  C   UNL A   1      33.056  22.172  24.465  1.00  0.00     0.150 C 
ATOM     12  C   UNL A   1      33.563  21.827  27.259  1.00  0.00     0.182 C 
ATOM     13  O   UNL A   1      32.998  23.058  26.761  1.00  0.00    -0.374 OA
BRANCH   9  14
ATOM     14  C   UNL A   1      33.311  19.750  24.389  1.00  0.00     0.133 A 
ATOM     15  C   UNL A   1      33.593  17.466  24.243  1.00  0.00     0.241 A 
ATOM     16  N   UNL A   1      32.864  17.342  23.119  1.00  0.00    -0.231 NA
ATOM     17  N   UNL A   1      33.851  18.623  24.893  1.00  0.00    -0.205 NA
ATOM     18  C   UNL A   1      32.342  18.482  22.652  1.00  0.00     0.117 A 
ATOM     19  C   UNL A   1      32.509  19.705  23.264  1.00  0.00     0.067 A 
BRANCH  15  20
ATOM     20  C   UNL A   1      34.171  16.196  24.798  1.00  0.00     0.376 C 
ATOM     21  O   UNL A   1      35.305  16.080  25.244  1.00  0.00    -0.242 OA
BRANCH  20  22
ATOM     22  O   UNL A   1      33.274  15.174  24.680  1.00  0.00    -0.463 OA
ATOM     23  C   UNL A   1      32.382  15.061  25.791  1.00  0.00     0.282 C 
ENDBRANCH  20  22
ENDBRANCH  15  20
ENDBRANCH   9  14
ENDBRANCH   7   8
ENDBRANCH   4   7
ENDBRANCH   2   3
ENDBRANCH   1   2
BRANCH   1  24
ATOM     24  C   UNL A   1      32.162  26.954  25.643  1.00  0.00     0.002 C 
BRANCH  24  25
ATOM     25  C   UNL A   1      32.394  28.429  25.310  1.00  0.00     0.002 C 
BRANCH  25  26
ATOM     26  C   UNL A   1      33.734  28.994  25.776  1.00  0.00     0.021 C 
BRANCH  26  27
ATOM     27  C   UNL A   1      33.989  28.881  27.274  1.00  0.00     0.116 C 
BRANCH  27  28
ATOM     28  N   UNL A   1      33.952  30.171  27.943  1.00  0.00    -0.352 N 
ATOM     29  C   UNL A   1      34.933  30.770  28.696  1.00  0.00     0.251 C 
ATOM     30  H   UNL A   1      33.117  30.683  27.842  1.00  0.00     0.163 HD
ATOM     31  O   UNL A   1      34.703  31.793  29.333  1.00  0.00    -0.269 OA
BRANCH  29  32
ATOM     32  C   UNL A   1      36.271  30.147  28.755  1.00  0.00     0.039 A 
ATOM     33  C   UNL A   1      37.099  30.210  27.632  1.00  0.00     0.014 A 
ATOM     34  C   UNL A   1      36.717  29.542  29.933  1.00  0.00     0.014 A 
ATOM     35  C   UNL A   1      38.408  29.731  27.715  1.00  0.00     0.010 A 
ATOM     36  C   UNL A   1      38.041  29.120  30.033  1.00  0.00     0.010 A 
ATOM     37  C   UNL A   1      38.900  29.218  28.927  1.00  0.00    -0.014 A 
BRANCH  37  38
ATOM     38  C   UNL A   1      40.316  28.796  29.067  1.00  0.00     0.031 A 
ATOM     39  C   UNL A   1      41.350  29.773  29.551  1.00  0.00     0.074 A 
ATOM     40  C   UNL A   1      40.684  27.558  28.685  1.00  0.00     0.049 A 
ATOM     41  N   UNL A   1      42.646  29.622  29.651  1.00  0.00    -0.248 NA
ATOM     42  C   UNL A   1      40.865  31.102  29.953  1.00  0.00     0.031 C 
ATOM     43  C   UNL A   1      39.783  26.531  28.158  1.00  0.00     0.029 A 
ATOM     44  N   UNL A   1      41.919  26.958  28.665  1.00  0.00    -0.354 N 
ATOM     45  C   UNL A   1      43.132  30.838  30.112  1.00  0.00     0.074 A 
ATOM     46  C   UNL A   1      41.998  31.730  30.231  1.00  0.00     0.031 C 
ATOM     47  C   UNL A   1      40.493  25.426  27.879  1.00  0.00     0.029 A 
ATOM     48  C   UNL A   1      41.901  25.677  28.173  1.00  0.00     0.049 A 
ATOM     49  H   UNL A   1      42.739  27.405  28.975  1.00  0.00     0.167 HD
ATOM     50  C   UNL A   1      44.405  31.176  30.427  1.00  0.00     0.037 A 
ATOM     51  C   UNL A   1      42.907  24.805  27.969  1.00  0.00     0.037 A 
ATOM     52  C   UNL A   1      45.529  30.282  30.332  1.00  0.00     0.049 A 
ATOM     53  C   UNL A   1      44.313  25.208  28.315  1.00  0.00     0.074 A 
ATOM     54  C   UNL A   1      46.846  30.511  30.691  1.00  0.00     0.029 A 
ATOM     55  N   UNL A   1      45.468  28.986  29.840  1.00  0.00    -0.354 N 
ATOM     56  N   UNL A   1      44.749  26.340  28.809  1.00  0.00    -0.248 NA
ATOM     57  C   UNL A   1      45.366  24.211  28.075  1.00  0.00     0.031 C 
ATOM     58  C   UNL A   1      47.590  29.367  30.380  1.00  0.00     0.029 A 
ATOM     59  C   UNL A   1      46.729  28.413  29.865  1.00  0.00     0.049 A 
ATOM     60  H   UNL A   1      44.650  28.541  29.522  1.00  0.00     0.167 HD
ATOM     61  C   UNL A   1      46.121  26.186  28.959  1.00  0.00     0.074 A 
ATOM     62  C   UNL A   1      46.442  24.845  28.518  1.00  0.00     0.031 C 
ATOM     63  C   UNL A   1      47.033  27.077  29.420  1.00  0.00     0.037 A 
BRANCH  50  64
ATOM     64  C   UNL A   1      44.650  32.576  30.907  1.00  0.00     0.057 A 
ATOM     65  C   UNL A   1      44.642  32.898  32.270  1.00  0.00     0.134 A 
ATOM     66  C   UNL A   1      44.931  33.604  30.000  1.00  0.00     0.134 A 
ATOM     67  F   UNL A   1      44.366  31.961  33.189  1.00  0.00    -0.206 F 
ATOM     68  C   UNL A   1      44.880  34.201  32.713  1.00  0.00     0.040 A 
ATOM     69  C   UNL A   1      45.196  34.905  30.432  1.00  0.00     0.040 A 
ATOM     70  F   UNL A   1      44.960  33.362  28.680  1.00  0.00    -0.206 F 
ATOM     71  C   UNL A   1      45.166  35.207  31.792  1.00  0.00     0.006 A 
ENDBRANCH  50  64
BRANCH  51  72
ATOM     72  C   UNL A   1      42.621  23.458  27.416  1.00  0.00     0.057 A 
ATOM     73  C   UNL A   1      42.686  23.217  26.039  1.00  0.00     0.134 A 
ATOM     74  C   UNL A   1      42.271  22.385  28.244  1.00  0.00     0.134 A 
ATOM     75  F   UNL A   1      42.996  24.211  25.195  1.00  0.00    -0.206 F 
ATOM     76  C   UNL A   1      42.396  21.962  25.503  1.00  0.00     0.040 A 
ATOM     77  C   UNL A   1      42.001  21.119  27.723  1.00  0.00     0.040 A 
ATOM     78  F   UNL A   1      42.197  22.551  29.573  1.00  0.00    -0.206 F 
ATOM     79  C   UNL A   1      42.057  20.907  26.347  1.00  0.00     0.006 A 
ENDBRANCH  51  72
BRANCH  63  80
ATOM     80  C   UNL A   1      48.460  26.621  29.488  1.00  0.00     0.057 A 
ATOM     81  C   UNL A   1      49.361  26.864  28.443  1.00  0.00     0.134 A 
ATOM     82  C   UNL A   1      48.947  25.964  30.625  1.00  0.00     0.134 A 
ATOM     83  F   UNL A   1      48.951  27.476  27.322  1.00  0.00    -0.206 F 
ATOM     84  C   UNL A   1      50.691  26.452  28.519  1.00  0.00     0.040 A 
ATOM     85  C   UNL A   1      50.281  25.568  30.722  1.00  0.00     0.040 A 
ATOM     86  F   UNL A   1      48.137  25.708  31.663  1.00  0.00    -0.206 F 
ATOM     87  C   UNL A   1      51.157  25.807  29.664  1.00  0.00     0.006 A 
ENDBRANCH  63  80
ENDBRANCH  37  38
ENDBRANCH  29  32
ENDBRANCH  27  28
ENDBRANCH  26  27
ENDBRANCH  25  26
ENDBRANCH  24  25
ENDBRANCH   1  24
TORSDOF 17
ENDMDL
