MODEL 1
REMARK VINA RESULT:     -12.6      0.000      0.000
REMARK SMILES C[C@@H](C(=O)NCCCCCCNC(=O)c1ccc(-c2c3nc(c(-c4c(F)cccc4F)c4ccc([nH]4)c(-c4c(F)cccc4F)c4nc(c(-c5c(F)cccc5F)c5ccc2[nH]5)C=C4)C=C3)cc1)c1ccc2c3cc(Cl)ccc3n(C(=O)c3cocn3)c2c1
REMARK SMILES IDX 8 1 7 2 6 3 5 4 3 5 4 6 2 8 1 9 69 10 70 11 89 12 71 13
REMARK SMILES IDX 88 14 72 15 80 16 73 17 79 18 74 19 78 20 75 21 77 22 76 23
REMARK SMILES IDX 81 24 82 25 83 26 84 27 87 28 85 29 86 30 9 31 10 32 11 33
REMARK SMILES IDX 12 34 13 35 14 37 15 38 16 39 68 40 17 41 67 42 18 43 19 44
REMARK SMILES IDX 20 45 61 46 21 47 66 48 60 49 62 50 22 51 65 52 59 53 58 54
REMARK SMILES IDX 23 56 49 57 32 58 48 59 33 60 36 61 47 62 63 63 34 64 35 65
REMARK SMILES IDX 46 67 64 68 37 69 24 70 25 71 30 72 26 73 27 74 29 75 31 76
REMARK SMILES IDX 28 77 50 78 51 79 56 80 52 81 53 82 55 83 57 84 54 85 38 86
REMARK SMILES IDX 39 87 44 88 40 89 41 90 43 91 45 92 42 93
REMARK H PARENT 5 7 12 36 62 55 36 66
REMARK Flexibility Score: inf
ROOT
ATOM      1  C   UNL A   1      32.536  30.029  26.979  1.00  0.00     0.002 C 
ENDROOT
BRANCH   1   2
ATOM      2  C   UNL A   1      32.203  28.565  27.291  1.00  0.00     0.021 C 
BRANCH   2   3
ATOM      3  C   UNL A   1      31.266  27.909  26.271  1.00  0.00     0.116 C 
BRANCH   3   4
ATOM      4  N   UNL A   1      30.881  26.594  26.735  1.00  0.00    -0.356 N 
ATOM      5  C   UNL A   1      30.634  25.472  25.996  1.00  0.00     0.227 C 
ATOM      6  O   UNL A   1      29.900  24.625  26.505  1.00  0.00    -0.274 OA
ATOM      7  H   UNL A   1      30.785  26.493  27.710  1.00  0.00     0.163 HD
BRANCH   5   8
ATOM      8  C   UNL A   1      31.289  25.327  24.610  1.00  0.00     0.105 C 
ATOM      9  C   UNL A   1      30.308  24.587  23.685  1.00  0.00     0.023 C 
BRANCH   8  10
ATOM     10  C   UNL A   1      32.673  24.663  24.631  1.00  0.00    -0.034 A 
ATOM     11  C   UNL A   1      33.850  25.408  24.754  1.00  0.00     0.005 A 
ATOM     12  C   UNL A   1      32.786  23.269  24.489  1.00  0.00     0.032 A 
ATOM     13  C   UNL A   1      35.094  24.787  24.925  1.00  0.00     0.011 A 
ATOM     14  C   UNL A   1      34.042  22.645  24.614  1.00  0.00     0.058 A 
ATOM     15  C   UNL A   1      35.181  23.383  24.904  1.00  0.00     0.008 A 
ATOM     16  N   UNL A   1      34.394  21.292  24.534  1.00  0.00    -0.274 N 
ATOM     17  C   UNL A   1      36.235  22.461  25.134  1.00  0.00     0.009 A 
ATOM     18  C   UNL A   1      35.754  21.173  24.859  1.00  0.00     0.057 A 
ATOM     19  C   UNL A   1      37.577  22.640  25.534  1.00  0.00     0.031 A 
ATOM     20  C   UNL A   1      36.633  20.071  24.866  1.00  0.00     0.029 A 
ATOM     21  C   UNL A   1      38.422  21.536  25.606  1.00  0.00     0.041 A 
ATOM     22  C   UNL A   1      37.964  20.273  25.259  1.00  0.00     0.023 A 
ATOM     23  Cl  UNL A   1      40.055  21.752  26.103  1.00  0.00    -0.084 Cl
BRANCH  16  24
ATOM     24  C   UNL A   1      33.485  20.272  24.149  1.00  0.00     0.284 C 
ATOM     25  O   UNL A   1      32.629  20.610  23.322  1.00  0.00    -0.266 OA
BRANCH  24  26
ATOM     26  C   UNL A   1      33.458  18.916  24.681  1.00  0.00     0.167 A 
ATOM     27  C   UNL A   1      32.716  18.400  25.723  1.00  0.00     0.231 A 
ATOM     28  N   UNL A   1      34.129  17.867  24.064  1.00  0.00    -0.211 NA
ATOM     29  O   UNL A   1      32.927  17.052  25.778  1.00  0.00    -0.451 OA
ATOM     30  C   UNL A   1      33.772  16.805  24.743  1.00  0.00     0.308 A 
ENDBRANCH  24  26
ENDBRANCH  16  24
ENDBRANCH   8  10
ENDBRANCH   5   8
ENDBRANCH   3   4
ENDBRANCH   2   3
ENDBRANCH   1   2
BRANCH   1  31
ATOM     31  C   UNL A   1      31.421  30.797  26.268  1.00  0.00     0.002 C 
BRANCH  31  32
ATOM     32  C   UNL A   1      31.341  32.282  26.631  1.00  0.00     0.021 C 
BRANCH  32  33
ATOM     33  C   UNL A   1      32.648  32.881  27.136  1.00  0.00     0.116 C 
BRANCH  33  34
ATOM     34  N   UNL A   1      32.447  34.182  27.751  1.00  0.00    -0.352 N 
ATOM     35  C   UNL A   1      33.135  34.779  28.776  1.00  0.00     0.251 C 
ATOM     36  H   UNL A   1      31.708  34.714  27.376  1.00  0.00     0.163 HD
ATOM     37  O   UNL A   1      32.690  35.793  29.302  1.00  0.00    -0.269 OA
BRANCH  35  38
ATOM     38  C   UNL A   1      34.403  34.192  29.261  1.00  0.00     0.039 A 
ATOM     39  C   UNL A   1      34.371  33.396  30.408  1.00  0.00     0.014 A 
ATOM     40  C   UNL A   1      35.617  34.448  28.616  1.00  0.00     0.014 A 
ATOM     41  C   UNL A   1      35.549  32.819  30.882  1.00  0.00     0.010 A 
ATOM     42  C   UNL A   1      36.781  33.818  29.051  1.00  0.00     0.010 A 
ATOM     43  C   UNL A   1      36.760  33.003  30.192  1.00  0.00    -0.014 A 
BRANCH  43  44
ATOM     44  C   UNL A   1      37.999  32.332  30.659  1.00  0.00     0.031 A 
ATOM     45  C   UNL A   1      38.781  32.888  31.817  1.00  0.00     0.074 A 
ATOM     46  C   UNL A   1      38.430  31.228  30.020  1.00  0.00     0.049 A 
ATOM     47  N   UNL A   1      39.877  32.429  32.366  1.00  0.00    -0.248 NA
ATOM     48  C   UNL A   1      38.279  34.131  32.424  1.00  0.00     0.031 C 
ATOM     49  C   UNL A   1      37.791  30.626  28.848  1.00  0.00     0.029 A 
ATOM     50  N   UNL A   1      39.507  30.414  30.266  1.00  0.00    -0.354 N 
ATOM     51  C   UNL A   1      40.193  33.320  33.384  1.00  0.00     0.074 A 
ATOM     52  C   UNL A   1      39.207  34.380  33.337  1.00  0.00     0.031 C 
ATOM     53  C   UNL A   1      38.473  29.525  28.493  1.00  0.00     0.029 A 
ATOM     54  C   UNL A   1      39.610  29.359  29.393  1.00  0.00     0.049 A 
ATOM     55  H   UNL A   1      40.146  30.572  30.998  1.00  0.00     0.167 HD
ATOM     56  C   UNL A   1      41.194  33.249  34.294  1.00  0.00     0.037 A 
ATOM     57  C   UNL A   1      40.517  28.367  29.326  1.00  0.00     0.037 A 
ATOM     58  C   UNL A   1      42.168  32.189  34.346  1.00  0.00     0.049 A 
ATOM     59  C   UNL A   1      41.614  28.308  30.352  1.00  0.00     0.074 A 
ATOM     60  C   UNL A   1      43.201  32.010  35.249  1.00  0.00     0.029 A 
ATOM     61  N   UNL A   1      42.227  31.127  33.457  1.00  0.00    -0.354 N 
ATOM     62  N   UNL A   1      41.860  29.124  31.347  1.00  0.00    -0.248 NA
ATOM     63  C   UNL A   1      42.552  27.181  30.252  1.00  0.00     0.031 C 
ATOM     64  C   UNL A   1      43.906  30.858  34.887  1.00  0.00     0.029 A 
ATOM     65  C   UNL A   1      43.286  30.295  33.783  1.00  0.00     0.049 A 
ATOM     66  H   UNL A   1      41.607  30.984  32.706  1.00  0.00     0.167 HD
ATOM     67  C   UNL A   1      42.967  28.600  32.003  1.00  0.00     0.074 A 
ATOM     68  C   UNL A   1      43.326  27.382  31.309  1.00  0.00     0.031 C 
ATOM     69  C   UNL A   1      43.630  29.087  33.081  1.00  0.00     0.037 A 
BRANCH  56  70
ATOM     70  C   UNL A   1      41.275  34.338  35.322  1.00  0.00     0.057 A 
ATOM     71  C   UNL A   1      42.021  35.504  35.097  1.00  0.00     0.134 A 
ATOM     72  C   UNL A   1      40.563  34.251  36.524  1.00  0.00     0.134 A 
ATOM     73  F   UNL A   1      42.736  35.646  33.970  1.00  0.00    -0.206 F 
ATOM     74  C   UNL A   1      42.070  36.534  36.038  1.00  0.00     0.040 A 
ATOM     75  C   UNL A   1      40.585  35.284  37.462  1.00  0.00     0.040 A 
ATOM     76  F   UNL A   1      39.824  33.165  36.801  1.00  0.00    -0.206 F 
ATOM     77  C   UNL A   1      41.343  36.428  37.221  1.00  0.00     0.006 A 
ENDBRANCH  56  70
BRANCH  57  78
ATOM     78  C   UNL A   1      40.419  27.337  28.262  1.00  0.00     0.057 A 
ATOM     79  C   UNL A   1      39.708  26.148  28.465  1.00  0.00     0.134 A 
ATOM     80  C   UNL A   1      41.052  27.508  27.024  1.00  0.00     0.134 A 
ATOM     81  F   UNL A   1      39.096  25.920  29.636  1.00  0.00    -0.206 F 
ATOM     82  C   UNL A   1      39.653  25.154  27.487  1.00  0.00     0.040 A 
ATOM     83  C   UNL A   1      40.983  26.533  26.029  1.00  0.00     0.040 A 
ATOM     84  F   UNL A   1      41.740  28.629  26.764  1.00  0.00    -0.206 F 
ATOM     85  C   UNL A   1      40.290  25.347  26.263  1.00  0.00     0.006 A 
ENDBRANCH  57  78
BRANCH  69  86
ATOM     86  C   UNL A   1      44.797  28.285  33.577  1.00  0.00     0.057 A 
ATOM     87  C   UNL A   1      46.103  28.529  33.132  1.00  0.00     0.134 A 
ATOM     88  C   UNL A   1      44.615  27.266  34.520  1.00  0.00     0.134 A 
ATOM     89  F   UNL A   1      46.343  29.482  32.219  1.00  0.00    -0.206 F 
ATOM     90  C   UNL A   1      47.181  27.766  33.583  1.00  0.00     0.040 A 
ATOM     91  C   UNL A   1      45.688  26.514  34.998  1.00  0.00     0.040 A 
ATOM     92  F   UNL A   1      43.390  26.988  34.995  1.00  0.00    -0.206 F 
ATOM     93  C   UNL A   1      46.975  26.757  34.522  1.00  0.00     0.006 A 
ENDBRANCH  69  86
ENDBRANCH  43  44
ENDBRANCH  35  38
ENDBRANCH  33  34
ENDBRANCH  32  33
ENDBRANCH  31  32
ENDBRANCH   1  31
TORSDOF 16
ENDMDL
MODEL 2
REMARK VINA RESULT:     -12.4      6.579     11.436
REMARK SMILES C[C@@H](C(=O)NCCCCCCNC(=O)c1ccc(-c2c3nc(c(-c4c(F)cccc4F)c4ccc([nH]4)c(-c4c(F)cccc4F)c4nc(c(-c5c(F)cccc5F)c5ccc2[nH]5)C=C4)C=C3)cc1)c1ccc2c3cc(Cl)ccc3n(C(=O)c3cocn3)c2c1
REMARK SMILES IDX 8 1 7 2 6 3 5 4 3 5 4 6 2 8 1 9 69 10 70 11 89 12 71 13
REMARK SMILES IDX 88 14 72 15 80 16 73 17 79 18 74 19 78 20 75 21 77 22 76 23
REMARK SMILES IDX 81 24 82 25 83 26 84 27 87 28 85 29 86 30 9 31 10 32 11 33
REMARK SMILES IDX 12 34 13 35 14 37 15 38 16 39 68 40 17 41 67 42 18 43 19 44
REMARK SMILES IDX 20 45 61 46 21 47 66 48 60 49 62 50 22 51 65 52 59 53 58 54
REMARK SMILES IDX 23 56 49 57 32 58 48 59 33 60 36 61 47 62 63 63 34 64 35 65
REMARK SMILES IDX 46 67 64 68 37 69 24 70 25 71 30 72 26 73 27 74 29 75 31 76
REMARK SMILES IDX 28 77 50 78 51 79 56 80 52 81 53 82 55 83 57 84 54 85 38 86
REMARK SMILES IDX 39 87 44 88 40 89 41 90 43 91 45 92 42 93
REMARK H PARENT 5 7 12 36 62 55 36 66
REMARK Flexibility Score: inf
ROOT
ATOM      1  C   UNL A   1      40.674  27.497  29.547  1.00  0.00     0.002 C 
ENDROOT
BRANCH   1   2
ATOM      2  C   UNL A   1      41.997  28.263  29.659  1.00  0.00     0.021 C 
BRANCH   2   3
ATOM      3  C   UNL A   1      41.833  29.733  30.059  1.00  0.00     0.116 C 
BRANCH   3   4
ATOM      4  N   UNL A   1      40.768  29.860  31.029  1.00  0.00    -0.356 N 
ATOM      5  C   UNL A   1      39.845  30.860  31.149  1.00  0.00     0.227 C 
ATOM      6  O   UNL A   1      39.346  31.022  32.264  1.00  0.00    -0.274 OA
ATOM      7  H   UNL A   1      40.698  29.133  31.689  1.00  0.00     0.163 HD
BRANCH   5   8
ATOM      8  C   UNL A   1      39.475  31.694  29.909  1.00  0.00     0.105 C 
ATOM      9  C   UNL A   1      39.326  33.163  30.339  1.00  0.00     0.023 C 
BRANCH   8  10
ATOM     10  C   UNL A   1      38.241  31.186  29.151  1.00  0.00    -0.034 A 
ATOM     11  C   UNL A   1      38.195  29.911  28.579  1.00  0.00     0.005 A 
ATOM     12  C   UNL A   1      37.125  32.025  28.984  1.00  0.00     0.032 A 
ATOM     13  C   UNL A   1      37.015  29.401  28.023  1.00  0.00     0.011 A 
ATOM     14  C   UNL A   1      35.952  31.530  28.384  1.00  0.00     0.058 A 
ATOM     15  C   UNL A   1      35.863  30.208  27.971  1.00  0.00     0.008 A 
ATOM     16  N   UNL A   1      34.726  32.159  28.133  1.00  0.00    -0.274 N 
ATOM     17  C   UNL A   1      34.520  29.977  27.575  1.00  0.00     0.009 A 
ATOM     18  C   UNL A   1      33.834  31.198  27.634  1.00  0.00     0.057 A 
ATOM     19  C   UNL A   1      33.848  28.812  27.144  1.00  0.00     0.031 A 
ATOM     20  C   UNL A   1      32.512  31.292  27.154  1.00  0.00     0.029 A 
ATOM     21  C   UNL A   1      32.520  28.901  26.738  1.00  0.00     0.041 A 
ATOM     22  C   UNL A   1      31.866  30.125  26.724  1.00  0.00     0.023 A 
ATOM     23  Cl  UNL A   1      31.697  27.480  26.223  1.00  0.00    -0.084 Cl
BRANCH  16  24
ATOM     24  C   UNL A   1      34.506  33.546  28.340  1.00  0.00     0.284 C 
ATOM     25  O   UNL A   1      34.786  34.276  27.380  1.00  0.00    -0.266 OA
BRANCH  24  26
ATOM     26  C   UNL A   1      34.041  34.155  29.579  1.00  0.00     0.167 A 
ATOM     27  C   UNL A   1      34.669  34.234  30.805  1.00  0.00     0.231 A 
ATOM     28  N   UNL A   1      32.875  34.908  29.639  1.00  0.00    -0.211 NA
ATOM     29  O   UNL A   1      33.907  35.005  31.633  1.00  0.00    -0.451 OA
ATOM     30  C   UNL A   1      32.856  35.386  30.859  1.00  0.00     0.308 A 
ENDBRANCH  24  26
ENDBRANCH  16  24
ENDBRANCH   8  10
ENDBRANCH   5   8
ENDBRANCH   3   4
ENDBRANCH   2   3
ENDBRANCH   1   2
BRANCH   1  31
ATOM     31  C   UNL A   1      40.297  27.083  28.123  1.00  0.00     0.002 C 
BRANCH  31  32
ATOM     32  C   UNL A   1      39.561  25.745  28.024  1.00  0.00     0.021 C 
BRANCH  32  33
ATOM     33  C   UNL A   1      39.700  25.044  26.677  1.00  0.00     0.116 C 
BRANCH  33  34
ATOM     34  N   UNL A   1      40.421  23.788  26.791  1.00  0.00    -0.352 N 
ATOM     35  C   UNL A   1      41.762  23.536  26.661  1.00  0.00     0.251 C 
ATOM     36  H   UNL A   1      39.864  23.002  26.993  1.00  0.00     0.163 HD
ATOM     37  O   UNL A   1      42.162  22.379  26.583  1.00  0.00    -0.269 OA
BRANCH  35  38
ATOM     38  C   UNL A   1      42.726  24.655  26.595  1.00  0.00     0.039 A 
ATOM     39  C   UNL A   1      43.370  25.048  27.770  1.00  0.00     0.014 A 
ATOM     40  C   UNL A   1      42.971  25.335  25.398  1.00  0.00     0.014 A 
ATOM     41  C   UNL A   1      44.293  26.094  27.736  1.00  0.00     0.010 A 
ATOM     42  C   UNL A   1      43.942  26.334  25.351  1.00  0.00     0.010 A 
ATOM     43  C   UNL A   1      44.608  26.727  26.521  1.00  0.00    -0.014 A 
BRANCH  43  44
ATOM     44  C   UNL A   1      45.641  27.792  26.476  1.00  0.00     0.031 A 
ATOM     45  C   UNL A   1      45.257  29.238  26.616  1.00  0.00     0.074 A 
ATOM     46  C   UNL A   1      46.930  27.450  26.285  1.00  0.00     0.049 A 
ATOM     47  N   UNL A   1      46.025  30.298  26.612  1.00  0.00    -0.248 NA
ATOM     48  C   UNL A   1      43.823  29.536  26.760  1.00  0.00     0.031 C 
ATOM     49  C   UNL A   1      47.421  26.086  26.078  1.00  0.00     0.029 A 
ATOM     50  N   UNL A   1      48.063  28.222  26.237  1.00  0.00    -0.354 N 
ATOM     51  C   UNL A   1      45.172  31.385  26.758  1.00  0.00     0.074 A 
ATOM     52  C   UNL A   1      43.822  30.861  26.786  1.00  0.00     0.031 C 
ATOM     53  C   UNL A   1      48.757  26.115  25.949  1.00  0.00     0.029 A 
ATOM     54  C   UNL A   1      49.214  27.498  26.039  1.00  0.00     0.049 A 
ATOM     55  H   UNL A   1      48.053  29.201  26.334  1.00  0.00     0.167 HD
ATOM     56  C   UNL A   1      45.483  32.697  26.885  1.00  0.00     0.037 A 
ATOM     57  C   UNL A   1      50.493  27.903  25.942  1.00  0.00     0.037 A 
ATOM     58  C   UNL A   1      46.827  33.217  26.868  1.00  0.00     0.049 A 
ATOM     59  C   UNL A   1      50.812  29.364  26.094  1.00  0.00     0.074 A 
ATOM     60  C   UNL A   1      47.248  34.526  27.021  1.00  0.00     0.029 A 
ATOM     61  N   UNL A   1      47.967  32.449  26.685  1.00  0.00    -0.354 N 
ATOM     62  N   UNL A   1      49.998  30.371  26.296  1.00  0.00    -0.248 NA
ATOM     63  C   UNL A   1      52.230  29.742  26.018  1.00  0.00     0.031 C 
ATOM     64  C   UNL A   1      48.641  34.556  26.898  1.00  0.00     0.029 A 
ATOM     65  C   UNL A   1      49.091  33.260  26.711  1.00  0.00     0.049 A 
ATOM     66  H   UNL A   1      47.977  31.474  26.557  1.00  0.00     0.167 HD
ATOM     67  C   UNL A   1      50.805  31.498  26.390  1.00  0.00     0.074 A 
ATOM     68  C   UNL A   1      52.173  31.045  26.252  1.00  0.00     0.031 C 
ATOM     69  C   UNL A   1      50.445  32.793  26.570  1.00  0.00     0.037 A 
BRANCH  56  70
ATOM     70  C   UNL A   1      44.352  33.663  27.078  1.00  0.00     0.057 A 
ATOM     71  C   UNL A   1      43.850  33.958  28.353  1.00  0.00     0.134 A 
ATOM     72  C   UNL A   1      43.792  34.345  25.991  1.00  0.00     0.134 A 
ATOM     73  F   UNL A   1      44.335  33.331  29.436  1.00  0.00    -0.206 F 
ATOM     74  C   UNL A   1      42.820  34.883  28.537  1.00  0.00     0.040 A 
ATOM     75  C   UNL A   1      42.779  35.289  26.165  1.00  0.00     0.040 A 
ATOM     76  F   UNL A   1      44.230  34.114  24.743  1.00  0.00    -0.206 F 
ATOM     77  C   UNL A   1      42.288  35.558  27.441  1.00  0.00     0.006 A 
ENDBRANCH  56  70
BRANCH  57  78
ATOM     78  C   UNL A   1      51.574  26.912  25.708  1.00  0.00     0.057 A 
ATOM     79  C   UNL A   1      52.038  26.636  24.416  1.00  0.00     0.134 A 
ATOM     80  C   UNL A   1      52.153  26.204  26.767  1.00  0.00     0.134 A 
ATOM     81  F   UNL A   1      51.510  27.271  23.359  1.00  0.00    -0.206 F 
ATOM     82  C   UNL A   1      53.020  25.672  24.183  1.00  0.00     0.040 A 
ATOM     83  C   UNL A   1      53.153  25.256  26.551  1.00  0.00     0.040 A 
ATOM     84  F   UNL A   1      51.759  26.430  28.029  1.00  0.00    -0.206 F 
ATOM     85  C   UNL A   1      53.582  24.980  25.255  1.00  0.00     0.006 A 
ENDBRANCH  57  78
BRANCH  69  86
ATOM     86  C   UNL A   1      51.555  33.800  26.644  1.00  0.00     0.057 A 
ATOM     87  C   UNL A   1      52.021  34.469  25.504  1.00  0.00     0.134 A 
ATOM     88  C   UNL A   1      52.154  34.114  27.869  1.00  0.00     0.134 A 
ATOM     89  F   UNL A   1      51.498  34.204  24.298  1.00  0.00    -0.206 F 
ATOM     90  C   UNL A   1      53.068  35.390  25.577  1.00  0.00     0.040 A 
ATOM     91  C   UNL A   1      53.183  35.053  27.959  1.00  0.00     0.040 A 
ATOM     92  F   UNL A   1      51.748  33.517  29.000  1.00  0.00    -0.206 F 
ATOM     93  C   UNL A   1      53.649  35.687  26.809  1.00  0.00     0.006 A 
ENDBRANCH  69  86
ENDBRANCH  43  44
ENDBRANCH  35  38
ENDBRANCH  33  34
ENDBRANCH  32  33
ENDBRANCH  31  32
ENDBRANCH   1  31
TORSDOF 16
ENDMDL
MODEL 3
REMARK VINA RESULT:     -12.3      6.608     12.196
REMARK SMILES C[C@@H](C(=O)NCCCCCCNC(=O)c1ccc(-c2c3nc(c(-c4c(F)cccc4F)c4ccc([nH]4)c(-c4c(F)cccc4F)c4nc(c(-c5c(F)cccc5F)c5ccc2[nH]5)C=C4)C=C3)cc1)c1ccc2c3cc(Cl)ccc3n(C(=O)c3cocn3)c2c1
REMARK SMILES IDX 8 1 7 2 6 3 5 4 3 5 4 6 2 8 1 9 69 10 70 11 89 12 71 13
REMARK SMILES IDX 88 14 72 15 80 16 73 17 79 18 74 19 78 20 75 21 77 22 76 23
REMARK SMILES IDX 81 24 82 25 83 26 84 27 87 28 85 29 86 30 9 31 10 32 11 33
REMARK SMILES IDX 12 34 13 35 14 37 15 38 16 39 68 40 17 41 67 42 18 43 19 44
REMARK SMILES IDX 20 45 61 46 21 47 66 48 60 49 62 50 22 51 65 52 59 53 58 54
REMARK SMILES IDX 23 56 49 57 32 58 48 59 33 60 36 61 47 62 63 63 34 64 35 65
REMARK SMILES IDX 46 67 64 68 37 69 24 70 25 71 30 72 26 73 27 74 29 75 31 76
REMARK SMILES IDX 28 77 50 78 51 79 56 80 52 81 53 82 55 83 57 84 54 85 38 86
REMARK SMILES IDX 39 87 44 88 40 89 41 90 43 91 45 92 42 93
REMARK H PARENT 5 7 12 36 62 55 36 66
REMARK Flexibility Score: inf
ROOT
ATOM      1  C   UNL A   1      40.709  27.534  29.575  1.00  0.00     0.002 C 
ENDROOT
BRANCH   1   2
ATOM      2  C   UNL A   1      42.011  28.309  29.811  1.00  0.00     0.021 C 
BRANCH   2   3
ATOM      3  C   UNL A   1      41.802  29.783  30.174  1.00  0.00     0.116 C 
BRANCH   3   4
ATOM      4  N   UNL A   1      40.704  29.905  31.109  1.00  0.00    -0.356 N 
ATOM      5  C   UNL A   1      39.755  30.884  31.181  1.00  0.00     0.227 C 
ATOM      6  O   UNL A   1      39.219  31.057  32.276  1.00  0.00    -0.274 OA
ATOM      7  H   UNL A   1      40.631  29.189  31.782  1.00  0.00     0.163 HD
BRANCH   5   8
ATOM      8  C   UNL A   1      39.405  31.684  29.912  1.00  0.00     0.105 C 
ATOM      9  C   UNL A   1      39.261  33.166  30.297  1.00  0.00     0.023 C 
BRANCH   8  10
ATOM     10  C   UNL A   1      38.175  31.162  29.156  1.00  0.00    -0.034 A 
ATOM     11  C   UNL A   1      38.131  29.875  28.611  1.00  0.00     0.005 A 
ATOM     12  C   UNL A   1      37.062  31.999  28.962  1.00  0.00     0.032 A 
ATOM     13  C   UNL A   1      36.955  29.355  28.058  1.00  0.00     0.011 A 
ATOM     14  C   UNL A   1      35.893  31.493  28.363  1.00  0.00     0.058 A 
ATOM     15  C   UNL A   1      35.805  30.162  27.980  1.00  0.00     0.008 A 
ATOM     16  N   UNL A   1      34.671  32.119  28.090  1.00  0.00    -0.274 N 
ATOM     17  C   UNL A   1      34.464  29.925  27.578  1.00  0.00     0.009 A 
ATOM     18  C   UNL A   1      33.780  31.149  27.605  1.00  0.00     0.057 A 
ATOM     19  C   UNL A   1      33.793  28.753  27.168  1.00  0.00     0.031 A 
ATOM     20  C   UNL A   1      32.462  31.236  27.113  1.00  0.00     0.029 A 
ATOM     21  C   UNL A   1      32.468  28.835  26.749  1.00  0.00     0.041 A 
ATOM     22  C   UNL A   1      31.817  30.060  26.703  1.00  0.00     0.023 A 
ATOM     23  Cl  UNL A   1      31.646  27.405  26.258  1.00  0.00    -0.084 Cl
BRANCH  16  24
ATOM     24  C   UNL A   1      34.452  33.511  28.265  1.00  0.00     0.284 C 
ATOM     25  O   UNL A   1      34.762  34.221  27.300  1.00  0.00    -0.266 OA
BRANCH  24  26
ATOM     26  C   UNL A   1      33.956  34.145  29.479  1.00  0.00     0.167 A 
ATOM     27  C   UNL A   1      34.498  34.149  30.748  1.00  0.00     0.231 A 
ATOM     28  N   UNL A   1      32.863  35.002  29.471  1.00  0.00    -0.211 NA
ATOM     29  O   UNL A   1      33.752  34.978  31.535  1.00  0.00    -0.451 OA
ATOM     30  C   UNL A   1      32.800  35.465  30.695  1.00  0.00     0.308 A 
ENDBRANCH  24  26
ENDBRANCH  16  24
ENDBRANCH   8  10
ENDBRANCH   5   8
ENDBRANCH   3   4
ENDBRANCH   2   3
ENDBRANCH   1   2
BRANCH   1  31
ATOM     31  C   UNL A   1      40.444  27.168  28.113  1.00  0.00     0.002 C 
BRANCH  31  32
ATOM     32  C   UNL A   1      39.746  25.821  27.912  1.00  0.00     0.021 C 
BRANCH  32  33
ATOM     33  C   UNL A   1      39.883  25.241  26.509  1.00  0.00     0.116 C 
BRANCH  33  34
ATOM     34  N   UNL A   1      40.518  23.935  26.522  1.00  0.00    -0.352 N 
ATOM     35  C   UNL A   1      41.843  23.606  26.398  1.00  0.00     0.251 C 
ATOM     36  H   UNL A   1      39.905  23.172  26.638  1.00  0.00     0.163 HD
ATOM     37  O   UNL A   1      42.169  22.437  26.222  1.00  0.00    -0.269 OA
BRANCH  35  38
ATOM     38  C   UNL A   1      42.878  24.660  26.457  1.00  0.00     0.039 A 
ATOM     39  C   UNL A   1      43.291  25.254  25.262  1.00  0.00     0.014 A 
ATOM     40  C   UNL A   1      43.463  25.039  27.669  1.00  0.00     0.014 A 
ATOM     41  C   UNL A   1      44.258  26.259  25.287  1.00  0.00     0.010 A 
ATOM     42  C   UNL A   1      44.378  26.089  27.701  1.00  0.00     0.010 A 
ATOM     43  C   UNL A   1      44.789  26.705  26.509  1.00  0.00    -0.014 A 
BRANCH  43  44
ATOM     44  C   UNL A   1      45.766  27.822  26.539  1.00  0.00     0.031 A 
ATOM     45  C   UNL A   1      47.243  27.550  26.465  1.00  0.00     0.074 A 
ATOM     46  C   UNL A   1      45.316  29.086  26.656  1.00  0.00     0.049 A 
ATOM     47  N   UNL A   1      48.238  28.401  26.466  1.00  0.00    -0.248 NA
ATOM     48  C   UNL A   1      47.659  26.140  26.399  1.00  0.00     0.031 C 
ATOM     49  C   UNL A   1      43.911  29.474  26.796  1.00  0.00     0.029 A 
ATOM     50  N   UNL A   1      45.994  30.280  26.675  1.00  0.00    -0.354 N 
ATOM     51  C   UNL A   1      49.394  27.633  26.396  1.00  0.00     0.074 A 
ATOM     52  C   UNL A   1      48.980  26.246  26.416  1.00  0.00     0.031 C 
ATOM     53  C   UNL A   1      43.829  30.812  26.861  1.00  0.00     0.029 A 
ATOM     54  C   UNL A   1      45.174  31.375  26.794  1.00  0.00     0.049 A 
ATOM     55  H   UNL A   1      46.974  30.344  26.610  1.00  0.00     0.167 HD
ATOM     56  C   UNL A   1      50.680  28.044  26.296  1.00  0.00     0.037 A 
ATOM     57  C   UNL A   1      45.472  32.686  26.842  1.00  0.00     0.037 A 
ATOM     58  C   UNL A   1      51.091  29.425  26.267  1.00  0.00     0.049 A 
ATOM     59  C   UNL A   1      46.908  33.116  26.722  1.00  0.00     0.074 A 
ATOM     60  C   UNL A   1      52.367  29.943  26.135  1.00  0.00     0.029 A 
ATOM     61  N   UNL A   1      50.229  30.506  26.369  1.00  0.00    -0.354 N 
ATOM     62  N   UNL A   1      47.984  32.378  26.593  1.00  0.00    -0.248 NA
ATOM     63  C   UNL A   1      47.169  34.561  26.743  1.00  0.00     0.031 C 
ATOM     64  C   UNL A   1      52.282  31.338  26.192  1.00  0.00     0.029 A 
ATOM     65  C   UNL A   1      50.948  31.690  26.316  1.00  0.00     0.049 A 
ATOM     66  H   UNL A   1      49.252  30.443  26.465  1.00  0.00     0.167 HD
ATOM     67  C   UNL A   1      49.045  33.268  26.496  1.00  0.00     0.074 A 
ATOM     68  C   UNL A   1      48.481  34.600  26.554  1.00  0.00     0.031 C 
ATOM     69  C   UNL A   1      50.370  33.007  26.376  1.00  0.00     0.037 A 
BRANCH  56  70
ATOM     70  C   UNL A   1      51.740  26.987  26.190  1.00  0.00     0.057 A 
ATOM     71  C   UNL A   1      52.414  26.510  27.323  1.00  0.00     0.134 A 
ATOM     72  C   UNL A   1      52.054  26.402  24.958  1.00  0.00     0.134 A 
ATOM     73  F   UNL A   1      52.167  27.036  28.532  1.00  0.00    -0.206 F 
ATOM     74  C   UNL A   1      53.375  25.502  27.231  1.00  0.00     0.040 A 
ATOM     75  C   UNL A   1      52.997  25.377  24.857  1.00  0.00     0.040 A 
ATOM     76  F   UNL A   1      51.442  26.807  23.835  1.00  0.00    -0.206 F 
ATOM     77  C   UNL A   1      53.662  24.926  25.995  1.00  0.00     0.006 A 
ENDBRANCH  56  70
BRANCH  57  78
ATOM     78  C   UNL A   1      44.391  33.693  26.993  1.00  0.00     0.057 A 
ATOM     79  C   UNL A   1      43.851  34.349  25.881  1.00  0.00     0.134 A 
ATOM     80  C   UNL A   1      43.889  34.036  28.254  1.00  0.00     0.134 A 
ATOM     81  F   UNL A   1      44.304  34.075  24.649  1.00  0.00    -0.206 F 
ATOM     82  C   UNL A   1      42.868  35.331  26.019  1.00  0.00     0.040 A 
ATOM     83  C   UNL A   1      42.889  34.998  28.403  1.00  0.00     0.040 A 
ATOM     84  F   UNL A   1      44.358  33.436  29.357  1.00  0.00    -0.206 F 
ATOM     85  C   UNL A   1      42.383  35.656  27.285  1.00  0.00     0.006 A 
ENDBRANCH  57  78
BRANCH  69  86
ATOM     86  C   UNL A   1      51.288  34.190  26.281  1.00  0.00     0.057 A 
ATOM     87  C   UNL A   1      51.764  34.659  25.049  1.00  0.00     0.134 A 
ATOM     88  C   UNL A   1      51.691  34.875  27.434  1.00  0.00     0.134 A 
ATOM     89  F   UNL A   1      51.425  34.038  23.910  1.00  0.00    -0.206 F 
ATOM     90  C   UNL A   1      52.634  35.747  24.970  1.00  0.00     0.040 A 
ATOM     91  C   UNL A   1      52.539  35.981  27.365  1.00  0.00     0.040 A 
ATOM     92  F   UNL A   1      51.265  34.484  28.644  1.00  0.00    -0.206 F 
ATOM     93  C   UNL A   1      53.021  36.414  26.132  1.00  0.00     0.006 A 
ENDBRANCH  69  86
ENDBRANCH  43  44
ENDBRANCH  35  38
ENDBRANCH  33  34
ENDBRANCH  32  33
ENDBRANCH  31  32
ENDBRANCH   1  31
TORSDOF 16
ENDMDL
