MODEL 1
REMARK VINA RESULT:     -11.2      0.000      0.000
REMARK SMILES O=C(NCCCCCCNC(=O)c1cncc(OCCCc2ccccc2)n1)c1ccc(-c2c3nc(c(-c4c(F)cccc4F)c4ccc([nH]4)c(-c4c(F)cccc4F)c4nc(c(-c5c(F)cccc5F)c5ccc2[nH]5)C=C4)C=C3)cc1
REMARK SMILES IDX 8 1 7 2 6 3 5 4 4 5 3 6 1 7 2 8 29 10 30 11 82 12 31 13
REMARK SMILES IDX 81 14 32 15 33 16 34 17 75 18 35 19 80 20 74 21 76 22 36 23
REMARK SMILES IDX 79 24 73 25 72 26 37 28 63 29 46 30 62 31 47 32 50 33 61 34
REMARK SMILES IDX 77 35 48 36 49 37 60 39 78 40 51 41 38 42 39 43 44 44 40 45
REMARK SMILES IDX 41 46 43 47 45 48 42 49 64 50 65 51 70 52 66 53 67 54 69 55
REMARK SMILES IDX 71 56 68 57 52 58 53 59 58 60 54 61 55 62 57 63 59 64 56 65
REMARK SMILES IDX 9 66 10 67 11 68 12 70 13 71 14 72 28 73 15 74 17 75 16 76
REMARK SMILES IDX 18 77 19 78 20 79 21 80 22 81 23 82 27 83 24 84 26 85 25 86
REMARK H PARENT 3 9 76 27 50 38 10 69
REMARK Flexibility Score: inf
ROOT
ATOM      1  C   UNL A   1      32.965  29.077  27.091  1.00  0.00     0.021 C 
ENDROOT
BRANCH   1   2
ATOM      2  C   UNL A   1      31.562  29.367  26.544  1.00  0.00     0.002 C 
BRANCH   2   3
ATOM      3  C   UNL A   1      31.405  30.645  25.716  1.00  0.00     0.002 C 
BRANCH   3   4
ATOM      4  C   UNL A   1      31.303  31.947  26.512  1.00  0.00     0.021 C 
BRANCH   4   5
ATOM      5  C   UNL A   1      32.622  32.475  27.056  1.00  0.00     0.116 C 
BRANCH   5   6
ATOM      6  N   UNL A   1      32.516  33.843  27.533  1.00  0.00    -0.352 N 
ATOM      7  O   UNL A   1      32.885  35.585  28.920  1.00  0.00    -0.269 OA
ATOM      8  C   UNL A   1      33.231  34.474  28.520  1.00  0.00     0.251 C 
ATOM      9  H   UNL A   1      31.835  34.395  27.086  1.00  0.00     0.163 HD
BRANCH   8  10
ATOM     10  C   UNL A   1      34.409  33.812  29.119  1.00  0.00     0.039 A 
ATOM     11  C   UNL A   1      35.704  34.243  28.814  1.00  0.00     0.014 A 
ATOM     12  C   UNL A   1      34.212  32.761  30.017  1.00  0.00     0.014 A 
ATOM     13  C   UNL A   1      36.800  33.545  29.307  1.00  0.00     0.010 A 
ATOM     14  C   UNL A   1      35.315  32.114  30.578  1.00  0.00     0.010 A 
ATOM     15  C   UNL A   1      36.618  32.487  30.211  1.00  0.00    -0.014 A 
BRANCH  15  16
ATOM     16  C   UNL A   1      37.796  31.829  30.829  1.00  0.00     0.031 A 
ATOM     17  C   UNL A   1      38.573  30.778  30.093  1.00  0.00     0.074 A 
ATOM     18  C   UNL A   1      38.141  32.169  32.085  1.00  0.00     0.049 A 
ATOM     19  N   UNL A   1      39.582  30.056  30.507  1.00  0.00    -0.248 NA
ATOM     20  C   UNL A   1      38.155  30.492  28.712  1.00  0.00     0.031 C 
ATOM     21  C   UNL A   1      37.450  33.167  32.906  1.00  0.00     0.029 A 
ATOM     22  N   UNL A   1      39.144  31.707  32.898  1.00  0.00    -0.354 N 
ATOM     23  C   UNL A   1      39.907  29.214  29.452  1.00  0.00     0.074 A 
ATOM     24  C   UNL A   1      38.969  29.498  28.385  1.00  0.00     0.031 C 
ATOM     25  C   UNL A   1      38.053  33.247  34.100  1.00  0.00     0.029 A 
ATOM     26  C   UNL A   1      39.128  32.263  34.152  1.00  0.00     0.049 A 
ATOM     27  H   UNL A   1      39.810  31.042  32.609  1.00  0.00     0.167 HD
ATOM     28  C   UNL A   1      40.899  28.293  29.381  1.00  0.00     0.037 A 
ATOM     29  C   UNL A   1      39.868  31.988  35.242  1.00  0.00     0.037 A 
ATOM     30  C   UNL A   1      41.824  28.019  30.452  1.00  0.00     0.049 A 
ATOM     31  C   UNL A   1      40.933  30.937  35.156  1.00  0.00     0.074 A 
ATOM     32  C   UNL A   1      42.895  27.142  30.462  1.00  0.00     0.029 A 
ATOM     33  N   UNL A   1      41.775  28.603  31.711  1.00  0.00    -0.354 N 
ATOM     34  N   UNL A   1      41.268  30.186  34.134  1.00  0.00    -0.248 NA
ATOM     35  C   UNL A   1      41.724  30.691  36.368  1.00  0.00     0.031 C 
ATOM     36  C   UNL A   1      43.454  27.149  31.745  1.00  0.00     0.029 A 
ATOM     37  C   UNL A   1      42.773  28.079  32.516  1.00  0.00     0.049 A 
ATOM     38  H   UNL A   1      41.126  29.288  31.990  1.00  0.00     0.167 HD
ATOM     39  C   UNL A   1      42.321  29.396  34.572  1.00  0.00     0.074 A 
ATOM     40  C   UNL A   1      42.575  29.763  35.950  1.00  0.00     0.031 C 
ATOM     41  C   UNL A   1      43.016  28.454  33.888  1.00  0.00     0.037 A 
BRANCH  28  42
ATOM     42  C   UNL A   1      41.007  27.487  28.116  1.00  0.00     0.057 A 
ATOM     43  C   UNL A   1      41.805  27.892  27.039  1.00  0.00     0.134 A 
ATOM     44  C   UNL A   1      40.314  26.277  27.983  1.00  0.00     0.134 A 
ATOM     45  F   UNL A   1      42.492  29.043  27.094  1.00  0.00    -0.206 F 
ATOM     46  C   UNL A   1      41.877  27.145  25.860  1.00  0.00     0.040 A 
ATOM     47  C   UNL A   1      40.401  25.506  26.823  1.00  0.00     0.040 A 
ATOM     48  F   UNL A   1      39.540  25.821  28.980  1.00  0.00    -0.206 F 
ATOM     49  C   UNL A   1      41.177  25.945  25.752  1.00  0.00     0.006 A 
ENDBRANCH  28  42
BRANCH  29  50
ATOM     50  C   UNL A   1      39.592  32.715  36.505  1.00  0.00     0.057 A 
ATOM     51  C   UNL A   1      40.328  33.848  36.868  1.00  0.00     0.134 A 
ATOM     52  C   UNL A   1      38.545  32.325  37.351  1.00  0.00     0.134 A 
ATOM     53  F   UNL A   1      41.350  34.262  36.104  1.00  0.00    -0.206 F 
ATOM     54  C   UNL A   1      40.036  34.565  38.029  1.00  0.00     0.040 A 
ATOM     55  C   UNL A   1      38.225  33.049  38.499  1.00  0.00     0.040 A 
ATOM     56  F   UNL A   1      37.794  31.256  37.049  1.00  0.00    -0.206 F 
ATOM     57  C   UNL A   1      38.974  34.172  38.843  1.00  0.00     0.006 A 
ENDBRANCH  29  50
BRANCH  41  58
ATOM     58  C   UNL A   1      44.145  27.772  34.605  1.00  0.00     0.057 A 
ATOM     59  C   UNL A   1      45.436  28.314  34.641  1.00  0.00     0.134 A 
ATOM     60  C   UNL A   1      43.918  26.590  35.323  1.00  0.00     0.134 A 
ATOM     61  F   UNL A   1      45.724  29.434  33.961  1.00  0.00    -0.206 F 
ATOM     62  C   UNL A   1      46.464  27.698  35.359  1.00  0.00     0.040 A 
ATOM     63  C   UNL A   1      44.930  25.982  36.067  1.00  0.00     0.040 A 
ATOM     64  F   UNL A   1      42.702  26.023  35.334  1.00  0.00    -0.206 F 
ATOM     65  C   UNL A   1      46.208  26.536  36.084  1.00  0.00     0.006 A 
ENDBRANCH  41  58
ENDBRANCH  15  16
ENDBRANCH   8  10
ENDBRANCH   5   6
ENDBRANCH   4   5
ENDBRANCH   3   4
ENDBRANCH   2   3
ENDBRANCH   1   2
BRANCH   1  66
ATOM     66  C   UNL A   1      33.814  28.098  26.284  1.00  0.00     0.116 C 
BRANCH  66  67
ATOM     67  N   UNL A   1      34.194  28.602  24.981  1.00  0.00    -0.351 N 
ATOM     68  C   UNL A   1      33.917  28.068  23.744  1.00  0.00     0.271 C 
ATOM     69  H   UNL A   1      34.720  29.434  24.980  1.00  0.00     0.163 HD
ATOM     70  O   UNL A   1      34.240  28.676  22.728  1.00  0.00    -0.267 OA
BRANCH  68  71
ATOM     71  C   UNL A   1      33.230  26.764  23.640  1.00  0.00     0.150 A 
ATOM     72  C   UNL A   1      33.961  25.592  23.752  1.00  0.00     0.145 A 
ATOM     73  N   UNL A   1      31.880  26.785  23.496  1.00  0.00    -0.205 NA
ATOM     74  N   UNL A   1      33.373  24.372  23.699  1.00  0.00    -0.257 NA
ATOM     75  C   UNL A   1      31.289  25.576  23.485  1.00  0.00     0.233 A 
ATOM     76  C   UNL A   1      32.020  24.396  23.580  1.00  0.00     0.179 A 
BRANCH  75  77
ATOM     77  O   UNL A   1      29.918  25.475  23.481  1.00  0.00    -0.477 OA
BRANCH  77  78
ATOM     78  C   UNL A   1      29.225  26.599  24.034  1.00  0.00     0.232 C 
BRANCH  78  79
ATOM     79  C   UNL A   1      29.178  27.803  23.082  1.00  0.00     0.046 C 
BRANCH  79  80
ATOM     80  C   UNL A   1      27.892  28.645  23.134  1.00  0.00     0.039 C 
BRANCH  80  81
ATOM     81  C   UNL A   1      28.018  30.066  22.631  1.00  0.00    -0.048 A 
ATOM     82  C   UNL A   1      28.142  31.114  23.553  1.00  0.00     0.004 A 
ATOM     83  C   UNL A   1      28.025  30.375  21.266  1.00  0.00     0.004 A 
ATOM     84  C   UNL A   1      28.356  32.425  23.128  1.00  0.00     0.000 A 
ATOM     85  C   UNL A   1      28.234  31.689  20.838  1.00  0.00     0.000 A 
ATOM     86  C   UNL A   1      28.417  32.711  21.768  1.00  0.00     0.000 A 
ENDBRANCH  80  81
ENDBRANCH  79  80
ENDBRANCH  78  79
ENDBRANCH  77  78
ENDBRANCH  75  77
ENDBRANCH  68  71
ENDBRANCH  66  67
ENDBRANCH   1  66
TORSDOF 18
ENDMDL
MODEL 2
REMARK VINA RESULT:     -11.1      1.972      4.536
REMARK SMILES O=C(NCCCCCCNC(=O)c1cncc(OCCCc2ccccc2)n1)c1ccc(-c2c3nc(c(-c4c(F)cccc4F)c4ccc([nH]4)c(-c4c(F)cccc4F)c4nc(c(-c5c(F)cccc5F)c5ccc2[nH]5)C=C4)C=C3)cc1
REMARK SMILES IDX 8 1 7 2 6 3 5 4 4 5 3 6 1 7 2 8 29 10 30 11 82 12 31 13
REMARK SMILES IDX 81 14 32 15 33 16 34 17 75 18 35 19 80 20 74 21 76 22 36 23
REMARK SMILES IDX 79 24 73 25 72 26 37 28 63 29 46 30 62 31 47 32 50 33 61 34
REMARK SMILES IDX 77 35 48 36 49 37 60 39 78 40 51 41 38 42 39 43 44 44 40 45
REMARK SMILES IDX 41 46 43 47 45 48 42 49 64 50 65 51 70 52 66 53 67 54 69 55
REMARK SMILES IDX 71 56 68 57 52 58 53 59 58 60 54 61 55 62 57 63 59 64 56 65
REMARK SMILES IDX 9 66 10 67 11 68 12 70 13 71 14 72 28 73 15 74 17 75 16 76
REMARK SMILES IDX 18 77 19 78 20 79 21 80 22 81 23 82 27 83 24 84 26 85 25 86
REMARK H PARENT 3 9 76 27 50 38 10 69
REMARK Flexibility Score: inf
ROOT
ATOM      1  C   UNL A   1      32.399  28.552  26.759  1.00  0.00     0.021 C 
ENDROOT
BRANCH   1   2
ATOM      2  C   UNL A   1      32.440  30.068  26.991  1.00  0.00     0.002 C 
BRANCH   2   3
ATOM      3  C   UNL A   1      31.380  30.897  26.262  1.00  0.00     0.002 C 
BRANCH   3   4
ATOM      4  C   UNL A   1      31.387  32.397  26.559  1.00  0.00     0.021 C 
BRANCH   4   5
ATOM      5  C   UNL A   1      32.676  32.927  27.168  1.00  0.00     0.116 C 
BRANCH   5   6
ATOM      6  N   UNL A   1      32.506  34.239  27.770  1.00  0.00    -0.352 N 
ATOM      7  O   UNL A   1      32.779  35.855  29.321  1.00  0.00    -0.269 OA
ATOM      8  C   UNL A   1      33.177  34.801  28.826  1.00  0.00     0.251 C 
ATOM      9  H   UNL A   1      31.811  34.804  27.362  1.00  0.00     0.163 HD
BRANCH   8  10
ATOM     10  C   UNL A   1      34.371  34.132  29.385  1.00  0.00     0.039 A 
ATOM     11  C   UNL A   1      35.657  34.525  29.001  1.00  0.00     0.014 A 
ATOM     12  C   UNL A   1      34.199  33.113  30.325  1.00  0.00     0.014 A 
ATOM     13  C   UNL A   1      36.763  33.818  29.460  1.00  0.00     0.010 A 
ATOM     14  C   UNL A   1      35.316  32.460  30.849  1.00  0.00     0.010 A 
ATOM     15  C   UNL A   1      36.606  32.792  30.405  1.00  0.00    -0.014 A 
BRANCH  15  16
ATOM     16  C   UNL A   1      37.801  32.128  30.983  1.00  0.00     0.031 A 
ATOM     17  C   UNL A   1      38.514  31.035  30.243  1.00  0.00     0.074 A 
ATOM     18  C   UNL A   1      38.219  32.503  32.206  1.00  0.00     0.049 A 
ATOM     19  N   UNL A   1      39.527  30.303  30.629  1.00  0.00    -0.248 NA
ATOM     20  C   UNL A   1      38.016  30.712  28.898  1.00  0.00     0.031 C 
ATOM     21  C   UNL A   1      37.595  33.543  33.026  1.00  0.00     0.029 A 
ATOM     22  N   UNL A   1      39.254  32.044  32.980  1.00  0.00    -0.354 N 
ATOM     23  C   UNL A   1      39.777  29.419  29.588  1.00  0.00     0.074 A 
ATOM     24  C   UNL A   1      38.790  29.689  28.563  1.00  0.00     0.031 C 
ATOM     25  C   UNL A   1      38.263  33.649  34.184  1.00  0.00     0.029 A 
ATOM     26  C   UNL A   1      39.318  32.642  34.213  1.00  0.00     0.049 A 
ATOM     27  H   UNL A   1      39.889  31.354  32.680  1.00  0.00     0.167 HD
ATOM     28  C   UNL A   1      40.743  28.473  29.498  1.00  0.00     0.037 A 
ATOM     29  C   UNL A   1      40.108  32.387  35.272  1.00  0.00     0.037 A 
ATOM     30  C   UNL A   1      41.718  28.213  30.527  1.00  0.00     0.049 A 
ATOM     31  C   UNL A   1      41.144  31.308  35.167  1.00  0.00     0.074 A 
ATOM     32  C   UNL A   1      42.769  27.312  30.512  1.00  0.00     0.029 A 
ATOM     33  N   UNL A   1      41.749  28.840  31.765  1.00  0.00    -0.354 N 
ATOM     34  N   UNL A   1      41.408  30.516  34.155  1.00  0.00    -0.248 NA
ATOM     35  C   UNL A   1      41.993  31.085  36.343  1.00  0.00     0.031 C 
ATOM     36  C   UNL A   1      43.395  27.348  31.762  1.00  0.00     0.029 A 
ATOM     37  C   UNL A   1      42.777  28.320  32.535  1.00  0.00     0.049 A 
ATOM     38  H   UNL A   1      41.131  29.550  32.054  1.00  0.00     0.167 HD
ATOM     39  C   UNL A   1      42.465  29.716  34.564  1.00  0.00     0.074 A 
ATOM     40  C   UNL A   1      42.800  30.123  35.913  1.00  0.00     0.031 C 
ATOM     41  C   UNL A   1      43.101  28.735  33.878  1.00  0.00     0.037 A 
BRANCH  28  42
ATOM     42  C   UNL A   1      40.766  27.622  28.258  1.00  0.00     0.057 A 
ATOM     43  C   UNL A   1      40.010  26.449  28.143  1.00  0.00     0.134 A 
ATOM     44  C   UNL A   1      41.545  27.995  27.154  1.00  0.00     0.134 A 
ATOM     45  F   UNL A   1      39.246  26.028  29.162  1.00  0.00    -0.206 F 
ATOM     46  C   UNL A   1      40.059  25.656  26.994  1.00  0.00     0.040 A 
ATOM     47  C   UNL A   1      41.580  27.227  25.989  1.00  0.00     0.040 A 
ATOM     48  F   UNL A   1      42.286  29.113  27.189  1.00  0.00    -0.206 F 
ATOM     49  C   UNL A   1      40.844  26.048  25.911  1.00  0.00     0.006 A 
ENDBRANCH  28  42
BRANCH  29  50
ATOM     50  C   UNL A   1      39.917  33.162  36.521  1.00  0.00     0.057 A 
ATOM     51  C   UNL A   1      39.041  32.727  37.520  1.00  0.00     0.134 A 
ATOM     52  C   UNL A   1      40.651  34.330  36.768  1.00  0.00     0.134 A 
ATOM     53  F   UNL A   1      38.302  31.623  37.336  1.00  0.00    -0.206 F 
ATOM     54  C   UNL A   1      38.898  33.427  38.720  1.00  0.00     0.040 A 
ATOM     55  C   UNL A   1      40.539  35.024  37.972  1.00  0.00     0.040 A 
ATOM     56  F   UNL A   1      41.518  34.790  35.853  1.00  0.00    -0.206 F 
ATOM     57  C   UNL A   1      39.657  34.574  38.953  1.00  0.00     0.006 A 
ENDBRANCH  29  50
BRANCH  41  58
ATOM     58  C   UNL A   1      44.252  28.051  34.559  1.00  0.00     0.057 A 
ATOM     59  C   UNL A   1      44.083  26.876  35.300  1.00  0.00     0.134 A 
ATOM     60  C   UNL A   1      45.556  28.545  34.413  1.00  0.00     0.134 A 
ATOM     61  F   UNL A   1      42.860  26.360  35.491  1.00  0.00    -0.206 F 
ATOM     62  C   UNL A   1      45.171  26.219  35.881  1.00  0.00     0.040 A 
ATOM     63  C   UNL A   1      46.652  27.882  34.965  1.00  0.00     0.040 A 
ATOM     64  F   UNL A   1      45.785  29.664  33.710  1.00  0.00    -0.206 F 
ATOM     65  C   UNL A   1      46.461  26.716  35.703  1.00  0.00     0.006 A 
ENDBRANCH  41  58
ENDBRANCH  15  16
ENDBRANCH   8  10
ENDBRANCH   5   6
ENDBRANCH   4   5
ENDBRANCH   3   4
ENDBRANCH   2   3
ENDBRANCH   1   2
BRANCH   1  66
ATOM     66  C   UNL A   1      33.658  27.927  26.164  1.00  0.00     0.116 C 
BRANCH  66  67
ATOM     67  N   UNL A   1      34.118  28.588  24.961  1.00  0.00    -0.351 N 
ATOM     68  C   UNL A   1      33.828  28.280  23.653  1.00  0.00     0.271 C 
ATOM     69  H   UNL A   1      34.717  29.357  25.098  1.00  0.00     0.163 HD
ATOM     70  O   UNL A   1      34.233  29.005  22.749  1.00  0.00    -0.267 OA
BRANCH  68  71
ATOM     71  C   UNL A   1      33.028  27.079  23.337  1.00  0.00     0.150 A 
ATOM     72  C   UNL A   1      31.646  27.131  23.431  1.00  0.00     0.145 A 
ATOM     73  N   UNL A   1      33.701  25.982  22.906  1.00  0.00    -0.205 NA
ATOM     74  N   UNL A   1      30.865  26.068  23.119  1.00  0.00    -0.257 NA
ATOM     75  C   UNL A   1      32.926  24.939  22.555  1.00  0.00     0.233 A 
ATOM     76  C   UNL A   1      31.540  24.980  22.663  1.00  0.00     0.179 A 
BRANCH  75  77
ATOM     77  O   UNL A   1      33.485  23.824  21.977  1.00  0.00    -0.477 OA
BRANCH  77  78
ATOM     78  C   UNL A   1      32.885  22.580  22.352  1.00  0.00     0.232 C 
BRANCH  78  79
ATOM     79  C   UNL A   1      33.341  22.087  23.733  1.00  0.00     0.046 C 
BRANCH  79  80
ATOM     80  C   UNL A   1      32.520  20.932  24.334  1.00  0.00     0.039 C 
BRANCH  80  81
ATOM     81  C   UNL A   1      33.040  19.540  24.047  1.00  0.00    -0.048 A 
ATOM     82  C   UNL A   1      32.372  18.734  23.116  1.00  0.00     0.004 A 
ATOM     83  C   UNL A   1      34.178  19.026  24.679  1.00  0.00     0.004 A 
ATOM     84  C   UNL A   1      32.874  17.484  22.755  1.00  0.00     0.000 A 
ATOM     85  C   UNL A   1      34.680  17.772  24.323  1.00  0.00     0.000 A 
ATOM     86  C   UNL A   1      34.038  17.008  23.349  1.00  0.00     0.000 A 
ENDBRANCH  80  81
ENDBRANCH  79  80
ENDBRANCH  78  79
ENDBRANCH  77  78
ENDBRANCH  75  77
ENDBRANCH  68  71
ENDBRANCH  66  67
ENDBRANCH   1  66
TORSDOF 18
ENDMDL
MODEL 3
REMARK VINA RESULT:     -11.1      1.141      2.254
REMARK SMILES O=C(NCCCCCCNC(=O)c1cncc(OCCCc2ccccc2)n1)c1ccc(-c2c3nc(c(-c4c(F)cccc4F)c4ccc([nH]4)c(-c4c(F)cccc4F)c4nc(c(-c5c(F)cccc5F)c5ccc2[nH]5)C=C4)C=C3)cc1
REMARK SMILES IDX 8 1 7 2 6 3 5 4 4 5 3 6 1 7 2 8 29 10 30 11 82 12 31 13
REMARK SMILES IDX 81 14 32 15 33 16 34 17 75 18 35 19 80 20 74 21 76 22 36 23
REMARK SMILES IDX 79 24 73 25 72 26 37 28 63 29 46 30 62 31 47 32 50 33 61 34
REMARK SMILES IDX 77 35 48 36 49 37 60 39 78 40 51 41 38 42 39 43 44 44 40 45
REMARK SMILES IDX 41 46 43 47 45 48 42 49 64 50 65 51 70 52 66 53 67 54 69 55
REMARK SMILES IDX 71 56 68 57 52 58 53 59 58 60 54 61 55 62 57 63 59 64 56 65
REMARK SMILES IDX 9 66 10 67 11 68 12 70 13 71 14 72 28 73 15 74 17 75 16 76
REMARK SMILES IDX 18 77 19 78 20 79 21 80 22 81 23 82 27 83 24 84 26 85 25 86
REMARK H PARENT 3 9 76 27 50 38 10 69
REMARK Flexibility Score: inf
ROOT
ATOM      1  C   UNL A   1      31.710  28.379  27.332  1.00  0.00     0.021 C 
ENDROOT
BRANCH   1   2
ATOM      2  C   UNL A   1      32.345  29.589  26.636  1.00  0.00     0.002 C 
BRANCH   2   3
ATOM      3  C   UNL A   1      31.392  30.520  25.883  1.00  0.00     0.002 C 
BRANCH   3   4
ATOM      4  C   UNL A   1      31.320  31.958  26.397  1.00  0.00     0.021 C 
BRANCH   4   5
ATOM      5  C   UNL A   1      32.586  32.466  27.071  1.00  0.00     0.116 C 
BRANCH   5   6
ATOM      6  N   UNL A   1      32.452  33.832  27.545  1.00  0.00    -0.352 N 
ATOM      7  O   UNL A   1      32.780  35.583  28.931  1.00  0.00    -0.269 OA
ATOM      8  C   UNL A   1      33.149  34.478  28.535  1.00  0.00     0.251 C 
ATOM      9  H   UNL A   1      31.764  34.371  27.093  1.00  0.00     0.163 HD
BRANCH   8  10
ATOM     10  C   UNL A   1      34.336  33.840  29.141  1.00  0.00     0.039 A 
ATOM     11  C   UNL A   1      34.195  32.804  30.070  1.00  0.00     0.014 A 
ATOM     12  C   UNL A   1      35.609  34.268  28.756  1.00  0.00     0.014 A 
ATOM     13  C   UNL A   1      35.318  32.285  30.705  1.00  0.00     0.010 A 
ATOM     14  C   UNL A   1      36.740  33.687  29.333  1.00  0.00     0.010 A 
ATOM     15  C   UNL A   1      36.603  32.706  30.328  1.00  0.00    -0.014 A 
BRANCH  15  16
ATOM     16  C   UNL A   1      37.798  32.057  30.921  1.00  0.00     0.031 A 
ATOM     17  C   UNL A   1      38.541  30.980  30.186  1.00  0.00     0.074 A 
ATOM     18  C   UNL A   1      38.190  32.429  32.154  1.00  0.00     0.049 A 
ATOM     19  N   UNL A   1      39.560  30.262  30.584  1.00  0.00    -0.248 NA
ATOM     20  C   UNL A   1      38.071  30.659  28.831  1.00  0.00     0.031 C 
ATOM     21  C   UNL A   1      37.536  33.454  32.970  1.00  0.00     0.029 A 
ATOM     22  N   UNL A   1      39.220  31.982  32.942  1.00  0.00    -0.354 N 
ATOM     23  C   UNL A   1      39.841  29.389  29.542  1.00  0.00     0.074 A 
ATOM     24  C   UNL A   1      38.867  29.651  28.502  1.00  0.00     0.031 C 
ATOM     25  C   UNL A   1      38.182  33.563  34.140  1.00  0.00     0.029 A 
ATOM     26  C   UNL A   1      39.253  32.573  34.180  1.00  0.00     0.049 A 
ATOM     27  H   UNL A   1      39.870  31.305  32.648  1.00  0.00     0.167 HD
ATOM     28  C   UNL A   1      40.824  28.459  29.461  1.00  0.00     0.037 A 
ATOM     29  C   UNL A   1      40.030  32.323  35.250  1.00  0.00     0.037 A 
ATOM     30  C   UNL A   1      41.785  28.208  30.505  1.00  0.00     0.049 A 
ATOM     31  C   UNL A   1      41.085  31.261  35.155  1.00  0.00     0.074 A 
ATOM     32  C   UNL A   1      42.851  27.324  30.501  1.00  0.00     0.029 A 
ATOM     33  N   UNL A   1      41.786  28.827  31.748  1.00  0.00    -0.354 N 
ATOM     34  N   UNL A   1      41.378  30.481  34.143  1.00  0.00    -0.248 NA
ATOM     35  C   UNL A   1      41.917  31.043  36.344  1.00  0.00     0.031 C 
ATOM     36  C   UNL A   1      43.456  27.362  31.762  1.00  0.00     0.029 A 
ATOM     37  C   UNL A   1      42.809  28.318  32.531  1.00  0.00     0.049 A 
ATOM     38  H   UNL A   1      41.152  29.525  32.031  1.00  0.00     0.167 HD
ATOM     39  C   UNL A   1      42.441  29.695  34.564  1.00  0.00     0.074 A 
ATOM     40  C   UNL A   1      42.747  30.098  35.921  1.00  0.00     0.031 C 
ATOM     41  C   UNL A   1      43.105  28.729  33.882  1.00  0.00     0.037 A 
BRANCH  28  42
ATOM     42  C   UNL A   1      40.881  27.618  28.216  1.00  0.00     0.057 A 
ATOM     43  C   UNL A   1      41.655  27.979  27.106  1.00  0.00     0.134 A 
ATOM     44  C   UNL A   1      40.162  26.418  28.136  1.00  0.00     0.134 A 
ATOM     45  F   UNL A   1      42.364  29.117  27.111  1.00  0.00    -0.206 F 
ATOM     46  C   UNL A   1      41.680  27.199  25.947  1.00  0.00     0.040 A 
ATOM     47  C   UNL A   1      40.202  25.615  26.994  1.00  0.00     0.040 A 
ATOM     48  F   UNL A   1      39.408  26.004  29.166  1.00  0.00    -0.206 F 
ATOM     49  C   UNL A   1      40.954  26.010  25.891  1.00  0.00     0.006 A 
ENDBRANCH  28  42
BRANCH  29  50
ATOM     50  C   UNL A   1      39.805  33.086  36.501  1.00  0.00     0.057 A 
ATOM     51  C   UNL A   1      40.503  34.269  36.767  1.00  0.00     0.134 A 
ATOM     52  C   UNL A   1      38.842  32.679  37.434  1.00  0.00     0.134 A 
ATOM     53  F   UNL A   1      41.445  34.702  35.916  1.00  0.00    -0.206 F 
ATOM     54  C   UNL A   1      40.255  35.018  37.919  1.00  0.00     0.040 A 
ATOM     55  C   UNL A   1      38.565  33.432  38.575  1.00  0.00     0.040 A 
ATOM     56  F   UNL A   1      38.130  31.561  37.228  1.00  0.00    -0.206 F 
ATOM     57  C   UNL A   1      39.275  34.605  38.821  1.00  0.00     0.006 A 
ENDBRANCH  29  50
BRANCH  41  58
ATOM     58  C   UNL A   1      44.255  28.059  34.577  1.00  0.00     0.057 A 
ATOM     59  C   UNL A   1      44.099  26.860  35.282  1.00  0.00     0.134 A 
ATOM     60  C   UNL A   1      45.547  28.592  34.481  1.00  0.00     0.134 A 
ATOM     61  F   UNL A   1      42.885  26.306  35.426  1.00  0.00    -0.206 F 
ATOM     62  C   UNL A   1      45.188  26.218  35.877  1.00  0.00     0.040 A 
ATOM     63  C   UNL A   1      46.647  27.945  35.047  1.00  0.00     0.040 A 
ATOM     64  F   UNL A   1      45.765  29.736  33.815  1.00  0.00    -0.206 F 
ATOM     65  C   UNL A   1      46.467  26.755  35.749  1.00  0.00     0.006 A 
ENDBRANCH  41  58
ENDBRANCH  15  16
ENDBRANCH   8  10
ENDBRANCH   5   6
ENDBRANCH   4   5
ENDBRANCH   3   4
ENDBRANCH   2   3
ENDBRANCH   1   2
BRANCH   1  66
ATOM     66  C   UNL A   1      31.410  27.172  26.446  1.00  0.00     0.116 C 
BRANCH  66  67
ATOM     67  N   UNL A   1      31.419  25.914  27.162  1.00  0.00    -0.351 N 
ATOM     68  C   UNL A   1      31.615  24.648  26.664  1.00  0.00     0.271 C 
ATOM     69  H   UNL A   1      31.263  25.973  28.133  1.00  0.00     0.163 HD
ATOM     70  O   UNL A   1      31.682  23.691  27.430  1.00  0.00    -0.267 OA
BRANCH  68  71
ATOM     71  C   UNL A   1      31.748  24.441  25.207  1.00  0.00     0.150 A 
ATOM     72  C   UNL A   1      30.730  23.813  24.508  1.00  0.00     0.145 A 
ATOM     73  N   UNL A   1      32.859  24.940  24.609  1.00  0.00    -0.205 NA
ATOM     74  N   UNL A   1      30.787  23.630  23.166  1.00  0.00    -0.257 NA
ATOM     75  C   UNL A   1      32.899  24.798  23.271  1.00  0.00     0.233 A 
ATOM     76  C   UNL A   1      31.888  24.154  22.566  1.00  0.00     0.179 A 
BRANCH  75  77
ATOM     77  O   UNL A   1      33.908  25.383  22.542  1.00  0.00    -0.477 OA
BRANCH  77  78
ATOM     78  C   UNL A   1      33.578  26.646  21.954  1.00  0.00     0.232 C 
BRANCH  78  79
ATOM     79  C   UNL A   1      33.308  27.741  22.995  1.00  0.00     0.046 C 
BRANCH  79  80
ATOM     80  C   UNL A   1      32.404  28.896  22.529  1.00  0.00     0.039 C 
BRANCH  80  81
ATOM     81  C   UNL A   1      30.921  28.700  22.754  1.00  0.00    -0.048 A 
ATOM     82  C   UNL A   1      30.024  29.689  22.331  1.00  0.00     0.004 A 
ATOM     83  C   UNL A   1      30.406  27.552  23.369  1.00  0.00     0.004 A 
ATOM     84  C   UNL A   1      28.646  29.503  22.434  1.00  0.00     0.000 A 
ATOM     85  C   UNL A   1      29.026  27.366  23.478  1.00  0.00     0.000 A 
ATOM     86  C   UNL A   1      28.146  28.333  22.995  1.00  0.00     0.000 A 
ENDBRANCH  80  81
ENDBRANCH  79  80
ENDBRANCH  78  79
ENDBRANCH  77  78
ENDBRANCH  75  77
ENDBRANCH  68  71
ENDBRANCH  66  67
ENDBRANCH   1  66
TORSDOF 18
ENDMDL
