MODEL 1
REMARK VINA RESULT:     -11.8      0.000      0.000
REMARK SMILES COc1ccccc1[C@@H]1CN(C(=O)c2cc(C(C)C)nc(N)n2)C[C@H]1C(=O)NCCCCCCNC(=O)c1ccc(-c2c3nc(c(-c4c(F)cccc4F)c4ccc([nH]4)c(-c4c(F)cccc4F)c4nc(c(-c5c(F)cccc5F)c5ccc2[nH]5)C=C4)C=C3)cc1
REMARK SMILES IDX 31 1 30 2 29 3 28 4 26 5 27 6 25 8 9 9 10 10 11 11 24 12
REMARK SMILES IDX 8 13 3 14 4 15 5 16 7 17 6 18 2 19 1 20 12 21 13 22 14 23
REMARK SMILES IDX 15 24 23 25 16 26 21 27 20 28 17 29 18 30 19 31 22 32 32 35
REMARK SMILES IDX 33 36 34 37 35 38 36 39 37 41 38 42 39 43 91 44 40 45 90 46
REMARK SMILES IDX 41 47 42 48 43 49 84 50 44 51 89 52 83 53 85 54 45 55 88 56
REMARK SMILES IDX 82 57 81 58 46 60 72 61 55 62 71 63 56 64 59 65 70 66 86 67
REMARK SMILES IDX 57 68 58 69 69 71 87 72 60 73 47 74 48 75 53 76 49 77 50 78
REMARK SMILES IDX 52 79 54 80 51 81 73 82 74 83 79 84 75 85 76 86 78 87 80 88
REMARK SMILES IDX 77 89 61 90 62 91 67 92 63 93 64 94 66 95 68 96 65 97
REMARK H PARENT 28 7 22 33 22 34 35 40 85 59 59 70
REMARK Flexibility Score: inf
ROOT
ATOM      1  C   UNL A   1      37.017  21.804  23.880  1.00  0.00     0.002 C 
ENDROOT
BRANCH   1   2
ATOM      2  C   UNL A   1      36.908  23.171  24.566  1.00  0.00     0.021 C 
BRANCH   2   3
ATOM      3  C   UNL A   1      36.066  23.165  25.838  1.00  0.00     0.116 C 
BRANCH   3   4
ATOM      4  N   UNL A   1      35.453  24.458  26.060  1.00  0.00    -0.356 N 
ATOM      5  C   UNL A   1      34.530  25.149  25.346  1.00  0.00     0.225 C 
ATOM      6  O   UNL A   1      34.197  26.255  25.782  1.00  0.00    -0.275 OA
ATOM      7  H   UNL A   1      35.761  24.918  26.875  1.00  0.00     0.163 HD
BRANCH   5   8
ATOM      8  C   UNL A   1      33.901  24.611  24.077  1.00  0.00     0.107 C 
ATOM      9  C   UNL A   1      32.570  23.856  24.271  1.00  0.00     0.057 C 
ATOM     10  C   UNL A   1      31.771  24.189  23.009  1.00  0.00     0.129 C 
ATOM     11  N   UNL A   1      32.216  25.535  22.676  1.00  0.00    -0.336 N 
ATOM     12  C   UNL A   1      33.607  25.716  23.060  1.00  0.00     0.134 C 
BRANCH   9  13
ATOM     13  C   UNL A   1      32.688  22.390  24.625  1.00  0.00    -0.000 A 
ATOM     14  C   UNL A   1      32.764  21.889  25.933  1.00  0.00     0.122 A 
ATOM     15  C   UNL A   1      32.906  20.517  26.169  1.00  0.00     0.047 A 
ATOM     16  C   UNL A   1      32.965  19.622  25.103  1.00  0.00     0.004 A 
ATOM     17  C   UNL A   1      32.743  21.464  23.563  1.00  0.00     0.008 A 
ATOM     18  C   UNL A   1      32.889  20.095  23.799  1.00  0.00     0.001 A 
BRANCH  14  19
ATOM     19  O   UNL A   1      32.866  22.720  27.013  1.00  0.00    -0.496 OA
ATOM     20  C   UNL A   1      33.360  22.064  28.178  1.00  0.00     0.278 C 
ENDBRANCH  14  19
ENDBRANCH   9  13
BRANCH  11  21
ATOM     21  C   UNL A   1      31.550  26.510  21.948  1.00  0.00     0.272 C 
ATOM     22  O   UNL A   1      31.403  26.434  20.730  1.00  0.00    -0.267 OA
BRANCH  21  23
ATOM     23  C   UNL A   1      31.059  27.716  22.666  1.00  0.00     0.134 A 
ATOM     24  C   UNL A   1      29.804  28.203  22.371  1.00  0.00     0.058 A 
ATOM     25  N   UNL A   1      31.884  28.245  23.588  1.00  0.00    -0.208 NA
ATOM     26  C   UNL A   1      29.440  29.350  23.036  1.00  0.00     0.049 A 
ATOM     27  C   UNL A   1      31.425  29.324  24.212  1.00  0.00     0.220 A 
ATOM     28  N   UNL A   1      30.246  29.909  23.962  1.00  0.00    -0.218 NA
BRANCH  26  29
ATOM     29  C   UNL A   1      28.145  30.072  22.731  1.00  0.00     0.032 C 
ATOM     30  C   UNL A   1      27.984  31.303  23.628  1.00  0.00     0.014 C 
ATOM     31  C   UNL A   1      28.028  30.453  21.254  1.00  0.00     0.014 C 
ENDBRANCH  26  29
BRANCH  27  32
ATOM     32  N   UNL A   1      32.207  29.872  25.184  1.00  0.00    -0.368 N 
ATOM     33  H   UNL A   1      32.544  30.792  25.085  1.00  0.00     0.159 HD
ATOM     34  H   UNL A   1      32.434  29.350  25.987  1.00  0.00     0.159 HD
ENDBRANCH  27  32
ENDBRANCH  21  23
ENDBRANCH  11  21
ENDBRANCH   5   8
ENDBRANCH   3   4
ENDBRANCH   2   3
ENDBRANCH   1   2
BRANCH   1  35
ATOM     35  C   UNL A   1      36.656  20.603  24.760  1.00  0.00     0.002 C 
BRANCH  35  36
ATOM     36  C   UNL A   1      37.778  19.584  24.965  1.00  0.00     0.021 C 
BRANCH  36  37
ATOM     37  C   UNL A   1      38.974  20.104  25.752  1.00  0.00     0.116 C 
BRANCH  37  38
ATOM     38  N   UNL A   1      40.046  19.129  25.831  1.00  0.00    -0.352 N 
ATOM     39  C   UNL A   1      41.386  19.341  26.037  1.00  0.00     0.251 C 
ATOM     40  H   UNL A   1      39.775  18.189  25.723  1.00  0.00     0.163 HD
ATOM     41  O   UNL A   1      42.184  18.419  25.909  1.00  0.00    -0.269 OA
BRANCH  39  42
ATOM     42  C   UNL A   1      41.866  20.691  26.399  1.00  0.00     0.039 A 
ATOM     43  C   UNL A   1      42.219  21.574  25.376  1.00  0.00     0.014 A 
ATOM     44  C   UNL A   1      41.990  21.075  27.737  1.00  0.00     0.014 A 
ATOM     45  C   UNL A   1      42.672  22.855  25.696  1.00  0.00     0.010 A 
ATOM     46  C   UNL A   1      42.374  22.375  28.052  1.00  0.00     0.010 A 
ATOM     47  C   UNL A   1      42.739  23.269  27.036  1.00  0.00    -0.014 A 
BRANCH  47  48
ATOM     48  C   UNL A   1      43.244  24.617  27.393  1.00  0.00     0.031 A 
ATOM     49  C   UNL A   1      42.282  25.677  27.854  1.00  0.00     0.074 A 
ATOM     50  C   UNL A   1      44.553  24.901  27.264  1.00  0.00     0.049 A 
ATOM     51  N   UNL A   1      42.513  26.927  28.167  1.00  0.00    -0.248 NA
ATOM     52  C   UNL A   1      40.865  25.289  27.946  1.00  0.00     0.031 C 
ATOM     53  C   UNL A   1      45.578  23.971  26.785  1.00  0.00     0.029 A 
ATOM     54  N   UNL A   1      45.246  26.056  27.521  1.00  0.00    -0.354 N 
ATOM     55  C   UNL A   1      41.275  27.475  28.471  1.00  0.00     0.074 A 
ATOM     56  C   UNL A   1      40.288  26.441  28.255  1.00  0.00     0.031 C 
ATOM     57  C   UNL A   1      46.772  24.587  26.807  1.00  0.00     0.029 A 
ATOM     58  C   UNL A   1      46.593  25.958  27.273  1.00  0.00     0.049 A 
ATOM     59  H   UNL A   1      44.818  26.879  27.851  1.00  0.00     0.167 HD
ATOM     60  C   UNL A   1      40.986  28.722  28.916  1.00  0.00     0.037 A 
ATOM     61  C   UNL A   1      47.571  26.872  27.413  1.00  0.00     0.037 A 
ATOM     62  C   UNL A   1      41.974  29.736  29.170  1.00  0.00     0.049 A 
ATOM     63  C   UNL A   1      47.229  28.241  27.932  1.00  0.00     0.074 A 
ATOM     64  C   UNL A   1      41.792  31.009  29.681  1.00  0.00     0.029 A 
ATOM     65  N   UNL A   1      43.333  29.587  28.940  1.00  0.00    -0.354 N 
ATOM     66  N   UNL A   1      46.061  28.727  28.275  1.00  0.00    -0.248 NA
ATOM     67  C   UNL A   1      48.344  29.185  28.093  1.00  0.00     0.031 C 
ATOM     68  C   UNL A   1      43.039  31.643  29.727  1.00  0.00     0.029 A 
ATOM     69  C   UNL A   1      44.001  30.749  29.285  1.00  0.00     0.049 A 
ATOM     70  H   UNL A   1      43.760  28.774  28.582  1.00  0.00     0.167 HD
ATOM     71  C   UNL A   1      46.305  30.019  28.726  1.00  0.00     0.074 A 
ATOM     72  C   UNL A   1      47.733  30.236  28.618  1.00  0.00     0.031 C 
ATOM     73  C   UNL A   1      45.425  30.941  29.188  1.00  0.00     0.037 A 
BRANCH  60  74
ATOM     74  C   UNL A   1      39.543  29.051  29.159  1.00  0.00     0.057 A 
ATOM     75  C   UNL A   1      38.954  28.908  30.423  1.00  0.00     0.134 A 
ATOM     76  C   UNL A   1      38.735  29.538  28.123  1.00  0.00     0.134 A 
ATOM     77  F   UNL A   1      39.667  28.433  31.455  1.00  0.00    -0.206 F 
ATOM     78  C   UNL A   1      37.608  29.210  30.641  1.00  0.00     0.040 A 
ATOM     79  C   UNL A   1      37.396  29.870  28.335  1.00  0.00     0.040 A 
ATOM     80  F   UNL A   1      39.236  29.703  26.889  1.00  0.00    -0.206 F 
ATOM     81  C   UNL A   1      36.827  29.699  29.595  1.00  0.00     0.006 A 
ENDBRANCH  60  74
BRANCH  61  82
ATOM     82  C   UNL A   1      48.976  26.512  27.096  1.00  0.00     0.057 A 
ATOM     83  C   UNL A   1      49.507  26.743  25.822  1.00  0.00     0.134 A 
ATOM     84  C   UNL A   1      49.815  25.922  28.048  1.00  0.00     0.134 A 
ATOM     85  F   UNL A   1      48.746  27.290  24.862  1.00  0.00    -0.206 F 
ATOM     86  C   UNL A   1      50.816  26.383  25.498  1.00  0.00     0.040 A 
ATOM     87  C   UNL A   1      51.133  25.578  27.746  1.00  0.00     0.040 A 
ATOM     88  F   UNL A   1      49.367  25.683  29.288  1.00  0.00    -0.206 F 
ATOM     89  C   UNL A   1      51.635  25.802  26.464  1.00  0.00     0.006 A 
ENDBRANCH  61  82
BRANCH  73  90
ATOM     90  C   UNL A   1      45.988  32.249  29.657  1.00  0.00     0.057 A 
ATOM     91  C   UNL A   1      46.111  33.352  28.804  1.00  0.00     0.134 A 
ATOM     92  C   UNL A   1      46.379  32.414  30.992  1.00  0.00     0.134 A 
ATOM     93  F   UNL A   1      45.765  33.254  27.511  1.00  0.00    -0.206 F 
ATOM     94  C   UNL A   1      46.627  34.568  29.256  1.00  0.00     0.040 A 
ATOM     95  C   UNL A   1      46.872  33.632  31.462  1.00  0.00     0.040 A 
ATOM     96  F   UNL A   1      46.278  31.398  31.863  1.00  0.00    -0.206 F 
ATOM     97  C   UNL A   1      47.003  34.712  30.590  1.00  0.00     0.006 A 
ENDBRANCH  73  90
ENDBRANCH  47  48
ENDBRANCH  39  42
ENDBRANCH  37  38
ENDBRANCH  36  37
ENDBRANCH  35  36
ENDBRANCH   1  35
TORSDOF 19
ENDMDL
MODEL 2
REMARK VINA RESULT:     -11.8      2.526      7.749
REMARK SMILES COc1ccccc1[C@@H]1CN(C(=O)c2cc(C(C)C)nc(N)n2)C[C@H]1C(=O)NCCCCCCNC(=O)c1ccc(-c2c3nc(c(-c4c(F)cccc4F)c4ccc([nH]4)c(-c4c(F)cccc4F)c4nc(c(-c5c(F)cccc5F)c5ccc2[nH]5)C=C4)C=C3)cc1
REMARK SMILES IDX 31 1 30 2 29 3 28 4 26 5 27 6 25 8 9 9 10 10 11 11 24 12
REMARK SMILES IDX 8 13 3 14 4 15 5 16 7 17 6 18 2 19 1 20 12 21 13 22 14 23
REMARK SMILES IDX 15 24 23 25 16 26 21 27 20 28 17 29 18 30 19 31 22 32 32 35
REMARK SMILES IDX 33 36 34 37 35 38 36 39 37 41 38 42 39 43 91 44 40 45 90 46
REMARK SMILES IDX 41 47 42 48 43 49 84 50 44 51 89 52 83 53 85 54 45 55 88 56
REMARK SMILES IDX 82 57 81 58 46 60 72 61 55 62 71 63 56 64 59 65 70 66 86 67
REMARK SMILES IDX 57 68 58 69 69 71 87 72 60 73 47 74 48 75 53 76 49 77 50 78
REMARK SMILES IDX 52 79 54 80 51 81 73 82 74 83 79 84 75 85 76 86 78 87 80 88
REMARK SMILES IDX 77 89 61 90 62 91 67 92 63 93 64 94 66 95 68 96 65 97
REMARK H PARENT 28 7 22 33 22 34 35 40 85 59 59 70
REMARK Flexibility Score: inf
ROOT
ATOM      1  C   UNL A   1      39.189  21.623  26.122  1.00  0.00     0.002 C 
ENDROOT
BRANCH   1   2
ATOM      2  C   UNL A   1      39.093  23.153  26.151  1.00  0.00     0.021 C 
BRANCH   2   3
ATOM      3  C   UNL A   1      37.692  23.695  25.887  1.00  0.00     0.116 C 
BRANCH   3   4
ATOM      4  N   UNL A   1      37.260  23.382  24.540  1.00  0.00    -0.356 N 
ATOM      5  C   UNL A   1      36.029  23.356  23.975  1.00  0.00     0.225 C 
ATOM      6  O   UNL A   1      35.965  23.036  22.784  1.00  0.00    -0.275 OA
ATOM      7  H   UNL A   1      37.993  23.147  23.925  1.00  0.00     0.163 HD
BRANCH   5   8
ATOM      8  C   UNL A   1      34.767  23.715  24.734  1.00  0.00     0.107 C 
ATOM      9  C   UNL A   1      33.641  24.335  23.882  1.00  0.00     0.057 C 
ATOM     10  C   UNL A   1      32.358  23.814  24.533  1.00  0.00     0.129 C 
ATOM     11  N   UNL A   1      32.745  22.501  25.031  1.00  0.00    -0.336 N 
ATOM     12  C   UNL A   1      34.143  22.505  25.430  1.00  0.00     0.134 C 
BRANCH   9  13
ATOM     13  C   UNL A   1      33.725  25.829  23.662  1.00  0.00    -0.000 A 
ATOM     14  C   UNL A   1      33.664  26.457  22.409  1.00  0.00     0.122 A 
ATOM     15  C   UNL A   1      33.784  27.846  22.294  1.00  0.00     0.047 A 
ATOM     16  C   UNL A   1      33.957  28.633  23.430  1.00  0.00     0.004 A 
ATOM     17  C   UNL A   1      33.893  26.648  24.798  1.00  0.00     0.008 A 
ATOM     18  C   UNL A   1      34.018  28.035  24.683  1.00  0.00     0.001 A 
BRANCH  14  19
ATOM     19  O   UNL A   1      33.649  25.735  21.248  1.00  0.00    -0.496 OA
ATOM     20  C   UNL A   1      32.341  25.583  20.702  1.00  0.00     0.278 C 
ENDBRANCH  14  19
ENDBRANCH   9  13
BRANCH  11  21
ATOM     21  C   UNL A   1      31.937  21.403  25.289  1.00  0.00     0.272 C 
ATOM     22  O   UNL A   1      30.991  21.453  26.072  1.00  0.00    -0.267 OA
BRANCH  21  23
ATOM     23  C   UNL A   1      32.276  20.109  24.640  1.00  0.00     0.134 A 
ATOM     24  C   UNL A   1      32.753  19.077  25.419  1.00  0.00     0.058 A 
ATOM     25  N   UNL A   1      32.069  20.029  23.313  1.00  0.00    -0.208 NA
ATOM     26  C   UNL A   1      33.095  17.930  24.742  1.00  0.00     0.049 A 
ATOM     27  C   UNL A   1      32.384  18.865  22.756  1.00  0.00     0.220 A 
ATOM     28  N   UNL A   1      32.905  17.819  23.411  1.00  0.00    -0.218 NA
BRANCH  26  29
ATOM     29  C   UNL A   1      33.745  16.755  25.441  1.00  0.00     0.032 C 
ATOM     30  C   UNL A   1      32.861  15.509  25.348  1.00  0.00     0.014 C 
ATOM     31  C   UNL A   1      35.150  16.470  24.907  1.00  0.00     0.014 C 
ENDBRANCH  26  29
BRANCH  27  32
ATOM     32  N   UNL A   1      32.153  18.720  21.420  1.00  0.00    -0.368 N 
ATOM     33  H   UNL A   1      31.631  17.953  21.091  1.00  0.00     0.159 HD
ATOM     34  H   UNL A   1      32.507  19.383  20.784  1.00  0.00     0.159 HD
ENDBRANCH  27  32
ENDBRANCH  21  23
ENDBRANCH  11  21
ENDBRANCH   5   8
ENDBRANCH   3   4
ENDBRANCH   2   3
ENDBRANCH   1   2
BRANCH   1  35
ATOM     35  C   UNL A   1      40.521  21.044  26.611  1.00  0.00     0.002 C 
BRANCH  35  36
ATOM     36  C   UNL A   1      40.987  19.780  25.885  1.00  0.00     0.021 C 
BRANCH  36  37
ATOM     37  C   UNL A   1      42.281  19.181  26.418  1.00  0.00     0.116 C 
BRANCH  37  38
ATOM     38  N   UNL A   1      43.188  18.795  25.353  1.00  0.00    -0.352 N 
ATOM     39  C   UNL A   1      44.047  19.581  24.629  1.00  0.00     0.251 C 
ATOM     40  H   UNL A   1      43.186  17.839  25.119  1.00  0.00     0.163 HD
ATOM     41  O   UNL A   1      44.624  19.126  23.648  1.00  0.00    -0.269 OA
BRANCH  39  42
ATOM     42  C   UNL A   1      44.265  20.987  25.029  1.00  0.00     0.039 A 
ATOM     43  C   UNL A   1      45.086  21.254  26.127  1.00  0.00     0.014 A 
ATOM     44  C   UNL A   1      43.645  22.034  24.341  1.00  0.00     0.014 A 
ATOM     45  C   UNL A   1      45.309  22.575  26.518  1.00  0.00     0.010 A 
ATOM     46  C   UNL A   1      43.924  23.353  24.688  1.00  0.00     0.010 A 
ATOM     47  C   UNL A   1      44.740  23.634  25.794  1.00  0.00    -0.014 A 
BRANCH  47  48
ATOM     48  C   UNL A   1      44.944  25.042  26.213  1.00  0.00     0.031 A 
ATOM     49  C   UNL A   1      46.308  25.666  26.100  1.00  0.00     0.074 A 
ATOM     50  C   UNL A   1      43.919  25.744  26.733  1.00  0.00     0.049 A 
ATOM     51  N   UNL A   1      46.705  26.861  26.454  1.00  0.00    -0.248 NA
ATOM     52  C   UNL A   1      47.377  24.821  25.541  1.00  0.00     0.031 C 
ATOM     53  C   UNL A   1      42.561  25.236  26.935  1.00  0.00     0.029 A 
ATOM     54  N   UNL A   1      43.863  27.036  27.191  1.00  0.00    -0.354 N 
ATOM     55  C   UNL A   1      48.065  26.904  26.182  1.00  0.00     0.074 A 
ATOM     56  C   UNL A   1      48.439  25.599  25.683  1.00  0.00     0.031 C 
ATOM     57  C   UNL A   1      41.800  26.215  27.453  1.00  0.00     0.029 A 
ATOM     58  C   UNL A   1      42.622  27.406  27.645  1.00  0.00     0.049 A 
ATOM     59  H   UNL A   1      44.641  27.640  27.194  1.00  0.00     0.167 HD
ATOM     60  C   UNL A   1      48.923  27.943  26.312  1.00  0.00     0.037 A 
ATOM     61  C   UNL A   1      42.196  28.578  28.153  1.00  0.00     0.037 A 
ATOM     62  C   UNL A   1      48.541  29.252  26.769  1.00  0.00     0.049 A 
ATOM     63  C   UNL A   1      43.162  29.724  28.264  1.00  0.00     0.074 A 
ATOM     64  C   UNL A   1      49.319  30.391  26.877  1.00  0.00     0.029 A 
ATOM     65  N   UNL A   1      47.264  29.599  27.188  1.00  0.00    -0.354 N 
ATOM     66  N   UNL A   1      44.432  29.770  27.943  1.00  0.00    -0.248 NA
ATOM     67  C   UNL A   1      42.630  30.987  28.796  1.00  0.00     0.031 C 
ATOM     68  C   UNL A   1      48.522  31.419  27.394  1.00  0.00     0.029 A 
ATOM     69  C   UNL A   1      47.237  30.929  27.567  1.00  0.00     0.049 A 
ATOM     70  H   UNL A   1      46.493  28.987  27.212  1.00  0.00     0.167 HD
ATOM     71  C   UNL A   1      44.843  31.072  28.202  1.00  0.00     0.074 A 
ATOM     72  C   UNL A   1      43.684  31.785  28.698  1.00  0.00     0.031 C 
ATOM     73  C   UNL A   1      46.069  31.627  28.041  1.00  0.00     0.037 A 
BRANCH  60  74
ATOM     74  C   UNL A   1      50.359  27.704  25.948  1.00  0.00     0.057 A 
ATOM     75  C   UNL A   1      50.805  27.765  24.620  1.00  0.00     0.134 A 
ATOM     76  C   UNL A   1      51.312  27.430  26.937  1.00  0.00     0.134 A 
ATOM     77  F   UNL A   1      49.942  28.008  23.624  1.00  0.00    -0.206 F 
ATOM     78  C   UNL A   1      52.142  27.534  24.288  1.00  0.00     0.040 A 
ATOM     79  C   UNL A   1      52.656  27.225  26.619  1.00  0.00     0.040 A 
ATOM     80  F   UNL A   1      50.954  27.361  28.228  1.00  0.00    -0.206 F 
ATOM     81  C   UNL A   1      53.072  27.269  25.291  1.00  0.00     0.006 A 
ENDBRANCH  60  74
BRANCH  61  82
ATOM     82  C   UNL A   1      40.778  28.740  28.558  1.00  0.00     0.057 A 
ATOM     83  C   UNL A   1      39.801  29.108  27.625  1.00  0.00     0.134 A 
ATOM     84  C   UNL A   1      40.365  28.541  29.880  1.00  0.00     0.134 A 
ATOM     85  F   UNL A   1      40.139  29.329  26.346  1.00  0.00    -0.206 F 
ATOM     86  C   UNL A   1      38.468  29.294  27.995  1.00  0.00     0.040 A 
ATOM     87  C   UNL A   1      39.031  28.700  30.260  1.00  0.00     0.040 A 
ATOM     88  F   UNL A   1      41.251  28.179  30.818  1.00  0.00    -0.206 F 
ATOM     89  C   UNL A   1      38.080  29.085  29.317  1.00  0.00     0.006 A 
ENDBRANCH  61  82
BRANCH  73  90
ATOM     90  C   UNL A   1      46.207  33.086  28.359  1.00  0.00     0.057 A 
ATOM     91  C   UNL A   1      45.982  34.079  27.399  1.00  0.00     0.134 A 
ATOM     92  C   UNL A   1      46.537  33.500  29.657  1.00  0.00     0.134 A 
ATOM     93  F   UNL A   1      45.675  33.747  26.136  1.00  0.00    -0.206 F 
ATOM     94  C   UNL A   1      46.103  35.434  27.711  1.00  0.00     0.040 A 
ATOM     95  C   UNL A   1      46.636  34.852  29.987  1.00  0.00     0.040 A 
ATOM     96  F   UNL A   1      46.756  32.598  30.625  1.00  0.00    -0.206 F 
ATOM     97  C   UNL A   1      46.425  35.823  29.010  1.00  0.00     0.006 A 
ENDBRANCH  73  90
ENDBRANCH  47  48
ENDBRANCH  39  42
ENDBRANCH  37  38
ENDBRANCH  36  37
ENDBRANCH  35  36
ENDBRANCH   1  35
TORSDOF 19
ENDMDL
MODEL 3
REMARK VINA RESULT:     -11.7      2.522      5.273
REMARK SMILES COc1ccccc1[C@@H]1CN(C(=O)c2cc(C(C)C)nc(N)n2)C[C@H]1C(=O)NCCCCCCNC(=O)c1ccc(-c2c3nc(c(-c4c(F)cccc4F)c4ccc([nH]4)c(-c4c(F)cccc4F)c4nc(c(-c5c(F)cccc5F)c5ccc2[nH]5)C=C4)C=C3)cc1
REMARK SMILES IDX 31 1 30 2 29 3 28 4 26 5 27 6 25 8 9 9 10 10 11 11 24 12
REMARK SMILES IDX 8 13 3 14 4 15 5 16 7 17 6 18 2 19 1 20 12 21 13 22 14 23
REMARK SMILES IDX 15 24 23 25 16 26 21 27 20 28 17 29 18 30 19 31 22 32 32 35
REMARK SMILES IDX 33 36 34 37 35 38 36 39 37 41 38 42 39 43 91 44 40 45 90 46
REMARK SMILES IDX 41 47 42 48 43 49 84 50 44 51 89 52 83 53 85 54 45 55 88 56
REMARK SMILES IDX 82 57 81 58 46 60 72 61 55 62 71 63 56 64 59 65 70 66 86 67
REMARK SMILES IDX 57 68 58 69 69 71 87 72 60 73 47 74 48 75 53 76 49 77 50 78
REMARK SMILES IDX 52 79 54 80 51 81 73 82 74 83 79 84 75 85 76 86 78 87 80 88
REMARK SMILES IDX 77 89 61 90 62 91 67 92 63 93 64 94 66 95 68 96 65 97
REMARK H PARENT 28 7 22 33 22 34 35 40 85 59 59 70
REMARK Flexibility Score: inf
ROOT
ATOM      1  C   UNL A   1      39.277  21.758  26.163  1.00  0.00     0.002 C 
ENDROOT
BRANCH   1   2
ATOM      2  C   UNL A   1      39.060  23.274  26.230  1.00  0.00     0.021 C 
BRANCH   2   3
ATOM      3  C   UNL A   1      37.619  23.709  25.978  1.00  0.00     0.116 C 
BRANCH   3   4
ATOM      4  N   UNL A   1      37.220  23.417  24.616  1.00  0.00    -0.356 N 
ATOM      5  C   UNL A   1      36.003  23.404  24.021  1.00  0.00     0.225 C 
ATOM      6  O   UNL A   1      35.967  23.101  22.824  1.00  0.00    -0.275 OA
ATOM      7  H   UNL A   1      37.967  23.187  24.016  1.00  0.00     0.163 HD
BRANCH   5   8
ATOM      8  C   UNL A   1      34.724  23.757  24.753  1.00  0.00     0.107 C 
ATOM      9  C   UNL A   1      33.616  24.379  23.879  1.00  0.00     0.057 C 
ATOM     10  C   UNL A   1      32.319  23.853  24.500  1.00  0.00     0.129 C 
ATOM     11  N   UNL A   1      32.698  22.538  25.000  1.00  0.00    -0.336 N 
ATOM     12  C   UNL A   1      34.086  22.542  25.430  1.00  0.00     0.134 C 
BRANCH   9  13
ATOM     13  C   UNL A   1      33.702  25.875  23.669  1.00  0.00    -0.000 A 
ATOM     14  C   UNL A   1      33.666  26.508  22.417  1.00  0.00     0.122 A 
ATOM     15  C   UNL A   1      33.786  27.898  22.312  1.00  0.00     0.047 A 
ATOM     16  C   UNL A   1      33.934  28.680  23.455  1.00  0.00     0.004 A 
ATOM     17  C   UNL A   1      33.845  26.688  24.812  1.00  0.00     0.008 A 
ATOM     18  C   UNL A   1      33.969  28.075  24.706  1.00  0.00     0.001 A 
BRANCH  14  19
ATOM     19  O   UNL A   1      33.677  25.792  21.253  1.00  0.00    -0.496 OA
ATOM     20  C   UNL A   1      32.370  25.513  20.757  1.00  0.00     0.278 C 
ENDBRANCH  14  19
ENDBRANCH   9  13
BRANCH  11  21
ATOM     21  C   UNL A   1      31.886  21.438  25.235  1.00  0.00     0.272 C 
ATOM     22  O   UNL A   1      30.924  21.482  25.997  1.00  0.00    -0.267 OA
BRANCH  21  23
ATOM     23  C   UNL A   1      32.242  20.147  24.588  1.00  0.00     0.134 A 
ATOM     24  C   UNL A   1      32.673  19.102  25.376  1.00  0.00     0.058 A 
ATOM     25  N   UNL A   1      32.094  20.084  23.252  1.00  0.00    -0.208 NA
ATOM     26  C   UNL A   1      33.034  17.959  24.702  1.00  0.00     0.049 A 
ATOM     27  C   UNL A   1      32.424  18.923  22.696  1.00  0.00     0.220 A 
ATOM     28  N   UNL A   1      32.904  17.865  23.362  1.00  0.00    -0.218 NA
BRANCH  26  29
ATOM     29  C   UNL A   1      33.641  16.770  25.417  1.00  0.00     0.032 C 
ATOM     30  C   UNL A   1      32.729  15.546  25.307  1.00  0.00     0.014 C 
ATOM     31  C   UNL A   1      35.049  16.449  24.913  1.00  0.00     0.014 C 
ENDBRANCH  26  29
BRANCH  27  32
ATOM     32  N   UNL A   1      32.252  18.795  21.350  1.00  0.00    -0.368 N 
ATOM     33  H   UNL A   1      32.950  19.111  20.732  1.00  0.00     0.159 HD
ATOM     34  H   UNL A   1      31.430  18.384  20.995  1.00  0.00     0.159 HD
ENDBRANCH  27  32
ENDBRANCH  21  23
ENDBRANCH  11  21
ENDBRANCH   5   8
ENDBRANCH   3   4
ENDBRANCH   2   3
ENDBRANCH   1   2
BRANCH   1  35
ATOM     35  C   UNL A   1      40.714  21.294  26.421  1.00  0.00     0.002 C 
BRANCH  35  36
ATOM     36  C   UNL A   1      40.999  19.831  26.073  1.00  0.00     0.021 C 
BRANCH  36  37
ATOM     37  C   UNL A   1      42.376  19.334  26.489  1.00  0.00     0.116 C 
BRANCH  37  38
ATOM     38  N   UNL A   1      43.200  18.976  25.350  1.00  0.00    -0.352 N 
ATOM     39  C   UNL A   1      44.033  19.774  24.608  1.00  0.00     0.251 C 
ATOM     40  H   UNL A   1      43.156  18.033  25.073  1.00  0.00     0.163 HD
ATOM     41  O   UNL A   1      44.531  19.352  23.570  1.00  0.00    -0.269 OA
BRANCH  39  42
ATOM     42  C   UNL A   1      44.317  21.154  25.057  1.00  0.00     0.039 A 
ATOM     43  C   UNL A   1      43.873  22.219  24.271  1.00  0.00     0.014 A 
ATOM     44  C   UNL A   1      45.035  21.394  26.231  1.00  0.00     0.014 A 
ATOM     45  C   UNL A   1      44.126  23.531  24.678  1.00  0.00     0.010 A 
ATOM     46  C   UNL A   1      45.225  22.701  26.672  1.00  0.00     0.010 A 
ATOM     47  C   UNL A   1      44.792  23.780  25.889  1.00  0.00    -0.014 A 
BRANCH  47  48
ATOM     48  C   UNL A   1      45.093  25.166  26.322  1.00  0.00     0.031 A 
ATOM     49  C   UNL A   1      43.999  26.024  26.895  1.00  0.00     0.074 A 
ATOM     50  C   UNL A   1      46.333  25.666  26.162  1.00  0.00     0.049 A 
ATOM     51  N   UNL A   1      44.045  27.272  27.288  1.00  0.00    -0.248 NA
ATOM     52  C   UNL A   1      42.668  25.407  27.014  1.00  0.00     0.031 C 
ATOM     53  C   UNL A   1      47.467  24.948  25.578  1.00  0.00     0.029 A 
ATOM     54  N   UNL A   1      46.845  26.900  26.474  1.00  0.00    -0.354 N 
ATOM     55  C   UNL A   1      42.751  27.592  27.679  1.00  0.00     0.074 A 
ATOM     56  C   UNL A   1      41.932  26.427  27.427  1.00  0.00     0.031 C 
ATOM     57  C   UNL A   1      48.548  25.746  25.598  1.00  0.00     0.029 A 
ATOM     58  C   UNL A   1      48.176  27.037  26.167  1.00  0.00     0.049 A 
ATOM     59  H   UNL A   1      46.308  27.619  26.879  1.00  0.00     0.167 HD
ATOM     60  C   UNL A   1      42.291  28.744  28.222  1.00  0.00     0.037 A 
ATOM     61  C   UNL A   1      49.003  28.087  26.334  1.00  0.00     0.037 A 
ATOM     62  C   UNL A   1      43.116  29.886  28.510  1.00  0.00     0.049 A 
ATOM     63  C   UNL A   1      48.474  29.346  26.962  1.00  0.00     0.074 A 
ATOM     64  C   UNL A   1      42.760  31.077  29.117  1.00  0.00     0.029 A 
ATOM     65  N   UNL A   1      44.469  29.975  28.216  1.00  0.00    -0.354 N 
ATOM     66  N   UNL A   1      47.262  29.613  27.386  1.00  0.00    -0.248 NA
ATOM     67  C   UNL A   1      49.431  30.445  27.147  1.00  0.00     0.031 C 
ATOM     68  C   UNL A   1      43.891  31.901  29.159  1.00  0.00     0.029 A 
ATOM     69  C   UNL A   1      44.959  31.205  28.617  1.00  0.00     0.049 A 
ATOM     70  H   UNL A   1      45.000  29.267  27.785  1.00  0.00     0.167 HD
ATOM     71  C   UNL A   1      47.319  30.895  27.917  1.00  0.00     0.074 A 
ATOM     72  C   UNL A   1      48.687  31.348  27.770  1.00  0.00     0.031 C 
ATOM     73  C   UNL A   1      46.329  31.631  28.479  1.00  0.00     0.037 A 
BRANCH  60  74
ATOM     74  C   UNL A   1      40.827  28.819  28.545  1.00  0.00     0.057 A 
ATOM     75  C   UNL A   1      40.345  28.608  29.844  1.00  0.00     0.134 A 
ATOM     76  C   UNL A   1      39.890  29.126  27.550  1.00  0.00     0.134 A 
ATOM     77  F   UNL A   1      41.187  28.295  30.839  1.00  0.00    -0.206 F 
ATOM     78  C   UNL A   1      38.981  28.672  30.135  1.00  0.00     0.040 A 
ATOM     79  C   UNL A   1      38.527  29.221  27.836  1.00  0.00     0.040 A 
ATOM     80  F   UNL A   1      40.284  29.344  26.287  1.00  0.00    -0.206 F 
ATOM     81  C   UNL A   1      38.068  28.986  29.130  1.00  0.00     0.006 A 
ENDBRANCH  60  74
BRANCH  61  82
ATOM     82  C   UNL A   1      50.429  27.980  25.937  1.00  0.00     0.057 A 
ATOM     83  C   UNL A   1      51.432  27.812  26.899  1.00  0.00     0.134 A 
ATOM     84  C   UNL A   1      50.824  28.051  24.597  1.00  0.00     0.134 A 
ATOM     85  F   UNL A   1      51.115  27.754  28.201  1.00  0.00    -0.206 F 
ATOM     86  C   UNL A   1      52.780  27.739  26.546  1.00  0.00     0.040 A 
ATOM     87  C   UNL A   1      52.167  27.955  24.226  1.00  0.00     0.040 A 
ATOM     88  F   UNL A   1      49.910  28.202  23.629  1.00  0.00    -0.206 F 
ATOM     89  C   UNL A   1      53.150  27.807  25.204  1.00  0.00     0.006 A 
ENDBRANCH  61  82
BRANCH  73  90
ATOM     90  C   UNL A   1      46.699  32.980  29.018  1.00  0.00     0.057 A 
ATOM     91  C   UNL A   1      47.150  33.156  30.330  1.00  0.00     0.134 A 
ATOM     92  C   UNL A   1      46.635  34.113  28.196  1.00  0.00     0.134 A 
ATOM     93  F   UNL A   1      47.223  32.113  31.171  1.00  0.00    -0.206 F 
ATOM     94  C   UNL A   1      47.502  34.416  30.817  1.00  0.00     0.040 A 
ATOM     95  C   UNL A   1      47.008  35.374  28.662  1.00  0.00     0.040 A 
ATOM     96  F   UNL A   1      46.219  34.010  26.924  1.00  0.00    -0.206 F 
ATOM     97  C   UNL A   1      47.438  35.529  29.979  1.00  0.00     0.006 A 
ENDBRANCH  73  90
ENDBRANCH  47  48
ENDBRANCH  39  42
ENDBRANCH  37  38
ENDBRANCH  36  37
ENDBRANCH  35  36
ENDBRANCH   1  35
TORSDOF 19
ENDMDL
