MODEL 1
REMARK VINA RESULT:     -11.6      0.000      0.000
REMARK SMILES O=C(CC1CCN(S(=O)(=O)c2cc[nH]c2)CC1)NCCCCCCNC(=O)c1ccc(-c2c3nc(c(-c4c(F)cccc4F)c4ccc([nH]4)c(-c4c(F)cccc4F)c4nc(c(-c5c(F)cccc5F)c5ccc2[nH]5)C=C4)C=C3)cc1
REMARK SMILES IDX 21 1 20 2 19 3 18 4 1 5 2 6 3 8 4 9 5 10 17 11 6 12 16 13
REMARK SMILES IDX 7 14 8 15 9 16 10 17 11 18 12 19 15 20 13 21 14 22 22 24
REMARK SMILES IDX 23 25 24 26 25 27 26 28 27 30 28 31 29 32 81 33 30 34 80 35
REMARK SMILES IDX 31 36 32 37 33 38 74 39 34 40 79 41 73 42 75 43 35 44 78 45
REMARK SMILES IDX 72 46 71 47 36 49 62 50 45 51 61 52 46 53 49 54 60 55 76 56
REMARK SMILES IDX 47 57 48 58 59 60 77 61 50 62 37 63 38 64 43 65 39 66 40 67
REMARK SMILES IDX 42 68 44 69 41 70 63 71 64 72 69 73 65 74 66 75 68 76 70 77
REMARK SMILES IDX 67 78 51 79 52 80 57 81 53 82 54 83 56 84 58 85 55 86
REMARK H PARENT 18 7 14 23 25 29 75 48 49 59
REMARK Flexibility Score: inf
ROOT
ATOM      1  C   UNL A   1      32.528  30.038  27.210  1.00  0.00     0.002 C 
ENDROOT
BRANCH   1   2
ATOM      2  C   UNL A   1      33.549  29.208  26.420  1.00  0.00     0.021 C 
BRANCH   2   3
ATOM      3  C   UNL A   1      32.950  28.310  25.338  1.00  0.00     0.116 C 
BRANCH   3   4
ATOM      4  N   UNL A   1      33.335  26.926  25.519  1.00  0.00    -0.356 N 
ATOM      5  O   UNL A   1      31.530  26.314  26.805  1.00  0.00    -0.275 OA
ATOM      6  C   UNL A   1      32.565  26.024  26.219  1.00  0.00     0.220 C 
ATOM      7  H   UNL A   1      34.183  26.616  25.126  1.00  0.00     0.163 HD
BRANCH   6   8
ATOM      8  C   UNL A   1      33.092  24.605  26.127  1.00  0.00     0.103 C 
BRANCH   8   9
ATOM      9  C   UNL A   1      32.274  23.582  26.945  1.00  0.00     0.001 C 
ATOM     10  C   UNL A   1      33.180  22.544  27.622  1.00  0.00     0.021 C 
ATOM     11  C   UNL A   1      31.202  22.807  26.179  1.00  0.00     0.021 C 
ATOM     12  C   UNL A   1      33.787  21.552  26.630  1.00  0.00     0.103 C 
ATOM     13  C   UNL A   1      31.765  21.802  25.187  1.00  0.00     0.103 C 
ATOM     14  N   UNL A   1      32.751  20.869  25.786  1.00  0.00    -0.198 NA
BRANCH  14  15
ATOM     15  S   UNL A   1      33.537  19.853  24.618  1.00  0.00     0.244 S 
ATOM     16  O   UNL A   1      32.790  19.982  23.385  1.00  0.00    -0.207 OA
ATOM     17  O   UNL A   1      34.957  20.143  24.670  1.00  0.00    -0.207 OA
BRANCH  15  18
ATOM     18  C   UNL A   1      33.418  18.162  24.986  1.00  0.00     0.100 A 
ATOM     19  C   UNL A   1      34.282  17.135  24.529  1.00  0.00     0.041 A 
ATOM     20  C   UNL A   1      32.558  17.573  25.894  1.00  0.00     0.104 A 
ATOM     21  C   UNL A   1      33.944  15.969  25.177  1.00  0.00     0.083 A 
ATOM     22  N   UNL A   1      32.889  16.245  26.005  1.00  0.00    -0.366 N 
ATOM     23  H   UNL A   1      32.438  15.593  26.590  1.00  0.00     0.165 HD
ENDBRANCH  15  18
ENDBRANCH  14  15
ENDBRANCH   8   9
ENDBRANCH   6   8
ENDBRANCH   3   4
ENDBRANCH   2   3
ENDBRANCH   1   2
BRANCH   1  24
ATOM     24  C   UNL A   1      31.493  30.781  26.365  1.00  0.00     0.002 C 
BRANCH  24  25
ATOM     25  C   UNL A   1      31.392  32.291  26.595  1.00  0.00     0.021 C 
BRANCH  25  26
ATOM     26  C   UNL A   1      32.629  32.874  27.274  1.00  0.00     0.116 C 
BRANCH  26  27
ATOM     27  N   UNL A   1      32.430  34.270  27.642  1.00  0.00    -0.352 N 
ATOM     28  C   UNL A   1      33.006  34.981  28.663  1.00  0.00     0.251 C 
ATOM     29  H   UNL A   1      31.793  34.772  27.081  1.00  0.00     0.163 HD
ATOM     30  O   UNL A   1      32.519  36.043  29.038  1.00  0.00    -0.269 OA
BRANCH  28  31
ATOM     31  C   UNL A   1      34.209  34.451  29.328  1.00  0.00     0.039 A 
ATOM     32  C   UNL A   1      34.074  33.848  30.582  1.00  0.00     0.014 A 
ATOM     33  C   UNL A   1      35.463  34.580  28.721  1.00  0.00     0.014 A 
ATOM     34  C   UNL A   1      35.192  33.296  31.194  1.00  0.00     0.010 A 
ATOM     35  C   UNL A   1      36.574  34.001  29.313  1.00  0.00     0.010 A 
ATOM     36  C   UNL A   1      36.430  33.343  30.540  1.00  0.00    -0.014 A 
BRANCH  36  37
ATOM     37  C   UNL A   1      37.564  32.578  31.099  1.00  0.00     0.031 A 
ATOM     38  C   UNL A   1      37.797  31.253  30.341  1.00  0.00     0.074 A 
ATOM     39  C   UNL A   1      38.197  33.158  32.163  1.00  0.00     0.049 A 
ATOM     40  N   UNL A   1      38.365  30.150  30.723  1.00  0.00    -0.248 NA
ATOM     41  C   UNL A   1      37.264  31.116  28.954  1.00  0.00     0.031 C 
ATOM     42  C   UNL A   1      37.841  34.481  32.722  1.00  0.00     0.029 A 
ATOM     43  N   UNL A   1      39.239  32.789  32.988  1.00  0.00    -0.354 N 
ATOM     44  C   UNL A   1      38.439  29.288  29.600  1.00  0.00     0.074 A 
ATOM     45  C   UNL A   1      37.646  29.894  28.577  1.00  0.00     0.031 C 
ATOM     46  C   UNL A   1      38.580  34.760  33.814  1.00  0.00     0.029 A 
ATOM     47  C   UNL A   1      39.486  33.664  34.082  1.00  0.00     0.049 A 
ATOM     48  H   UNL A   1      39.774  31.978  32.831  1.00  0.00     0.167 HD
ATOM     49  C   UNL A   1      39.256  28.191  29.546  1.00  0.00     0.037 A 
ATOM     50  C   UNL A   1      40.317  33.491  35.158  1.00  0.00     0.037 A 
ATOM     51  C   UNL A   1      39.936  28.036  30.785  1.00  0.00     0.049 A 
ATOM     52  C   UNL A   1      41.050  32.250  34.875  1.00  0.00     0.074 A 
ATOM     53  C   UNL A   1      39.524  27.591  32.012  1.00  0.00     0.029 A 
ATOM     54  N   UNL A   1      41.133  28.693  30.921  1.00  0.00    -0.354 N 
ATOM     55  N   UNL A   1      41.989  32.136  33.984  1.00  0.00    -0.248 NA
ATOM     56  C   UNL A   1      40.631  31.013  35.544  1.00  0.00     0.031 C 
ATOM     57  C   UNL A   1      40.241  28.405  32.911  1.00  0.00     0.029 A 
ATOM     58  C   UNL A   1      41.200  29.149  32.214  1.00  0.00     0.049 A 
ATOM     59  H   UNL A   1      41.816  28.814  30.223  1.00  0.00     0.167 HD
ATOM     60  C   UNL A   1      42.013  30.781  33.754  1.00  0.00     0.074 A 
ATOM     61  C   UNL A   1      41.429  30.153  34.918  1.00  0.00     0.031 C 
ATOM     62  C   UNL A   1      42.011  30.315  32.480  1.00  0.00     0.037 A 
BRANCH  49  63
ATOM     63  C   UNL A   1      39.716  27.309  28.415  1.00  0.00     0.057 A 
ATOM     64  C   UNL A   1      39.600  25.904  28.567  1.00  0.00     0.134 A 
ATOM     65  C   UNL A   1      40.561  27.736  27.387  1.00  0.00     0.134 A 
ATOM     66  F   UNL A   1      38.770  25.373  29.481  1.00  0.00    -0.206 F 
ATOM     67  C   UNL A   1      40.383  24.996  27.849  1.00  0.00     0.040 A 
ATOM     68  C   UNL A   1      41.318  26.829  26.627  1.00  0.00     0.040 A 
ATOM     69  F   UNL A   1      40.756  29.037  27.140  1.00  0.00    -0.206 F 
ATOM     70  C   UNL A   1      41.265  25.461  26.888  1.00  0.00     0.006 A 
ENDBRANCH  49  63
BRANCH  50  71
ATOM     71  C   UNL A   1      40.558  34.132  36.508  1.00  0.00     0.057 A 
ATOM     72  C   UNL A   1      41.748  34.718  36.949  1.00  0.00     0.134 A 
ATOM     73  C   UNL A   1      39.485  34.262  37.434  1.00  0.00     0.134 A 
ATOM     74  F   UNL A   1      42.894  34.564  36.282  1.00  0.00    -0.206 F 
ATOM     75  C   UNL A   1      41.825  35.483  38.132  1.00  0.00     0.040 A 
ATOM     76  C   UNL A   1      39.534  35.051  38.589  1.00  0.00     0.040 A 
ATOM     77  F   UNL A   1      38.317  33.629  37.261  1.00  0.00    -0.206 F 
ATOM     78  C   UNL A   1      40.706  35.690  38.931  1.00  0.00     0.006 A 
ENDBRANCH  50  71
BRANCH  62  79
ATOM     79  C   UNL A   1      42.528  31.310  31.456  1.00  0.00     0.057 A 
ATOM     80  C   UNL A   1      43.878  31.687  31.467  1.00  0.00     0.134 A 
ATOM     81  C   UNL A   1      41.718  32.008  30.547  1.00  0.00     0.134 A 
ATOM     82  F   UNL A   1      44.743  31.069  32.286  1.00  0.00    -0.206 F 
ATOM     83  C   UNL A   1      44.377  32.712  30.650  1.00  0.00     0.040 A 
ATOM     84  C   UNL A   1      42.200  33.028  29.716  1.00  0.00     0.040 A 
ATOM     85  F   UNL A   1      40.422  31.730  30.432  1.00  0.00    -0.206 F 
ATOM     86  C   UNL A   1      43.536  33.393  29.774  1.00  0.00     0.006 A 
ENDBRANCH  62  79
ENDBRANCH  36  37
ENDBRANCH  28  31
ENDBRANCH  26  27
ENDBRANCH  25  26
ENDBRANCH  24  25
ENDBRANCH   1  24
TORSDOF 16
ENDMDL
MODEL 2
REMARK VINA RESULT:     -11.4      3.685      5.519
REMARK SMILES O=C(CC1CCN(S(=O)(=O)c2cc[nH]c2)CC1)NCCCCCCNC(=O)c1ccc(-c2c3nc(c(-c4c(F)cccc4F)c4ccc([nH]4)c(-c4c(F)cccc4F)c4nc(c(-c5c(F)cccc5F)c5ccc2[nH]5)C=C4)C=C3)cc1
REMARK SMILES IDX 21 1 20 2 19 3 18 4 1 5 2 6 3 8 4 9 5 10 17 11 6 12 16 13
REMARK SMILES IDX 7 14 8 15 9 16 10 17 11 18 12 19 15 20 13 21 14 22 22 24
REMARK SMILES IDX 23 25 24 26 25 27 26 28 27 30 28 31 29 32 81 33 30 34 80 35
REMARK SMILES IDX 31 36 32 37 33 38 74 39 34 40 79 41 73 42 75 43 35 44 78 45
REMARK SMILES IDX 72 46 71 47 36 49 62 50 45 51 61 52 46 53 49 54 60 55 76 56
REMARK SMILES IDX 47 57 48 58 59 60 77 61 50 62 37 63 38 64 43 65 39 66 40 67
REMARK SMILES IDX 42 68 44 69 41 70 63 71 64 72 69 73 65 74 66 75 68 76 70 77
REMARK SMILES IDX 67 78 51 79 52 80 57 81 53 82 54 83 56 84 58 85 55 86
REMARK H PARENT 18 7 14 23 25 29 75 48 49 59
REMARK Flexibility Score: inf
ROOT
ATOM      1  C   UNL A   1      32.198  29.412  25.137  1.00  0.00     0.002 C 
ENDROOT
BRANCH   1   2
ATOM      2  C   UNL A   1      30.948  30.093  24.564  1.00  0.00     0.021 C 
BRANCH   2   3
ATOM      3  C   UNL A   1      30.228  29.303  23.471  1.00  0.00     0.116 C 
BRANCH   3   4
ATOM      4  N   UNL A   1      29.934  27.950  23.895  1.00  0.00    -0.356 N 
ATOM      5  O   UNL A   1      31.147  26.889  22.255  1.00  0.00    -0.275 OA
ATOM      6  C   UNL A   1      30.452  26.842  23.262  1.00  0.00     0.220 C 
ATOM      7  H   UNL A   1      29.337  27.816  24.667  1.00  0.00     0.163 HD
BRANCH   6   8
ATOM      8  C   UNL A   1      30.137  25.549  23.989  1.00  0.00     0.103 C 
BRANCH   8   9
ATOM      9  C   UNL A   1      30.898  25.383  25.322  1.00  0.00     0.001 C 
ATOM     10  C   UNL A   1      32.418  25.475  25.122  1.00  0.00     0.021 C 
ATOM     11  C   UNL A   1      30.629  24.094  26.099  1.00  0.00     0.021 C 
ATOM     12  C   UNL A   1      32.997  24.248  24.418  1.00  0.00     0.103 C 
ATOM     13  C   UNL A   1      31.196  22.850  25.436  1.00  0.00     0.103 C 
ATOM     14  N   UNL A   1      32.638  22.963  25.104  1.00  0.00    -0.198 NA
BRANCH  14  15
ATOM     15  S   UNL A   1      33.238  21.625  24.175  1.00  0.00     0.244 S 
ATOM     16  O   UNL A   1      32.474  21.594  22.946  1.00  0.00    -0.207 OA
ATOM     17  O   UNL A   1      34.686  21.718  24.156  1.00  0.00    -0.207 OA
BRANCH  15  18
ATOM     18  C   UNL A   1      32.906  20.082  24.894  1.00  0.00     0.100 A 
ATOM     19  C   UNL A   1      32.535  18.894  24.215  1.00  0.00     0.041 A 
ATOM     20  C   UNL A   1      33.093  19.731  26.219  1.00  0.00     0.104 A 
ATOM     21  C   UNL A   1      32.525  17.864  25.126  1.00  0.00     0.083 A 
ATOM     22  N   UNL A   1      32.864  18.384  26.347  1.00  0.00    -0.366 N 
ATOM     23  H   UNL A   1      32.933  17.872  27.185  1.00  0.00     0.165 HD
ENDBRANCH  15  18
ENDBRANCH  14  15
ENDBRANCH   8   9
ENDBRANCH   6   8
ENDBRANCH   3   4
ENDBRANCH   2   3
ENDBRANCH   1   2
BRANCH   1  24
ATOM     24  C   UNL A   1      32.360  29.509  26.655  1.00  0.00     0.002 C 
BRANCH  24  25
ATOM     25  C   UNL A   1      33.382  28.561  27.286  1.00  0.00     0.021 C 
BRANCH  25  26
ATOM     26  C   UNL A   1      34.818  28.872  26.875  1.00  0.00     0.116 C 
BRANCH  26  27
ATOM     27  N   UNL A   1      35.178  30.250  27.186  1.00  0.00    -0.352 N 
ATOM     28  C   UNL A   1      36.239  30.717  27.918  1.00  0.00     0.251 C 
ATOM     29  H   UNL A   1      34.577  30.941  26.821  1.00  0.00     0.163 HD
ATOM     30  O   UNL A   1      36.241  31.865  28.352  1.00  0.00    -0.269 OA
BRANCH  28  31
ATOM     31  C   UNL A   1      37.374  29.823  28.205  1.00  0.00     0.039 A 
ATOM     32  C   UNL A   1      38.456  29.803  27.320  1.00  0.00     0.014 A 
ATOM     33  C   UNL A   1      37.346  28.991  29.330  1.00  0.00     0.014 A 
ATOM     34  C   UNL A   1      39.556  29.005  27.610  1.00  0.00     0.010 A 
ATOM     35  C   UNL A   1      38.455  28.220  29.639  1.00  0.00     0.010 A 
ATOM     36  C   UNL A   1      39.565  28.244  28.787  1.00  0.00    -0.014 A 
BRANCH  36  37
ATOM     37  C   UNL A   1      40.813  27.563  29.188  1.00  0.00     0.031 A 
ATOM     38  C   UNL A   1      41.118  26.341  28.293  1.00  0.00     0.074 A 
ATOM     39  C   UNL A   1      41.468  28.115  30.253  1.00  0.00     0.049 A 
ATOM     40  N   UNL A   1      41.826  25.278  28.528  1.00  0.00    -0.248 NA
ATOM     41  C   UNL A   1      40.489  26.267  26.942  1.00  0.00     0.031 C 
ATOM     42  C   UNL A   1      41.026  29.339  30.958  1.00  0.00     0.029 A 
ATOM     43  N   UNL A   1      42.606  27.793  30.962  1.00  0.00    -0.354 N 
ATOM     44  C   UNL A   1      41.895  24.529  27.327  1.00  0.00     0.074 A 
ATOM     45  C   UNL A   1      40.963  25.130  26.425  1.00  0.00     0.031 C 
ATOM     46  C   UNL A   1      41.819  29.602  32.015  1.00  0.00     0.029 A 
ATOM     47  C   UNL A   1      42.851  28.593  32.113  1.00  0.00     0.049 A 
ATOM     48  H   UNL A   1      43.207  27.062  30.691  1.00  0.00     0.167 HD
ATOM     49  C   UNL A   1      42.813  23.537  27.111  1.00  0.00     0.037 A 
ATOM     50  C   UNL A   1      43.781  28.420  33.105  1.00  0.00     0.037 A 
ATOM     51  C   UNL A   1      43.605  23.352  28.278  1.00  0.00     0.049 A 
ATOM     52  C   UNL A   1      44.612  27.296  32.654  1.00  0.00     0.074 A 
ATOM     53  C   UNL A   1      43.342  22.761  29.484  1.00  0.00     0.029 A 
ATOM     54  N   UNL A   1      44.735  24.122  28.388  1.00  0.00    -0.354 N 
ATOM     55  N   UNL A   1      45.481  27.362  31.691  1.00  0.00    -0.248 NA
ATOM     56  C   UNL A   1      44.379  25.968  33.232  1.00  0.00     0.031 C 
ATOM     57  C   UNL A   1      44.043  23.568  30.401  1.00  0.00     0.029 A 
ATOM     58  C   UNL A   1      44.861  24.470  29.710  1.00  0.00     0.049 A 
ATOM     59  H   UNL A   1      45.342  24.376  27.656  1.00  0.00     0.167 HD
ATOM     60  C   UNL A   1      45.625  26.043  31.333  1.00  0.00     0.074 A 
ATOM     61  C   UNL A   1      45.206  25.257  32.472  1.00  0.00     0.031 C 
ATOM     62  C   UNL A   1      45.567  25.691  30.025  1.00  0.00     0.037 A 
BRANCH  49  63
ATOM     63  C   UNL A   1      43.266  22.811  25.872  1.00  0.00     0.057 A 
ATOM     64  C   UNL A   1      43.358  21.397  25.916  1.00  0.00     0.134 A 
ATOM     65  C   UNL A   1      43.934  23.425  24.808  1.00  0.00     0.134 A 
ATOM     66  F   UNL A   1      42.708  20.690  26.855  1.00  0.00    -0.206 F 
ATOM     67  C   UNL A   1      44.176  20.663  25.053  1.00  0.00     0.040 A 
ATOM     68  C   UNL A   1      44.722  22.691  23.907  1.00  0.00     0.040 A 
ATOM     69  F   UNL A   1      43.925  24.755  24.654  1.00  0.00    -0.206 F 
ATOM     70  C   UNL A   1      44.883  21.315  24.056  1.00  0.00     0.006 A 
ENDBRANCH  49  63
BRANCH  50  71
ATOM     71  C   UNL A   1      44.065  28.966  34.488  1.00  0.00     0.057 A 
ATOM     72  C   UNL A   1      45.242  29.592  34.909  1.00  0.00     0.134 A 
ATOM     73  C   UNL A   1      43.045  28.950  35.481  1.00  0.00     0.134 A 
ATOM     74  F   UNL A   1      46.352  29.568  34.168  1.00  0.00    -0.206 F 
ATOM     75  C   UNL A   1      45.344  30.263  36.146  1.00  0.00     0.040 A 
ATOM     76  C   UNL A   1      43.117  29.646  36.693  1.00  0.00     0.040 A 
ATOM     77  F   UNL A   1      41.909  28.258  35.321  1.00  0.00    -0.206 F 
ATOM     78  C   UNL A   1      44.266  30.331  37.021  1.00  0.00     0.006 A 
ENDBRANCH  50  71
BRANCH  62  79
ATOM     79  C   UNL A   1      45.893  26.821  29.064  1.00  0.00     0.057 A 
ATOM     80  C   UNL A   1      47.191  27.347  29.018  1.00  0.00     0.134 A 
ATOM     81  C   UNL A   1      44.945  27.496  28.279  1.00  0.00     0.134 A 
ATOM     82  F   UNL A   1      48.178  26.764  29.716  1.00  0.00    -0.206 F 
ATOM     83  C   UNL A   1      47.513  28.486  28.267  1.00  0.00     0.040 A 
ATOM     84  C   UNL A   1      45.249  28.630  27.516  1.00  0.00     0.040 A 
ATOM     85  F   UNL A   1      43.681  27.083  28.228  1.00  0.00    -0.206 F 
ATOM     86  C   UNL A   1      46.539  29.138  27.517  1.00  0.00     0.006 A 
ENDBRANCH  62  79
ENDBRANCH  36  37
ENDBRANCH  28  31
ENDBRANCH  26  27
ENDBRANCH  25  26
ENDBRANCH  24  25
ENDBRANCH   1  24
TORSDOF 16
ENDMDL
MODEL 3
REMARK VINA RESULT:     -11.0      2.959      7.564
REMARK SMILES O=C(CC1CCN(S(=O)(=O)c2cc[nH]c2)CC1)NCCCCCCNC(=O)c1ccc(-c2c3nc(c(-c4c(F)cccc4F)c4ccc([nH]4)c(-c4c(F)cccc4F)c4nc(c(-c5c(F)cccc5F)c5ccc2[nH]5)C=C4)C=C3)cc1
REMARK SMILES IDX 21 1 20 2 19 3 18 4 1 5 2 6 3 8 4 9 5 10 17 11 6 12 16 13
REMARK SMILES IDX 7 14 8 15 9 16 10 17 11 18 12 19 15 20 13 21 14 22 22 24
REMARK SMILES IDX 23 25 24 26 25 27 26 28 27 30 28 31 29 32 81 33 30 34 80 35
REMARK SMILES IDX 31 36 32 37 33 38 74 39 34 40 79 41 73 42 75 43 35 44 78 45
REMARK SMILES IDX 72 46 71 47 36 49 62 50 45 51 61 52 46 53 49 54 60 55 76 56
REMARK SMILES IDX 47 57 48 58 59 60 77 61 50 62 37 63 38 64 43 65 39 66 40 67
REMARK SMILES IDX 42 68 44 69 41 70 63 71 64 72 69 73 65 74 66 75 68 76 70 77
REMARK SMILES IDX 67 78 51 79 52 80 57 81 53 82 54 83 56 84 58 85 55 86
REMARK H PARENT 18 7 14 23 25 29 75 48 49 59
REMARK Flexibility Score: inf
ROOT
ATOM      1  C   UNL A   1      31.003  29.596  24.222  1.00  0.00     0.002 C 
ENDROOT
BRANCH   1   2
ATOM      2  C   UNL A   1      30.366  28.212  24.040  1.00  0.00     0.021 C 
BRANCH   2   3
ATOM      3  C   UNL A   1      30.939  27.385  22.889  1.00  0.00     0.116 C 
BRANCH   3   4
ATOM      4  N   UNL A   1      31.810  26.333  23.369  1.00  0.00    -0.356 N 
ATOM      5  O   UNL A   1      33.794  27.392  22.891  1.00  0.00    -0.275 OA
ATOM      6  C   UNL A   1      33.183  26.440  23.360  1.00  0.00     0.220 C 
ATOM      7  H   UNL A   1      31.404  25.505  23.716  1.00  0.00     0.163 HD
BRANCH   6   8
ATOM      8  C   UNL A   1      33.868  25.285  24.065  1.00  0.00     0.103 C 
BRANCH   8   9
ATOM      9  C   UNL A   1      34.433  24.217  23.105  1.00  0.00     0.001 C 
ATOM     10  C   UNL A   1      33.315  23.386  22.460  1.00  0.00     0.021 C 
ATOM     11  C   UNL A   1      35.432  23.228  23.706  1.00  0.00     0.021 C 
ATOM     12  C   UNL A   1      32.649  22.424  23.445  1.00  0.00     0.103 C 
ATOM     13  C   UNL A   1      34.809  22.247  24.685  1.00  0.00     0.103 C 
ATOM     14  N   UNL A   1      33.635  21.526  24.133  1.00  0.00    -0.198 NA
BRANCH  14  15
ATOM     15  S   UNL A   1      32.807  20.554  25.309  1.00  0.00     0.244 S 
ATOM     16  O   UNL A   1      33.596  20.604  26.521  1.00  0.00    -0.207 OA
ATOM     17  O   UNL A   1      31.412  20.954  25.304  1.00  0.00    -0.207 OA
BRANCH  15  18
ATOM     18  C   UNL A   1      32.783  18.866  24.914  1.00  0.00     0.100 A 
ATOM     19  C   UNL A   1      32.792  17.782  25.828  1.00  0.00     0.041 A 
ATOM     20  C   UNL A   1      32.603  18.314  23.658  1.00  0.00     0.104 A 
ATOM     21  C   UNL A   1      32.600  16.620  25.119  1.00  0.00     0.083 A 
ATOM     22  N   UNL A   1      32.488  16.953  23.795  1.00  0.00    -0.366 N 
ATOM     23  H   UNL A   1      32.348  16.316  23.057  1.00  0.00     0.165 HD
ENDBRANCH  15  18
ENDBRANCH  14  15
ENDBRANCH   8   9
ENDBRANCH   6   8
ENDBRANCH   3   4
ENDBRANCH   2   3
ENDBRANCH   1   2
BRANCH   1  24
ATOM     24  C   UNL A   1      31.631  29.854  25.593  1.00  0.00     0.002 C 
BRANCH  24  25
ATOM     25  C   UNL A   1      32.268  28.644  26.281  1.00  0.00     0.021 C 
BRANCH  25  26
ATOM     26  C   UNL A   1      33.443  29.020  27.179  1.00  0.00     0.116 C 
BRANCH  26  27
ATOM     27  N   UNL A   1      33.420  30.436  27.528  1.00  0.00    -0.352 N 
ATOM     28  C   UNL A   1      34.326  31.155  28.263  1.00  0.00     0.251 C 
ATOM     29  H   UNL A   1      32.646  30.945  27.190  1.00  0.00     0.163 HD
ATOM     30  O   UNL A   1      34.024  32.248  28.731  1.00  0.00    -0.269 OA
BRANCH  28  31
ATOM     31  C   UNL A   1      35.667  30.597  28.511  1.00  0.00     0.039 A 
ATOM     32  C   UNL A   1      36.578  30.540  27.452  1.00  0.00     0.014 A 
ATOM     33  C   UNL A   1      36.001  30.110  29.779  1.00  0.00     0.014 A 
ATOM     34  C   UNL A   1      37.863  30.067  27.688  1.00  0.00     0.010 A 
ATOM     35  C   UNL A   1      37.292  29.669  30.025  1.00  0.00     0.010 A 
ATOM     36  C   UNL A   1      38.225  29.667  28.982  1.00  0.00    -0.014 A 
BRANCH  36  37
ATOM     37  C   UNL A   1      39.642  29.363  29.266  1.00  0.00     0.031 A 
ATOM     38  C   UNL A   1      40.411  30.605  29.768  1.00  0.00     0.074 A 
ATOM     39  C   UNL A   1      40.022  28.069  29.043  1.00  0.00     0.049 A 
ATOM     40  N   UNL A   1      41.678  30.884  29.734  1.00  0.00    -0.248 NA
ATOM     41  C   UNL A   1      39.638  31.739  30.353  1.00  0.00     0.031 C 
ATOM     42  C   UNL A   1      39.104  26.998  28.595  1.00  0.00     0.029 A 
ATOM     43  N   UNL A   1      41.214  27.380  29.133  1.00  0.00    -0.354 N 
ATOM     44  C   UNL A   1      41.876  32.092  30.450  1.00  0.00     0.074 A 
ATOM     45  C   UNL A   1      40.573  32.624  30.706  1.00  0.00     0.031 C 
ATOM     46  C   UNL A   1      39.770  25.846  28.381  1.00  0.00     0.029 A 
ATOM     47  C   UNL A   1      41.177  26.038  28.663  1.00  0.00     0.049 A 
ATOM     48  H   UNL A   1      42.031  27.788  29.498  1.00  0.00     0.167 HD
ATOM     49  C   UNL A   1      43.100  32.510  30.897  1.00  0.00     0.037 A 
ATOM     50  C   UNL A   1      42.212  25.163  28.460  1.00  0.00     0.037 A 
ATOM     51  C   UNL A   1      44.104  31.596  30.476  1.00  0.00     0.049 A 
ATOM     52  C   UNL A   1      43.398  25.850  28.989  1.00  0.00     0.074 A 
ATOM     53  C   UNL A   1      44.694  31.371  29.261  1.00  0.00     0.029 A 
ATOM     54  N   UNL A   1      44.366  30.538  31.308  1.00  0.00    -0.354 N 
ATOM     55  N   UNL A   1      43.644  26.029  30.251  1.00  0.00    -0.248 NA
ATOM     56  C   UNL A   1      44.321  26.493  28.046  1.00  0.00     0.031 C 
ATOM     57  C   UNL A   1      44.885  29.975  29.246  1.00  0.00     0.029 A 
ATOM     58  C   UNL A   1      44.609  29.446  30.512  1.00  0.00     0.049 A 
ATOM     59  H   UNL A   1      44.378  30.557  32.293  1.00  0.00     0.167 HD
ATOM     60  C   UNL A   1      44.533  27.077  30.232  1.00  0.00     0.074 A 
ATOM     61  C   UNL A   1      45.130  27.090  28.916  1.00  0.00     0.031 C 
ATOM     62  C   UNL A   1      44.342  28.136  31.059  1.00  0.00     0.037 A 
BRANCH  49  63
ATOM     63  C   UNL A   1      43.526  33.565  31.883  1.00  0.00     0.057 A 
ATOM     64  C   UNL A   1      43.358  33.301  33.266  1.00  0.00     0.134 A 
ATOM     65  C   UNL A   1      43.742  34.905  31.549  1.00  0.00     0.134 A 
ATOM     66  F   UNL A   1      43.205  32.045  33.717  1.00  0.00    -0.206 F 
ATOM     67  C   UNL A   1      43.263  34.312  34.226  1.00  0.00     0.040 A 
ATOM     68  C   UNL A   1      43.695  35.926  32.513  1.00  0.00     0.040 A 
ATOM     69  F   UNL A   1      43.916  35.286  30.277  1.00  0.00    -0.206 F 
ATOM     70  C   UNL A   1      43.408  35.636  33.845  1.00  0.00     0.006 A 
ENDBRANCH  49  63
BRANCH  50  71
ATOM     71  C   UNL A   1      42.443  23.836  27.771  1.00  0.00     0.057 A 
ATOM     72  C   UNL A   1      42.648  22.601  28.395  1.00  0.00     0.134 A 
ATOM     73  C   UNL A   1      42.372  23.749  26.352  1.00  0.00     0.134 A 
ATOM     74  F   UNL A   1      42.890  22.509  29.705  1.00  0.00    -0.206 F 
ATOM     75  C   UNL A   1      42.639  21.381  27.685  1.00  0.00     0.040 A 
ATOM     76  C   UNL A   1      42.320  22.545  25.640  1.00  0.00     0.040 A 
ATOM     77  F   UNL A   1      42.340  24.840  25.575  1.00  0.00    -0.206 F 
ATOM     78  C   UNL A   1      42.429  21.347  26.311  1.00  0.00     0.006 A 
ENDBRANCH  50  71
BRANCH  62  79
ATOM     79  C   UNL A   1      43.501  27.821  32.284  1.00  0.00     0.057 A 
ATOM     80  C   UNL A   1      43.984  26.932  33.255  1.00  0.00     0.134 A 
ATOM     81  C   UNL A   1      42.181  28.257  32.476  1.00  0.00     0.134 A 
ATOM     82  F   UNL A   1      45.242  26.470  33.177  1.00  0.00    -0.206 F 
ATOM     83  C   UNL A   1      43.194  26.486  34.324  1.00  0.00     0.040 A 
ATOM     84  C   UNL A   1      41.379  27.830  33.542  1.00  0.00     0.040 A 
ATOM     85  F   UNL A   1      41.614  29.113  31.630  1.00  0.00    -0.206 F 
ATOM     86  C   UNL A   1      41.882  26.929  34.467  1.00  0.00     0.006 A 
ENDBRANCH  62  79
ENDBRANCH  36  37
ENDBRANCH  28  31
ENDBRANCH  26  27
ENDBRANCH  25  26
ENDBRANCH  24  25
ENDBRANCH   1  24
TORSDOF 16
ENDMDL
