MODEL 1
REMARK VINA RESULT:     -13.3      0.000      0.000
REMARK SMILES CC1(C)O[C@@H]2C[C@@H]3[C@H]4CCC5=CC(=O)C=C[C@@]5(C)[C@]4(F)[C@H](O)C[C@]3(C)[C@]2(C(=O)NCCCCCCNC(=O)c2ccc(-c3c4nc(c(-c5c(F)cccc5F)c5ccc([nH]5)c(-c5c(F)cccc5F)c5nc(c(-c6c(F)cccc6F)c6ccc3[nH]6)C=C5)C=C4)cc2)O1
REMARK SMILES IDX 33 1 32 2 31 3 30 4 29 5 27 6 28 7 26 9 1 10 2 11 4 12 93 13
REMARK SMILES IDX 3 14 5 15 6 16 24 17 7 18 23 19 25 20 8 21 21 22 9 23 19 24
REMARK SMILES IDX 10 25 17 26 20 27 11 28 16 29 18 30 12 31 15 32 13 33 14 34
REMARK SMILES IDX 22 35 34 37 35 38 36 39 37 40 38 42 39 43 40 44 92 45 41 46
REMARK SMILES IDX 91 47 42 48 43 49 44 50 85 51 45 52 90 53 84 54 86 55 46 56
REMARK SMILES IDX 89 57 83 58 82 59 47 61 73 62 56 63 72 64 57 65 60 66 71 67
REMARK SMILES IDX 87 68 58 69 59 70 70 72 88 73 61 74 48 75 49 76 54 77 50 78
REMARK SMILES IDX 51 79 53 80 55 81 52 82 74 83 75 84 80 85 76 86 77 87 79 88
REMARK SMILES IDX 81 89 78 90 62 91 63 92 68 93 64 94 65 95 67 96 69 97 66 98
REMARK H PARENT 29 8 22 36 36 41 86 60 60 71
REMARK Flexibility Score: inf
ROOT
ATOM      1  C   UNL A   1      37.490  20.937  24.550  1.00  0.00     0.002 C 
ENDROOT
BRANCH   1   2
ATOM      2  C   UNL A   1      36.128  20.918  25.240  1.00  0.00     0.002 C 
BRANCH   2   3
ATOM      3  C   UNL A   1      35.248  19.733  24.856  1.00  0.00     0.021 C 
BRANCH   3   4
ATOM      4  C   UNL A   1      33.745  20.000  24.955  1.00  0.00     0.116 C 
BRANCH   4   5
ATOM      5  N   UNL A   1      33.261  20.532  23.711  1.00  0.00    -0.353 N 
ATOM      6  C   UNL A   1      32.609  21.684  23.441  1.00  0.00     0.255 C 
ATOM      7  O   UNL A   1      31.904  21.626  22.427  1.00  0.00    -0.272 OA
ATOM      8  H   UNL A   1      33.434  19.964  22.926  1.00  0.00     0.163 HD
BRANCH   6   9
ATOM      9  C   UNL A   1      32.682  22.974  24.308  1.00  0.00     0.181 C 
ATOM     10  C   UNL A   1      30.244  22.350  26.691  1.00  0.00     0.075 C 
ATOM     11  C   UNL A   1      31.422  23.247  26.307  1.00  0.00     0.164 C 
ATOM     12  O   UNL A   1      32.702  22.705  26.669  1.00  0.00    -0.344 OA
ATOM     13  O   UNL A   1      31.385  23.377  24.861  1.00  0.00    -0.331 OA
ATOM     14  C   UNL A   1      31.244  24.515  27.185  1.00  0.00     0.075 C 
ATOM     15  C   UNL A   1      33.593  22.970  25.572  1.00  0.00     0.164 C 
ATOM     16  C   UNL A   1      34.234  24.451  25.673  1.00  0.00     0.040 C 
ATOM     17  C   UNL A   1      33.391  24.140  23.441  1.00  0.00     0.014 C 
ATOM     18  C   UNL A   1      33.453  25.212  24.559  1.00  0.00     0.008 C 
ATOM     19  C   UNL A   1      32.812  24.695  22.122  1.00  0.00     0.046 C 
ATOM     20  C   UNL A   1      34.823  23.656  22.993  1.00  0.00     0.015 C 
ATOM     21  C   UNL A   1      32.479  26.446  24.463  1.00  0.00     0.035 C 
ATOM     22  C   UNL A   1      31.625  25.620  22.222  1.00  0.00     0.154 C 
ATOM     23  C   UNL A   1      32.853  27.616  25.362  1.00  0.00     0.012 C 
ATOM     24  C   UNL A   1      31.972  26.876  23.075  1.00  0.00     0.152 C 
ATOM     25  C   UNL A   1      31.584  28.427  25.642  1.00  0.00     0.032 C 
ATOM     26  C   UNL A   1      30.749  27.895  23.206  1.00  0.00     0.044 C 
ATOM     27  F   UNL A   1      33.018  27.523  22.465  1.00  0.00    -0.239 F 
ATOM     28  C   UNL A   1      30.902  28.891  24.379  1.00  0.00    -0.053 C 
ATOM     29  C   UNL A   1      30.554  28.669  21.901  1.00  0.00    -0.009 C 
ATOM     30  C   UNL A   1      29.386  27.181  23.454  1.00  0.00     0.024 C 
ATOM     31  C   UNL A   1      30.333  30.110  24.336  1.00  0.00     0.052 C 
ATOM     32  C   UNL A   1      29.988  29.884  21.855  1.00  0.00     0.048 C 
ATOM     33  C   UNL A   1      29.638  30.578  23.114  1.00  0.00     0.178 C 
ATOM     34  O   UNL A   1      28.857  31.519  23.138  1.00  0.00    -0.290 OA
BRANCH  22  35
ATOM     35  O   UNL A   1      30.531  24.854  22.713  1.00  0.00    -0.390 OA
ATOM     36  H   UNL A   1      30.829  23.951  22.904  1.00  0.00     0.211 HD
ENDBRANCH  22  35
ENDBRANCH   6   9
ENDBRANCH   4   5
ENDBRANCH   3   4
ENDBRANCH   2   3
ENDBRANCH   1   2
BRANCH   1  37
ATOM     37  C   UNL A   1      38.368  19.716  24.835  1.00  0.00     0.021 C 
BRANCH  37  38
ATOM     38  C   UNL A   1      39.296  19.876  26.031  1.00  0.00     0.116 C 
BRANCH  38  39
ATOM     39  N   UNL A   1      40.494  19.070  25.888  1.00  0.00    -0.352 N 
ATOM     40  C   UNL A   1      41.800  19.463  25.950  1.00  0.00     0.251 C 
ATOM     41  H   UNL A   1      40.346  18.111  25.724  1.00  0.00     0.163 HD
ATOM     42  O   UNL A   1      42.692  18.700  25.565  1.00  0.00    -0.269 OA
BRANCH  40  43
ATOM     43  C   UNL A   1      42.146  20.798  26.471  1.00  0.00     0.039 A 
ATOM     44  C   UNL A   1      42.130  21.006  27.851  1.00  0.00     0.014 A 
ATOM     45  C   UNL A   1      42.447  21.853  25.602  1.00  0.00     0.014 A 
ATOM     46  C   UNL A   1      42.424  22.270  28.359  1.00  0.00     0.010 A 
ATOM     47  C   UNL A   1      42.826  23.088  26.115  1.00  0.00     0.010 A 
ATOM     48  C   UNL A   1      42.781  23.320  27.496  1.00  0.00    -0.014 A 
BRANCH  48  49
ATOM     49  C   UNL A   1      43.030  24.682  28.027  1.00  0.00     0.031 A 
ATOM     50  C   UNL A   1      44.441  25.124  28.319  1.00  0.00     0.074 A 
ATOM     51  C   UNL A   1      41.997  25.518  28.246  1.00  0.00     0.049 A 
ATOM     52  N   UNL A   1      44.869  26.267  28.790  1.00  0.00    -0.248 NA
ATOM     53  C   UNL A   1      45.512  24.143  28.071  1.00  0.00     0.031 C 
ATOM     54  C   UNL A   1      40.584  25.193  28.041  1.00  0.00     0.029 A 
ATOM     55  N   UNL A   1      41.978  26.818  28.684  1.00  0.00    -0.354 N 
ATOM     56  C   UNL A   1      46.250  26.143  28.888  1.00  0.00     0.074 A 
ATOM     57  C   UNL A   1      46.582  24.789  28.506  1.00  0.00     0.031 C 
ATOM     58  C   UNL A   1      39.839  26.274  28.321  1.00  0.00     0.029 A 
ATOM     59  C   UNL A   1      40.716  27.356  28.757  1.00  0.00     0.049 A 
ATOM     60  H   UNL A   1      42.792  27.317  28.924  1.00  0.00     0.167 HD
ATOM     61  C   UNL A   1      47.165  27.080  29.228  1.00  0.00     0.037 A 
ATOM     62  C   UNL A   1      40.317  28.586  29.131  1.00  0.00     0.037 A 
ATOM     63  C   UNL A   1      46.837  28.433  29.589  1.00  0.00     0.049 A 
ATOM     64  C   UNL A   1      41.358  29.602  29.523  1.00  0.00     0.074 A 
ATOM     65  C   UNL A   1      47.690  29.466  29.937  1.00  0.00     0.029 A 
ATOM     66  N   UNL A   1      45.549  28.944  29.639  1.00  0.00    -0.354 N 
ATOM     67  N   UNL A   1      42.664  29.482  29.560  1.00  0.00    -0.248 NA
ATOM     68  C   UNL A   1      40.868  30.932  29.908  1.00  0.00     0.031 C 
ATOM     69  C   UNL A   1      46.916  30.594  30.228  1.00  0.00     0.029 A 
ATOM     70  C   UNL A   1      45.584  30.276  30.015  1.00  0.00     0.049 A 
ATOM     71  H   UNL A   1      44.730  28.434  29.436  1.00  0.00     0.167 HD
ATOM     72  C   UNL A   1      43.149  30.730  29.934  1.00  0.00     0.074 A 
ATOM     73  C   UNL A   1      41.999  31.596  30.087  1.00  0.00     0.031 C 
ATOM     74  C   UNL A   1      44.428  31.126  30.140  1.00  0.00     0.037 A 
BRANCH  61  75
ATOM     75  C   UNL A   1      48.612  26.682  29.194  1.00  0.00     0.057 A 
ATOM     76  C   UNL A   1      49.390  26.848  28.040  1.00  0.00     0.134 A 
ATOM     77  C   UNL A   1      49.248  26.173  30.333  1.00  0.00     0.134 A 
ATOM     78  F   UNL A   1      48.839  27.316  26.910  1.00  0.00    -0.206 F 
ATOM     79  C   UNL A   1      50.744  26.506  28.016  1.00  0.00     0.040 A 
ATOM     80  C   UNL A   1      50.607  25.854  30.328  1.00  0.00     0.040 A 
ATOM     81  F   UNL A   1      48.563  25.991  31.472  1.00  0.00    -0.206 F 
ATOM     82  C   UNL A   1      51.358  26.017  29.166  1.00  0.00     0.006 A 
ENDBRANCH  61  75
BRANCH  62  83
ATOM     83  C   UNL A   1      38.876  28.946  29.144  1.00  0.00     0.057 A 
ATOM     84  C   UNL A   1      38.262  29.521  28.024  1.00  0.00     0.134 A 
ATOM     85  C   UNL A   1      38.095  28.789  30.295  1.00  0.00     0.134 A 
ATOM     86  F   UNL A   1      38.959  29.715  26.896  1.00  0.00    -0.206 F 
ATOM     87  C   UNL A   1      36.940  29.969  28.063  1.00  0.00     0.040 A 
ATOM     88  C   UNL A   1      36.763  29.202  30.337  1.00  0.00     0.040 A 
ATOM     89  F   UNL A   1      38.618  28.234  31.399  1.00  0.00    -0.206 F 
ATOM     90  C   UNL A   1      36.187  29.811  29.224  1.00  0.00     0.006 A 
ENDBRANCH  62  83
BRANCH  74  91
ATOM     91  C   UNL A   1      44.648  32.569  30.494  1.00  0.00     0.057 A 
ATOM     92  C   UNL A   1      44.695  33.010  31.823  1.00  0.00     0.134 A 
ATOM     93  C   UNL A   1      44.819  33.529  29.488  1.00  0.00     0.134 A 
ATOM     94  F   UNL A   1      44.528  32.144  32.833  1.00  0.00    -0.206 F 
ATOM     95  C   UNL A   1      44.859  34.360  32.137  1.00  0.00     0.040 A 
ATOM     96  C   UNL A   1      45.018  34.876  29.790  1.00  0.00     0.040 A 
ATOM     97  F   UNL A   1      44.798  33.172  28.194  1.00  0.00    -0.206 F 
ATOM     98  C   UNL A   1      45.025  35.296  31.118  1.00  0.00     0.006 A 
ENDBRANCH  74  91
ENDBRANCH  48  49
ENDBRANCH  40  43
ENDBRANCH  38  39
ENDBRANCH  37  38
ENDBRANCH   1  37
TORSDOF 14
ENDMDL
MODEL 2
REMARK VINA RESULT:     -13.1      4.154      9.349
REMARK SMILES CC1(C)O[C@@H]2C[C@@H]3[C@H]4CCC5=CC(=O)C=C[C@@]5(C)[C@]4(F)[C@H](O)C[C@]3(C)[C@]2(C(=O)NCCCCCCNC(=O)c2ccc(-c3c4nc(c(-c5c(F)cccc5F)c5ccc([nH]5)c(-c5c(F)cccc5F)c5nc(c(-c6c(F)cccc6F)c6ccc3[nH]6)C=C5)C=C4)cc2)O1
REMARK SMILES IDX 33 1 32 2 31 3 30 4 29 5 27 6 28 7 26 9 1 10 2 11 4 12 93 13
REMARK SMILES IDX 3 14 5 15 6 16 24 17 7 18 23 19 25 20 8 21 21 22 9 23 19 24
REMARK SMILES IDX 10 25 17 26 20 27 11 28 16 29 18 30 12 31 15 32 13 33 14 34
REMARK SMILES IDX 22 35 34 37 35 38 36 39 37 40 38 42 39 43 40 44 92 45 41 46
REMARK SMILES IDX 91 47 42 48 43 49 44 50 85 51 45 52 90 53 84 54 86 55 46 56
REMARK SMILES IDX 89 57 83 58 82 59 47 61 73 62 56 63 72 64 57 65 60 66 71 67
REMARK SMILES IDX 87 68 58 69 59 70 70 72 88 73 61 74 48 75 49 76 54 77 50 78
REMARK SMILES IDX 51 79 53 80 55 81 52 82 74 83 75 84 80 85 76 86 77 87 79 88
REMARK SMILES IDX 81 89 78 90 62 91 63 92 68 93 64 94 65 95 67 96 69 97 66 98
REMARK H PARENT 29 8 22 36 36 41 86 60 60 71
REMARK Flexibility Score: inf
ROOT
ATOM      1  C   UNL A   1      31.803  30.553  26.903  1.00  0.00     0.002 C 
ENDROOT
BRANCH   1   2
ATOM      2  C   UNL A   1      33.283  30.186  26.811  1.00  0.00     0.002 C 
BRANCH   2   3
ATOM      3  C   UNL A   1      33.546  28.766  26.322  1.00  0.00     0.021 C 
BRANCH   3   4
ATOM      4  C   UNL A   1      33.709  28.635  24.806  1.00  0.00     0.116 C 
BRANCH   4   5
ATOM      5  N   UNL A   1      32.471  28.955  24.153  1.00  0.00    -0.353 N 
ATOM      6  C   UNL A   1      31.577  28.161  23.525  1.00  0.00     0.255 C 
ATOM      7  O   UNL A   1      30.916  28.749  22.660  1.00  0.00    -0.272 OA
ATOM      8  H   UNL A   1      32.235  29.910  24.165  1.00  0.00     0.163 HD
BRANCH   6   9
ATOM      9  C   UNL A   1      31.381  26.643  23.805  1.00  0.00     0.181 C 
ATOM     10  C   UNL A   1      30.680  26.646  27.199  1.00  0.00     0.075 C 
ATOM     11  C   UNL A   1      30.670  25.811  25.917  1.00  0.00     0.164 C 
ATOM     12  O   UNL A   1      29.499  26.008  25.110  1.00  0.00    -0.344 OA
ATOM     13  O   UNL A   1      31.823  26.236  25.143  1.00  0.00    -0.331 OA
ATOM     14  C   UNL A   1      30.593  24.343  26.414  1.00  0.00     0.075 C 
ATOM     15  C   UNL A   1      29.939  26.056  23.741  1.00  0.00     0.164 C 
ATOM     16  C   UNL A   1      30.080  24.574  23.110  1.00  0.00     0.040 C 
ATOM     17  C   UNL A   1      32.091  25.803  22.620  1.00  0.00     0.014 C 
ATOM     18  C   UNL A   1      31.629  24.393  23.069  1.00  0.00     0.008 C 
ATOM     19  C   UNL A   1      33.604  25.861  22.320  1.00  0.00     0.046 C 
ATOM     20  C   UNL A   1      31.465  26.226  21.236  1.00  0.00     0.015 C 
ATOM     21  C   UNL A   1      32.699  23.423  23.696  1.00  0.00     0.035 C 
ATOM     22  C   UNL A   1      34.525  25.129  23.264  1.00  0.00     0.154 C 
ATOM     23  C   UNL A   1      32.269  21.963  23.758  1.00  0.00     0.012 C 
ATOM     24  C   UNL A   1      34.177  23.611  23.312  1.00  0.00     0.152 C 
ATOM     25  C   UNL A   1      33.056  21.281  24.880  1.00  0.00     0.032 C 
ATOM     26  C   UNL A   1      35.130  22.787  24.294  1.00  0.00     0.044 C 
ATOM     27  F   UNL A   1      34.314  23.108  22.043  1.00  0.00    -0.239 F 
ATOM     28  C   UNL A   1      34.549  21.415  24.706  1.00  0.00    -0.053 C 
ATOM     29  C   UNL A   1      36.508  22.587  23.660  1.00  0.00    -0.009 C 
ATOM     30  C   UNL A   1      35.410  23.529  25.635  1.00  0.00     0.024 C 
ATOM     31  C   UNL A   1      35.354  20.385  25.027  1.00  0.00     0.052 C 
ATOM     32  C   UNL A   1      37.312  21.562  23.978  1.00  0.00     0.048 C 
ATOM     33  C   UNL A   1      36.823  20.502  24.886  1.00  0.00     0.178 C 
ATOM     34  O   UNL A   1      37.588  19.731  25.451  1.00  0.00    -0.290 OA
BRANCH  22  35
ATOM     35  O   UNL A   1      34.458  25.792  24.520  1.00  0.00    -0.390 OA
ATOM     36  H   UNL A   1      33.550  26.097  24.678  1.00  0.00     0.211 HD
ENDBRANCH  22  35
ENDBRANCH   6   9
ENDBRANCH   4   5
ENDBRANCH   3   4
ENDBRANCH   2   3
ENDBRANCH   1   2
BRANCH   1  37
ATOM     37  C   UNL A   1      31.516  32.056  26.888  1.00  0.00     0.021 C 
BRANCH  37  38
ATOM     38  C   UNL A   1      32.760  32.932  26.895  1.00  0.00     0.116 C 
BRANCH  38  39
ATOM     39  N   UNL A   1      32.519  34.196  27.568  1.00  0.00    -0.352 N 
ATOM     40  C   UNL A   1      33.079  34.670  28.719  1.00  0.00     0.251 C 
ATOM     41  H   UNL A   1      31.864  34.790  27.137  1.00  0.00     0.163 HD
ATOM     42  O   UNL A   1      32.587  35.652  29.285  1.00  0.00    -0.269 OA
BRANCH  40  43
ATOM     43  C   UNL A   1      34.267  34.010  29.290  1.00  0.00     0.039 A 
ATOM     44  C   UNL A   1      35.533  34.448  28.899  1.00  0.00     0.014 A 
ATOM     45  C   UNL A   1      34.136  32.935  30.177  1.00  0.00     0.014 A 
ATOM     46  C   UNL A   1      36.666  33.815  29.405  1.00  0.00     0.010 A 
ATOM     47  C   UNL A   1      35.267  32.363  30.748  1.00  0.00     0.010 A 
ATOM     48  C   UNL A   1      36.544  32.772  30.338  1.00  0.00    -0.014 A 
BRANCH  48  49
ATOM     49  C   UNL A   1      37.744  32.052  30.828  1.00  0.00     0.031 A 
ATOM     50  C   UNL A   1      38.293  32.359  32.198  1.00  0.00     0.074 A 
ATOM     51  C   UNL A   1      38.338  31.127  30.050  1.00  0.00     0.049 A 
ATOM     52  N   UNL A   1      39.331  31.847  32.808  1.00  0.00    -0.248 NA
ATOM     53  C   UNL A   1      37.596  33.397  32.978  1.00  0.00     0.031 C 
ATOM     54  C   UNL A   1      37.926  30.770  28.691  1.00  0.00     0.029 A 
ATOM     55  N   UNL A   1      39.415  30.313  30.294  1.00  0.00    -0.354 N 
ATOM     56  C   UNL A   1      39.407  32.494  34.035  1.00  0.00     0.074 A 
ATOM     57  C   UNL A   1      38.361  33.491  34.054  1.00  0.00     0.031 C 
ATOM     58  C   UNL A   1      38.719  29.787  28.235  1.00  0.00     0.029 A 
ATOM     59  C   UNL A   1      39.715  29.468  29.254  1.00  0.00     0.049 A 
ATOM     60  H   UNL A   1      39.925  30.334  31.136  1.00  0.00     0.167 HD
ATOM     61  C   UNL A   1      40.244  32.254  35.071  1.00  0.00     0.037 A 
ATOM     62  C   UNL A   1      40.683  28.540  29.140  1.00  0.00     0.037 A 
ATOM     63  C   UNL A   1      41.272  31.248  35.060  1.00  0.00     0.049 A 
ATOM     64  C   UNL A   1      41.612  28.310  30.302  1.00  0.00     0.074 A 
ATOM     65  C   UNL A   1      42.165  30.916  36.064  1.00  0.00     0.029 A 
ATOM     66  N   UNL A   1      41.536  30.404  33.993  1.00  0.00    -0.354 N 
ATOM     67  N   UNL A   1      41.636  28.896  31.476  1.00  0.00    -0.248 NA
ATOM     68  C   UNL A   1      42.640  27.275  30.129  1.00  0.00     0.031 C 
ATOM     69  C   UNL A   1      42.992  29.891  35.591  1.00  0.00     0.029 A 
ATOM     70  C   UNL A   1      42.581  29.553  34.312  1.00  0.00     0.049 A 
ATOM     71  H   UNL A   1      41.051  30.409  33.135  1.00  0.00     0.167 HD
ATOM     72  C   UNL A   1      42.653  28.273  32.190  1.00  0.00     0.074 A 
ATOM     73  C   UNL A   1      43.203  27.250  31.326  1.00  0.00     0.031 C 
ATOM     74  C   UNL A   1      43.099  28.527  33.445  1.00  0.00     0.037 A 
BRANCH  61  75
ATOM     75  C   UNL A   1      40.063  33.076  36.315  1.00  0.00     0.057 A 
ATOM     76  C   UNL A   1      40.797  34.250  36.530  1.00  0.00     0.134 A 
ATOM     77  C   UNL A   1      39.116  32.720  37.284  1.00  0.00     0.134 A 
ATOM     78  F   UNL A   1      41.730  34.640  35.649  1.00  0.00    -0.206 F 
ATOM     79  C   UNL A   1      40.608  35.031  37.672  1.00  0.00     0.040 A 
ATOM     80  C   UNL A   1      38.899  33.507  38.415  1.00  0.00     0.040 A 
ATOM     81  F   UNL A   1      38.378  31.609  37.139  1.00  0.00    -0.206 F 
ATOM     82  C   UNL A   1      39.649  34.665  38.613  1.00  0.00     0.006 A 
ENDBRANCH  61  75
BRANCH  62  83
ATOM     83  C   UNL A   1      40.827  27.740  27.895  1.00  0.00     0.057 A 
ATOM     84  C   UNL A   1      40.228  26.481  27.770  1.00  0.00     0.134 A 
ATOM     85  C   UNL A   1      41.620  28.184  26.831  1.00  0.00     0.134 A 
ATOM     86  F   UNL A   1      39.470  25.990  28.761  1.00  0.00    -0.206 F 
ATOM     87  C   UNL A   1      40.451  25.672  26.654  1.00  0.00     0.040 A 
ATOM     88  C   UNL A   1      41.824  27.400  25.695  1.00  0.00     0.040 A 
ATOM     89  F   UNL A   1      42.212  29.387  26.882  1.00  0.00    -0.206 F 
ATOM     90  C   UNL A   1      41.252  26.132  25.612  1.00  0.00     0.006 A 
ENDBRANCH  62  83
BRANCH  74  91
ATOM     91  C   UNL A   1      44.194  27.644  33.972  1.00  0.00     0.057 A 
ATOM     92  C   UNL A   1      45.547  27.991  33.859  1.00  0.00     0.134 A 
ATOM     93  C   UNL A   1      43.888  26.432  34.603  1.00  0.00     0.134 A 
ATOM     94  F   UNL A   1      45.909  29.133  33.256  1.00  0.00    -0.206 F 
ATOM     95  C   UNL A   1      46.557  27.142  34.316  1.00  0.00     0.040 A 
ATOM     96  C   UNL A   1      44.886  25.592  35.095  1.00  0.00     0.040 A 
ATOM     97  F   UNL A   1      42.611  26.046  34.756  1.00  0.00    -0.206 F 
ATOM     98  C   UNL A   1      46.226  25.940  34.940  1.00  0.00     0.006 A 
ENDBRANCH  74  91
ENDBRANCH  48  49
ENDBRANCH  40  43
ENDBRANCH  38  39
ENDBRANCH  37  38
ENDBRANCH   1  37
TORSDOF 14
ENDMDL
MODEL 3
REMARK VINA RESULT:     -13.1      4.222      9.694
REMARK SMILES CC1(C)O[C@@H]2C[C@@H]3[C@H]4CCC5=CC(=O)C=C[C@@]5(C)[C@]4(F)[C@H](O)C[C@]3(C)[C@]2(C(=O)NCCCCCCNC(=O)c2ccc(-c3c4nc(c(-c5c(F)cccc5F)c5ccc([nH]5)c(-c5c(F)cccc5F)c5nc(c(-c6c(F)cccc6F)c6ccc3[nH]6)C=C5)C=C4)cc2)O1
REMARK SMILES IDX 33 1 32 2 31 3 30 4 29 5 27 6 28 7 26 9 1 10 2 11 4 12 93 13
REMARK SMILES IDX 3 14 5 15 6 16 24 17 7 18 23 19 25 20 8 21 21 22 9 23 19 24
REMARK SMILES IDX 10 25 17 26 20 27 11 28 16 29 18 30 12 31 15 32 13 33 14 34
REMARK SMILES IDX 22 35 34 37 35 38 36 39 37 40 38 42 39 43 40 44 92 45 41 46
REMARK SMILES IDX 91 47 42 48 43 49 44 50 85 51 45 52 90 53 84 54 86 55 46 56
REMARK SMILES IDX 89 57 83 58 82 59 47 61 73 62 56 63 72 64 57 65 60 66 71 67
REMARK SMILES IDX 87 68 58 69 59 70 70 72 88 73 61 74 48 75 49 76 54 77 50 78
REMARK SMILES IDX 51 79 53 80 55 81 52 82 74 83 75 84 80 85 76 86 77 87 79 88
REMARK SMILES IDX 81 89 78 90 62 91 63 92 68 93 64 94 65 95 67 96 69 97 66 98
REMARK H PARENT 29 8 22 36 36 41 86 60 60 71
REMARK Flexibility Score: inf
ROOT
ATOM      1  C   UNL A   1      31.400  30.874  25.972  1.00  0.00     0.002 C 
ENDROOT
BRANCH   1   2
ATOM      2  C   UNL A   1      32.150  29.898  26.878  1.00  0.00     0.002 C 
BRANCH   2   3
ATOM      3  C   UNL A   1      31.760  28.437  26.682  1.00  0.00     0.021 C 
BRANCH   3   4
ATOM      4  C   UNL A   1      31.571  28.021  25.222  1.00  0.00     0.116 C 
BRANCH   4   5
ATOM      5  N   UNL A   1      30.662  26.911  25.145  1.00  0.00    -0.353 N 
ATOM      6  C   UNL A   1      30.850  25.650  24.699  1.00  0.00     0.255 C 
ATOM      7  O   UNL A   1      29.813  25.110  24.293  1.00  0.00    -0.272 OA
ATOM      8  H   UNL A   1      29.754  27.100  25.471  1.00  0.00     0.163 HD
BRANCH   6   9
ATOM      9  C   UNL A   1      32.221  24.915  24.651  1.00  0.00     0.181 C 
ATOM     10  C   UNL A   1      32.960  25.043  21.267  1.00  0.00     0.075 C 
ATOM     11  C   UNL A   1      33.515  24.747  22.661  1.00  0.00     0.164 C 
ATOM     12  O   UNL A   1      33.952  25.918  23.368  1.00  0.00    -0.344 OA
ATOM     13  O   UNL A   1      32.427  24.149  23.417  1.00  0.00    -0.331 OA
ATOM     14  C   UNL A   1      34.799  23.915  22.397  1.00  0.00     0.075 C 
ATOM     15  C   UNL A   1      33.524  25.767  24.733  1.00  0.00     0.164 C 
ATOM     16  C   UNL A   1      34.579  24.897  25.594  1.00  0.00     0.040 C 
ATOM     17  C   UNL A   1      32.374  24.018  25.986  1.00  0.00     0.014 C 
ATOM     18  C   UNL A   1      33.827  23.539  25.741  1.00  0.00     0.008 C 
ATOM     19  C   UNL A   1      31.422  22.858  26.349  1.00  0.00     0.046 C 
ATOM     20  C   UNL A   1      32.255  24.949  27.254  1.00  0.00     0.015 C 
ATOM     21  C   UNL A   1      34.057  22.037  25.328  1.00  0.00     0.035 C 
ATOM     22  C   UNL A   1      31.576  21.570  25.579  1.00  0.00     0.154 C 
ATOM     23  C   UNL A   1      35.494  21.554  25.475  1.00  0.00     0.012 C 
ATOM     24  C   UNL A   1      33.012  20.990  25.752  1.00  0.00     0.152 C 
ATOM     25  C   UNL A   1      35.703  20.380  24.515  1.00  0.00     0.032 C 
ATOM     26  C   UNL A   1      33.226  19.618  24.961  1.00  0.00     0.044 C 
ATOM     27  F   UNL A   1      33.214  20.761  27.090  1.00  0.00    -0.239 F 
ATOM     28  C   UNL A   1      34.714  19.263  24.740  1.00  0.00    -0.053 C 
ATOM     29  C   UNL A   1      32.528  18.466  25.686  1.00  0.00    -0.009 C 
ATOM     30  C   UNL A   1      32.596  19.633  23.536  1.00  0.00     0.024 C 
ATOM     31  C   UNL A   1      35.115  17.982  24.625  1.00  0.00     0.052 C 
ATOM     32  C   UNL A   1      32.925  17.191  25.574  1.00  0.00     0.048 C 
ATOM     33  C   UNL A   1      34.156  16.870  24.820  1.00  0.00     0.178 C 
ATOM     34  O   UNL A   1      34.395  15.738  24.422  1.00  0.00    -0.290 OA
BRANCH  22  35
ATOM     35  O   UNL A   1      31.202  21.835  24.233  1.00  0.00    -0.390 OA
ATOM     36  H   UNL A   1      31.217  21.008  23.724  1.00  0.00     0.211 HD
ENDBRANCH  22  35
ENDBRANCH   6   9
ENDBRANCH   4   5
ENDBRANCH   3   4
ENDBRANCH   2   3
ENDBRANCH   1   2
BRANCH   1  37
ATOM     37  C   UNL A   1      31.265  32.291  26.534  1.00  0.00     0.021 C 
BRANCH  37  38
ATOM     38  C   UNL A   1      32.538  32.842  27.160  1.00  0.00     0.116 C 
BRANCH  38  39
ATOM     39  N   UNL A   1      32.354  34.202  27.632  1.00  0.00    -0.352 N 
ATOM     40  C   UNL A   1      32.975  34.838  28.668  1.00  0.00     0.251 C 
ATOM     41  H   UNL A   1      31.693  34.739  27.139  1.00  0.00     0.163 HD
ATOM     42  O   UNL A   1      32.530  35.910  29.089  1.00  0.00    -0.269 OA
BRANCH  40  43
ATOM     43  C   UNL A   1      34.174  34.244  29.287  1.00  0.00     0.039 A 
ATOM     44  C   UNL A   1      35.419  34.474  28.700  1.00  0.00     0.014 A 
ATOM     45  C   UNL A   1      34.070  33.429  30.419  1.00  0.00     0.014 A 
ATOM     46  C   UNL A   1      36.559  33.895  29.254  1.00  0.00     0.010 A 
ATOM     47  C   UNL A   1      35.217  32.925  31.022  1.00  0.00     0.010 A 
ATOM     48  C   UNL A   1      36.469  33.121  30.423  1.00  0.00    -0.014 A 
BRANCH  48  49
ATOM     49  C   UNL A   1      37.669  32.448  30.978  1.00  0.00     0.031 A 
ATOM     50  C   UNL A   1      38.286  32.956  32.256  1.00  0.00     0.074 A 
ATOM     51  C   UNL A   1      38.201  31.389  30.340  1.00  0.00     0.049 A 
ATOM     52  N   UNL A   1      39.334  32.513  32.901  1.00  0.00    -0.248 NA
ATOM     53  C   UNL A   1      37.654  34.131  32.881  1.00  0.00     0.031 C 
ATOM     54  C   UNL A   1      37.719  30.829  29.075  1.00  0.00     0.029 A 
ATOM     55  N   UNL A   1      39.264  30.588  30.673  1.00  0.00    -0.354 N 
ATOM     56  C   UNL A   1      39.483  33.349  34.001  1.00  0.00     0.074 A 
ATOM     57  C   UNL A   1      38.467  34.373  33.896  1.00  0.00     0.031 C 
ATOM     58  C   UNL A   1      38.463  29.758  28.757  1.00  0.00     0.029 A 
ATOM     59  C   UNL A   1      39.493  29.574  29.775  1.00  0.00     0.049 A 
ATOM     60  H   UNL A   1      39.811  30.728  31.479  1.00  0.00     0.167 HD
ATOM     61  C   UNL A   1      40.358  33.253  35.029  1.00  0.00     0.037 A 
ATOM     62  C   UNL A   1      40.428  28.606  29.778  1.00  0.00     0.037 A 
ATOM     63  C   UNL A   1      41.355  32.223  35.144  1.00  0.00     0.049 A 
ATOM     64  C   UNL A   1      41.401  28.537  30.926  1.00  0.00     0.074 A 
ATOM     65  C   UNL A   1      42.282  32.027  36.153  1.00  0.00     0.029 A 
ATOM     66  N   UNL A   1      41.547  31.207  34.221  1.00  0.00    -0.354 N 
ATOM     67  N   UNL A   1      41.494  29.305  31.984  1.00  0.00    -0.248 NA
ATOM     68  C   UNL A   1      42.391  27.452  30.885  1.00  0.00     0.031 C 
ATOM     69  C   UNL A   1      43.058  30.911  35.824  1.00  0.00     0.029 A 
ATOM     70  C   UNL A   1      42.581  30.383  34.635  1.00  0.00     0.049 A 
ATOM     71  H   UNL A   1      41.026  31.088  33.394  1.00  0.00     0.167 HD
ATOM     72  C   UNL A   1      42.523  28.772  32.752  1.00  0.00     0.074 A 
ATOM     73  C   UNL A   1      43.005  27.603  32.048  1.00  0.00     0.031 C 
ATOM     74  C   UNL A   1      43.031  29.211  33.929  1.00  0.00     0.037 A 
BRANCH  61  75
ATOM     75  C   UNL A   1      40.255  34.272  36.126  1.00  0.00     0.057 A 
ATOM     76  C   UNL A   1      40.943  35.492  36.060  1.00  0.00     0.134 A 
ATOM     77  C   UNL A   1      39.428  34.058  37.236  1.00  0.00     0.134 A 
ATOM     78  F   UNL A   1      41.763  35.755  35.031  1.00  0.00    -0.206 F 
ATOM     79  C   UNL A   1      40.824  36.453  37.065  1.00  0.00     0.040 A 
ATOM     80  C   UNL A   1      39.281  35.023  38.233  1.00  0.00     0.040 A 
ATOM     81  F   UNL A   1      38.740  32.913  37.361  1.00  0.00    -0.206 F 
ATOM     82  C   UNL A   1      39.983  36.224  38.151  1.00  0.00     0.006 A 
ENDBRANCH  61  75
BRANCH  62  83
ATOM     83  C   UNL A   1      40.494  27.610  28.678  1.00  0.00     0.057 A 
ATOM     84  C   UNL A   1      41.273  27.840  27.537  1.00  0.00     0.134 A 
ATOM     85  C   UNL A   1      39.730  26.437  28.708  1.00  0.00     0.134 A 
ATOM     86  F   UNL A   1      42.015  28.952  27.438  1.00  0.00    -0.206 F 
ATOM     87  C   UNL A   1      41.253  26.967  26.448  1.00  0.00     0.040 A 
ATOM     88  C   UNL A   1      39.726  25.540  27.640  1.00  0.00     0.040 A 
ATOM     89  F   UNL A   1      38.971  26.150  29.776  1.00  0.00    -0.206 F 
ATOM     90  C   UNL A   1      40.476  25.813  26.498  1.00  0.00     0.006 A 
ENDBRANCH  62  83
BRANCH  74  91
ATOM     91  C   UNL A   1      44.122  28.388  34.551  1.00  0.00     0.057 A 
ATOM     92  C   UNL A   1      45.478  28.643  34.305  1.00  0.00     0.134 A 
ATOM     93  C   UNL A   1      43.810  27.328  35.412  1.00  0.00     0.134 A 
ATOM     94  F   UNL A   1      45.844  29.637  33.482  1.00  0.00    -0.206 F 
ATOM     95  C   UNL A   1      46.481  27.845  34.857  1.00  0.00     0.040 A 
ATOM     96  C   UNL A   1      44.805  26.545  35.997  1.00  0.00     0.040 A 
ATOM     97  F   UNL A   1      42.532  27.038  35.701  1.00  0.00    -0.206 F 
ATOM     98  C   UNL A   1      46.145  26.795  35.709  1.00  0.00     0.006 A 
ENDBRANCH  74  91
ENDBRANCH  48  49
ENDBRANCH  40  43
ENDBRANCH  38  39
ENDBRANCH  37  38
ENDBRANCH   1  37
TORSDOF 14
ENDMDL
