MODEL 1
REMARK VINA RESULT:     -11.2      0.000      0.000
REMARK SMILES CC(C)Cc1ccc([C@@H](C)C(=O)NCCCCCCNC(=O)c2ccc(-c3c4nc(c(-c5c(F)cccc5F)c5ccc([nH]5)c(-c5c(F)cccc5F)c5nc(c(-c6c(F)cccc6F)c6ccc3[nH]6)C=C5)C=C4)cc2)cc1
REMARK SMILES IDX 16 1 15 2 14 3 13 4 11 5 12 6 9 8 10 9 8 10 5 11 6 12 78 13
REMARK SMILES IDX 7 14 77 15 4 16 2 17 1 18 3 19 17 20 18 21 19 22 20 23 21 24
REMARK SMILES IDX 22 26 23 27 24 28 76 29 25 30 75 31 26 32 27 33 28 34 69 35
REMARK SMILES IDX 29 36 74 37 68 38 70 39 30 40 73 41 67 42 66 43 31 45 57 46
REMARK SMILES IDX 40 47 56 48 41 49 44 50 55 51 71 52 42 53 43 54 54 56 72 57
REMARK SMILES IDX 45 58 32 59 33 60 38 61 34 62 35 63 37 64 39 65 36 66 58 67
REMARK SMILES IDX 59 68 64 69 60 70 61 71 63 72 65 73 62 74 46 75 47 76 52 77
REMARK SMILES IDX 48 78 49 79 51 80 53 81 50 82
REMARK H PARENT 13 7 20 25 70 44 44 55
REMARK Flexibility Score: inf
ROOT
ATOM      1  C   UNL A   1      32.317  29.773  26.164  1.00  0.00     0.002 C 
ENDROOT
BRANCH   1   2
ATOM      2  C   UNL A   1      31.731  28.586  26.935  1.00  0.00     0.021 C 
BRANCH   2   3
ATOM      3  C   UNL A   1      32.298  27.225  26.517  1.00  0.00     0.116 C 
BRANCH   3   4
ATOM      4  N   UNL A   1      31.391  26.141  26.834  1.00  0.00    -0.356 N 
ATOM      5  C   UNL A   1      30.657  25.306  26.050  1.00  0.00     0.227 C 
ATOM      6  O   UNL A   1      29.913  24.514  26.644  1.00  0.00    -0.274 OA
ATOM      7  H   UNL A   1      31.287  25.978  27.799  1.00  0.00     0.163 HD
BRANCH   5   8
ATOM      8  C   UNL A   1      30.720  25.285  24.515  1.00  0.00     0.105 C 
ATOM      9  C   UNL A   1      32.086  24.896  23.949  1.00  0.00     0.023 C 
BRANCH   8  10
ATOM     10  C   UNL A   1      30.063  26.487  23.857  1.00  0.00    -0.036 A 
ATOM     11  C   UNL A   1      28.798  28.748  22.691  1.00  0.00    -0.048 A 
ATOM     12  C   UNL A   1      30.186  28.598  22.657  1.00  0.00     0.004 A 
ATOM     13  C   UNL A   1      28.047  27.765  23.347  1.00  0.00     0.004 A 
ATOM     14  C   UNL A   1      30.798  27.462  23.180  1.00  0.00     0.005 A 
ATOM     15  C   UNL A   1      28.672  26.658  23.935  1.00  0.00     0.005 A 
BRANCH  11  16
ATOM     16  C   UNL A   1      28.106  29.943  22.071  1.00  0.00     0.038 C 
BRANCH  16  17
ATOM     17  C   UNL A   1      28.467  31.324  22.667  1.00  0.00    -0.013 C 
ATOM     18  C   UNL A   1      28.361  32.450  21.633  1.00  0.00     0.008 C 
ATOM     19  C   UNL A   1      27.564  31.641  23.861  1.00  0.00     0.008 C 
ENDBRANCH  16  17
ENDBRANCH  11  16
ENDBRANCH   8  10
ENDBRANCH   5   8
ENDBRANCH   3   4
ENDBRANCH   2   3
ENDBRANCH   1   2
BRANCH   1  20
ATOM     20  C   UNL A   1      31.287  30.776  25.629  1.00  0.00     0.002 C 
BRANCH  20  21
ATOM     21  C   UNL A   1      31.174  32.092  26.407  1.00  0.00     0.021 C 
BRANCH  21  22
ATOM     22  C   UNL A   1      32.460  32.554  27.089  1.00  0.00     0.116 C 
BRANCH  22  23
ATOM     23  N   UNL A   1      32.395  33.952  27.485  1.00  0.00    -0.352 N 
ATOM     24  C   UNL A   1      33.098  34.632  28.448  1.00  0.00     0.251 C 
ATOM     25  H   UNL A   1      31.745  34.496  26.983  1.00  0.00     0.163 HD
ATOM     26  O   UNL A   1      32.744  35.758  28.784  1.00  0.00    -0.269 OA
BRANCH  24  27
ATOM     27  C   UNL A   1      34.278  34.015  29.094  1.00  0.00     0.039 A 
ATOM     28  C   UNL A   1      34.077  33.086  30.119  1.00  0.00     0.014 A 
ATOM     29  C   UNL A   1      35.576  34.385  28.730  1.00  0.00     0.014 A 
ATOM     30  C   UNL A   1      35.176  32.489  30.743  1.00  0.00     0.010 A 
ATOM     31  C   UNL A   1      36.670  33.747  29.312  1.00  0.00     0.010 A 
ATOM     32  C   UNL A   1      36.481  32.796  30.326  1.00  0.00    -0.014 A 
BRANCH  32  33
ATOM     33  C   UNL A   1      37.659  32.129  30.939  1.00  0.00     0.031 A 
ATOM     34  C   UNL A   1      38.392  31.047  30.194  1.00  0.00     0.074 A 
ATOM     35  C   UNL A   1      38.025  32.449  32.196  1.00  0.00     0.049 A 
ATOM     36  N   UNL A   1      39.391  30.301  30.592  1.00  0.00    -0.248 NA
ATOM     37  C   UNL A   1      37.927  30.747  28.831  1.00  0.00     0.031 C 
ATOM     38  C   UNL A   1      37.367  33.447  33.042  1.00  0.00     0.029 A 
ATOM     39  N   UNL A   1      39.033  31.957  32.987  1.00  0.00    -0.354 N 
ATOM     40  C   UNL A   1      39.656  29.430  29.543  1.00  0.00     0.074 A 
ATOM     41  C   UNL A   1      38.692  29.716  28.502  1.00  0.00     0.031 C 
ATOM     42  C   UNL A   1      37.997  33.504  34.227  1.00  0.00     0.029 A 
ATOM     43  C   UNL A   1      39.079  32.525  34.237  1.00  0.00     0.049 A 
ATOM     44  H   UNL A   1      39.663  31.262  32.687  1.00  0.00     0.167 HD
ATOM     45  C   UNL A   1      40.623  28.488  29.451  1.00  0.00     0.037 A 
ATOM     46  C   UNL A   1      39.898  32.278  35.277  1.00  0.00     0.037 A 
ATOM     47  C   UNL A   1      41.612  28.237  30.466  1.00  0.00     0.049 A 
ATOM     48  C   UNL A   1      40.974  31.237  35.138  1.00  0.00     0.074 A 
ATOM     49  C   UNL A   1      42.690  27.369  30.422  1.00  0.00     0.029 A 
ATOM     50  N   UNL A   1      41.644  28.853  31.706  1.00  0.00    -0.354 N 
ATOM     51  N   UNL A   1      41.263  30.480  34.108  1.00  0.00    -0.248 NA
ATOM     52  C   UNL A   1      41.841  31.020  36.306  1.00  0.00     0.031 C 
ATOM     53  C   UNL A   1      43.351  27.431  31.653  1.00  0.00     0.029 A 
ATOM     54  C   UNL A   1      42.708  28.367  32.447  1.00  0.00     0.049 A 
ATOM     55  H   UNL A   1      41.005  29.535  32.015  1.00  0.00     0.167 HD
ATOM     56  C   UNL A   1      42.362  29.723  34.491  1.00  0.00     0.074 A 
ATOM     57  C   UNL A   1      42.694  30.118  35.844  1.00  0.00     0.031 C 
ATOM     58  C   UNL A   1      43.036  28.782  33.786  1.00  0.00     0.037 A 
BRANCH  45  59
ATOM     59  C   UNL A   1      40.673  27.655  28.203  1.00  0.00     0.057 A 
ATOM     60  C   UNL A   1      41.420  28.043  27.085  1.00  0.00     0.134 A 
ATOM     61  C   UNL A   1      40.017  26.418  28.147  1.00  0.00     0.134 A 
ATOM     62  F   UNL A   1      42.064  29.220  27.073  1.00  0.00    -0.206 F 
ATOM     63  C   UNL A   1      41.501  27.238  25.947  1.00  0.00     0.040 A 
ATOM     64  C   UNL A   1      40.110  25.594  27.025  1.00  0.00     0.040 A 
ATOM     65  F   UNL A   1      39.290  25.986  29.188  1.00  0.00    -0.206 F 
ATOM     66  C   UNL A   1      40.852  26.005  25.919  1.00  0.00     0.006 A 
ENDBRANCH  45  59
BRANCH  46  67
ATOM     67  C   UNL A   1      39.750  33.039  36.543  1.00  0.00     0.057 A 
ATOM     68  C   UNL A   1      38.834  32.634  37.523  1.00  0.00     0.134 A 
ATOM     69  C   UNL A   1      40.488  34.201  36.792  1.00  0.00     0.134 A 
ATOM     70  F   UNL A   1      38.083  31.540  37.333  1.00  0.00    -0.206 F 
ATOM     71  C   UNL A   1      38.640  33.372  38.692  1.00  0.00     0.040 A 
ATOM     72  C   UNL A   1      40.321  34.936  37.967  1.00  0.00     0.040 A 
ATOM     73  F   UNL A   1      41.386  34.638  35.896  1.00  0.00    -0.206 F 
ATOM     74  C   UNL A   1      39.387  34.526  38.917  1.00  0.00     0.006 A 
ENDBRANCH  46  67
BRANCH  58  75
ATOM     75  C   UNL A   1      44.222  28.147  34.448  1.00  0.00     0.057 A 
ATOM     76  C   UNL A   1      45.500  28.713  34.368  1.00  0.00     0.134 A 
ATOM     77  C   UNL A   1      44.075  26.977  35.203  1.00  0.00     0.134 A 
ATOM     78  F   UNL A   1      45.709  29.826  33.650  1.00  0.00    -0.206 F 
ATOM     79  C   UNL A   1      46.597  28.123  35.000  1.00  0.00     0.040 A 
ATOM     80  C   UNL A   1      45.158  26.393  35.858  1.00  0.00     0.040 A 
ATOM     81  F   UNL A   1      42.874  26.391  35.324  1.00  0.00    -0.206 F 
ATOM     82  C   UNL A   1      46.425  26.963  35.753  1.00  0.00     0.006 A 
ENDBRANCH  58  75
ENDBRANCH  32  33
ENDBRANCH  24  27
ENDBRANCH  22  23
ENDBRANCH  21  22
ENDBRANCH  20  21
ENDBRANCH   1  20
TORSDOF 16
ENDMDL
MODEL 2
REMARK VINA RESULT:     -11.1      0.511      6.329
REMARK SMILES CC(C)Cc1ccc([C@@H](C)C(=O)NCCCCCCNC(=O)c2ccc(-c3c4nc(c(-c5c(F)cccc5F)c5ccc([nH]5)c(-c5c(F)cccc5F)c5nc(c(-c6c(F)cccc6F)c6ccc3[nH]6)C=C5)C=C4)cc2)cc1
REMARK SMILES IDX 16 1 15 2 14 3 13 4 11 5 12 6 9 8 10 9 8 10 5 11 6 12 78 13
REMARK SMILES IDX 7 14 77 15 4 16 2 17 1 18 3 19 17 20 18 21 19 22 20 23 21 24
REMARK SMILES IDX 22 26 23 27 24 28 76 29 25 30 75 31 26 32 27 33 28 34 69 35
REMARK SMILES IDX 29 36 74 37 68 38 70 39 30 40 73 41 67 42 66 43 31 45 57 46
REMARK SMILES IDX 40 47 56 48 41 49 44 50 55 51 71 52 42 53 43 54 54 56 72 57
REMARK SMILES IDX 45 58 32 59 33 60 38 61 34 62 35 63 37 64 39 65 36 66 58 67
REMARK SMILES IDX 59 68 64 69 60 70 61 71 63 72 65 73 62 74 46 75 47 76 52 77
REMARK SMILES IDX 48 78 49 79 51 80 53 81 50 82
REMARK H PARENT 13 7 20 25 70 44 44 55
REMARK Flexibility Score: inf
ROOT
ATOM      1  C   UNL A   1      32.196  30.044  26.045  1.00  0.00     0.002 C 
ENDROOT
BRANCH   1   2
ATOM      2  C   UNL A   1      31.801  28.999  27.094  1.00  0.00     0.021 C 
BRANCH   2   3
ATOM      3  C   UNL A   1      32.191  27.564  26.725  1.00  0.00     0.116 C 
BRANCH   3   4
ATOM      4  N   UNL A   1      31.087  26.643  26.899  1.00  0.00    -0.356 N 
ATOM      5  C   UNL A   1      30.334  25.942  26.007  1.00  0.00     0.227 C 
ATOM      6  O   UNL A   1      29.401  25.281  26.483  1.00  0.00    -0.274 OA
ATOM      7  H   UNL A   1      30.833  26.496  27.838  1.00  0.00     0.163 HD
BRANCH   5   8
ATOM      8  C   UNL A   1      30.590  25.916  24.493  1.00  0.00     0.105 C 
ATOM      9  C   UNL A   1      31.991  25.441  24.102  1.00  0.00     0.023 C 
BRANCH   8  10
ATOM     10  C   UNL A   1      30.098  27.156  23.766  1.00  0.00    -0.036 A 
ATOM     11  C   UNL A   1      29.223  29.457  22.349  1.00  0.00    -0.048 A 
ATOM     12  C   UNL A   1      28.311  28.527  22.850  1.00  0.00     0.004 A 
ATOM     13  C   UNL A   1      30.588  29.207  22.538  1.00  0.00     0.004 A 
ATOM     14  C   UNL A   1      28.740  27.428  23.591  1.00  0.00     0.005 A 
ATOM     15  C   UNL A   1      31.019  28.065  23.223  1.00  0.00     0.005 A 
BRANCH  11  16
ATOM     16  C   UNL A   1      28.776  30.692  21.597  1.00  0.00     0.038 C 
BRANCH  16  17
ATOM     17  C   UNL A   1      28.017  31.757  22.424  1.00  0.00    -0.013 C 
ATOM     18  C   UNL A   1      27.644  31.251  23.821  1.00  0.00     0.008 C 
ATOM     19  C   UNL A   1      28.856  33.030  22.550  1.00  0.00     0.008 C 
ENDBRANCH  16  17
ENDBRANCH  11  16
ENDBRANCH   8  10
ENDBRANCH   5   8
ENDBRANCH   3   4
ENDBRANCH   2   3
ENDBRANCH   1   2
BRANCH   1  20
ATOM     20  C   UNL A   1      31.090  31.036  25.664  1.00  0.00     0.002 C 
BRANCH  20  21
ATOM     21  C   UNL A   1      31.081  32.356  26.444  1.00  0.00     0.021 C 
BRANCH  21  22
ATOM     22  C   UNL A   1      32.419  32.748  27.068  1.00  0.00     0.116 C 
BRANCH  22  23
ATOM     23  N   UNL A   1      32.404  34.110  27.577  1.00  0.00    -0.352 N 
ATOM     24  C   UNL A   1      33.129  34.682  28.592  1.00  0.00     0.251 C 
ATOM     25  H   UNL A   1      31.775  34.717  27.123  1.00  0.00     0.163 HD
ATOM     26  O   UNL A   1      32.816  35.789  29.020  1.00  0.00    -0.269 OA
BRANCH  24  27
ATOM     27  C   UNL A   1      34.285  33.972  29.183  1.00  0.00     0.039 A 
ATOM     28  C   UNL A   1      34.059  33.055  30.214  1.00  0.00     0.014 A 
ATOM     29  C   UNL A   1      35.591  34.242  28.763  1.00  0.00     0.014 A 
ATOM     30  C   UNL A   1      35.134  32.371  30.787  1.00  0.00     0.010 A 
ATOM     31  C   UNL A   1      36.657  33.518  29.295  1.00  0.00     0.010 A 
ATOM     32  C   UNL A   1      36.439  32.578  30.314  1.00  0.00    -0.014 A 
BRANCH  32  33
ATOM     33  C   UNL A   1      37.587  31.819  30.872  1.00  0.00     0.031 A 
ATOM     34  C   UNL A   1      38.087  32.111  32.262  1.00  0.00     0.074 A 
ATOM     35  C   UNL A   1      38.225  30.916  30.103  1.00  0.00     0.049 A 
ATOM     36  N   UNL A   1      39.118  31.608  32.891  1.00  0.00    -0.248 NA
ATOM     37  C   UNL A   1      37.345  33.118  33.036  1.00  0.00     0.031 C 
ATOM     38  C   UNL A   1      37.868  30.575  28.724  1.00  0.00     0.029 A 
ATOM     39  N   UNL A   1      39.318  30.128  30.367  1.00  0.00    -0.354 N 
ATOM     40  C   UNL A   1      39.164  32.253  34.120  1.00  0.00     0.074 A 
ATOM     41  C   UNL A   1      38.077  33.208  34.137  1.00  0.00     0.031 C 
ATOM     42  C   UNL A   1      38.716  29.638  28.269  1.00  0.00     0.029 A 
ATOM     43  C   UNL A   1      39.694  29.336  29.308  1.00  0.00     0.049 A 
ATOM     44  H   UNL A   1      39.787  30.130  31.232  1.00  0.00     0.167 HD
ATOM     45  C   UNL A   1      40.025  32.057  35.147  1.00  0.00     0.037 A 
ATOM     46  C   UNL A   1      40.719  28.471  29.188  1.00  0.00     0.037 A 
ATOM     47  C   UNL A   1      41.075  31.073  35.149  1.00  0.00     0.049 A 
ATOM     48  C   UNL A   1      41.648  28.261  30.352  1.00  0.00     0.074 A 
ATOM     49  C   UNL A   1      41.937  30.735  36.178  1.00  0.00     0.029 A 
ATOM     50  N   UNL A   1      41.406  30.270  34.069  1.00  0.00    -0.354 N 
ATOM     51  N   UNL A   1      41.626  28.820  31.538  1.00  0.00    -0.248 NA
ATOM     52  C   UNL A   1      42.742  27.298  30.161  1.00  0.00     0.031 C 
ATOM     53  C   UNL A   1      42.816  29.755  35.708  1.00  0.00     0.029 A 
ATOM     54  C   UNL A   1      42.476  29.454  34.399  1.00  0.00     0.049 A 
ATOM     55  H   UNL A   1      40.950  30.279  33.197  1.00  0.00     0.167 HD
ATOM     56  C   UNL A   1      42.679  28.253  32.242  1.00  0.00     0.074 A 
ATOM     57  C   UNL A   1      43.314  27.299  31.356  1.00  0.00     0.031 C 
ATOM     58  C   UNL A   1      43.086  28.500  33.511  1.00  0.00     0.037 A 
BRANCH  45  59
ATOM     59  C   UNL A   1      39.868  32.916  36.367  1.00  0.00     0.057 A 
ATOM     60  C   UNL A   1      40.581  34.110  36.527  1.00  0.00     0.134 A 
ATOM     61  C   UNL A   1      38.943  32.575  37.363  1.00  0.00     0.134 A 
ATOM     62  F   UNL A   1      41.488  34.488  35.612  1.00  0.00    -0.206 F 
ATOM     63  C   UNL A   1      40.391  34.929  37.641  1.00  0.00     0.040 A 
ATOM     64  C   UNL A   1      38.728  33.397  38.470  1.00  0.00     0.040 A 
ATOM     65  F   UNL A   1      38.224  31.448  37.266  1.00  0.00    -0.206 F 
ATOM     66  C   UNL A   1      39.455  34.577  38.613  1.00  0.00     0.006 A 
ENDBRANCH  45  59
BRANCH  46  67
ATOM     67  C   UNL A   1      40.919  27.719  27.924  1.00  0.00     0.057 A 
ATOM     68  C   UNL A   1      40.355  26.449  27.745  1.00  0.00     0.134 A 
ATOM     69  C   UNL A   1      41.702  28.230  26.883  1.00  0.00     0.134 A 
ATOM     70  F   UNL A   1      39.612  25.898  28.716  1.00  0.00    -0.206 F 
ATOM     71  C   UNL A   1      40.583  25.705  26.587  1.00  0.00     0.040 A 
ATOM     72  C   UNL A   1      41.919  27.506  25.709  1.00  0.00     0.040 A 
ATOM     73  F   UNL A   1      42.265  29.442  26.990  1.00  0.00    -0.206 F 
ATOM     74  C   UNL A   1      41.366  26.235  25.563  1.00  0.00     0.006 A 
ENDBRANCH  46  67
BRANCH  58  75
ATOM     75  C   UNL A   1      44.243  27.699  34.029  1.00  0.00     0.057 A 
ATOM     76  C   UNL A   1      44.067  26.432  34.597  1.00  0.00     0.134 A 
ATOM     77  C   UNL A   1      45.551  28.188  33.923  1.00  0.00     0.134 A 
ATOM     78  F   UNL A   1      42.838  25.914  34.739  1.00  0.00    -0.206 F 
ATOM     79  C   UNL A   1      45.152  25.687  35.064  1.00  0.00     0.040 A 
ATOM     80  C   UNL A   1      46.645  27.442  34.363  1.00  0.00     0.040 A 
ATOM     81  F   UNL A   1      45.787  29.392  33.381  1.00  0.00    -0.206 F 
ATOM     82  C   UNL A   1      46.446  26.190  34.940  1.00  0.00     0.006 A 
ENDBRANCH  58  75
ENDBRANCH  32  33
ENDBRANCH  24  27
ENDBRANCH  22  23
ENDBRANCH  21  22
ENDBRANCH  20  21
ENDBRANCH   1  20
TORSDOF 16
ENDMDL
MODEL 3
REMARK VINA RESULT:     -10.9      5.216     10.176
REMARK SMILES CC(C)Cc1ccc([C@@H](C)C(=O)NCCCCCCNC(=O)c2ccc(-c3c4nc(c(-c5c(F)cccc5F)c5ccc([nH]5)c(-c5c(F)cccc5F)c5nc(c(-c6c(F)cccc6F)c6ccc3[nH]6)C=C5)C=C4)cc2)cc1
REMARK SMILES IDX 16 1 15 2 14 3 13 4 11 5 12 6 9 8 10 9 8 10 5 11 6 12 78 13
REMARK SMILES IDX 7 14 77 15 4 16 2 17 1 18 3 19 17 20 18 21 19 22 20 23 21 24
REMARK SMILES IDX 22 26 23 27 24 28 76 29 25 30 75 31 26 32 27 33 28 34 69 35
REMARK SMILES IDX 29 36 74 37 68 38 70 39 30 40 73 41 67 42 66 43 31 45 57 46
REMARK SMILES IDX 40 47 56 48 41 49 44 50 55 51 71 52 42 53 43 54 54 56 72 57
REMARK SMILES IDX 45 58 32 59 33 60 38 61 34 62 35 63 37 64 39 65 36 66 58 67
REMARK SMILES IDX 59 68 64 69 60 70 61 71 63 72 65 73 62 74 46 75 47 76 52 77
REMARK SMILES IDX 48 78 49 79 51 80 53 81 50 82
REMARK H PARENT 13 7 20 25 70 44 44 55
REMARK Flexibility Score: inf
ROOT
ATOM      1  C   UNL A   1      36.283  21.487  25.597  1.00  0.00     0.002 C 
ENDROOT
BRANCH   1   2
ATOM      2  C   UNL A   1      35.962  22.691  24.705  1.00  0.00     0.021 C 
BRANCH   2   3
ATOM      3  C   UNL A   1      34.701  23.457  25.117  1.00  0.00     0.116 C 
BRANCH   3   4
ATOM      4  N   UNL A   1      33.964  23.942  23.969  1.00  0.00    -0.356 N 
ATOM      5  C   UNL A   1      32.727  23.644  23.486  1.00  0.00     0.227 C 
ATOM      6  O   UNL A   1      32.410  24.193  22.422  1.00  0.00    -0.274 OA
ATOM      7  H   UNL A   1      34.449  24.614  23.437  1.00  0.00     0.163 HD
BRANCH   5   8
ATOM      8  C   UNL A   1      31.730  22.707  24.184  1.00  0.00     0.105 C 
ATOM      9  C   UNL A   1      31.250  23.206  25.548  1.00  0.00     0.023 C 
BRANCH   8  10
ATOM     10  C   UNL A   1      32.126  21.240  24.132  1.00  0.00    -0.036 A 
ATOM     11  C   UNL A   1      32.915  18.515  23.979  1.00  0.00    -0.048 A 
ATOM     12  C   UNL A   1      32.920  19.203  25.194  1.00  0.00     0.004 A 
ATOM     13  C   UNL A   1      32.538  19.219  22.827  1.00  0.00     0.004 A 
ATOM     14  C   UNL A   1      32.481  20.522  25.275  1.00  0.00     0.005 A 
ATOM     15  C   UNL A   1      32.163  20.566  22.901  1.00  0.00     0.005 A 
BRANCH  11  16
ATOM     16  C   UNL A   1      33.326  17.062  23.878  1.00  0.00     0.038 C 
BRANCH  16  17
ATOM     17  C   UNL A   1      33.616  16.342  25.217  1.00  0.00    -0.013 C 
ATOM     18  C   UNL A   1      32.681  15.151  25.452  1.00  0.00     0.008 C 
ATOM     19  C   UNL A   1      35.069  15.867  25.262  1.00  0.00     0.008 C 
ENDBRANCH  16  17
ENDBRANCH  11  16
ENDBRANCH   8  10
ENDBRANCH   5   8
ENDBRANCH   3   4
ENDBRANCH   2   3
ENDBRANCH   1   2
BRANCH   1  20
ATOM     20  C   UNL A   1      36.244  20.125  24.893  1.00  0.00     0.002 C 
BRANCH  20  21
ATOM     21  C   UNL A   1      37.557  19.333  24.903  1.00  0.00     0.021 C 
BRANCH  21  22
ATOM     22  C   UNL A   1      38.745  20.057  25.530  1.00  0.00     0.116 C 
BRANCH  22  23
ATOM     23  N   UNL A   1      39.896  19.181  25.689  1.00  0.00    -0.352 N 
ATOM     24  C   UNL A   1      41.191  19.476  26.035  1.00  0.00     0.251 C 
ATOM     25  H   UNL A   1      39.718  18.227  25.521  1.00  0.00     0.163 HD
ATOM     26  O   UNL A   1      42.068  18.629  25.900  1.00  0.00    -0.269 OA
BRANCH  24  27
ATOM     27  C   UNL A   1      41.541  20.813  26.565  1.00  0.00     0.039 A 
ATOM     28  C   UNL A   1      41.393  21.056  27.933  1.00  0.00     0.014 A 
ATOM     29  C   UNL A   1      41.964  21.839  25.715  1.00  0.00     0.014 A 
ATOM     30  C   UNL A   1      41.718  22.310  28.458  1.00  0.00     0.010 A 
ATOM     31  C   UNL A   1      42.343  23.070  26.246  1.00  0.00     0.010 A 
ATOM     32  C   UNL A   1      42.220  23.319  27.622  1.00  0.00    -0.014 A 
BRANCH  32  33
ATOM     33  C   UNL A   1      42.624  24.639  28.170  1.00  0.00     0.031 A 
ATOM     34  C   UNL A   1      41.594  25.711  28.406  1.00  0.00     0.074 A 
ATOM     35  C   UNL A   1      43.928  24.898  28.388  1.00  0.00     0.049 A 
ATOM     36  N   UNL A   1      41.763  26.945  28.806  1.00  0.00    -0.248 NA
ATOM     37  C   UNL A   1      40.192  25.355  28.134  1.00  0.00     0.031 C 
ATOM     38  C   UNL A   1      45.029  23.961  28.155  1.00  0.00     0.029 A 
ATOM     39  N   UNL A   1      44.551  26.034  28.843  1.00  0.00    -0.354 N 
ATOM     40  C   UNL A   1      40.498  27.520  28.810  1.00  0.00     0.074 A 
ATOM     41  C   UNL A   1      39.574  26.509  28.340  1.00  0.00     0.031 C 
ATOM     42  C   UNL A   1      46.189  24.554  28.481  1.00  0.00     0.029 A 
ATOM     43  C   UNL A   1      45.919  25.921  28.914  1.00  0.00     0.049 A 
ATOM     44  H   UNL A   1      44.064  26.852  29.094  1.00  0.00     0.167 HD
ATOM     45  C   UNL A   1      40.139  28.770  29.184  1.00  0.00     0.037 A 
ATOM     46  C   UNL A   1      46.850  26.822  29.281  1.00  0.00     0.037 A 
ATOM     47  C   UNL A   1      41.051  29.758  29.697  1.00  0.00     0.049 A 
ATOM     48  C   UNL A   1      46.418  28.198  29.707  1.00  0.00     0.074 A 
ATOM     49  C   UNL A   1      40.765  31.019  30.191  1.00  0.00     0.029 A 
ATOM     50  N   UNL A   1      42.424  29.596  29.782  1.00  0.00    -0.354 N 
ATOM     51  N   UNL A   1      45.209  28.698  29.784  1.00  0.00    -0.248 NA
ATOM     52  C   UNL A   1      47.481  29.133  30.103  1.00  0.00     0.031 C 
ATOM     53  C   UNL A   1      41.972  31.636  30.538  1.00  0.00     0.029 A 
ATOM     54  C   UNL A   1      43.004  30.744  30.297  1.00  0.00     0.049 A 
ATOM     55  H   UNL A   1      42.915  28.785  29.515  1.00  0.00     0.167 HD
ATOM     56  C   UNL A   1      45.363  29.990  30.265  1.00  0.00     0.074 A 
ATOM     57  C   UNL A   1      46.781  30.196  30.474  1.00  0.00     0.031 C 
ATOM     58  C   UNL A   1      44.415  30.926  30.513  1.00  0.00     0.037 A 
BRANCH  45  59
ATOM     59  C   UNL A   1      38.692  29.148  29.063  1.00  0.00     0.057 A 
ATOM     60  C   UNL A   1      37.825  29.115  30.162  1.00  0.00     0.134 A 
ATOM     61  C   UNL A   1      38.177  29.614  27.846  1.00  0.00     0.134 A 
ATOM     62  F   UNL A   1      38.254  28.670  31.353  1.00  0.00    -0.206 F 
ATOM     63  C   UNL A   1      36.493  29.516  30.052  1.00  0.00     0.040 A 
ATOM     64  C   UNL A   1      36.853  30.040  27.729  1.00  0.00     0.040 A 
ATOM     65  F   UNL A   1      38.957  29.677  26.757  1.00  0.00    -0.206 F 
ATOM     66  C   UNL A   1      36.006  29.989  28.834  1.00  0.00     0.006 A 
ENDBRANCH  45  59
BRANCH  46  67
ATOM     67  C   UNL A   1      48.288  26.455  29.278  1.00  0.00     0.057 A 
ATOM     68  C   UNL A   1      48.877  25.844  30.392  1.00  0.00     0.134 A 
ATOM     69  C   UNL A   1      49.114  26.733  28.183  1.00  0.00     0.134 A 
ATOM     70  F   UNL A   1      48.141  25.571  31.480  1.00  0.00    -0.206 F 
ATOM     71  C   UNL A   1      50.240  25.547  30.428  1.00  0.00     0.040 A 
ATOM     72  C   UNL A   1      50.475  26.420  28.196  1.00  0.00     0.040 A 
ATOM     73  F   UNL A   1      48.610  27.311  27.084  1.00  0.00    -0.206 F 
ATOM     74  C   UNL A   1      51.043  25.833  29.326  1.00  0.00     0.006 A 
ENDBRANCH  46  67
BRANCH  58  75
ATOM     75  C   UNL A   1      44.875  32.237  31.074  1.00  0.00     0.057 A 
ATOM     76  C   UNL A   1      44.962  32.459  32.454  1.00  0.00     0.134 A 
ATOM     77  C   UNL A   1      45.271  33.277  30.223  1.00  0.00     0.134 A 
ATOM     78  F   UNL A   1      44.585  31.508  33.321  1.00  0.00    -0.206 F 
ATOM     79  C   UNL A   1      45.406  33.679  32.968  1.00  0.00     0.040 A 
ATOM     80  C   UNL A   1      45.740  34.491  30.725  1.00  0.00     0.040 A 
ATOM     81  F   UNL A   1      45.219  33.124  28.892  1.00  0.00    -0.206 F 
ATOM     82  C   UNL A   1      45.803  34.696  32.102  1.00  0.00     0.006 A 
ENDBRANCH  58  75
ENDBRANCH  32  33
ENDBRANCH  24  27
ENDBRANCH  22  23
ENDBRANCH  21  22
ENDBRANCH  20  21
ENDBRANCH   1  20
TORSDOF 16
ENDMDL
