MODEL 1
REMARK VINA RESULT:     -12.0      0.000      0.000
REMARK SMILES Nc1c(Cl)ccc2c1C=C(C(=O)NCCCCCCNC(=O)c1ccc(-c3c4nc(c(-c5c(F)cccc5F)c5ccc([nH]5)c(-c5c(F)cccc5F)c5nc(c(-c6c(F)cccc6F)c6ccc3[nH]6)C=C5)C=C4)cc1)[C@@H](C(F)(F)F)O2
REMARK SMILES IDX 17 1 16 2 15 3 14 4 13 5 11 6 12 7 10 9 2 10 3 11 8 12 4 13
REMARK SMILES IDX 5 14 7 15 9 16 6 17 82 18 77 19 1 20 78 23 79 24 80 25 81 26
REMARK SMILES IDX 18 27 19 28 20 29 21 30 22 32 23 33 24 34 76 35 25 36 75 37
REMARK SMILES IDX 26 38 27 39 28 40 69 41 29 42 74 43 68 44 70 45 30 46 73 47
REMARK SMILES IDX 67 48 66 49 31 51 57 52 40 53 56 54 41 55 44 56 55 57 71 58
REMARK SMILES IDX 42 59 43 60 54 62 72 63 45 64 32 65 33 66 38 67 34 68 35 69
REMARK SMILES IDX 37 70 39 71 36 72 58 73 59 74 64 75 60 76 61 77 63 78 65 79
REMARK SMILES IDX 62 80 46 81 47 82 52 83 48 84 49 85 51 86 53 87 50 88
REMARK H PARENT 13 8 1 21 1 22 20 31 70 50 44 61
REMARK Flexibility Score: inf
ROOT
ATOM      1  C   UNL A   1      36.116  20.730  25.240  1.00  0.00     0.002 C 
ENDROOT
BRANCH   1   2
ATOM      2  C   UNL A   1      36.273  22.210  25.618  1.00  0.00     0.002 C 
BRANCH   2   3
ATOM      3  C   UNL A   1      35.131  22.783  26.459  1.00  0.00     0.021 C 
BRANCH   3   4
ATOM      4  C   UNL A   1      34.618  24.126  25.952  1.00  0.00     0.116 C 
BRANCH   4   5
ATOM      5  N   UNL A   1      33.171  24.209  26.027  1.00  0.00    -0.352 N 
ATOM      6  C   UNL A   1      32.114  23.541  25.512  1.00  0.00     0.251 C 
ATOM      7  O   UNL A   1      31.007  23.959  25.868  1.00  0.00    -0.270 OA
ATOM      8  H   UNL A   1      32.883  24.948  26.609  1.00  0.00     0.163 HD
BRANCH   6   9
ATOM      9  C   UNL A   1      32.201  22.377  24.579  1.00  0.00     0.067 C 
ATOM     10  C   UNL A   1      32.760  18.694  24.870  1.00  0.00     0.061 A 
ATOM     11  C   UNL A   1      32.820  17.597  23.979  1.00  0.00     0.064 A 
ATOM     12  C   UNL A   1      32.447  19.965  24.339  1.00  0.00     0.042 A 
ATOM     13  Cl  UNL A   1      33.220  16.012  24.556  1.00  0.00    -0.082 Cl
ATOM     14  C   UNL A   1      32.543  17.739  22.619  1.00  0.00     0.026 A 
ATOM     15  C   UNL A   1      32.197  20.093  22.964  1.00  0.00     0.130 A 
ATOM     16  C   UNL A   1      32.325  21.172  25.165  1.00  0.00     0.027 C 
ATOM     17  C   UNL A   1      32.227  18.992  22.113  1.00  0.00     0.049 A 
ATOM     18  O   UNL A   1      31.874  21.274  22.365  1.00  0.00    -0.475 OA
ATOM     19  C   UNL A   1      32.192  22.491  23.086  1.00  0.00     0.314 C 
BRANCH  10  20
ATOM     20  N   UNL A   1      33.106  18.518  26.213  1.00  0.00    -0.397 N 
ATOM     21  H   UNL A   1      32.802  17.716  26.697  1.00  0.00     0.156 HD
ATOM     22  H   UNL A   1      33.651  19.195  26.674  1.00  0.00     0.156 HD
ENDBRANCH  10  20
BRANCH  19  23
ATOM     23  C   UNL A   1      33.493  23.092  22.524  1.00  0.00     0.429 C 
ATOM     24  F   UNL A   1      34.571  22.453  23.043  1.00  0.00    -0.167 F 
ATOM     25  F   UNL A   1      33.590  22.967  21.180  1.00  0.00    -0.167 F 
ATOM     26  F   UNL A   1      33.624  24.406  22.808  1.00  0.00    -0.167 F 
ENDBRANCH  19  23
ENDBRANCH   6   9
ENDBRANCH   4   5
ENDBRANCH   3   4
ENDBRANCH   2   3
ENDBRANCH   1   2
BRANCH   1  27
ATOM     27  C   UNL A   1      37.422  20.005  24.903  1.00  0.00     0.021 C 
BRANCH  27  28
ATOM     28  C   UNL A   1      38.630  20.504  25.685  1.00  0.00     0.116 C 
BRANCH  28  29
ATOM     29  N   UNL A   1      39.667  19.489  25.764  1.00  0.00    -0.352 N 
ATOM     30  C   UNL A   1      41.002  19.653  26.025  1.00  0.00     0.251 C 
ATOM     31  H   UNL A   1      39.373  18.562  25.611  1.00  0.00     0.163 HD
ATOM     32  O   UNL A   1      41.798  18.739  25.838  1.00  0.00    -0.269 OA
BRANCH  30  33
ATOM     33  C   UNL A   1      41.469  20.953  26.537  1.00  0.00     0.039 A 
ATOM     34  C   UNL A   1      41.936  21.914  25.636  1.00  0.00     0.014 A 
ATOM     35  C   UNL A   1      41.437  21.212  27.910  1.00  0.00     0.014 A 
ATOM     36  C   UNL A   1      42.339  23.160  26.115  1.00  0.00     0.010 A 
ATOM     37  C   UNL A   1      41.788  22.471  28.379  1.00  0.00     0.010 A 
ATOM     38  C   UNL A   1      42.253  23.449  27.485  1.00  0.00    -0.014 A 
BRANCH  38  39
ATOM     39  C   UNL A   1      42.704  24.749  28.028  1.00  0.00     0.031 A 
ATOM     40  C   UNL A   1      41.690  25.824  28.290  1.00  0.00     0.074 A 
ATOM     41  C   UNL A   1      44.015  24.982  28.217  1.00  0.00     0.049 A 
ATOM     42  N   UNL A   1      41.874  27.064  28.662  1.00  0.00    -0.248 NA
ATOM     43  C   UNL A   1      40.279  25.459  28.082  1.00  0.00     0.031 C 
ATOM     44  C   UNL A   1      45.090  24.016  27.984  1.00  0.00     0.029 A 
ATOM     45  N   UNL A   1      44.667  26.114  28.631  1.00  0.00    -0.354 N 
ATOM     46  C   UNL A   1      40.606  27.626  28.733  1.00  0.00     0.074 A 
ATOM     47  C   UNL A   1      39.667  26.610  28.308  1.00  0.00     0.031 C 
ATOM     48  C   UNL A   1      46.268  24.597  28.263  1.00  0.00     0.029 A 
ATOM     49  C   UNL A   1      46.034  25.985  28.653  1.00  0.00     0.049 A 
ATOM     50  H   UNL A   1      44.199  26.942  28.888  1.00  0.00     0.167 HD
ATOM     51  C   UNL A   1      40.255  28.868  29.139  1.00  0.00     0.037 A 
ATOM     52  C   UNL A   1      46.985  26.894  28.937  1.00  0.00     0.037 A 
ATOM     53  C   UNL A   1      41.196  29.873  29.554  1.00  0.00     0.049 A 
ATOM     54  C   UNL A   1      46.572  28.296  29.302  1.00  0.00     0.074 A 
ATOM     55  C   UNL A   1      40.946  31.151  30.021  1.00  0.00     0.029 A 
ATOM     56  N   UNL A   1      42.575  29.715  29.538  1.00  0.00    -0.354 N 
ATOM     57  N   UNL A   1      45.368  28.799  29.430  1.00  0.00    -0.248 NA
ATOM     58  C   UNL A   1      47.654  29.257  29.555  1.00  0.00     0.031 C 
ATOM     59  C   UNL A   1      42.175  31.786  30.232  1.00  0.00     0.029 A 
ATOM     60  C   UNL A   1      43.189  30.886  29.948  1.00  0.00     0.049 A 
ATOM     61  H   UNL A   1      43.045  28.892  29.274  1.00  0.00     0.167 HD
ATOM     62  C   UNL A   1      45.546  30.126  29.798  1.00  0.00     0.074 A 
ATOM     63  C   UNL A   1      46.975  30.343  29.896  1.00  0.00     0.031 C 
ATOM     64  C   UNL A   1      44.615  31.083  30.032  1.00  0.00     0.037 A 
BRANCH  51  65
ATOM     65  C   UNL A   1      38.792  29.203  29.137  1.00  0.00     0.057 A 
ATOM     66  C   UNL A   1      38.031  29.096  30.308  1.00  0.00     0.134 A 
ATOM     67  C   UNL A   1      38.132  29.623  27.973  1.00  0.00     0.134 A 
ATOM     68  F   UNL A   1      38.597  28.696  31.456  1.00  0.00    -0.206 F 
ATOM     69  C   UNL A   1      36.668  29.400  30.322  1.00  0.00     0.040 A 
ATOM     70  C   UNL A   1      36.777  29.958  27.982  1.00  0.00     0.040 A 
ATOM     71  F   UNL A   1      38.805  29.759  26.822  1.00  0.00    -0.206 F 
ATOM     72  C   UNL A   1      36.040  29.841  29.159  1.00  0.00     0.006 A 
ENDBRANCH  51  65
BRANCH  52  73
ATOM     73  C   UNL A   1      48.422  26.522  28.882  1.00  0.00     0.057 A 
ATOM     74  C   UNL A   1      49.074  25.942  29.977  1.00  0.00     0.134 A 
ATOM     75  C   UNL A   1      49.167  26.703  27.711  1.00  0.00     0.134 A 
ATOM     76  F   UNL A   1      48.418  25.745  31.130  1.00  0.00    -0.206 F 
ATOM     77  C   UNL A   1      50.414  25.555  29.909  1.00  0.00     0.040 A 
ATOM     78  C   UNL A   1      50.499  26.296  27.620  1.00  0.00     0.040 A 
ATOM     79  F   UNL A   1      48.593  27.235  26.622  1.00  0.00    -0.206 F 
ATOM     80  C   UNL A   1      51.127  25.722  28.724  1.00  0.00     0.006 A 
ENDBRANCH  52  73
BRANCH  64  81
ATOM     81  C   UNL A   1      45.114  32.442  30.427  1.00  0.00     0.057 A 
ATOM     82  C   UNL A   1      45.347  32.756  31.772  1.00  0.00     0.134 A 
ATOM     83  C   UNL A   1      45.328  33.452  29.480  1.00  0.00     0.134 A 
ATOM     84  F   UNL A   1      45.153  31.839  32.730  1.00  0.00    -0.206 F 
ATOM     85  C   UNL A   1      45.770  34.028  32.161  1.00  0.00     0.040 A 
ATOM     86  C   UNL A   1      45.779  34.718  29.854  1.00  0.00     0.040 A 
ATOM     87  F   UNL A   1      45.138  33.211  28.174  1.00  0.00    -0.206 F 
ATOM     88  C   UNL A   1      45.993  35.011  31.199  1.00  0.00     0.006 A 
ENDBRANCH  64  81
ENDBRANCH  38  39
ENDBRANCH  30  33
ENDBRANCH  28  29
ENDBRANCH  27  28
ENDBRANCH   1  27
TORSDOF 15
ENDMDL
MODEL 2
REMARK VINA RESULT:     -11.9      5.213      9.622
REMARK SMILES Nc1c(Cl)ccc2c1C=C(C(=O)NCCCCCCNC(=O)c1ccc(-c3c4nc(c(-c5c(F)cccc5F)c5ccc([nH]5)c(-c5c(F)cccc5F)c5nc(c(-c6c(F)cccc6F)c6ccc3[nH]6)C=C5)C=C4)cc1)[C@@H](C(F)(F)F)O2
REMARK SMILES IDX 17 1 16 2 15 3 14 4 13 5 11 6 12 7 10 9 2 10 3 11 8 12 4 13
REMARK SMILES IDX 5 14 7 15 9 16 6 17 82 18 77 19 1 20 78 23 79 24 80 25 81 26
REMARK SMILES IDX 18 27 19 28 20 29 21 30 22 32 23 33 24 34 76 35 25 36 75 37
REMARK SMILES IDX 26 38 27 39 28 40 69 41 29 42 74 43 68 44 70 45 30 46 73 47
REMARK SMILES IDX 67 48 66 49 31 51 57 52 40 53 56 54 41 55 44 56 55 57 71 58
REMARK SMILES IDX 42 59 43 60 54 62 72 63 45 64 32 65 33 66 38 67 34 68 35 69
REMARK SMILES IDX 37 70 39 71 36 72 58 73 59 74 64 75 60 76 61 77 63 78 65 79
REMARK SMILES IDX 62 80 46 81 47 82 52 83 48 84 49 85 51 86 53 87 50 88
REMARK H PARENT 13 8 1 21 1 22 20 31 70 50 44 61
REMARK Flexibility Score: inf
ROOT
ATOM      1  C   UNL A   1      31.675  30.089  25.575  1.00  0.00     0.002 C 
ENDROOT
BRANCH   1   2
ATOM      2  C   UNL A   1      32.938  29.370  26.069  1.00  0.00     0.002 C 
BRANCH   2   3
ATOM      3  C   UNL A   1      33.669  28.551  25.004  1.00  0.00     0.021 C 
BRANCH   3   4
ATOM      4  C   UNL A   1      33.810  27.075  25.363  1.00  0.00     0.116 C 
BRANCH   4   5
ATOM      5  N   UNL A   1      33.613  26.222  24.206  1.00  0.00    -0.352 N 
ATOM      6  C   UNL A   1      32.597  25.907  23.371  1.00  0.00     0.251 C 
ATOM      7  O   UNL A   1      32.887  25.111  22.471  1.00  0.00    -0.270 OA
ATOM      8  H   UNL A   1      34.440  25.746  23.965  1.00  0.00     0.163 HD
BRANCH   6   9
ATOM      9  C   UNL A   1      31.205  26.440  23.467  1.00  0.00     0.067 C 
ATOM     10  C   UNL A   1      29.403  29.544  22.425  1.00  0.00     0.061 A 
ATOM     11  C   UNL A   1      28.077  30.030  22.503  1.00  0.00     0.064 A 
ATOM     12  C   UNL A   1      29.662  28.238  22.899  1.00  0.00     0.042 A 
ATOM     13  Cl  UNL A   1      27.690  31.630  21.963  1.00  0.00    -0.082 Cl
ATOM     14  C   UNL A   1      27.034  29.244  22.995  1.00  0.00     0.026 A 
ATOM     15  C   UNL A   1      28.605  27.471  23.413  1.00  0.00     0.130 A 
ATOM     16  C   UNL A   1      30.987  27.612  22.842  1.00  0.00     0.027 C 
ATOM     17  C   UNL A   1      27.301  27.959  23.448  1.00  0.00     0.049 A 
ATOM     18  O   UNL A   1      28.756  26.199  23.879  1.00  0.00    -0.475 OA
ATOM     19  C   UNL A   1      30.098  25.776  24.226  1.00  0.00     0.314 C 
BRANCH  10  20
ATOM     20  N   UNL A   1      30.427  30.387  21.984  1.00  0.00    -0.397 N 
ATOM     21  H   UNL A   1      30.240  31.071  21.301  1.00  0.00     0.156 HD
ATOM     22  H   UNL A   1      31.334  30.296  22.354  1.00  0.00     0.156 HD
ENDBRANCH  10  20
BRANCH  19  23
ATOM     23  C   UNL A   1      30.282  25.864  25.752  1.00  0.00     0.429 C 
ATOM     24  F   UNL A   1      29.135  25.513  26.387  1.00  0.00    -0.167 F 
ATOM     25  F   UNL A   1      31.240  25.026  26.213  1.00  0.00    -0.167 F 
ATOM     26  F   UNL A   1      30.612  27.107  26.166  1.00  0.00    -0.167 F 
ENDBRANCH  19  23
ENDBRANCH   6   9
ENDBRANCH   4   5
ENDBRANCH   3   4
ENDBRANCH   2   3
ENDBRANCH   1   2
BRANCH   1  27
ATOM     27  C   UNL A   1      31.397  31.442  26.236  1.00  0.00     0.021 C 
BRANCH  27  28
ATOM     28  C   UNL A   1      32.607  32.052  26.932  1.00  0.00     0.116 C 
BRANCH  28  29
ATOM     29  N   UNL A   1      32.356  33.431  27.319  1.00  0.00    -0.352 N 
ATOM     30  C   UNL A   1      33.003  34.181  28.265  1.00  0.00     0.251 C 
ATOM     31  H   UNL A   1      31.628  33.885  26.839  1.00  0.00     0.163 HD
ATOM     32  O   UNL A   1      32.542  35.252  28.645  1.00  0.00    -0.269 OA
BRANCH  30  33
ATOM     33  C   UNL A   1      34.270  33.678  28.825  1.00  0.00     0.039 A 
ATOM     34  C   UNL A   1      35.480  34.140  28.301  1.00  0.00     0.014 A 
ATOM     35  C   UNL A   1      34.249  32.751  29.871  1.00  0.00     0.014 A 
ATOM     36  C   UNL A   1      36.679  33.697  28.858  1.00  0.00     0.010 A 
ATOM     37  C   UNL A   1      35.442  32.353  30.459  1.00  0.00     0.010 A 
ATOM     38  C   UNL A   1      36.665  32.813  29.948  1.00  0.00    -0.014 A 
BRANCH  38  39
ATOM     39  C   UNL A   1      37.920  32.299  30.539  1.00  0.00     0.031 A 
ATOM     40  C   UNL A   1      38.561  31.079  29.945  1.00  0.00     0.074 A 
ATOM     41  C   UNL A   1      38.436  32.881  31.636  1.00  0.00     0.049 A 
ATOM     42  N   UNL A   1      39.597  30.401  30.365  1.00  0.00    -0.248 NA
ATOM     43  C   UNL A   1      37.937  30.536  28.728  1.00  0.00     0.031 C 
ATOM     44  C   UNL A   1      37.890  34.062  32.305  1.00  0.00     0.029 A 
ATOM     45  N   UNL A   1      39.527  32.542  32.392  1.00  0.00    -0.354 N 
ATOM     46  C   UNL A   1      39.749  29.353  29.464  1.00  0.00     0.074 A 
ATOM     47  C   UNL A   1      38.664  29.451  28.513  1.00  0.00     0.031 C 
ATOM     48  C   UNL A   1      38.653  34.352  33.371  1.00  0.00     0.029 A 
ATOM     49  C   UNL A   1      39.713  33.355  33.484  1.00  0.00     0.049 A 
ATOM     50  H   UNL A   1      40.121  31.787  32.175  1.00  0.00     0.167 HD
ATOM     51  C   UNL A   1      40.719  28.411  29.423  1.00  0.00     0.037 A 
ATOM     52  C   UNL A   1      40.627  33.284  34.470  1.00  0.00     0.037 A 
ATOM     53  C   UNL A   1      41.790  28.317  30.378  1.00  0.00     0.049 A 
ATOM     54  C   UNL A   1      41.643  32.173  34.448  1.00  0.00     0.074 A 
ATOM     55  C   UNL A   1      42.847  27.425  30.406  1.00  0.00     0.029 A 
ATOM     56  N   UNL A   1      41.931  29.141  31.485  1.00  0.00    -0.354 N 
ATOM     57  N   UNL A   1      41.818  31.227  33.557  1.00  0.00    -0.248 NA
ATOM     58  C   UNL A   1      42.584  32.117  35.575  1.00  0.00     0.031 C 
ATOM     59  C   UNL A   1      43.595  27.673  31.562  1.00  0.00     0.029 A 
ATOM     60  C   UNL A   1      43.035  28.753  32.225  1.00  0.00     0.049 A 
ATOM     61  H   UNL A   1      41.335  29.891  31.710  1.00  0.00     0.167 HD
ATOM     62  C   UNL A   1      42.900  30.478  34.003  1.00  0.00     0.074 A 
ATOM     63  C   UNL A   1      43.355  31.095  35.232  1.00  0.00     0.031 C 
ATOM     64  C   UNL A   1      43.466  29.378  33.451  1.00  0.00     0.037 A 
BRANCH  51  65
ATOM     65  C   UNL A   1      40.649  27.403  28.313  1.00  0.00     0.057 A 
ATOM     66  C   UNL A   1      41.333  27.613  27.109  1.00  0.00     0.134 A 
ATOM     67  C   UNL A   1      39.895  26.226  28.430  1.00  0.00     0.134 A 
ATOM     68  F   UNL A   1      42.069  28.719  26.927  1.00  0.00    -0.206 F 
ATOM     69  C   UNL A   1      41.275  26.688  26.065  1.00  0.00     0.040 A 
ATOM     70  C   UNL A   1      39.854  25.279  27.405  1.00  0.00     0.040 A 
ATOM     71  F   UNL A   1      39.227  25.957  29.561  1.00  0.00    -0.206 F 
ATOM     72  C   UNL A   1      40.541  25.512  26.216  1.00  0.00     0.006 A 
ENDBRANCH  51  65
BRANCH  52  73
ATOM     73  C   UNL A   1      40.626  34.282  35.570  1.00  0.00     0.057 A 
ATOM     74  C   UNL A   1      41.342  35.481  35.475  1.00  0.00     0.134 A 
ATOM     75  C   UNL A   1      39.869  34.074  36.729  1.00  0.00     0.134 A 
ATOM     76  F   UNL A   1      42.091  35.740  34.393  1.00  0.00    -0.206 F 
ATOM     77  C   UNL A   1      41.306  36.437  36.493  1.00  0.00     0.040 A 
ATOM     78  C   UNL A   1      39.802  35.032  37.742  1.00  0.00     0.040 A 
ATOM     79  F   UNL A   1      39.144  32.954  36.869  1.00  0.00    -0.206 F 
ATOM     80  C   UNL A   1      40.526  36.218  37.625  1.00  0.00     0.006 A 
ENDBRANCH  52  73
BRANCH  64  81
ATOM     81  C   UNL A   1      44.645  28.782  34.165  1.00  0.00     0.057 A 
ATOM     82  C   UNL A   1      44.468  27.781  35.128  1.00  0.00     0.134 A 
ATOM     83  C   UNL A   1      45.952  29.226  33.925  1.00  0.00     0.134 A 
ATOM     84  F   UNL A   1      43.243  27.317  35.413  1.00  0.00    -0.206 F 
ATOM     85  C   UNL A   1      45.549  27.248  35.832  1.00  0.00     0.040 A 
ATOM     86  C   UNL A   1      47.043  28.680  34.601  1.00  0.00     0.040 A 
ATOM     87  F   UNL A   1      46.191  30.171  33.003  1.00  0.00    -0.206 F 
ATOM     88  C   UNL A   1      46.841  27.692  35.564  1.00  0.00     0.006 A 
ENDBRANCH  64  81
ENDBRANCH  38  39
ENDBRANCH  30  33
ENDBRANCH  28  29
ENDBRANCH  27  28
ENDBRANCH   1  27
TORSDOF 15
ENDMDL
MODEL 3
REMARK VINA RESULT:     -11.9      0.931      2.000
REMARK SMILES Nc1c(Cl)ccc2c1C=C(C(=O)NCCCCCCNC(=O)c1ccc(-c3c4nc(c(-c5c(F)cccc5F)c5ccc([nH]5)c(-c5c(F)cccc5F)c5nc(c(-c6c(F)cccc6F)c6ccc3[nH]6)C=C5)C=C4)cc1)[C@@H](C(F)(F)F)O2
REMARK SMILES IDX 17 1 16 2 15 3 14 4 13 5 11 6 12 7 10 9 2 10 3 11 8 12 4 13
REMARK SMILES IDX 5 14 7 15 9 16 6 17 82 18 77 19 1 20 78 23 79 24 80 25 81 26
REMARK SMILES IDX 18 27 19 28 20 29 21 30 22 32 23 33 24 34 76 35 25 36 75 37
REMARK SMILES IDX 26 38 27 39 28 40 69 41 29 42 74 43 68 44 70 45 30 46 73 47
REMARK SMILES IDX 67 48 66 49 31 51 57 52 40 53 56 54 41 55 44 56 55 57 71 58
REMARK SMILES IDX 42 59 43 60 54 62 72 63 45 64 32 65 33 66 38 67 34 68 35 69
REMARK SMILES IDX 37 70 39 71 36 72 58 73 59 74 64 75 60 76 61 77 63 78 65 79
REMARK SMILES IDX 62 80 46 81 47 82 52 83 48 84 49 85 51 86 53 87 50 88
REMARK H PARENT 13 8 1 21 1 22 20 31 70 50 44 61
REMARK Flexibility Score: inf
ROOT
ATOM      1  C   UNL A   1      36.165  20.633  25.016  1.00  0.00     0.002 C 
ENDROOT
BRANCH   1   2
ATOM      2  C   UNL A   1      36.377  22.129  25.286  1.00  0.00     0.002 C 
BRANCH   2   3
ATOM      3  C   UNL A   1      35.369  22.757  26.251  1.00  0.00     0.021 C 
BRANCH   3   4
ATOM      4  C   UNL A   1      34.813  24.091  25.765  1.00  0.00     0.116 C 
BRANCH   4   5
ATOM      5  N   UNL A   1      33.376  24.170  25.948  1.00  0.00    -0.352 N 
ATOM      6  C   UNL A   1      32.283  23.516  25.493  1.00  0.00     0.251 C 
ATOM      7  O   UNL A   1      31.205  23.923  25.940  1.00  0.00    -0.270 OA
ATOM      8  H   UNL A   1      33.132  24.892  26.570  1.00  0.00     0.163 HD
BRANCH   6   9
ATOM      9  C   UNL A   1      32.300  22.379  24.523  1.00  0.00     0.067 C 
ATOM     10  C   UNL A   1      32.929  18.699  24.658  1.00  0.00     0.061 A 
ATOM     11  C   UNL A   1      32.922  17.627  23.735  1.00  0.00     0.064 A 
ATOM     12  C   UNL A   1      32.554  19.979  24.193  1.00  0.00     0.042 A 
ATOM     13  Cl  UNL A   1      33.392  16.033  24.228  1.00  0.00    -0.082 Cl
ATOM     14  C   UNL A   1      32.523  17.802  22.409  1.00  0.00     0.026 A 
ATOM     15  C   UNL A   1      32.180  20.141  22.851  1.00  0.00     0.130 A 
ATOM     16  C   UNL A   1      32.492  21.160  25.061  1.00  0.00     0.027 C 
ATOM     17  C   UNL A   1      32.147  19.063  21.969  1.00  0.00     0.049 A 
ATOM     18  O   UNL A   1      31.790  21.332  22.317  1.00  0.00    -0.475 OA
ATOM     19  C   UNL A   1      32.156  22.534  23.041  1.00  0.00     0.314 C 
BRANCH  10  20
ATOM     20  N   UNL A   1      33.396  18.491  25.959  1.00  0.00    -0.397 N 
ATOM     21  H   UNL A   1      33.905  17.676  26.175  1.00  0.00     0.156 HD
ATOM     22  H   UNL A   1      33.214  19.158  26.660  1.00  0.00     0.156 HD
ENDBRANCH  10  20
BRANCH  19  23
ATOM     23  C   UNL A   1      33.394  23.169  22.382  1.00  0.00     0.429 C 
ATOM     24  F   UNL A   1      33.314  23.070  21.031  1.00  0.00    -0.167 F 
ATOM     25  F   UNL A   1      33.514  24.489  22.656  1.00  0.00    -0.167 F 
ATOM     26  F   UNL A   1      34.548  22.580  22.766  1.00  0.00    -0.167 F 
ENDBRANCH  19  23
ENDBRANCH   6   9
ENDBRANCH   4   5
ENDBRANCH   3   4
ENDBRANCH   2   3
ENDBRANCH   1   2
BRANCH   1  27
ATOM     27  C   UNL A   1      37.446  19.825  24.794  1.00  0.00     0.021 C 
BRANCH  27  28
ATOM     28  C   UNL A   1      38.629  20.294  25.632  1.00  0.00     0.116 C 
BRANCH  28  29
ATOM     29  N   UNL A   1      39.639  19.257  25.752  1.00  0.00    -0.352 N 
ATOM     30  C   UNL A   1      40.984  19.398  25.972  1.00  0.00     0.251 C 
ATOM     31  H   UNL A   1      39.316  18.331  25.665  1.00  0.00     0.163 HD
ATOM     32  O   UNL A   1      41.750  18.451  25.825  1.00  0.00    -0.269 OA
BRANCH  30  33
ATOM     33  C   UNL A   1      41.500  20.713  26.388  1.00  0.00     0.039 A 
ATOM     34  C   UNL A   1      41.651  20.988  27.749  1.00  0.00     0.014 A 
ATOM     35  C   UNL A   1      41.836  21.667  25.422  1.00  0.00     0.014 A 
ATOM     36  C   UNL A   1      42.179  22.217  28.144  1.00  0.00     0.010 A 
ATOM     37  C   UNL A   1      42.411  22.868  25.814  1.00  0.00     0.010 A 
ATOM     38  C   UNL A   1      42.574  23.156  27.178  1.00  0.00    -0.014 A 
BRANCH  38  39
ATOM     39  C   UNL A   1      43.107  24.481  27.565  1.00  0.00     0.031 A 
ATOM     40  C   UNL A   1      42.149  25.567  27.960  1.00  0.00     0.074 A 
ATOM     41  C   UNL A   1      44.427  24.723  27.494  1.00  0.00     0.049 A 
ATOM     42  N   UNL A   1      42.387  26.823  28.232  1.00  0.00    -0.248 NA
ATOM     43  C   UNL A   1      40.727  25.191  28.037  1.00  0.00     0.031 C 
ATOM     44  C   UNL A   1      45.448  23.747  27.110  1.00  0.00     0.029 A 
ATOM     45  N   UNL A   1      45.134  25.875  27.724  1.00  0.00    -0.354 N 
ATOM     46  C   UNL A   1      41.149  27.387  28.512  1.00  0.00     0.074 A 
ATOM     47  C   UNL A   1      40.157  26.352  28.318  1.00  0.00     0.031 C 
ATOM     48  C   UNL A   1      46.653  24.343  27.136  1.00  0.00     0.029 A 
ATOM     49  C   UNL A   1      46.482  25.747  27.496  1.00  0.00     0.049 A 
ATOM     50  H   UNL A   1      44.715  26.714  28.024  1.00  0.00     0.167 HD
ATOM     51  C   UNL A   1      40.869  28.648  28.916  1.00  0.00     0.037 A 
ATOM     52  C   UNL A   1      47.461  26.669  27.554  1.00  0.00     0.037 A 
ATOM     53  C   UNL A   1      41.861  29.672  29.099  1.00  0.00     0.049 A 
ATOM     54  C   UNL A   1      47.110  28.087  27.922  1.00  0.00     0.074 A 
ATOM     55  C   UNL A   1      41.690  30.971  29.543  1.00  0.00     0.029 A 
ATOM     56  N   UNL A   1      43.213  29.514  28.833  1.00  0.00    -0.354 N 
ATOM     57  N   UNL A   1      45.946  28.595  28.248  1.00  0.00    -0.248 NA
ATOM     58  C   UNL A   1      48.210  29.060  27.922  1.00  0.00     0.031 C 
ATOM     59  C   UNL A   1      42.930  31.617  29.490  1.00  0.00     0.029 A 
ATOM     60  C   UNL A   1      43.882  30.705  29.065  1.00  0.00     0.049 A 
ATOM     61  H   UNL A   1      43.634  28.680  28.526  1.00  0.00     0.167 HD
ATOM     62  C   UNL A   1      46.177  29.939  28.514  1.00  0.00     0.074 A 
ATOM     63  C   UNL A   1      47.597  30.161  28.332  1.00  0.00     0.031 C 
ATOM     64  C   UNL A   1      45.296  30.905  28.871  1.00  0.00     0.037 A 
BRANCH  51  65
ATOM     65  C   UNL A   1      39.427  28.981  29.172  1.00  0.00     0.057 A 
ATOM     66  C   UNL A   1      38.619  29.498  28.152  1.00  0.00     0.134 A 
ATOM     67  C   UNL A   1      38.840  28.801  30.432  1.00  0.00     0.134 A 
ATOM     68  F   UNL A   1      39.117  29.700  26.923  1.00  0.00    -0.206 F 
ATOM     69  C   UNL A   1      37.279  29.817  28.374  1.00  0.00     0.040 A 
ATOM     70  C   UNL A   1      37.492  29.088  30.659  1.00  0.00     0.040 A 
ATOM     71  F   UNL A   1      39.555  28.297  31.449  1.00  0.00    -0.206 F 
ATOM     72  C   UNL A   1      36.709  29.604  29.628  1.00  0.00     0.006 A 
ENDBRANCH  51  65
BRANCH  52  73
ATOM     73  C   UNL A   1      48.866  26.297  27.249  1.00  0.00     0.057 A 
ATOM     74  C   UNL A   1      49.390  26.400  25.955  1.00  0.00     0.134 A 
ATOM     75  C   UNL A   1      49.731  25.866  28.262  1.00  0.00     0.134 A 
ATOM     76  F   UNL A   1      48.613  26.803  24.939  1.00  0.00    -0.206 F 
ATOM     77  C   UNL A   1      50.723  26.089  25.679  1.00  0.00     0.040 A 
ATOM     78  C   UNL A   1      51.073  25.578  28.005  1.00  0.00     0.040 A 
ATOM     79  F   UNL A   1      49.294  25.766  29.526  1.00  0.00    -0.206 F 
ATOM     80  C   UNL A   1      51.571  25.687  26.708  1.00  0.00     0.006 A 
ENDBRANCH  52  73
BRANCH  64  81
ATOM     81  C   UNL A   1      45.847  32.283  29.101  1.00  0.00     0.057 A 
ATOM     82  C   UNL A   1      45.900  33.217  28.059  1.00  0.00     0.134 A 
ATOM     83  C   UNL A   1      46.360  32.673  30.346  1.00  0.00     0.134 A 
ATOM     84  F   UNL A   1      45.435  32.906  26.840  1.00  0.00    -0.206 F 
ATOM     85  C   UNL A   1      46.449  34.487  28.244  1.00  0.00     0.040 A 
ATOM     86  C   UNL A   1      46.883  33.949  30.551  1.00  0.00     0.040 A 
ATOM     87  F   UNL A   1      46.325  31.830  31.389  1.00  0.00    -0.206 F 
ATOM     88  C   UNL A   1      46.936  34.858  29.496  1.00  0.00     0.006 A 
ENDBRANCH  64  81
ENDBRANCH  38  39
ENDBRANCH  30  33
ENDBRANCH  28  29
ENDBRANCH  27  28
ENDBRANCH   1  27
TORSDOF 15
ENDMDL
