MODEL 1
REMARK VINA RESULT:     -12.8      0.000      0.000
REMARK SMILES O=C(CCC(=O)/[NH+]=C1\S[C@H]2CS(=O)(=O)C[C@@H]2N1c1ccc2c(c1)OCO2)NCCCCCCNC(=O)c1ccc(-c2c3nc(c(-c4c(F)cccc4F)c4ccc([nH]4)c(-c4c(F)cccc4F)c4nc(c(-c5c(F)cccc5F)c5ccc2[nH]5)C=C4)C=C3)cc1
REMARK SMILES IDX 30 1 29 2 28 3 27 4 2 5 1 6 3 8 4 9 5 10 6 11 7 12 8 13 9 15
REMARK SMILES IDX 17 16 10 17 16 18 11 19 15 20 12 21 13 22 14 23 18 24 19 25
REMARK SMILES IDX 23 26 20 27 22 28 21 29 24 30 26 31 25 32 31 33 32 34 33 35
REMARK SMILES IDX 34 36 35 37 36 39 37 40 38 41 90 42 39 43 89 44 40 45 41 46
REMARK SMILES IDX 42 47 83 48 43 49 88 50 82 51 84 52 44 53 87 54 81 55 80 56
REMARK SMILES IDX 45 58 71 59 54 60 70 61 55 62 58 63 69 64 85 65 56 66 57 67
REMARK SMILES IDX 68 69 86 70 59 71 46 72 47 73 52 74 48 75 49 76 51 77 53 78
REMARK SMILES IDX 50 79 72 80 73 81 78 82 74 83 75 84 77 85 79 86 76 87 60 88
REMARK SMILES IDX 61 89 66 90 62 91 63 92 65 93 67 94 64 95
REMARK H PARENT 27 7 7 14 34 38 84 57 58 68
REMARK Flexibility Score: inf
ROOT
ATOM      1  C   UNL A   1      31.344  29.706  25.004  1.00  0.00     0.002 C 
ENDROOT
BRANCH   1   2
ATOM      2  C   UNL A   1      32.383  29.029  24.109  1.00  0.00     0.021 C 
BRANCH   2   3
ATOM      3  C   UNL A   1      32.068  27.568  23.786  1.00  0.00     0.116 C 
BRANCH   3   4
ATOM      4  N   UNL A   1      31.083  26.986  24.683  1.00  0.00    -0.356 N 
ATOM      5  C   UNL A   1      30.379  25.829  24.597  1.00  0.00     0.220 C 
ATOM      6  O   UNL A   1      29.522  25.592  25.451  1.00  0.00    -0.275 OA
ATOM      7  H   UNL A   1      30.896  27.521  25.488  1.00  0.00     0.163 HD
BRANCH   5   8
ATOM      8  C   UNL A   1      30.675  24.846  23.498  1.00  0.00     0.112 C 
BRANCH   8   9
ATOM      9  C   UNL A   1      31.592  23.668  23.791  1.00  0.00     0.138 C 
BRANCH   9  10
ATOM     10  C   UNL A   1      32.722  23.707  24.815  1.00  0.00     0.308 C 
ATOM     11  O   UNL A   1      32.673  24.553  25.706  1.00  0.00    -0.247 OA
ATOM     12  N   UNL A   1      33.789  22.858  24.722  1.00  0.00    -0.204 N 
ATOM     13  C   UNL A   1      33.687  21.584  24.891  1.00  0.00     0.319 C 
ATOM     14  H   UNL A   1      34.674  23.236  24.517  1.00  0.00     0.316 HD
ATOM     15  S   UNL A   1      32.152  20.710  25.166  1.00  0.00    -0.029 SA
ATOM     16  N   UNL A   1      34.732  20.664  24.795  1.00  0.00    -0.216 N 
ATOM     17  C   UNL A   1      33.023  19.131  25.228  1.00  0.00     0.120 C 
ATOM     18  C   UNL A   1      34.270  19.357  24.364  1.00  0.00     0.212 C 
ATOM     19  C   UNL A   1      32.400  17.877  24.676  1.00  0.00     0.156 C 
ATOM     20  C   UNL A   1      35.102  18.115  24.583  1.00  0.00     0.188 C 
ATOM     21  S   UNL A   1      33.852  16.819  24.526  1.00  0.00     0.155 S 
ATOM     22  O   UNL A   1      33.967  16.032  25.740  1.00  0.00    -0.229 OA
ATOM     23  O   UNL A   1      33.857  16.223  23.214  1.00  0.00    -0.229 OA
BRANCH  16  24
ATOM     24  C   UNL A   1      36.071  20.948  25.064  1.00  0.00     0.132 A 
ATOM     25  C   UNL A   1      36.503  22.245  25.430  1.00  0.00     0.056 A 
ATOM     26  C   UNL A   1      37.026  19.917  25.001  1.00  0.00     0.102 A 
ATOM     27  C   UNL A   1      37.836  22.502  25.779  1.00  0.00     0.055 A 
ATOM     28  C   UNL A   1      38.330  20.195  25.347  1.00  0.00     0.170 A 
ATOM     29  C   UNL A   1      38.720  21.449  25.744  1.00  0.00     0.166 A 
ATOM     30  O   UNL A   1      39.355  19.300  25.380  1.00  0.00    -0.453 OA
ATOM     31  O   UNL A   1      40.025  21.489  26.118  1.00  0.00    -0.454 OA
ATOM     32  C   UNL A   1      40.376  20.092  26.022  1.00  0.00     0.468 C 
ENDBRANCH  16  24
ENDBRANCH   9  10
ENDBRANCH   8   9
ENDBRANCH   5   8
ENDBRANCH   3   4
ENDBRANCH   2   3
ENDBRANCH   1   2
BRANCH   1  33
ATOM     33  C   UNL A   1      31.881  30.262  26.320  1.00  0.00     0.002 C 
BRANCH  33  34
ATOM     34  C   UNL A   1      31.630  31.752  26.515  1.00  0.00     0.021 C 
BRANCH  34  35
ATOM     35  C   UNL A   1      32.746  32.481  27.251  1.00  0.00     0.116 C 
BRANCH  35  36
ATOM     36  N   UNL A   1      32.415  33.870  27.537  1.00  0.00    -0.352 N 
ATOM     37  C   UNL A   1      32.987  34.689  28.483  1.00  0.00     0.251 C 
ATOM     38  H   UNL A   1      31.700  34.270  26.991  1.00  0.00     0.163 HD
ATOM     39  O   UNL A   1      32.524  35.791  28.751  1.00  0.00    -0.269 OA
BRANCH  37  40
ATOM     40  C   UNL A   1      34.182  34.191  29.189  1.00  0.00     0.039 A 
ATOM     41  C   UNL A   1      34.028  33.383  30.314  1.00  0.00     0.014 A 
ATOM     42  C   UNL A   1      35.449  34.446  28.653  1.00  0.00     0.014 A 
ATOM     43  C   UNL A   1      35.151  32.768  30.868  1.00  0.00     0.010 A 
ATOM     44  C   UNL A   1      36.549  33.763  29.151  1.00  0.00     0.010 A 
ATOM     45  C   UNL A   1      36.413  32.923  30.267  1.00  0.00    -0.014 A 
BRANCH  45  46
ATOM     46  C   UNL A   1      37.609  32.225  30.800  1.00  0.00     0.031 A 
ATOM     47  C   UNL A   1      38.289  32.750  32.034  1.00  0.00     0.074 A 
ATOM     48  C   UNL A   1      38.118  31.166  30.142  1.00  0.00     0.049 A 
ATOM     49  N   UNL A   1      39.375  32.324  32.626  1.00  0.00    -0.248 NA
ATOM     50  C   UNL A   1      37.685  33.933  32.669  1.00  0.00     0.031 C 
ATOM     51  C   UNL A   1      37.584  30.600  28.902  1.00  0.00     0.029 A 
ATOM     52  N   UNL A   1      39.208  30.380  30.421  1.00  0.00    -0.354 N 
ATOM     53  C   UNL A   1      39.586  33.189  33.691  1.00  0.00     0.074 A 
ATOM     54  C   UNL A   1      38.560  34.205  33.624  1.00  0.00     0.031 C 
ATOM     55  C   UNL A   1      38.330  29.543  28.543  1.00  0.00     0.029 A 
ATOM     56  C   UNL A   1      39.416  29.379  29.504  1.00  0.00     0.049 A 
ATOM     57  H   UNL A   1      39.787  30.521  31.205  1.00  0.00     0.167 HD
ATOM     58  C   UNL A   1      40.531  33.125  34.657  1.00  0.00     0.037 A 
ATOM     59  C   UNL A   1      40.376  28.436  29.445  1.00  0.00     0.037 A 
ATOM     60  C   UNL A   1      41.539  32.101  34.730  1.00  0.00     0.049 A 
ATOM     61  C   UNL A   1      41.420  28.389  30.528  1.00  0.00     0.074 A 
ATOM     62  C   UNL A   1      42.511  31.915  35.696  1.00  0.00     0.029 A 
ATOM     63  N   UNL A   1      41.704  31.091  33.795  1.00  0.00    -0.354 N 
ATOM     64  N   UNL A   1      41.565  29.169  31.571  1.00  0.00    -0.248 NA
ATOM     65  C   UNL A   1      42.428  27.324  30.429  1.00  0.00     0.031 C 
ATOM     66  C   UNL A   1      43.295  30.819  35.320  1.00  0.00     0.029 A 
ATOM     67  C   UNL A   1      42.775  30.289  34.149  1.00  0.00     0.049 A 
ATOM     68  H   UNL A   1      41.142  30.962  32.996  1.00  0.00     0.167 HD
ATOM     69  C   UNL A   1      42.661  28.675  32.268  1.00  0.00     0.074 A 
ATOM     70  C   UNL A   1      43.132  27.518  31.536  1.00  0.00     0.031 C 
ATOM     71  C   UNL A   1      43.226  29.138  33.410  1.00  0.00     0.037 A 
BRANCH  58  72
ATOM     72  C   UNL A   1      40.509  34.192  35.715  1.00  0.00     0.057 A 
ATOM     73  C   UNL A   1      41.233  35.384  35.578  1.00  0.00     0.134 A 
ATOM     74  C   UNL A   1      39.742  34.033  36.876  1.00  0.00     0.134 A 
ATOM     75  F   UNL A   1      42.000  35.593  34.497  1.00  0.00    -0.206 F 
ATOM     76  C   UNL A   1      41.221  36.366  36.570  1.00  0.00     0.040 A 
ATOM     77  C   UNL A   1      39.698  35.021  37.862  1.00  0.00     0.040 A 
ATOM     78  F   UNL A   1      39.021  32.920  37.071  1.00  0.00    -0.206 F 
ATOM     79  C   UNL A   1      40.446  36.188  37.713  1.00  0.00     0.006 A 
ENDBRANCH  58  72
BRANCH  59  80
ATOM     80  C   UNL A   1      40.383  27.447  28.337  1.00  0.00     0.057 A 
ATOM     81  C   UNL A   1      39.657  26.253  28.427  1.00  0.00     0.134 A 
ATOM     82  C   UNL A   1      41.119  27.666  27.166  1.00  0.00     0.134 A 
ATOM     83  F   UNL A   1      38.947  25.978  29.530  1.00  0.00    -0.206 F 
ATOM     84  C   UNL A   1      39.679  25.304  27.404  1.00  0.00     0.040 A 
ATOM     85  C   UNL A   1      41.129  26.737  26.124  1.00  0.00     0.040 A 
ATOM     86  F   UNL A   1      41.829  28.793  27.011  1.00  0.00    -0.206 F 
ATOM     87  C   UNL A   1      40.414  25.547  26.246  1.00  0.00     0.006 A 
ENDBRANCH  59  80
BRANCH  71  88
ATOM     88  C   UNL A   1      44.395  28.371  33.957  1.00  0.00     0.057 A 
ATOM     89  C   UNL A   1      45.717  28.729  33.667  1.00  0.00     0.134 A 
ATOM     90  C   UNL A   1      44.192  27.287  34.822  1.00  0.00     0.134 A 
ATOM     91  F   UNL A   1      45.979  29.749  32.837  1.00  0.00    -0.206 F 
ATOM     92  C   UNL A   1      46.797  28.021  34.199  1.00  0.00     0.040 A 
ATOM     93  C   UNL A   1      45.263  26.590  35.382  1.00  0.00     0.040 A 
ATOM     94  F   UNL A   1      42.950  26.899  35.148  1.00  0.00    -0.206 F 
ATOM     95  C   UNL A   1      46.570  26.953  35.065  1.00  0.00     0.006 A 
ENDBRANCH  71  88
ENDBRANCH  45  46
ENDBRANCH  37  40
ENDBRANCH  35  36
ENDBRANCH  34  35
ENDBRANCH  33  34
ENDBRANCH   1  33
TORSDOF 16
ENDMDL
MODEL 2
REMARK VINA RESULT:     -12.7      0.785      5.907
REMARK SMILES O=C(CCC(=O)/[NH+]=C1\S[C@H]2CS(=O)(=O)C[C@@H]2N1c1ccc2c(c1)OCO2)NCCCCCCNC(=O)c1ccc(-c2c3nc(c(-c4c(F)cccc4F)c4ccc([nH]4)c(-c4c(F)cccc4F)c4nc(c(-c5c(F)cccc5F)c5ccc2[nH]5)C=C4)C=C3)cc1
REMARK SMILES IDX 30 1 29 2 28 3 27 4 2 5 1 6 3 8 4 9 5 10 6 11 7 12 8 13 9 15
REMARK SMILES IDX 17 16 10 17 16 18 11 19 15 20 12 21 13 22 14 23 18 24 19 25
REMARK SMILES IDX 23 26 20 27 22 28 21 29 24 30 26 31 25 32 31 33 32 34 33 35
REMARK SMILES IDX 34 36 35 37 36 39 37 40 38 41 90 42 39 43 89 44 40 45 41 46
REMARK SMILES IDX 42 47 83 48 43 49 88 50 82 51 84 52 44 53 87 54 81 55 80 56
REMARK SMILES IDX 45 58 71 59 54 60 70 61 55 62 58 63 69 64 85 65 56 66 57 67
REMARK SMILES IDX 68 69 86 70 59 71 46 72 47 73 52 74 48 75 49 76 51 77 53 78
REMARK SMILES IDX 50 79 72 80 73 81 78 82 74 83 75 84 77 85 79 86 76 87 60 88
REMARK SMILES IDX 61 89 66 90 62 91 63 92 65 93 67 94 64 95
REMARK H PARENT 27 7 7 14 34 38 84 57 58 68
REMARK Flexibility Score: inf
ROOT
ATOM      1  C   UNL A   1      31.816  29.676  25.389  1.00  0.00     0.002 C 
ENDROOT
BRANCH   1   2
ATOM      2  C   UNL A   1      32.948  28.805  24.838  1.00  0.00     0.021 C 
BRANCH   2   3
ATOM      3  C   UNL A   1      32.508  27.837  23.739  1.00  0.00     0.116 C 
BRANCH   3   4
ATOM      4  N   UNL A   1      31.175  27.299  23.953  1.00  0.00    -0.356 N 
ATOM      5  C   UNL A   1      30.623  26.119  23.571  1.00  0.00     0.220 C 
ATOM      6  O   UNL A   1      29.426  25.925  23.796  1.00  0.00    -0.275 OA
ATOM      7  H   UNL A   1      30.572  27.890  24.459  1.00  0.00     0.163 HD
BRANCH   5   8
ATOM      8  C   UNL A   1      31.475  25.063  22.923  1.00  0.00     0.112 C 
BRANCH   8   9
ATOM      9  C   UNL A   1      31.863  23.832  23.730  1.00  0.00     0.138 C 
BRANCH   9  10
ATOM     10  C   UNL A   1      32.974  23.818  24.774  1.00  0.00     0.308 C 
ATOM     11  O   UNL A   1      32.944  24.660  25.671  1.00  0.00    -0.247 OA
ATOM     12  N   UNL A   1      34.006  22.927  24.695  1.00  0.00    -0.204 N 
ATOM     13  C   UNL A   1      33.850  21.657  24.853  1.00  0.00     0.319 C 
ATOM     14  H   UNL A   1      34.910  23.269  24.509  1.00  0.00     0.316 HD
ATOM     15  S   UNL A   1      32.275  20.845  25.094  1.00  0.00    -0.029 SA
ATOM     16  N   UNL A   1      34.857  20.695  24.769  1.00  0.00    -0.216 N 
ATOM     17  C   UNL A   1      33.080  19.231  25.160  1.00  0.00     0.120 C 
ATOM     18  C   UNL A   1      34.351  19.411  24.320  1.00  0.00     0.212 C 
ATOM     19  C   UNL A   1      32.415  18.007  24.588  1.00  0.00     0.156 C 
ATOM     20  C   UNL A   1      35.127  18.135  24.545  1.00  0.00     0.188 C 
ATOM     21  S   UNL A   1      33.825  16.892  24.456  1.00  0.00     0.155 S 
ATOM     22  O   UNL A   1      33.886  16.093  25.666  1.00  0.00    -0.229 OA
ATOM     23  O   UNL A   1      33.830  16.304  23.140  1.00  0.00    -0.229 OA
BRANCH  16  24
ATOM     24  C   UNL A   1      36.202  20.922  25.064  1.00  0.00     0.132 A 
ATOM     25  C   UNL A   1      36.675  22.191  25.473  1.00  0.00     0.056 A 
ATOM     26  C   UNL A   1      37.120  19.858  24.984  1.00  0.00     0.102 A 
ATOM     27  C   UNL A   1      38.012  22.390  25.847  1.00  0.00     0.055 A 
ATOM     28  C   UNL A   1      38.428  20.078  25.355  1.00  0.00     0.170 A 
ATOM     29  C   UNL A   1      38.858  21.306  25.793  1.00  0.00     0.166 A 
ATOM     30  O   UNL A   1      39.419  19.146  25.376  1.00  0.00    -0.453 OA
ATOM     31  O   UNL A   1      40.157  21.287  26.186  1.00  0.00    -0.454 OA
ATOM     32  C   UNL A   1      40.459  19.882  26.054  1.00  0.00     0.468 C 
ENDBRANCH  16  24
ENDBRANCH   9  10
ENDBRANCH   8   9
ENDBRANCH   5   8
ENDBRANCH   3   4
ENDBRANCH   2   3
ENDBRANCH   1   2
BRANCH   1  33
ATOM     33  C   UNL A   1      32.082  30.300  26.756  1.00  0.00     0.002 C 
BRANCH  33  34
ATOM     34  C   UNL A   1      31.756  31.786  26.836  1.00  0.00     0.021 C 
BRANCH  34  35
ATOM     35  C   UNL A   1      32.885  32.642  27.394  1.00  0.00     0.116 C 
BRANCH  35  36
ATOM     36  N   UNL A   1      32.503  34.038  27.554  1.00  0.00    -0.352 N 
ATOM     37  C   UNL A   1      32.994  34.941  28.469  1.00  0.00     0.251 C 
ATOM     38  H   UNL A   1      31.813  34.375  26.937  1.00  0.00     0.163 HD
ATOM     39  O   UNL A   1      32.489  36.045  28.625  1.00  0.00    -0.269 OA
BRANCH  37  40
ATOM     40  C   UNL A   1      34.156  34.532  29.280  1.00  0.00     0.039 A 
ATOM     41  C   UNL A   1      33.948  33.913  30.511  1.00  0.00     0.014 A 
ATOM     42  C   UNL A   1      35.443  34.669  28.750  1.00  0.00     0.014 A 
ATOM     43  C   UNL A   1      35.038  33.366  31.189  1.00  0.00     0.010 A 
ATOM     44  C   UNL A   1      36.509  34.046  29.383  1.00  0.00     0.010 A 
ATOM     45  C   UNL A   1      36.319  33.395  30.611  1.00  0.00    -0.014 A 
BRANCH  45  46
ATOM     46  C   UNL A   1      37.480  32.761  31.284  1.00  0.00     0.031 A 
ATOM     47  C   UNL A   1      38.136  31.560  30.664  1.00  0.00     0.074 A 
ATOM     48  C   UNL A   1      37.900  33.224  32.478  1.00  0.00     0.049 A 
ATOM     49  N   UNL A   1      39.121  30.827  31.116  1.00  0.00    -0.248 NA
ATOM     50  C   UNL A   1      37.590  31.100  29.375  1.00  0.00     0.031 C 
ATOM     51  C   UNL A   1      37.307  34.345  33.210  1.00  0.00     0.029 A 
ATOM     52  N   UNL A   1      38.922  32.802  33.290  1.00  0.00    -0.354 N 
ATOM     53  C   UNL A   1      39.303  29.820  30.177  1.00  0.00     0.074 A 
ATOM     54  C   UNL A   1      38.284  29.992  29.166  1.00  0.00     0.031 C 
ATOM     55  C   UNL A   1      37.992  34.538  34.349  1.00  0.00     0.029 A 
ATOM     56  C   UNL A   1      39.046  33.533  34.446  1.00  0.00     0.049 A 
ATOM     57  H   UNL A   1      39.510  32.044  33.067  1.00  0.00     0.167 HD
ATOM     58  C   UNL A   1      40.253  28.858  30.143  1.00  0.00     0.037 A 
ATOM     59  C   UNL A   1      39.912  33.405  35.470  1.00  0.00     0.037 A 
ATOM     60  C   UNL A   1      41.276  28.703  31.142  1.00  0.00     0.049 A 
ATOM     61  C   UNL A   1      40.956  32.325  35.412  1.00  0.00     0.074 A 
ATOM     62  C   UNL A   1      42.318  27.794  31.175  1.00  0.00     0.029 A 
ATOM     63  N   UNL A   1      41.383  29.478  32.287  1.00  0.00    -0.354 N 
ATOM     64  N   UNL A   1      41.164  31.424  34.482  1.00  0.00    -0.248 NA
ATOM     65  C   UNL A   1      41.892  32.247  36.543  1.00  0.00     0.031 C 
ATOM     66  C   UNL A   1      43.028  27.988  32.365  1.00  0.00     0.029 A 
ATOM     67  C   UNL A   1      42.461  29.054  33.045  1.00  0.00     0.049 A 
ATOM     68  H   UNL A   1      40.781  30.220  32.526  1.00  0.00     0.167 HD
ATOM     69  C   UNL A   1      42.268  30.692  34.899  1.00  0.00     0.074 A 
ATOM     70  C   UNL A   1      42.696  31.265  36.159  1.00  0.00     0.031 C 
ATOM     71  C   UNL A   1      42.874  29.640  34.294  1.00  0.00     0.037 A 
BRANCH  58  72
ATOM     72  C   UNL A   1      40.229  27.906  28.981  1.00  0.00     0.057 A 
ATOM     73  C   UNL A   1      40.944  28.161  27.802  1.00  0.00     0.134 A 
ATOM     74  C   UNL A   1      39.496  26.714  29.046  1.00  0.00     0.134 A 
ATOM     75  F   UNL A   1      41.653  29.292  27.668  1.00  0.00    -0.206 F 
ATOM     76  C   UNL A   1      40.906  27.281  26.719  1.00  0.00     0.040 A 
ATOM     77  C   UNL A   1      39.475  25.812  27.980  1.00  0.00     0.040 A 
ATOM     78  F   UNL A   1      38.793  26.404  30.144  1.00  0.00    -0.206 F 
ATOM     79  C   UNL A   1      40.175  26.099  26.810  1.00  0.00     0.006 A 
ENDBRANCH  58  72
BRANCH  59  80
ATOM     80  C   UNL A   1      39.844  34.339  36.624  1.00  0.00     0.057 A 
ATOM     81  C   UNL A   1      39.115  34.015  37.776  1.00  0.00     0.134 A 
ATOM     82  C   UNL A   1      40.497  35.576  36.603  1.00  0.00     0.134 A 
ATOM     83  F   UNL A   1      38.453  32.852  37.850  1.00  0.00    -0.206 F 
ATOM     84  C   UNL A   1      39.021  34.896  38.854  1.00  0.00     0.040 A 
ATOM     85  C   UNL A   1      40.433  36.457  37.685  1.00  0.00     0.040 A 
ATOM     86  F   UNL A   1      41.220  35.944  35.535  1.00  0.00    -0.206 F 
ATOM     87  C   UNL A   1      39.686  36.120  38.812  1.00  0.00     0.006 A 
ENDBRANCH  59  80
BRANCH  71  88
ATOM     88  C   UNL A   1      44.084  29.064  34.970  1.00  0.00     0.057 A 
ATOM     89  C   UNL A   1      43.986  28.041  35.920  1.00  0.00     0.134 A 
ATOM     90  C   UNL A   1      45.368  29.510  34.629  1.00  0.00     0.134 A 
ATOM     91  F   UNL A   1      42.785  27.577  36.298  1.00  0.00    -0.206 F 
ATOM     92  C   UNL A   1      45.121  27.497  36.526  1.00  0.00     0.040 A 
ATOM     93  C   UNL A   1      46.511  28.956  35.207  1.00  0.00     0.040 A 
ATOM     94  F   UNL A   1      45.533  30.481  33.719  1.00  0.00    -0.206 F 
ATOM     95  C   UNL A   1      46.388  27.951  36.163  1.00  0.00     0.006 A 
ENDBRANCH  71  88
ENDBRANCH  45  46
ENDBRANCH  37  40
ENDBRANCH  35  36
ENDBRANCH  34  35
ENDBRANCH  33  34
ENDBRANCH   1  33
TORSDOF 16
ENDMDL
MODEL 3
REMARK VINA RESULT:     -12.4      5.262     12.383
REMARK SMILES O=C(CCC(=O)/[NH+]=C1\S[C@H]2CS(=O)(=O)C[C@@H]2N1c1ccc2c(c1)OCO2)NCCCCCCNC(=O)c1ccc(-c2c3nc(c(-c4c(F)cccc4F)c4ccc([nH]4)c(-c4c(F)cccc4F)c4nc(c(-c5c(F)cccc5F)c5ccc2[nH]5)C=C4)C=C3)cc1
REMARK SMILES IDX 30 1 29 2 28 3 27 4 2 5 1 6 3 8 4 9 5 10 6 11 7 12 8 13 9 15
REMARK SMILES IDX 17 16 10 17 16 18 11 19 15 20 12 21 13 22 14 23 18 24 19 25
REMARK SMILES IDX 23 26 20 27 22 28 21 29 24 30 26 31 25 32 31 33 32 34 33 35
REMARK SMILES IDX 34 36 35 37 36 39 37 40 38 41 90 42 39 43 89 44 40 45 41 46
REMARK SMILES IDX 42 47 83 48 43 49 88 50 82 51 84 52 44 53 87 54 81 55 80 56
REMARK SMILES IDX 45 58 71 59 54 60 70 61 55 62 58 63 69 64 85 65 56 66 57 67
REMARK SMILES IDX 68 69 86 70 59 71 46 72 47 73 52 74 48 75 49 76 51 77 53 78
REMARK SMILES IDX 50 79 72 80 73 81 78 82 74 83 75 84 77 85 79 86 76 87 60 88
REMARK SMILES IDX 61 89 66 90 62 91 63 92 65 93 67 94 64 95
REMARK H PARENT 27 7 7 14 34 38 84 57 58 68
REMARK Flexibility Score: inf
ROOT
ATOM      1  C   UNL A   1      42.808  23.795  29.111  1.00  0.00     0.002 C 
ENDROOT
BRANCH   1   2
ATOM      2  C   UNL A   1      43.848  23.743  30.232  1.00  0.00     0.021 C 
BRANCH   2   3
ATOM      3  C   UNL A   1      44.742  24.982  30.308  1.00  0.00     0.116 C 
BRANCH   3   4
ATOM      4  N   UNL A   1      44.827  25.543  31.646  1.00  0.00    -0.356 N 
ATOM      5  C   UNL A   1      44.188  26.602  32.206  1.00  0.00     0.220 C 
ATOM      6  O   UNL A   1      44.499  26.944  33.349  1.00  0.00    -0.275 OA
ATOM      7  H   UNL A   1      45.453  25.077  32.247  1.00  0.00     0.163 HD
BRANCH   5   8
ATOM      8  C   UNL A   1      43.097  27.310  31.451  1.00  0.00     0.112 C 
BRANCH   8   9
ATOM      9  C   UNL A   1      42.730  28.732  31.848  1.00  0.00     0.138 C 
BRANCH   9  10
ATOM     10  C   UNL A   1      41.321  29.168  32.233  1.00  0.00     0.308 C 
ATOM     11  O   UNL A   1      40.373  28.488  31.844  1.00  0.00    -0.247 OA
ATOM     12  N   UNL A   1      41.106  30.309  32.953  1.00  0.00    -0.204 N 
ATOM     13  C   UNL A   1      41.478  30.445  34.179  1.00  0.00     0.319 C 
ATOM     14  H   UNL A   1      40.648  31.062  32.514  1.00  0.00     0.316 HD
ATOM     15  S   UNL A   1      42.410  29.231  35.104  1.00  0.00    -0.029 SA
ATOM     16  N   UNL A   1      41.303  31.587  34.962  1.00  0.00    -0.216 N 
ATOM     17  C   UNL A   1      42.440  30.307  36.552  1.00  0.00     0.120 C 
ATOM     18  C   UNL A   1      42.340  31.723  35.969  1.00  0.00     0.212 C 
ATOM     19  C   UNL A   1      43.637  30.354  37.462  1.00  0.00     0.156 C 
ATOM     20  C   UNL A   1      42.153  32.609  37.179  1.00  0.00     0.188 C 
ATOM     21  S   UNL A   1      43.330  31.896  38.342  1.00  0.00     0.155 S 
ATOM     22  O   UNL A   1      42.617  31.586  39.567  1.00  0.00    -0.229 OA
ATOM     23  O   UNL A   1      44.536  32.686  38.328  1.00  0.00    -0.229 OA
BRANCH  16  24
ATOM     24  C   UNL A   1      40.269  32.510  34.805  1.00  0.00     0.132 A 
ATOM     25  C   UNL A   1      40.488  33.790  34.242  1.00  0.00     0.056 A 
ATOM     26  C   UNL A   1      38.961  32.161  35.186  1.00  0.00     0.102 A 
ATOM     27  C   UNL A   1      39.430  34.681  34.012  1.00  0.00     0.055 A 
ATOM     28  C   UNL A   1      37.938  33.053  34.951  1.00  0.00     0.170 A 
ATOM     29  C   UNL A   1      38.164  34.272  34.362  1.00  0.00     0.166 A 
ATOM     30  O   UNL A   1      36.621  32.846  35.221  1.00  0.00    -0.453 OA
ATOM     31  O   UNL A   1      37.014  34.962  34.147  1.00  0.00    -0.454 OA
ATOM     32  C   UNL A   1      36.033  33.987  34.561  1.00  0.00     0.468 C 
ENDBRANCH  16  24
ENDBRANCH   9  10
ENDBRANCH   8   9
ENDBRANCH   5   8
ENDBRANCH   3   4
ENDBRANCH   2   3
ENDBRANCH   1   2
BRANCH   1  33
ATOM     33  C   UNL A   1      43.328  23.431  27.723  1.00  0.00     0.002 C 
BRANCH  33  34
ATOM     34  C   UNL A   1      42.634  22.230  27.093  1.00  0.00     0.021 C 
BRANCH  34  35
ATOM     35  C   UNL A   1      41.335  21.830  27.780  1.00  0.00     0.116 C 
BRANCH  35  36
ATOM     36  N   UNL A   1      40.249  21.607  26.836  1.00  0.00    -0.352 N 
ATOM     37  C   UNL A   1      39.311  22.518  26.409  1.00  0.00     0.251 C 
ATOM     38  H   UNL A   1      40.177  20.700  26.460  1.00  0.00     0.163 HD
ATOM     39  O   UNL A   1      38.343  22.185  25.738  1.00  0.00    -0.269 OA
BRANCH  37  40
ATOM     40  C   UNL A   1      39.497  23.928  26.800  1.00  0.00     0.039 A 
ATOM     41  C   UNL A   1      39.211  24.320  28.107  1.00  0.00     0.014 A 
ATOM     42  C   UNL A   1      40.062  24.823  25.886  1.00  0.00     0.014 A 
ATOM     43  C   UNL A   1      39.558  25.607  28.521  1.00  0.00     0.010 A 
ATOM     44  C   UNL A   1      40.487  26.068  26.326  1.00  0.00     0.010 A 
ATOM     45  C   UNL A   1      40.233  26.475  27.646  1.00  0.00    -0.014 A 
BRANCH  45  46
ATOM     46  C   UNL A   1      40.670  27.823  28.086  1.00  0.00     0.031 A 
ATOM     47  C   UNL A   1      42.134  28.162  28.104  1.00  0.00     0.074 A 
ATOM     48  C   UNL A   1      39.761  28.714  28.528  1.00  0.00     0.049 A 
ATOM     49  N   UNL A   1      42.727  29.257  28.507  1.00  0.00    -0.248 NA
ATOM     50  C   UNL A   1      43.061  27.117  27.637  1.00  0.00     0.031 C 
ATOM     51  C   UNL A   1      38.318  28.481  28.615  1.00  0.00     0.029 A 
ATOM     52  N   UNL A   1      39.919  29.994  28.997  1.00  0.00    -0.354 N 
ATOM     53  C   UNL A   1      44.087  29.028  28.351  1.00  0.00     0.074 A 
ATOM     54  C   UNL A   1      44.239  27.668  27.885  1.00  0.00     0.031 C 
ATOM     55  C   UNL A   1      37.721  29.590  29.081  1.00  0.00     0.029 A 
ATOM     56  C   UNL A   1      38.740  30.597  29.361  1.00  0.00     0.049 A 
ATOM     57  H   UNL A   1      40.795  30.438  29.067  1.00  0.00     0.167 HD
ATOM     58  C   UNL A   1      45.117  29.884  28.548  1.00  0.00     0.037 A 
ATOM     59  C   UNL A   1      38.508  31.824  29.866  1.00  0.00     0.037 A 
ATOM     60  C   UNL A   1      44.959  31.242  28.993  1.00  0.00     0.049 A 
ATOM     61  C   UNL A   1      39.669  32.756  30.081  1.00  0.00     0.074 A 
ATOM     62  C   UNL A   1      45.932  32.209  29.175  1.00  0.00     0.029 A 
ATOM     63  N   UNL A   1      43.746  31.824  29.331  1.00  0.00    -0.354 N 
ATOM     64  N   UNL A   1      40.945  32.552  29.860  1.00  0.00    -0.248 NA
ATOM     65  C   UNL A   1      39.357  34.092  30.608  1.00  0.00     0.031 C 
ATOM     66  C   UNL A   1      45.313  33.362  29.667  1.00  0.00     0.029 A 
ATOM     67  C   UNL A   1      43.948  33.131  29.740  1.00  0.00     0.049 A 
ATOM     68  H   UNL A   1      42.871  31.374  29.286  1.00  0.00     0.167 HD
ATOM     69  C   UNL A   1      41.585  33.739  30.193  1.00  0.00     0.074 A 
ATOM     70  C   UNL A   1      40.553  34.664  30.616  1.00  0.00     0.031 C 
ATOM     71  C   UNL A   1      42.907  34.038  30.153  1.00  0.00     0.037 A 
BRANCH  58  72
ATOM     72  C   UNL A   1      46.501  29.371  28.272  1.00  0.00     0.057 A 
ATOM     73  C   UNL A   1      47.107  29.515  27.016  1.00  0.00     0.134 A 
ATOM     74  C   UNL A   1      47.245  28.740  29.277  1.00  0.00     0.134 A 
ATOM     75  F   UNL A   1      46.443  30.096  26.004  1.00  0.00    -0.206 F 
ATOM     76  C   UNL A   1      48.387  29.024  26.760  1.00  0.00     0.040 A 
ATOM     77  C   UNL A   1      48.539  28.271  29.042  1.00  0.00     0.040 A 
ATOM     78  F   UNL A   1      46.731  28.572  30.504  1.00  0.00    -0.206 F 
ATOM     79  C   UNL A   1      49.110  28.406  27.777  1.00  0.00     0.006 A 
ENDBRANCH  58  72
BRANCH  59  80
ATOM     80  C   UNL A   1      37.120  32.251  30.180  1.00  0.00     0.057 A 
ATOM     81  C   UNL A   1      36.529  31.946  31.412  1.00  0.00     0.134 A 
ATOM     82  C   UNL A   1      36.348  32.965  29.256  1.00  0.00     0.134 A 
ATOM     83  F   UNL A   1      37.212  31.249  32.332  1.00  0.00    -0.206 F 
ATOM     84  C   UNL A   1      35.217  32.317  31.707  1.00  0.00     0.040 A 
ATOM     85  C   UNL A   1      35.042  33.366  29.547  1.00  0.00     0.040 A 
ATOM     86  F   UNL A   1      36.856  33.298  28.060  1.00  0.00    -0.206 F 
ATOM     87  C   UNL A   1      34.471  33.034  30.774  1.00  0.00     0.006 A 
ENDBRANCH  59  80
BRANCH  71  88
ATOM     88  C   UNL A   1      43.309  35.430  30.543  1.00  0.00     0.057 A 
ATOM     89  C   UNL A   1      43.586  35.776  31.871  1.00  0.00     0.134 A 
ATOM     90  C   UNL A   1      43.463  36.426  29.569  1.00  0.00     0.134 A 
ATOM     91  F   UNL A   1      43.447  34.873  32.853  1.00  0.00    -0.206 F 
ATOM     92  C   UNL A   1      43.980  37.070  32.220  1.00  0.00     0.040 A 
ATOM     93  C   UNL A   1      43.882  37.714  29.902  1.00  0.00     0.040 A 
ATOM     94  F   UNL A   1      43.222  36.157  28.277  1.00  0.00    -0.206 F 
ATOM     95  C   UNL A   1      44.136  38.041  31.232  1.00  0.00     0.006 A 
ENDBRANCH  71  88
ENDBRANCH  45  46
ENDBRANCH  37  40
ENDBRANCH  35  36
ENDBRANCH  34  35
ENDBRANCH  33  34
ENDBRANCH   1  33
TORSDOF 16
ENDMDL
