MODEL 1
REMARK VINA RESULT:     -12.5      0.000      0.000
REMARK SMILES O=C(NCCCCCCNC(=O)[C@H]1[C@H]2CC[C@H](CC2)[C@@H]1C(=O)Nc1ccc(Cc2ccncc2)cc1)c1ccc(-c2c3nc(c(-c4c(F)cccc4F)c4ccc([nH]4)c(-c4c(F)cccc4F)c4nc(c(-c5c(F)cccc5F)c5ccc2[nH]5)C=C4)C=C3)cc1
REMARK SMILES IDX 7 1 6 2 5 3 4 4 3 5 1 6 2 7 37 9 38 10 90 11 39 12 89 13
REMARK SMILES IDX 40 14 41 15 42 16 83 17 43 18 88 19 82 20 84 21 44 22 87 23
REMARK SMILES IDX 81 24 80 25 45 27 71 28 54 29 70 30 55 31 58 32 69 33 85 34
REMARK SMILES IDX 56 35 57 36 68 38 86 39 59 40 46 41 47 42 52 43 48 44 49 45
REMARK SMILES IDX 51 46 53 47 50 48 72 49 73 50 78 51 74 52 75 53 77 54 79 55
REMARK SMILES IDX 76 56 60 57 61 58 66 59 62 60 63 61 65 62 67 63 64 64 8 65
REMARK SMILES IDX 9 66 10 67 11 68 12 70 13 71 14 72 20 73 15 74 19 75 17 76
REMARK SMILES IDX 16 77 18 78 21 79 22 80 23 81 24 83 25 84 36 85 26 86 35 87
REMARK SMILES IDX 27 88 28 89 29 90 30 91 34 92 31 93 33 94 32 95
REMARK H PARENT 3 8 84 26 58 37 10 69 23 82
REMARK Flexibility Score: inf
ROOT
ATOM      1  C   UNL A   1      36.872  21.919  24.354  1.00  0.00     0.002 C 
ENDROOT
BRANCH   1   2
ATOM      2  C   UNL A   1      36.738  20.527  24.981  1.00  0.00     0.002 C 
BRANCH   2   3
ATOM      3  C   UNL A   1      37.996  19.665  24.883  1.00  0.00     0.021 C 
BRANCH   3   4
ATOM      4  C   UNL A   1      39.056  20.009  25.918  1.00  0.00     0.116 C 
BRANCH   4   5
ATOM      5  N   UNL A   1      40.143  19.043  25.919  1.00  0.00    -0.352 N 
ATOM      6  O   UNL A   1      42.296  18.372  25.788  1.00  0.00    -0.269 OA
ATOM      7  C   UNL A   1      41.493  19.268  26.012  1.00  0.00     0.251 C 
ATOM      8  H   UNL A   1      39.874  18.098  25.844  1.00  0.00     0.163 HD
BRANCH   7   9
ATOM      9  C   UNL A   1      41.969  20.620  26.374  1.00  0.00     0.039 A 
ATOM     10  C   UNL A   1      42.211  21.569  25.376  1.00  0.00     0.014 A 
ATOM     11  C   UNL A   1      42.172  20.938  27.717  1.00  0.00     0.014 A 
ATOM     12  C   UNL A   1      42.775  22.791  25.712  1.00  0.00     0.010 A 
ATOM     13  C   UNL A   1      42.652  22.203  28.060  1.00  0.00     0.010 A 
ATOM     14  C   UNL A   1      42.971  23.133  27.059  1.00  0.00    -0.014 A 
BRANCH  14  15
ATOM     15  C   UNL A   1      43.417  24.506  27.398  1.00  0.00     0.031 A 
ATOM     16  C   UNL A   1      42.443  25.557  27.844  1.00  0.00     0.074 A 
ATOM     17  C   UNL A   1      44.729  24.792  27.295  1.00  0.00     0.049 A 
ATOM     18  N   UNL A   1      42.669  26.809  28.152  1.00  0.00    -0.248 NA
ATOM     19  C   UNL A   1      41.032  25.158  27.951  1.00  0.00     0.031 C 
ATOM     20  C   UNL A   1      45.764  23.849  26.860  1.00  0.00     0.029 A 
ATOM     21  N   UNL A   1      45.421  25.947  27.550  1.00  0.00    -0.354 N 
ATOM     22  C   UNL A   1      41.433  27.353  28.473  1.00  0.00     0.074 A 
ATOM     23  C   UNL A   1      40.453  26.301  28.298  1.00  0.00     0.031 C 
ATOM     24  C   UNL A   1      46.959  24.451  26.914  1.00  0.00     0.029 A 
ATOM     25  C   UNL A   1      46.770  25.839  27.313  1.00  0.00     0.049 A 
ATOM     26  H   UNL A   1      44.993  26.773  27.874  1.00  0.00     0.167 HD
ATOM     27  C   UNL A   1      41.148  28.612  28.881  1.00  0.00     0.037 A 
ATOM     28  C   UNL A   1      47.744  26.764  27.377  1.00  0.00     0.037 A 
ATOM     29  C   UNL A   1      42.135  29.649  29.055  1.00  0.00     0.049 A 
ATOM     30  C   UNL A   1      47.390  28.163  27.784  1.00  0.00     0.074 A 
ATOM     31  C   UNL A   1      41.953  30.946  29.505  1.00  0.00     0.029 A 
ATOM     32  N   UNL A   1      43.487  29.511  28.776  1.00  0.00    -0.354 N 
ATOM     33  N   UNL A   1      46.223  28.651  28.131  1.00  0.00    -0.248 NA
ATOM     34  C   UNL A   1      48.483  29.141  27.805  1.00  0.00     0.031 C 
ATOM     35  C   UNL A   1      43.182  31.609  29.441  1.00  0.00     0.029 A 
ATOM     36  C   UNL A   1      44.144  30.710  29.010  1.00  0.00     0.049 A 
ATOM     37  H   UNL A   1      43.916  28.685  28.457  1.00  0.00     0.167 HD
ATOM     38  C   UNL A   1      46.445  29.987  28.430  1.00  0.00     0.074 A 
ATOM     39  C   UNL A   1      47.862  30.226  28.244  1.00  0.00     0.031 C 
ATOM     40  C   UNL A   1      45.555  30.931  28.821  1.00  0.00     0.037 A 
BRANCH  27  41
ATOM     41  C   UNL A   1      39.709  28.955  29.144  1.00  0.00     0.057 A 
ATOM     42  C   UNL A   1      38.837  29.346  28.119  1.00  0.00     0.134 A 
ATOM     43  C   UNL A   1      39.172  28.836  30.433  1.00  0.00     0.134 A 
ATOM     44  F   UNL A   1      39.285  29.488  26.862  1.00  0.00    -0.206 F 
ATOM     45  C   UNL A   1      37.492  29.628  28.370  1.00  0.00     0.040 A 
ATOM     46  C   UNL A   1      37.824  29.089  30.692  1.00  0.00     0.040 A 
ATOM     47  F   UNL A   1      39.947  28.457  31.461  1.00  0.00    -0.206 F 
ATOM     48  C   UNL A   1      36.980  29.492  29.659  1.00  0.00     0.006 A 
ENDBRANCH  27  41
BRANCH  28  49
ATOM     49  C   UNL A   1      49.137  26.394  27.023  1.00  0.00     0.057 A 
ATOM     50  C   UNL A   1      49.605  26.506  25.710  1.00  0.00     0.134 A 
ATOM     51  C   UNL A   1      50.034  25.926  27.992  1.00  0.00     0.134 A 
ATOM     52  F   UNL A   1      48.790  26.934  24.735  1.00  0.00    -0.206 F 
ATOM     53  C   UNL A   1      50.911  26.148  25.368  1.00  0.00     0.040 A 
ATOM     54  C   UNL A   1      51.351  25.594  27.670  1.00  0.00     0.040 A 
ATOM     55  F   UNL A   1      49.650  25.806  29.270  1.00  0.00    -0.206 F 
ATOM     56  C   UNL A   1      51.789  25.697  26.352  1.00  0.00     0.006 A 
ENDBRANCH  28  49
BRANCH  40  57
ATOM     57  C   UNL A   1      46.096  32.302  29.104  1.00  0.00     0.057 A 
ATOM     58  C   UNL A   1      46.583  32.659  30.368  1.00  0.00     0.134 A 
ATOM     59  C   UNL A   1      46.159  33.267  28.091  1.00  0.00     0.134 A 
ATOM     60  F   UNL A   1      46.536  31.788  31.387  1.00  0.00    -0.206 F 
ATOM     61  C   UNL A   1      47.093  33.934  30.619  1.00  0.00     0.040 A 
ATOM     62  C   UNL A   1      46.694  34.534  28.321  1.00  0.00     0.040 A 
ATOM     63  F   UNL A   1      45.714  32.988  26.856  1.00  0.00    -0.206 F 
ATOM     64  C   UNL A   1      47.158  34.873  29.591  1.00  0.00     0.006 A 
ENDBRANCH  40  57
ENDBRANCH  14  15
ENDBRANCH   7   9
ENDBRANCH   4   5
ENDBRANCH   3   4
ENDBRANCH   2   3
ENDBRANCH   1   2
BRANCH   1  65
ATOM     65  C   UNL A   1      37.143  23.050  25.357  1.00  0.00     0.021 C 
BRANCH  65  66
ATOM     66  C   UNL A   1      36.006  24.069  25.442  1.00  0.00     0.116 C 
BRANCH  66  67
ATOM     67  N   UNL A   1      35.242  24.058  24.210  1.00  0.00    -0.356 N 
ATOM     68  C   UNL A   1      34.052  24.646  23.923  1.00  0.00     0.224 C 
ATOM     69  H   UNL A   1      35.649  23.551  23.470  1.00  0.00     0.163 HD
ATOM     70  O   UNL A   1      33.420  24.205  22.963  1.00  0.00    -0.275 OA
BRANCH  68  71
ATOM     71  C   UNL A   1      33.564  25.824  24.753  1.00  0.00     0.094 C 
ATOM     72  C   UNL A   1      34.027  27.168  24.113  1.00  0.00     0.002 C 
ATOM     73  C   UNL A   1      32.008  25.788  24.946  1.00  0.00     0.094 C 
ATOM     74  C   UNL A   1      33.336  27.440  22.766  1.00  0.00     0.005 C 
ATOM     75  C   UNL A   1      33.609  28.300  25.071  1.00  0.00     0.005 C 
ATOM     76  C   UNL A   1      31.466  27.147  24.421  1.00  0.00     0.002 C 
ATOM     77  C   UNL A   1      31.828  27.277  22.928  1.00  0.00     0.005 C 
ATOM     78  C   UNL A   1      32.084  28.318  25.203  1.00  0.00     0.005 C 
BRANCH  73  79
ATOM     79  C   UNL A   1      31.685  25.411  26.415  1.00  0.00     0.228 C 
ATOM     80  O   UNL A   1      31.402  26.280  27.250  1.00  0.00    -0.274 OA
ATOM     81  N   UNL A   1      31.687  24.137  26.896  1.00  0.00    -0.326 N 
ATOM     82  H   UNL A   1      31.399  24.047  27.833  1.00  0.00     0.169 HD
BRANCH  81  83
ATOM     83  C   UNL A   1      32.031  22.945  26.272  1.00  0.00     0.041 A 
ATOM     84  C   UNL A   1      31.248  22.553  25.189  1.00  0.00     0.026 A 
ATOM     85  C   UNL A   1      33.145  22.196  26.650  1.00  0.00     0.026 A 
ATOM     86  C   UNL A   1      31.677  21.509  24.378  1.00  0.00     0.006 A 
ATOM     87  C   UNL A   1      33.543  21.113  25.863  1.00  0.00     0.006 A 
ATOM     88  C   UNL A   1      32.841  20.792  24.692  1.00  0.00    -0.043 A 
BRANCH  88  89
ATOM     89  C   UNL A   1      33.321  19.693  23.771  1.00  0.00     0.071 C 
BRANCH  89  90
ATOM     90  C   UNL A   1      33.468  18.361  24.461  1.00  0.00    -0.041 A 
ATOM     91  C   UNL A   1      34.662  17.638  24.380  1.00  0.00     0.024 A 
ATOM     92  C   UNL A   1      32.404  17.802  25.170  1.00  0.00     0.024 A 
ATOM     93  C   UNL A   1      34.732  16.392  24.980  1.00  0.00     0.111 A 
ATOM     94  C   UNL A   1      32.576  16.556  25.750  1.00  0.00     0.111 A 
ATOM     95  N   UNL A   1      33.715  15.835  25.667  1.00  0.00    -0.265 NA
ENDBRANCH  89  90
ENDBRANCH  88  89
ENDBRANCH  81  83
ENDBRANCH  73  79
ENDBRANCH  68  71
ENDBRANCH  66  67
ENDBRANCH  65  66
ENDBRANCH   1  65
TORSDOF 17
ENDMDL
MODEL 2
REMARK VINA RESULT:     -12.5      4.744     10.223
REMARK SMILES O=C(NCCCCCCNC(=O)[C@H]1[C@H]2CC[C@H](CC2)[C@@H]1C(=O)Nc1ccc(Cc2ccncc2)cc1)c1ccc(-c2c3nc(c(-c4c(F)cccc4F)c4ccc([nH]4)c(-c4c(F)cccc4F)c4nc(c(-c5c(F)cccc5F)c5ccc2[nH]5)C=C4)C=C3)cc1
REMARK SMILES IDX 7 1 6 2 5 3 4 4 3 5 1 6 2 7 37 9 38 10 90 11 39 12 89 13
REMARK SMILES IDX 40 14 41 15 42 16 83 17 43 18 88 19 82 20 84 21 44 22 87 23
REMARK SMILES IDX 81 24 80 25 45 27 71 28 54 29 70 30 55 31 58 32 69 33 85 34
REMARK SMILES IDX 56 35 57 36 68 38 86 39 59 40 46 41 47 42 52 43 48 44 49 45
REMARK SMILES IDX 51 46 53 47 50 48 72 49 73 50 78 51 74 52 75 53 77 54 79 55
REMARK SMILES IDX 76 56 60 57 61 58 66 59 62 60 63 61 65 62 67 63 64 64 8 65
REMARK SMILES IDX 9 66 10 67 11 68 12 70 13 71 14 72 20 73 15 74 19 75 17 76
REMARK SMILES IDX 16 77 18 78 21 79 22 80 23 81 24 83 25 84 36 85 26 86 35 87
REMARK SMILES IDX 27 88 28 89 29 90 30 91 34 92 31 93 33 94 32 95
REMARK H PARENT 3 8 84 26 58 37 10 69 23 82
REMARK Flexibility Score: inf
ROOT
ATOM      1  C   UNL A   1      31.700  29.445  25.578  1.00  0.00     0.002 C 
ENDROOT
BRANCH   1   2
ATOM      2  C   UNL A   1      31.488  30.252  26.864  1.00  0.00     0.002 C 
BRANCH   2   3
ATOM      3  C   UNL A   1      31.406  31.763  26.656  1.00  0.00     0.021 C 
BRANCH   3   4
ATOM      4  C   UNL A   1      32.703  32.495  26.964  1.00  0.00     0.116 C 
BRANCH   4   5
ATOM      5  N   UNL A   1      32.458  33.826  27.497  1.00  0.00    -0.352 N 
ATOM      6  O   UNL A   1      32.645  35.505  28.996  1.00  0.00    -0.269 OA
ATOM      7  C   UNL A   1      33.100  34.472  28.524  1.00  0.00     0.251 C 
ATOM      8  H   UNL A   1      31.734  34.333  27.062  1.00  0.00     0.163 HD
BRANCH   7   9
ATOM      9  C   UNL A   1      34.347  33.892  29.064  1.00  0.00     0.039 A 
ATOM     10  C   UNL A   1      34.293  32.951  30.095  1.00  0.00     0.014 A 
ATOM     11  C   UNL A   1      35.574  34.293  28.534  1.00  0.00     0.014 A 
ATOM     12  C   UNL A   1      35.469  32.505  30.682  1.00  0.00     0.010 A 
ATOM     13  C   UNL A   1      36.756  33.771  29.065  1.00  0.00     0.010 A 
ATOM     14  C   UNL A   1      36.712  32.885  30.152  1.00  0.00    -0.014 A 
BRANCH  14  15
ATOM     15  C   UNL A   1      37.947  32.264  30.689  1.00  0.00     0.031 A 
ATOM     16  C   UNL A   1      38.543  31.039  30.061  1.00  0.00     0.074 A 
ATOM     17  C   UNL A   1      38.526  32.830  31.766  1.00  0.00     0.049 A 
ATOM     18  N   UNL A   1      39.602  30.362  30.425  1.00  0.00    -0.248 NA
ATOM     19  C   UNL A   1      37.862  30.497  28.876  1.00  0.00     0.031 C 
ATOM     20  C   UNL A   1      38.026  34.018  32.464  1.00  0.00     0.029 A 
ATOM     21  N   UNL A   1      39.660  32.493  32.457  1.00  0.00    -0.354 N 
ATOM     22  C   UNL A   1      39.707  29.306  29.529  1.00  0.00     0.074 A 
ATOM     23  C   UNL A   1      38.588  29.417  28.617  1.00  0.00     0.031 C 
ATOM     24  C   UNL A   1      38.865  34.329  33.460  1.00  0.00     0.029 A 
ATOM     25  C   UNL A   1      39.920  33.326  33.519  1.00  0.00     0.049 A 
ATOM     26  H   UNL A   1      40.233  31.729  32.217  1.00  0.00     0.167 HD
ATOM     27  C   UNL A   1      40.655  28.341  29.475  1.00  0.00     0.037 A 
ATOM     28  C   UNL A   1      40.881  33.271  34.457  1.00  0.00     0.037 A 
ATOM     29  C   UNL A   1      41.768  28.246  30.387  1.00  0.00     0.049 A 
ATOM     30  C   UNL A   1      41.887  32.161  34.399  1.00  0.00     0.074 A 
ATOM     31  C   UNL A   1      42.805  27.329  30.389  1.00  0.00     0.029 A 
ATOM     32  N   UNL A   1      41.980  29.090  31.468  1.00  0.00    -0.354 N 
ATOM     33  N   UNL A   1      42.002  31.196  33.518  1.00  0.00    -0.248 NA
ATOM     34  C   UNL A   1      42.895  32.127  35.466  1.00  0.00     0.031 C 
ATOM     35  C   UNL A   1      43.611  27.581  31.503  1.00  0.00     0.029 A 
ATOM     36  C   UNL A   1      43.113  28.693  32.163  1.00  0.00     0.049 A 
ATOM     37  H   UNL A   1      41.411  29.857  31.706  1.00  0.00     0.167 HD
ATOM     38  C   UNL A   1      43.105  30.453  33.912  1.00  0.00     0.074 A 
ATOM     39  C   UNL A   1      43.637  31.091  35.099  1.00  0.00     0.031 C 
ATOM     40  C   UNL A   1      43.629  29.340  33.343  1.00  0.00     0.037 A 
BRANCH  27  41
ATOM     41  C   UNL A   1      40.523  27.289  28.410  1.00  0.00     0.057 A 
ATOM     42  C   UNL A   1      39.708  26.161  28.574  1.00  0.00     0.134 A 
ATOM     43  C   UNL A   1      41.177  27.436  27.178  1.00  0.00     0.134 A 
ATOM     44  F   UNL A   1      39.060  25.953  29.730  1.00  0.00    -0.206 F 
ATOM     45  C   UNL A   1      39.565  25.208  27.562  1.00  0.00     0.040 A 
ATOM     46  C   UNL A   1      41.021  26.505  26.150  1.00  0.00     0.040 A 
ATOM     47  F   UNL A   1      41.965  28.497  26.948  1.00  0.00    -0.206 F 
ATOM     48  C   UNL A   1      40.217  25.383  26.343  1.00  0.00     0.006 A 
ENDBRANCH  27  41
BRANCH  28  49
ATOM     49  C   UNL A   1      40.915  34.286  35.539  1.00  0.00     0.057 A 
ATOM     50  C   UNL A   1      41.635  35.476  35.395  1.00  0.00     0.134 A 
ATOM     51  C   UNL A   1      40.222  34.091  36.742  1.00  0.00     0.134 A 
ATOM     52  F   UNL A   1      42.330  35.713  34.273  1.00  0.00    -0.206 F 
ATOM     53  C   UNL A   1      41.682  36.429  36.415  1.00  0.00     0.040 A 
ATOM     54  C   UNL A   1      40.235  35.049  37.756  1.00  0.00     0.040 A 
ATOM     55  F   UNL A   1      39.505  32.976  36.938  1.00  0.00    -0.206 F 
ATOM     56  C   UNL A   1      40.975  36.219  37.597  1.00  0.00     0.006 A 
ENDBRANCH  28  49
BRANCH  40  57
ATOM     57  C   UNL A   1      44.857  28.762  33.981  1.00  0.00     0.057 A 
ATOM     58  C   UNL A   1      46.144  29.195  33.637  1.00  0.00     0.134 A 
ATOM     59  C   UNL A   1      44.750  27.781  34.975  1.00  0.00     0.134 A 
ATOM     60  F   UNL A   1      46.318  30.119  32.680  1.00  0.00    -0.206 F 
ATOM     61  C   UNL A   1      47.281  28.657  34.244  1.00  0.00     0.040 A 
ATOM     62  C   UNL A   1      45.876  27.258  35.610  1.00  0.00     0.040 A 
ATOM     63  F   UNL A   1      43.546  27.326  35.356  1.00  0.00    -0.206 F 
ATOM     64  C   UNL A   1      47.148  27.692  35.240  1.00  0.00     0.006 A 
ENDBRANCH  40  57
ENDBRANCH  14  15
ENDBRANCH   7   9
ENDBRANCH   4   5
ENDBRANCH   3   4
ENDBRANCH   2   3
ENDBRANCH   1   2
BRANCH   1  65
ATOM     65  C   UNL A   1      33.168  29.283  25.158  1.00  0.00     0.021 C 
BRANCH  65  66
ATOM     66  C   UNL A   1      33.660  27.837  25.223  1.00  0.00     0.116 C 
BRANCH  66  67
ATOM     67  N   UNL A   1      32.868  27.090  26.181  1.00  0.00    -0.356 N 
ATOM     68  C   UNL A   1      32.528  25.775  26.187  1.00  0.00     0.224 C 
ATOM     69  H   UNL A   1      32.528  27.614  26.942  1.00  0.00     0.163 HD
ATOM     70  O   UNL A   1      31.561  25.443  26.874  1.00  0.00    -0.275 OA
BRANCH  68  71
ATOM     71  C   UNL A   1      33.352  24.771  25.394  1.00  0.00     0.094 C 
ATOM     72  C   UNL A   1      34.019  23.738  26.353  1.00  0.00     0.002 C 
ATOM     73  C   UNL A   1      32.491  24.059  24.294  1.00  0.00     0.094 C 
ATOM     74  C   UNL A   1      32.986  22.818  27.025  1.00  0.00     0.005 C 
ATOM     75  C   UNL A   1      34.932  22.840  25.496  1.00  0.00     0.005 C 
ATOM     76  C   UNL A   1      32.616  22.532  24.555  1.00  0.00     0.002 C 
ATOM     77  C   UNL A   1      32.066  22.226  25.962  1.00  0.00     0.005 C 
ATOM     78  C   UNL A   1      34.086  22.084  24.470  1.00  0.00     0.005 C 
BRANCH  73  79
ATOM     79  C   UNL A   1      32.915  24.582  22.897  1.00  0.00     0.228 C 
ATOM     80  O   UNL A   1      33.863  24.072  22.285  1.00  0.00    -0.274 OA
ATOM     81  N   UNL A   1      32.305  25.610  22.248  1.00  0.00    -0.326 N 
ATOM     82  H   UNL A   1      32.642  25.787  21.340  1.00  0.00     0.169 HD
BRANCH  81  83
ATOM     83  C   UNL A   1      31.279  26.449  22.664  1.00  0.00     0.041 A 
ATOM     84  C   UNL A   1      31.324  27.768  22.218  1.00  0.00     0.026 A 
ATOM     85  C   UNL A   1      30.208  25.998  23.434  1.00  0.00     0.026 A 
ATOM     86  C   UNL A   1      30.217  28.588  22.396  1.00  0.00     0.006 A 
ATOM     87  C   UNL A   1      29.118  26.843  23.658  1.00  0.00     0.006 A 
ATOM     88  C   UNL A   1      29.092  28.128  23.097  1.00  0.00    -0.043 A 
BRANCH  88  89
ATOM     89  C   UNL A   1      27.876  29.015  23.237  1.00  0.00     0.071 C 
BRANCH  89  90
ATOM     90  C   UNL A   1      28.114  30.428  22.768  1.00  0.00    -0.041 A 
ATOM     91  C   UNL A   1      28.515  31.425  23.663  1.00  0.00     0.024 A 
ATOM     92  C   UNL A   1      27.906  30.782  21.434  1.00  0.00     0.024 A 
ATOM     93  C   UNL A   1      28.664  32.721  23.198  1.00  0.00     0.111 A 
ATOM     94  C   UNL A   1      28.096  32.103  21.061  1.00  0.00     0.111 A 
ATOM     95  N   UNL A   1      28.466  33.082  21.914  1.00  0.00    -0.265 NA
ENDBRANCH  89  90
ENDBRANCH  88  89
ENDBRANCH  81  83
ENDBRANCH  73  79
ENDBRANCH  68  71
ENDBRANCH  66  67
ENDBRANCH  65  66
ENDBRANCH   1  65
TORSDOF 17
ENDMDL
MODEL 3
REMARK VINA RESULT:     -12.5      1.433      5.932
REMARK SMILES O=C(NCCCCCCNC(=O)[C@H]1[C@H]2CC[C@H](CC2)[C@@H]1C(=O)Nc1ccc(Cc2ccncc2)cc1)c1ccc(-c2c3nc(c(-c4c(F)cccc4F)c4ccc([nH]4)c(-c4c(F)cccc4F)c4nc(c(-c5c(F)cccc5F)c5ccc2[nH]5)C=C4)C=C3)cc1
REMARK SMILES IDX 7 1 6 2 5 3 4 4 3 5 1 6 2 7 37 9 38 10 90 11 39 12 89 13
REMARK SMILES IDX 40 14 41 15 42 16 83 17 43 18 88 19 82 20 84 21 44 22 87 23
REMARK SMILES IDX 81 24 80 25 45 27 71 28 54 29 70 30 55 31 58 32 69 33 85 34
REMARK SMILES IDX 56 35 57 36 68 38 86 39 59 40 46 41 47 42 52 43 48 44 49 45
REMARK SMILES IDX 51 46 53 47 50 48 72 49 73 50 78 51 74 52 75 53 77 54 79 55
REMARK SMILES IDX 76 56 60 57 61 58 66 59 62 60 63 61 65 62 67 63 64 64 8 65
REMARK SMILES IDX 9 66 10 67 11 68 12 70 13 71 14 72 20 73 15 74 19 75 17 76
REMARK SMILES IDX 16 77 18 78 21 79 22 80 23 81 24 83 25 84 36 85 26 86 35 87
REMARK SMILES IDX 27 88 28 89 29 90 30 91 34 92 31 93 33 94 32 95
REMARK H PARENT 3 8 84 26 58 37 10 69 23 82
REMARK Flexibility Score: inf
ROOT
ATOM      1  C   UNL A   1      37.114  21.881  24.536  1.00  0.00     0.002 C 
ENDROOT
BRANCH   1   2
ATOM      2  C   UNL A   1      36.899  20.399  24.862  1.00  0.00     0.002 C 
BRANCH   2   3
ATOM      3  C   UNL A   1      38.173  19.557  24.847  1.00  0.00     0.021 C 
BRANCH   3   4
ATOM      4  C   UNL A   1      39.196  19.974  25.892  1.00  0.00     0.116 C 
BRANCH   4   5
ATOM      5  N   UNL A   1      40.389  19.144  25.842  1.00  0.00    -0.352 N 
ATOM      6  O   UNL A   1      42.609  18.742  25.735  1.00  0.00    -0.269 OA
ATOM      7  C   UNL A   1      41.700  19.512  26.013  1.00  0.00     0.251 C 
ATOM      8  H   UNL A   1      40.236  18.188  25.661  1.00  0.00     0.163 HD
BRANCH   7   9
ATOM      9  C   UNL A   1      42.002  20.864  26.527  1.00  0.00     0.039 A 
ATOM     10  C   UNL A   1      41.941  21.122  27.899  1.00  0.00     0.014 A 
ATOM     11  C   UNL A   1      42.347  21.876  25.631  1.00  0.00     0.014 A 
ATOM     12  C   UNL A   1      42.102  22.420  28.363  1.00  0.00     0.010 A 
ATOM     13  C   UNL A   1      42.601  23.163  26.111  1.00  0.00     0.010 A 
ATOM     14  C   UNL A   1      42.465  23.447  27.478  1.00  0.00    -0.014 A 
BRANCH  14  15
ATOM     15  C   UNL A   1      42.795  24.786  28.022  1.00  0.00     0.031 A 
ATOM     16  C   UNL A   1      44.199  25.150  28.409  1.00  0.00     0.074 A 
ATOM     17  C   UNL A   1      41.795  25.678  28.165  1.00  0.00     0.049 A 
ATOM     18  N   UNL A   1      44.646  26.268  28.922  1.00  0.00    -0.248 NA
ATOM     19  C   UNL A   1      45.235  24.127  28.202  1.00  0.00     0.031 C 
ATOM     20  C   UNL A   1      40.390  25.428  27.831  1.00  0.00     0.029 A 
ATOM     21  N   UNL A   1      41.802  26.971  28.617  1.00  0.00    -0.354 N 
ATOM     22  C   UNL A   1      46.008  26.081  29.115  1.00  0.00     0.074 A 
ATOM     23  C   UNL A   1      46.312  24.731  28.688  1.00  0.00     0.031 C 
ATOM     24  C   UNL A   1      39.679  26.540  28.056  1.00  0.00     0.029 A 
ATOM     25  C   UNL A   1      40.559  27.556  28.618  1.00  0.00     0.049 A 
ATOM     26  H   UNL A   1      42.618  27.437  28.912  1.00  0.00     0.167 HD
ATOM     27  C   UNL A   1      46.918  26.960  29.599  1.00  0.00     0.037 A 
ATOM     28  C   UNL A   1      40.163  28.764  29.054  1.00  0.00     0.037 A 
ATOM     29  C   UNL A   1      46.601  28.304  30.017  1.00  0.00     0.049 A 
ATOM     30  C   UNL A   1      41.184  29.697  29.631  1.00  0.00     0.074 A 
ATOM     31  C   UNL A   1      47.460  29.286  30.482  1.00  0.00     0.029 A 
ATOM     32  N   UNL A   1      45.326  28.850  30.032  1.00  0.00    -0.354 N 
ATOM     33  N   UNL A   1      42.478  29.525  29.764  1.00  0.00    -0.248 NA
ATOM     34  C   UNL A   1      40.695  30.991  30.123  1.00  0.00     0.031 C 
ATOM     35  C   UNL A   1      46.696  30.404  30.833  1.00  0.00     0.029 A 
ATOM     36  C   UNL A   1      45.370  30.143  30.531  1.00  0.00     0.049 A 
ATOM     37  H   UNL A   1      44.511  28.387  29.732  1.00  0.00     0.167 HD
ATOM     38  C   UNL A   1      42.959  30.694  30.336  1.00  0.00     0.074 A 
ATOM     39  C   UNL A   1      41.821  31.575  30.505  1.00  0.00     0.031 C 
ATOM     40  C   UNL A   1      44.228  31.007  30.692  1.00  0.00     0.037 A 
BRANCH  27  41
ATOM     41  C   UNL A   1      48.340  26.495  29.732  1.00  0.00     0.057 A 
ATOM     42  C   UNL A   1      49.300  26.741  28.741  1.00  0.00     0.134 A 
ATOM     43  C   UNL A   1      48.770  25.840  30.895  1.00  0.00     0.134 A 
ATOM     44  F   UNL A   1      48.956  27.356  27.599  1.00  0.00    -0.206 F 
ATOM     45  C   UNL A   1      50.628  26.335  28.892  1.00  0.00     0.040 A 
ATOM     46  C   UNL A   1      50.100  25.453  31.068  1.00  0.00     0.040 A 
ATOM     47  F   UNL A   1      47.907  25.581  31.888  1.00  0.00    -0.206 F 
ATOM     48  C   UNL A   1      51.033  25.696  30.062  1.00  0.00     0.006 A 
ENDBRANCH  27  41
BRANCH  28  49
ATOM     49  C   UNL A   1      38.729  29.142  28.980  1.00  0.00     0.057 A 
ATOM     50  C   UNL A   1      38.160  29.598  27.787  1.00  0.00     0.134 A 
ATOM     51  C   UNL A   1      37.893  29.050  30.101  1.00  0.00     0.134 A 
ATOM     52  F   UNL A   1      38.912  29.723  26.684  1.00  0.00    -0.206 F 
ATOM     53  C   UNL A   1      36.815  29.967  27.715  1.00  0.00     0.040 A 
ATOM     54  C   UNL A   1      36.541  29.385  30.035  1.00  0.00     0.040 A 
ATOM     55  F   UNL A   1      38.376  28.610  31.272  1.00  0.00    -0.206 F 
ATOM     56  C   UNL A   1      36.001  29.855  28.840  1.00  0.00     0.006 A 
ENDBRANCH  28  49
BRANCH  40  57
ATOM     57  C   UNL A   1      44.457  32.373  31.270  1.00  0.00     0.057 A 
ATOM     58  C   UNL A   1      44.418  32.609  32.650  1.00  0.00     0.134 A 
ATOM     59  C   UNL A   1      44.751  33.459  30.436  1.00  0.00     0.134 A 
ATOM     60  F   UNL A   1      44.125  31.616  33.502  1.00  0.00    -0.206 F 
ATOM     61  C   UNL A   1      44.643  33.882  33.178  1.00  0.00     0.040 A 
ATOM     62  C   UNL A   1      45.008  34.729  30.953  1.00  0.00     0.040 A 
ATOM     63  F   UNL A   1      44.810  33.301  29.105  1.00  0.00    -0.206 F 
ATOM     64  C   UNL A   1      44.947  34.944  32.329  1.00  0.00     0.006 A 
ENDBRANCH  40  57
ENDBRANCH  14  15
ENDBRANCH   7   9
ENDBRANCH   4   5
ENDBRANCH   3   4
ENDBRANCH   2   3
ENDBRANCH   1   2
BRANCH   1  65
ATOM     65  C   UNL A   1      36.945  22.831  25.731  1.00  0.00     0.021 C 
BRANCH  65  66
ATOM     66  C   UNL A   1      36.224  24.131  25.373  1.00  0.00     0.116 C 
BRANCH  66  67
ATOM     67  N   UNL A   1      35.423  23.938  24.180  1.00  0.00    -0.356 N 
ATOM     68  C   UNL A   1      34.159  24.352  23.908  1.00  0.00     0.224 C 
ATOM     69  H   UNL A   1      35.863  23.432  23.459  1.00  0.00     0.163 HD
ATOM     70  O   UNL A   1      33.552  23.769  23.009  1.00  0.00    -0.275 OA
BRANCH  68  71
ATOM     71  C   UNL A   1      33.557  25.519  24.678  1.00  0.00     0.094 C 
ATOM     72  C   UNL A   1      33.929  26.870  23.994  1.00  0.00     0.002 C 
ATOM     73  C   UNL A   1      32.004  25.365  24.836  1.00  0.00     0.094 C 
ATOM     74  C   UNL A   1      33.253  27.033  22.622  1.00  0.00     0.005 C 
ATOM     75  C   UNL A   1      33.397  28.001  24.895  1.00  0.00     0.005 C 
ATOM     76  C   UNL A   1      31.370  26.655  24.243  1.00  0.00     0.002 C 
ATOM     77  C   UNL A   1      31.760  26.756  22.756  1.00  0.00     0.005 C 
ATOM     78  C   UNL A   1      31.873  27.901  24.991  1.00  0.00     0.005 C 
BRANCH  73  79
ATOM     79  C   UNL A   1      31.674  25.020  26.312  1.00  0.00     0.228 C 
ATOM     80  O   UNL A   1      31.332  25.901  27.112  1.00  0.00    -0.274 OA
ATOM     81  N   UNL A   1      31.732  23.766  26.835  1.00  0.00    -0.326 N 
ATOM     82  H   UNL A   1      31.431  23.691  27.770  1.00  0.00     0.169 HD
BRANCH  81  83
ATOM     83  C   UNL A   1      32.147  22.572  26.257  1.00  0.00     0.041 A 
ATOM     84  C   UNL A   1      31.364  22.069  25.222  1.00  0.00     0.026 A 
ATOM     85  C   UNL A   1      33.325  21.929  26.633  1.00  0.00     0.026 A 
ATOM     86  C   UNL A   1      31.847  21.021  24.448  1.00  0.00     0.006 A 
ATOM     87  C   UNL A   1      33.782  20.841  25.885  1.00  0.00     0.006 A 
ATOM     88  C   UNL A   1      33.071  20.410  24.755  1.00  0.00    -0.043 A 
BRANCH  88  89
ATOM     89  C   UNL A   1      33.606  19.305  23.873  1.00  0.00     0.071 C 
BRANCH  89  90
ATOM     90  C   UNL A   1      33.665  17.967  24.565  1.00  0.00    -0.041 A 
ATOM     91  C   UNL A   1      34.847  17.219  24.582  1.00  0.00     0.024 A 
ATOM     92  C   UNL A   1      32.532  17.427  25.175  1.00  0.00     0.024 A 
ATOM     93  C   UNL A   1      34.838  15.969  25.178  1.00  0.00     0.111 A 
ATOM     94  C   UNL A   1      32.627  16.175  25.760  1.00  0.00     0.111 A 
ATOM     95  N   UNL A   1      33.755  15.431  25.772  1.00  0.00    -0.265 NA
ENDBRANCH  89  90
ENDBRANCH  88  89
ENDBRANCH  81  83
ENDBRANCH  73  79
ENDBRANCH  68  71
ENDBRANCH  66  67
ENDBRANCH  65  66
ENDBRANCH   1  65
TORSDOF 17
ENDMDL
