MODEL 1
REMARK VINA RESULT:     -11.2      0.000      0.000
REMARK SMILES C[C@H](SC1CCOCC1)c1ccc(C(=O)NCCCCCCNC(=O)c2ccc(-c3c4nc(c(-c5c(F)cccc5F)c5ccc([nH]5)c(-c5c(F)cccc5F)c5nc(c(-c6c(F)cccc6F)c6ccc3[nH]6)C=C5)C=C4)cc2)o1
REMARK SMILES IDX 19 1 18 2 17 3 16 4 14 5 15 6 13 8 10 9 11 10 80 11 12 12
REMARK SMILES IDX 2 13 1 14 3 15 4 16 5 17 9 18 6 19 8 20 7 21 20 22 21 23
REMARK SMILES IDX 22 24 23 25 24 26 25 28 26 29 27 30 79 31 28 32 78 33 29 34
REMARK SMILES IDX 30 35 31 36 72 37 32 38 77 39 71 40 73 41 33 42 76 43 70 44
REMARK SMILES IDX 69 45 34 47 60 48 43 49 59 50 44 51 47 52 58 53 74 54 45 55
REMARK SMILES IDX 46 56 57 58 75 59 48 60 35 61 36 62 41 63 37 64 38 65 40 66
REMARK SMILES IDX 42 67 39 68 61 69 62 70 67 71 63 72 64 73 66 74 68 75 65 76
REMARK SMILES IDX 49 77 50 78 55 79 51 80 52 81 54 82 56 83 53 84
REMARK H PARENT 16 7 23 27 73 46 47 57
REMARK Flexibility Score: inf
ROOT
ATOM      1  C   UNL A   1      32.267  29.772  26.070  1.00  0.00     0.002 C 
ENDROOT
BRANCH   1   2
ATOM      2  C   UNL A   1      31.943  28.688  27.109  1.00  0.00     0.021 C 
BRANCH   2   3
ATOM      3  C   UNL A   1      32.604  27.342  26.811  1.00  0.00     0.116 C 
BRANCH   3   4
ATOM      4  N   UNL A   1      31.687  26.251  27.069  1.00  0.00    -0.349 N 
ATOM      5  C   UNL A   1      30.993  25.437  26.203  1.00  0.00     0.286 C 
ATOM      6  O   UNL A   1      30.357  24.518  26.718  1.00  0.00    -0.266 OA
ATOM      7  H   UNL A   1      31.536  26.060  28.023  1.00  0.00     0.163 HD
BRANCH   5   8
ATOM      8  C   UNL A   1      31.054  25.656  24.770  1.00  0.00     0.191 A 
ATOM      9  C   UNL A   1      30.755  26.906  22.963  1.00  0.00     0.117 A 
ATOM     10  C   UNL A   1      31.166  25.666  22.521  1.00  0.00     0.047 A 
ATOM     11  O   UNL A   1      30.754  26.923  24.326  1.00  0.00    -0.455 OA
ATOM     12  C   UNL A   1      31.352  24.869  23.673  1.00  0.00     0.056 A 
BRANCH   9  13
ATOM     13  C   UNL A   1      30.401  28.167  22.249  1.00  0.00     0.110 C 
ATOM     14  C   UNL A   1      31.553  29.175  22.360  1.00  0.00     0.028 C 
BRANCH  13  15
ATOM     15  S   UNL A   1      28.869  29.044  22.783  1.00  0.00    -0.147 SA
BRANCH  15  16
ATOM     16  C   UNL A   1      28.963  30.754  22.102  1.00  0.00     0.052 C 
ATOM     17  C   UNL A   1      28.811  31.797  23.210  1.00  0.00     0.043 C 
ATOM     18  C   UNL A   1      28.135  31.002  20.842  1.00  0.00     0.043 C 
ATOM     19  C   UNL A   1      28.650  33.206  22.669  1.00  0.00     0.161 C 
ATOM     20  C   UNL A   1      28.063  32.486  20.506  1.00  0.00     0.161 C 
ATOM     21  O   UNL A   1      27.661  33.245  21.643  1.00  0.00    -0.381 OA
ENDBRANCH  15  16
ENDBRANCH  13  15
ENDBRANCH   9  13
ENDBRANCH   5   8
ENDBRANCH   3   4
ENDBRANCH   2   3
ENDBRANCH   1   2
BRANCH   1  22
ATOM     22  C   UNL A   1      31.079  30.646  25.651  1.00  0.00     0.002 C 
BRANCH  22  23
ATOM     23  C   UNL A   1      31.075  32.058  26.240  1.00  0.00     0.021 C 
BRANCH  23  24
ATOM     24  C   UNL A   1      32.396  32.471  26.879  1.00  0.00     0.116 C 
BRANCH  24  25
ATOM     25  N   UNL A   1      32.355  33.842  27.369  1.00  0.00    -0.352 N 
ATOM     26  C   UNL A   1      33.111  34.434  28.350  1.00  0.00     0.251 C 
ATOM     27  H   UNL A   1      31.692  34.426  26.936  1.00  0.00     0.163 HD
ATOM     28  O   UNL A   1      32.801  35.534  28.796  1.00  0.00    -0.269 OA
BRANCH  26  29
ATOM     29  C   UNL A   1      34.295  33.728  28.881  1.00  0.00     0.039 A 
ATOM     30  C   UNL A   1      35.562  34.282  28.686  1.00  0.00     0.014 A 
ATOM     31  C   UNL A   1      34.148  32.527  29.580  1.00  0.00     0.014 A 
ATOM     32  C   UNL A   1      36.679  33.661  29.247  1.00  0.00     0.010 A 
ATOM     33  C   UNL A   1      35.251  31.954  30.205  1.00  0.00     0.010 A 
ATOM     34  C   UNL A   1      36.528  32.513  30.043  1.00  0.00    -0.014 A 
BRANCH  34  35
ATOM     35  C   UNL A   1      37.690  31.886  30.721  1.00  0.00     0.031 A 
ATOM     36  C   UNL A   1      38.479  30.810  30.026  1.00  0.00     0.074 A 
ATOM     37  C   UNL A   1      37.993  32.237  31.985  1.00  0.00     0.049 A 
ATOM     38  N   UNL A   1      39.478  30.096  30.478  1.00  0.00    -0.248 NA
ATOM     39  C   UNL A   1      38.073  30.472  28.653  1.00  0.00     0.031 C 
ATOM     40  C   UNL A   1      37.274  33.233  32.782  1.00  0.00     0.029 A 
ATOM     41  N   UNL A   1      38.977  31.786  32.828  1.00  0.00    -0.354 N 
ATOM     42  C   UNL A   1      39.810  29.220  29.453  1.00  0.00     0.074 A 
ATOM     43  C   UNL A   1      38.869  29.450  28.379  1.00  0.00     0.031 C 
ATOM     44  C   UNL A   1      37.856  33.336  33.987  1.00  0.00     0.029 A 
ATOM     45  C   UNL A   1      38.960  32.384  34.065  1.00  0.00     0.049 A 
ATOM     46  H   UNL A   1      39.633  31.098  32.572  1.00  0.00     0.167 HD
ATOM     47  C   UNL A   1      40.823  28.322  29.401  1.00  0.00     0.037 A 
ATOM     48  C   UNL A   1      39.740  32.181  35.145  1.00  0.00     0.037 A 
ATOM     49  C   UNL A   1      41.767  28.108  30.467  1.00  0.00     0.049 A 
ATOM     50  C   UNL A   1      40.845  31.164  35.069  1.00  0.00     0.074 A 
ATOM     51  C   UNL A   1      42.860  27.262  30.492  1.00  0.00     0.029 A 
ATOM     52  N   UNL A   1      41.723  28.744  31.699  1.00  0.00    -0.354 N 
ATOM     53  N   UNL A   1      41.191  30.392  34.068  1.00  0.00    -0.248 NA
ATOM     54  C   UNL A   1      41.673  30.995  36.272  1.00  0.00     0.031 C 
ATOM     55  C   UNL A   1      43.448  27.343  31.759  1.00  0.00     0.029 A 
ATOM     56  C   UNL A   1      42.757  28.288  32.501  1.00  0.00     0.049 A 
ATOM     57  H   UNL A   1      41.057  29.418  31.965  1.00  0.00     0.167 HD
ATOM     58  C   UNL A   1      42.297  29.673  34.505  1.00  0.00     0.074 A 
ATOM     59  C   UNL A   1      42.567  30.108  35.861  1.00  0.00     0.031 C 
ATOM     60  C   UNL A   1      43.024  28.740  33.844  1.00  0.00     0.037 A 
BRANCH  47  61
ATOM     61  C   UNL A   1      40.959  27.501  28.151  1.00  0.00     0.057 A 
ATOM     62  C   UNL A   1      40.329  26.257  28.009  1.00  0.00     0.134 A 
ATOM     63  C   UNL A   1      41.699  27.975  27.060  1.00  0.00     0.134 A 
ATOM     64  F   UNL A   1      39.613  25.739  29.017  1.00  0.00    -0.206 F 
ATOM     65  C   UNL A   1      40.456  25.501  26.841  1.00  0.00     0.040 A 
ATOM     66  C   UNL A   1      41.807  27.243  25.876  1.00  0.00     0.040 A 
ATOM     67  F   UNL A   1      42.322  29.162  27.123  1.00  0.00    -0.206 F 
ATOM     68  C   UNL A   1      41.191  25.999  25.768  1.00  0.00     0.006 A 
ENDBRANCH  47  61
BRANCH  48  69
ATOM     69  C   UNL A   1      39.516  32.972  36.382  1.00  0.00     0.057 A 
ATOM     70  C   UNL A   1      40.208  34.168  36.609  1.00  0.00     0.134 A 
ATOM     71  C   UNL A   1      38.617  32.550  37.369  1.00  0.00     0.134 A 
ATOM     72  F   UNL A   1      41.096  34.615  35.710  1.00  0.00    -0.206 F 
ATOM     73  C   UNL A   1      40.030  34.905  37.782  1.00  0.00     0.040 A 
ATOM     74  C   UNL A   1      38.408  33.292  38.533  1.00  0.00     0.040 A 
ATOM     75  F   UNL A   1      37.916  31.418  37.208  1.00  0.00    -0.206 F 
ATOM     76  C   UNL A   1      39.123  34.468  38.745  1.00  0.00     0.006 A 
ENDBRANCH  48  69
BRANCH  60  77
ATOM     77  C   UNL A   1      44.214  28.160  34.551  1.00  0.00     0.057 A 
ATOM     78  C   UNL A   1      44.137  26.969  35.283  1.00  0.00     0.134 A 
ATOM     79  C   UNL A   1      45.467  28.778  34.451  1.00  0.00     0.134 A 
ATOM     80  F   UNL A   1      42.965  26.333  35.428  1.00  0.00    -0.206 F 
ATOM     81  C   UNL A   1      45.261  26.425  35.907  1.00  0.00     0.040 A 
ATOM     82  C   UNL A   1      46.604  28.228  35.046  1.00  0.00     0.040 A 
ATOM     83  F   UNL A   1      45.613  29.918  33.758  1.00  0.00    -0.206 F 
ATOM     84  C   UNL A   1      46.501  27.051  35.782  1.00  0.00     0.006 A 
ENDBRANCH  60  77
ENDBRANCH  34  35
ENDBRANCH  26  29
ENDBRANCH  24  25
ENDBRANCH  23  24
ENDBRANCH  22  23
ENDBRANCH   1  22
TORSDOF 16
ENDMDL
MODEL 2
REMARK VINA RESULT:     -11.1      1.102      6.339
REMARK SMILES C[C@H](SC1CCOCC1)c1ccc(C(=O)NCCCCCCNC(=O)c2ccc(-c3c4nc(c(-c5c(F)cccc5F)c5ccc([nH]5)c(-c5c(F)cccc5F)c5nc(c(-c6c(F)cccc6F)c6ccc3[nH]6)C=C5)C=C4)cc2)o1
REMARK SMILES IDX 19 1 18 2 17 3 16 4 14 5 15 6 13 8 10 9 11 10 80 11 12 12
REMARK SMILES IDX 2 13 1 14 3 15 4 16 5 17 9 18 6 19 8 20 7 21 20 22 21 23
REMARK SMILES IDX 22 24 23 25 24 26 25 28 26 29 27 30 79 31 28 32 78 33 29 34
REMARK SMILES IDX 30 35 31 36 72 37 32 38 77 39 71 40 73 41 33 42 76 43 70 44
REMARK SMILES IDX 69 45 34 47 60 48 43 49 59 50 44 51 47 52 58 53 74 54 45 55
REMARK SMILES IDX 46 56 57 58 75 59 48 60 35 61 36 62 41 63 37 64 38 65 40 66
REMARK SMILES IDX 42 67 39 68 61 69 62 70 67 71 63 72 64 73 66 74 68 75 65 76
REMARK SMILES IDX 49 77 50 78 55 79 51 80 52 81 54 82 56 83 53 84
REMARK H PARENT 16 7 23 27 73 46 47 57
REMARK Flexibility Score: inf
ROOT
ATOM      1  C   UNL A   1      32.949  30.156  26.515  1.00  0.00     0.002 C 
ENDROOT
BRANCH   1   2
ATOM      2  C   UNL A   1      33.218  28.788  25.871  1.00  0.00     0.021 C 
BRANCH   2   3
ATOM      3  C   UNL A   1      33.166  27.626  26.864  1.00  0.00     0.116 C 
BRANCH   3   4
ATOM      4  N   UNL A   1      33.580  26.392  26.231  1.00  0.00    -0.349 N 
ATOM      5  C   UNL A   1      32.942  25.601  25.302  1.00  0.00     0.286 C 
ATOM      6  O   UNL A   1      33.590  24.650  24.867  1.00  0.00    -0.266 OA
ATOM      7  H   UNL A   1      34.465  26.064  26.511  1.00  0.00     0.163 HD
BRANCH   5   8
ATOM      8  C   UNL A   1      31.597  25.916  24.859  1.00  0.00     0.191 A 
ATOM      9  C   UNL A   1      30.159  27.065  23.622  1.00  0.00     0.117 A 
ATOM     10  C   UNL A   1      29.409  26.253  24.447  1.00  0.00     0.047 A 
ATOM     11  O   UNL A   1      31.484  26.812  23.821  1.00  0.00    -0.455 OA
ATOM     12  C   UNL A   1      30.326  25.525  25.238  1.00  0.00     0.056 A 
BRANCH   9  13
ATOM     13  C   UNL A   1      29.788  28.058  22.572  1.00  0.00     0.110 C 
ATOM     14  C   UNL A   1      30.965  29.004  22.305  1.00  0.00     0.028 C 
BRANCH  13  15
ATOM     15  S   UNL A   1      28.310  29.115  22.888  1.00  0.00    -0.147 SA
BRANCH  15  16
ATOM     16  C   UNL A   1      28.684  30.781  22.194  1.00  0.00     0.052 C 
ATOM     17  C   UNL A   1      28.705  31.843  23.295  1.00  0.00     0.043 C 
ATOM     18  C   UNL A   1      27.908  31.152  20.931  1.00  0.00     0.043 C 
ATOM     19  C   UNL A   1      28.777  33.256  22.742  1.00  0.00     0.161 C 
ATOM     20  C   UNL A   1      28.080  32.625  20.584  1.00  0.00     0.161 C 
ATOM     21  O   UNL A   1      27.808  33.449  21.715  1.00  0.00    -0.381 OA
ENDBRANCH  15  16
ENDBRANCH  13  15
ENDBRANCH   9  13
ENDBRANCH   5   8
ENDBRANCH   3   4
ENDBRANCH   2   3
ENDBRANCH   1   2
BRANCH   1  22
ATOM     22  C   UNL A   1      31.576  30.763  26.202  1.00  0.00     0.002 C 
BRANCH  22  23
ATOM     23  C   UNL A   1      31.416  32.235  26.590  1.00  0.00     0.021 C 
BRANCH  23  24
ATOM     24  C   UNL A   1      32.678  32.870  27.163  1.00  0.00     0.116 C 
BRANCH  24  25
ATOM     25  N   UNL A   1      32.437  34.226  27.633  1.00  0.00    -0.352 N 
ATOM     26  C   UNL A   1      33.034  34.905  28.666  1.00  0.00     0.251 C 
ATOM     27  H   UNL A   1      31.747  34.727  27.141  1.00  0.00     0.163 HD
ATOM     28  O   UNL A   1      32.562  35.961  29.073  1.00  0.00    -0.269 OA
BRANCH  26  29
ATOM     29  C   UNL A   1      34.246  34.345  29.299  1.00  0.00     0.039 A 
ATOM     30  C   UNL A   1      34.118  33.601  30.473  1.00  0.00     0.014 A 
ATOM     31  C   UNL A   1      35.503  34.548  28.723  1.00  0.00     0.014 A 
ATOM     32  C   UNL A   1      35.248  33.007  31.039  1.00  0.00     0.010 A 
ATOM     33  C   UNL A   1      36.613  33.890  29.242  1.00  0.00     0.010 A 
ATOM     34  C   UNL A   1      36.498  33.115  30.406  1.00  0.00    -0.014 A 
BRANCH  34  35
ATOM     35  C   UNL A   1      37.695  32.419  30.941  1.00  0.00     0.031 A 
ATOM     36  C   UNL A   1      38.388  32.944  32.169  1.00  0.00     0.074 A 
ATOM     37  C   UNL A   1      38.199  31.357  30.282  1.00  0.00     0.049 A 
ATOM     38  N   UNL A   1      39.483  32.519  32.744  1.00  0.00    -0.248 NA
ATOM     39  C   UNL A   1      37.785  34.118  32.819  1.00  0.00     0.031 C 
ATOM     40  C   UNL A   1      37.645  30.783  29.054  1.00  0.00     0.029 A 
ATOM     41  N   UNL A   1      39.297  30.579  30.546  1.00  0.00    -0.354 N 
ATOM     42  C   UNL A   1      39.706  33.378  33.813  1.00  0.00     0.074 A 
ATOM     43  C   UNL A   1      38.667  34.384  33.770  1.00  0.00     0.031 C 
ATOM     44  C   UNL A   1      38.391  29.730  28.686  1.00  0.00     0.029 A 
ATOM     45  C   UNL A   1      39.499  29.580  29.625  1.00  0.00     0.049 A 
ATOM     46  H   UNL A   1      39.886  30.722  31.323  1.00  0.00     0.167 HD
ATOM     47  C   UNL A   1      40.675  33.320  34.758  1.00  0.00     0.037 A 
ATOM     48  C   UNL A   1      40.473  28.653  29.539  1.00  0.00     0.037 A 
ATOM     49  C   UNL A   1      41.697  32.308  34.805  1.00  0.00     0.049 A 
ATOM     50  C   UNL A   1      41.549  28.622  30.590  1.00  0.00     0.074 A 
ATOM     51  C   UNL A   1      42.690  32.130  35.751  1.00  0.00     0.029 A 
ATOM     52  N   UNL A   1      41.859  31.305  33.860  1.00  0.00    -0.354 N 
ATOM     53  N   UNL A   1      41.707  29.399  31.635  1.00  0.00    -0.248 NA
ATOM     54  C   UNL A   1      42.577  27.581  30.455  1.00  0.00     0.031 C 
ATOM     55  C   UNL A   1      43.487  31.053  35.351  1.00  0.00     0.029 A 
ATOM     56  C   UNL A   1      42.953  30.521  34.189  1.00  0.00     0.049 A 
ATOM     57  H   UNL A   1      41.283  31.171  33.073  1.00  0.00     0.167 HD
ATOM     58  C   UNL A   1      42.829  28.920  32.299  1.00  0.00     0.074 A 
ATOM     59  C   UNL A   1      43.306  27.780  31.543  1.00  0.00     0.031 C 
ATOM     60  C   UNL A   1      43.409  29.380  33.435  1.00  0.00     0.037 A 
BRANCH  47  61
ATOM     61  C   UNL A   1      40.674  34.385  35.817  1.00  0.00     0.057 A 
ATOM     62  C   UNL A   1      41.396  35.578  35.669  1.00  0.00     0.134 A 
ATOM     63  C   UNL A   1      39.915  34.235  36.984  1.00  0.00     0.134 A 
ATOM     64  F   UNL A   1      42.152  35.784  34.580  1.00  0.00    -0.206 F 
ATOM     65  C   UNL A   1      41.387  36.566  36.655  1.00  0.00     0.040 A 
ATOM     66  C   UNL A   1      39.873  35.229  37.963  1.00  0.00     0.040 A 
ATOM     67  F   UNL A   1      39.193  33.122  37.189  1.00  0.00    -0.206 F 
ATOM     68  C   UNL A   1      40.618  36.395  37.803  1.00  0.00     0.006 A 
ENDBRANCH  47  61
BRANCH  48  69
ATOM     69  C   UNL A   1      40.465  27.666  28.430  1.00  0.00     0.057 A 
ATOM     70  C   UNL A   1      39.750  26.467  28.536  1.00  0.00     0.134 A 
ATOM     71  C   UNL A   1      41.176  27.890  27.244  1.00  0.00     0.134 A 
ATOM     72  F   UNL A   1      39.063  26.187  29.653  1.00  0.00    -0.206 F 
ATOM     73  C   UNL A   1      39.758  25.517  27.512  1.00  0.00     0.040 A 
ATOM     74  C   UNL A   1      41.170  26.961  26.202  1.00  0.00     0.040 A 
ATOM     75  F   UNL A   1      41.874  29.023  27.076  1.00  0.00    -0.206 F 
ATOM     76  C   UNL A   1      40.466  25.767  26.339  1.00  0.00     0.006 A 
ENDBRANCH  48  69
BRANCH  60  77
ATOM     77  C   UNL A   1      44.594  28.624  33.962  1.00  0.00     0.057 A 
ATOM     78  C   UNL A   1      44.455  27.521  34.813  1.00  0.00     0.134 A 
ATOM     79  C   UNL A   1      45.891  28.977  33.566  1.00  0.00     0.134 A 
ATOM     80  F   UNL A   1      43.243  27.138  35.239  1.00  0.00    -0.206 F 
ATOM     81  C   UNL A   1      45.567  26.809  35.268  1.00  0.00     0.040 A 
ATOM     82  C   UNL A   1      47.007  28.254  33.990  1.00  0.00     0.040 A 
ATOM     83  F   UNL A   1      46.094  30.018  32.745  1.00  0.00    -0.206 F 
ATOM     84  C   UNL A   1      46.846  27.170  34.849  1.00  0.00     0.006 A 
ENDBRANCH  60  77
ENDBRANCH  34  35
ENDBRANCH  26  29
ENDBRANCH  24  25
ENDBRANCH  23  24
ENDBRANCH  22  23
ENDBRANCH   1  22
TORSDOF 16
ENDMDL
MODEL 3
REMARK VINA RESULT:     -10.9      6.479     12.069
REMARK SMILES C[C@H](SC1CCOCC1)c1ccc(C(=O)NCCCCCCNC(=O)c2ccc(-c3c4nc(c(-c5c(F)cccc5F)c5ccc([nH]5)c(-c5c(F)cccc5F)c5nc(c(-c6c(F)cccc6F)c6ccc3[nH]6)C=C5)C=C4)cc2)o1
REMARK SMILES IDX 19 1 18 2 17 3 16 4 14 5 15 6 13 8 10 9 11 10 80 11 12 12
REMARK SMILES IDX 2 13 1 14 3 15 4 16 5 17 9 18 6 19 8 20 7 21 20 22 21 23
REMARK SMILES IDX 22 24 23 25 24 26 25 28 26 29 27 30 79 31 28 32 78 33 29 34
REMARK SMILES IDX 30 35 31 36 72 37 32 38 77 39 71 40 73 41 33 42 76 43 70 44
REMARK SMILES IDX 69 45 34 47 60 48 43 49 59 50 44 51 47 52 58 53 74 54 45 55
REMARK SMILES IDX 46 56 57 58 75 59 48 60 35 61 36 62 41 63 37 64 38 65 40 66
REMARK SMILES IDX 42 67 39 68 61 69 62 70 67 71 63 72 64 73 66 74 68 75 65 76
REMARK SMILES IDX 49 77 50 78 55 79 51 80 52 81 54 82 56 83 53 84
REMARK H PARENT 16 7 23 27 73 46 47 57
REMARK Flexibility Score: inf
ROOT
ATOM      1  C   UNL A   1      46.023  22.087  24.757  1.00  0.00     0.002 C 
ENDROOT
BRANCH   1   2
ATOM      2  C   UNL A   1      46.164  23.560  24.349  1.00  0.00     0.021 C 
BRANCH   2   3
ATOM      3  C   UNL A   1      47.187  24.329  25.187  1.00  0.00     0.116 C 
BRANCH   3   4
ATOM      4  N   UNL A   1      47.903  25.286  24.371  1.00  0.00    -0.349 N 
ATOM      5  C   UNL A   1      47.800  26.657  24.296  1.00  0.00     0.286 C 
ATOM      6  O   UNL A   1      48.620  27.221  23.573  1.00  0.00    -0.266 OA
ATOM      7  H   UNL A   1      48.577  24.891  23.771  1.00  0.00     0.163 HD
BRANCH   5   8
ATOM      8  C   UNL A   1      46.794  27.368  25.062  1.00  0.00     0.191 A 
ATOM      9  C   UNL A   1      46.023  29.181  26.079  1.00  0.00     0.117 A 
ATOM     10  C   UNL A   1      45.117  28.172  26.332  1.00  0.00     0.047 A 
ATOM     11  O   UNL A   1      47.002  28.715  25.253  1.00  0.00    -0.455 OA
ATOM     12  C   UNL A   1      45.612  27.016  25.687  1.00  0.00     0.056 A 
BRANCH   9  13
ATOM     13  C   UNL A   1      46.071  30.618  26.477  1.00  0.00     0.110 C 
ATOM     14  C   UNL A   1      47.234  30.855  27.448  1.00  0.00     0.028 C 
BRANCH  13  15
ATOM     15  S   UNL A   1      44.562  31.333  27.261  1.00  0.00    -0.147 SA
BRANCH  15  16
ATOM     16  C   UNL A   1      44.409  33.065  26.652  1.00  0.00     0.052 C 
ATOM     17  C   UNL A   1      43.675  33.943  27.667  1.00  0.00     0.043 C 
ATOM     18  C   UNL A   1      43.954  33.210  25.200  1.00  0.00     0.043 C 
ATOM     19  C   UNL A   1      43.324  35.311  27.110  1.00  0.00     0.161 C 
ATOM     20  C   UNL A   1      43.605  34.654  24.867  1.00  0.00     0.161 C 
ATOM     21  O   UNL A   1      42.705  35.195  25.831  1.00  0.00    -0.381 OA
ENDBRANCH  15  16
ENDBRANCH  13  15
ENDBRANCH   9  13
ENDBRANCH   5   8
ENDBRANCH   3   4
ENDBRANCH   2   3
ENDBRANCH   1   2
BRANCH   1  22
ATOM     22  C   UNL A   1      45.071  21.259  23.884  1.00  0.00     0.002 C 
BRANCH  22  23
ATOM     23  C   UNL A   1      45.076  19.756  24.167  1.00  0.00     0.021 C 
BRANCH  23  24
ATOM     24  C   UNL A   1      44.398  19.365  25.476  1.00  0.00     0.116 C 
BRANCH  24  25
ATOM     25  N   UNL A   1      42.983  19.075  25.288  1.00  0.00    -0.352 N 
ATOM     26  C   UNL A   1      41.889  19.738  25.784  1.00  0.00     0.251 C 
ATOM     27  H   UNL A   1      42.784  18.292  24.724  1.00  0.00     0.163 HD
ATOM     28  O   UNL A   1      40.772  19.236  25.715  1.00  0.00    -0.269 OA
BRANCH  26  29
ATOM     29  C   UNL A   1      42.067  21.059  26.422  1.00  0.00     0.039 A 
ATOM     30  C   UNL A   1      42.048  21.149  27.816  1.00  0.00     0.014 A 
ATOM     31  C   UNL A   1      42.264  22.201  25.642  1.00  0.00     0.014 A 
ATOM     32  C   UNL A   1      42.288  22.380  28.429  1.00  0.00     0.010 A 
ATOM     33  C   UNL A   1      42.582  23.408  26.255  1.00  0.00     0.010 A 
ATOM     34  C   UNL A   1      42.595  23.511  27.653  1.00  0.00    -0.014 A 
BRANCH  34  35
ATOM     35  C   UNL A   1      42.940  24.809  28.286  1.00  0.00     0.031 A 
ATOM     36  C   UNL A   1      41.875  25.849  28.506  1.00  0.00     0.074 A 
ATOM     37  C   UNL A   1      44.222  25.078  28.599  1.00  0.00     0.049 A 
ATOM     38  N   UNL A   1      41.991  27.064  28.977  1.00  0.00    -0.248 NA
ATOM     39  C   UNL A   1      40.502  25.482  28.121  1.00  0.00     0.031 C 
ATOM     40  C   UNL A   1      45.352  24.171  28.390  1.00  0.00     0.029 A 
ATOM     41  N   UNL A   1      44.793  26.199  29.147  1.00  0.00    -0.354 N 
ATOM     42  C   UNL A   1      40.714  27.610  28.932  1.00  0.00     0.074 A 
ATOM     43  C   UNL A   1      39.851  26.616  28.334  1.00  0.00     0.031 C 
ATOM     44  C   UNL A   1      46.476  24.760  28.828  1.00  0.00     0.029 A 
ATOM     45  C   UNL A   1      46.154  26.101  29.308  1.00  0.00     0.049 A 
ATOM     46  H   UNL A   1      44.277  26.998  29.403  1.00  0.00     0.167 HD
ATOM     47  C   UNL A   1      40.296  28.821  29.372  1.00  0.00     0.037 A 
ATOM     48  C   UNL A   1      47.045  26.995  29.780  1.00  0.00     0.037 A 
ATOM     49  C   UNL A   1      41.157  29.800  29.981  1.00  0.00     0.049 A 
ATOM     50  C   UNL A   1      46.558  28.340  30.243  1.00  0.00     0.074 A 
ATOM     51  C   UNL A   1      40.821  31.033  30.509  1.00  0.00     0.029 A 
ATOM     52  N   UNL A   1      42.528  29.657  30.138  1.00  0.00    -0.354 N 
ATOM     53  N   UNL A   1      45.336  28.816  30.260  1.00  0.00    -0.248 NA
ATOM     54  C   UNL A   1      47.572  29.269  30.761  1.00  0.00     0.031 C 
ATOM     55  C   UNL A   1      41.995  31.661  30.936  1.00  0.00     0.029 A 
ATOM     56  C   UNL A   1      43.055  30.792  30.731  1.00  0.00     0.049 A 
ATOM     57  H   UNL A   1      43.050  28.867  29.867  1.00  0.00     0.167 HD
ATOM     58  C   UNL A   1      45.429  30.084  30.821  1.00  0.00     0.074 A 
ATOM     59  C   UNL A   1      46.826  30.298  31.138  1.00  0.00     0.031 C 
ATOM     60  C   UNL A   1      44.446  30.987  31.055  1.00  0.00     0.037 A 
BRANCH  47  61
ATOM     61  C   UNL A   1      38.840  29.152  29.206  1.00  0.00     0.057 A 
ATOM     62  C   UNL A   1      37.940  29.093  30.279  1.00  0.00     0.134 A 
ATOM     63  C   UNL A   1      38.338  29.572  27.968  1.00  0.00     0.134 A 
ATOM     64  F   UNL A   1      38.352  28.690  31.490  1.00  0.00    -0.206 F 
ATOM     65  C   UNL A   1      36.589  29.407  30.119  1.00  0.00     0.040 A 
ATOM     66  C   UNL A   1      36.996  29.918  27.803  1.00  0.00     0.040 A 
ATOM     67  F   UNL A   1      39.145  29.660  26.899  1.00  0.00    -0.206 F 
ATOM     68  C   UNL A   1      36.116  29.829  28.879  1.00  0.00     0.006 A 
ENDBRANCH  47  61
BRANCH  48  69
ATOM     69  C   UNL A   1      48.486  26.640  29.856  1.00  0.00     0.057 A 
ATOM     70  C   UNL A   1      49.005  25.969  30.970  1.00  0.00     0.134 A 
ATOM     71  C   UNL A   1      49.377  26.967  28.826  1.00  0.00     0.134 A 
ATOM     72  F   UNL A   1      48.206  25.644  31.996  1.00  0.00    -0.206 F 
ATOM     73  C   UNL A   1      50.363  25.656  31.068  1.00  0.00     0.040 A 
ATOM     74  C   UNL A   1      50.731  26.635  28.899  1.00  0.00     0.040 A 
ATOM     75  F   UNL A   1      48.940  27.600  27.728  1.00  0.00    -0.206 F 
ATOM     76  C   UNL A   1      51.228  25.986  30.026  1.00  0.00     0.006 A 
ENDBRANCH  48  69
BRANCH  60  77
ATOM     77  C   UNL A   1      44.832  32.270  31.732  1.00  0.00     0.057 A 
ATOM     78  C   UNL A   1      44.597  32.494  33.094  1.00  0.00     0.134 A 
ATOM     79  C   UNL A   1      45.498  33.274  31.016  1.00  0.00     0.134 A 
ATOM     80  F   UNL A   1      43.953  31.579  33.833  1.00  0.00    -0.206 F 
ATOM     81  C   UNL A   1      44.992  33.681  33.715  1.00  0.00     0.040 A 
ATOM     82  C   UNL A   1      45.924  34.451  31.633  1.00  0.00     0.040 A 
ATOM     83  F   UNL A   1      45.763  33.120  29.710  1.00  0.00    -0.206 F 
ATOM     84  C   UNL A   1      45.665  34.659  32.986  1.00  0.00     0.006 A 
ENDBRANCH  60  77
ENDBRANCH  34  35
ENDBRANCH  26  29
ENDBRANCH  24  25
ENDBRANCH  23  24
ENDBRANCH  22  23
ENDBRANCH   1  22
TORSDOF 16
ENDMDL
