MODEL 1
REMARK VINA RESULT:     -10.6      0.000      0.000
REMARK SMILES C=CCN(CC(=O)NCCCCCCNC(=O)c1ccc(-c2c3nc(c(-c4c(F)cccc4F)c4ccc([nH]4)c(-c4c(F)cccc4F)c4nc(c(-c5c(F)cccc5F)c5ccc2[nH]5)C=C4)C=C3)cc1)c1ccc([N+](=O)[O-])cc1Br
REMARK SMILES IDX 11 1 10 2 9 3 8 4 6 5 7 6 5 8 4 9 3 10 2 11 1 12 72 13 73 14
REMARK SMILES IDX 80 15 74 16 79 17 81 18 75 19 76 20 77 21 78 22 12 23 13 24
REMARK SMILES IDX 14 25 15 26 16 27 17 29 18 30 19 31 71 32 20 33 70 34 21 35
REMARK SMILES IDX 22 36 23 37 64 38 24 39 69 40 63 41 65 42 25 43 68 44 62 45
REMARK SMILES IDX 61 46 26 48 52 49 35 50 51 51 36 52 39 53 50 54 66 55 37 56
REMARK SMILES IDX 38 57 49 59 67 60 40 61 27 62 28 63 33 64 29 65 30 66 32 67
REMARK SMILES IDX 34 68 31 69 53 70 54 71 59 72 55 73 56 74 58 75 60 76 57 77
REMARK SMILES IDX 41 78 42 79 47 80 43 81 44 82 46 83 48 84 45 85
REMARK H PARENT 8 7 15 28 65 47 39 58
REMARK Flexibility Score: inf
ROOT
ATOM      1  C   UNL A   1      32.153  29.820  26.484  1.00  0.00     0.002 C 
ENDROOT
BRANCH   1   2
ATOM      2  C   UNL A   1      31.515  28.424  26.459  1.00  0.00     0.021 C 
BRANCH   2   3
ATOM      3  C   UNL A   1      32.512  27.279  26.651  1.00  0.00     0.116 C 
BRANCH   3   4
ATOM      4  N   UNL A   1      31.868  26.077  27.128  1.00  0.00    -0.355 N 
ATOM      5  C   UNL A   1      31.759  24.836  26.569  1.00  0.00     0.239 C 
ATOM      6  O   UNL A   1      31.141  23.993  27.230  1.00  0.00    -0.273 OA
ATOM      7  H   UNL A   1      31.435  26.168  28.008  1.00  0.00     0.163 HD
BRANCH   5   8
ATOM      8  C   UNL A   1      32.391  24.464  25.213  1.00  0.00     0.216 C 
BRANCH   8   9
ATOM      9  N   UNL A   1      31.526  24.547  24.009  1.00  0.00    -0.358 N 
BRANCH   9  10
ATOM     10  C   UNL A   1      31.549  23.423  23.070  1.00  0.00     0.144 C 
BRANCH  10  11
ATOM     11  C   UNL A   1      32.564  22.381  23.395  1.00  0.00    -0.014 C 
ATOM     12  C   UNL A   1      32.324  21.062  23.363  1.00  0.00     0.006 C 
ENDBRANCH  10  11
ENDBRANCH   9  10
BRANCH   9  13
ATOM     13  C   UNL A   1      30.994  25.778  23.618  1.00  0.00     0.052 A 
ATOM     14  C   UNL A   1      29.640  26.071  23.882  1.00  0.00     0.034 A 
ATOM     15  C   UNL A   1      31.723  26.791  22.950  1.00  0.00     0.048 A 
ATOM     16  C   UNL A   1      29.036  27.282  23.520  1.00  0.00     0.088 A 
ATOM     17  C   UNL A   1      31.153  28.041  22.647  1.00  0.00     0.103 A 
ATOM     18  Br  UNL A   1      33.458  26.532  22.206  1.00  0.00    -0.048 Br
ATOM     19  C   UNL A   1      29.807  28.272  22.921  1.00  0.00     0.270 A 
BRANCH  19  20
ATOM     20  N   UNL A   1      29.194  29.549  22.546  1.00  0.00     0.062 N 
ATOM     21  O   UNL A   1      29.199  29.859  21.346  1.00  0.00    -0.258 OA
ATOM     22  O   UNL A   1      28.705  30.239  23.452  1.00  0.00    -0.258 OA
ENDBRANCH  19  20
ENDBRANCH   9  13
ENDBRANCH   8   9
ENDBRANCH   5   8
ENDBRANCH   3   4
ENDBRANCH   2   3
ENDBRANCH   1   2
BRANCH   1  23
ATOM     23  C   UNL A   1      31.378  30.907  25.729  1.00  0.00     0.002 C 
BRANCH  23  24
ATOM     24  C   UNL A   1      31.182  32.218  26.494  1.00  0.00     0.021 C 
BRANCH  24  25
ATOM     25  C   UNL A   1      32.436  32.742  27.186  1.00  0.00     0.116 C 
BRANCH  25  26
ATOM     26  N   UNL A   1      32.303  34.136  27.575  1.00  0.00    -0.352 N 
ATOM     27  C   UNL A   1      32.993  34.850  28.525  1.00  0.00     0.251 C 
ATOM     28  H   UNL A   1      31.619  34.645  27.084  1.00  0.00     0.163 HD
ATOM     29  O   UNL A   1      32.605  35.963  28.859  1.00  0.00    -0.269 OA
BRANCH  27  30
ATOM     30  C   UNL A   1      34.194  34.267  29.159  1.00  0.00     0.039 A 
ATOM     31  C   UNL A   1      34.046  33.537  30.341  1.00  0.00     0.014 A 
ATOM     32  C   UNL A   1      35.463  34.452  28.602  1.00  0.00     0.014 A 
ATOM     33  C   UNL A   1      35.162  32.939  30.930  1.00  0.00     0.010 A 
ATOM     34  C   UNL A   1      36.561  33.794  29.148  1.00  0.00     0.010 A 
ATOM     35  C   UNL A   1      36.423  33.034  30.318  1.00  0.00    -0.014 A 
BRANCH  35  36
ATOM     36  C   UNL A   1      37.607  32.337  30.885  1.00  0.00     0.031 A 
ATOM     37  C   UNL A   1      38.277  32.863  32.123  1.00  0.00     0.074 A 
ATOM     38  C   UNL A   1      38.118  31.268  30.244  1.00  0.00     0.049 A 
ATOM     39  N   UNL A   1      39.353  32.429  32.729  1.00  0.00    -0.248 NA
ATOM     40  C   UNL A   1      37.675  34.051  32.747  1.00  0.00     0.031 C 
ATOM     41  C   UNL A   1      37.588  30.690  29.008  1.00  0.00     0.029 A 
ATOM     42  N   UNL A   1      39.204  30.483  30.539  1.00  0.00    -0.354 N 
ATOM     43  C   UNL A   1      39.564  33.296  33.793  1.00  0.00     0.074 A 
ATOM     44  C   UNL A   1      38.539  34.313  33.718  1.00  0.00     0.031 C 
ATOM     45  C   UNL A   1      38.336  29.630  28.664  1.00  0.00     0.029 A 
ATOM     46  C   UNL A   1      39.419  29.477  29.629  1.00  0.00     0.049 A 
ATOM     47  H   UNL A   1      39.775  30.628  31.328  1.00  0.00     0.167 HD
ATOM     48  C   UNL A   1      40.512  33.237  34.760  1.00  0.00     0.037 A 
ATOM     49  C   UNL A   1      40.385  28.541  29.574  1.00  0.00     0.037 A 
ATOM     50  C   UNL A   1      41.521  32.213  34.841  1.00  0.00     0.049 A 
ATOM     51  C   UNL A   1      41.433  28.501  30.651  1.00  0.00     0.074 A 
ATOM     52  C   UNL A   1      42.488  32.030  35.814  1.00  0.00     0.029 A 
ATOM     53  N   UNL A   1      41.699  31.203  33.906  1.00  0.00    -0.354 N 
ATOM     54  N   UNL A   1      41.577  29.283  31.692  1.00  0.00    -0.248 NA
ATOM     55  C   UNL A   1      42.449  27.444  30.548  1.00  0.00     0.031 C 
ATOM     56  C   UNL A   1      43.283  30.941  35.442  1.00  0.00     0.029 A 
ATOM     57  C   UNL A   1      42.777  30.410  34.267  1.00  0.00     0.049 A 
ATOM     58  H   UNL A   1      41.142  31.069  33.106  1.00  0.00     0.167 HD
ATOM     59  C   UNL A   1      42.680  28.799  32.384  1.00  0.00     0.074 A 
ATOM     60  C   UNL A   1      43.159  27.646  31.649  1.00  0.00     0.031 C 
ATOM     61  C   UNL A   1      43.243  29.264  33.526  1.00  0.00     0.037 A 
BRANCH  48  62
ATOM     62  C   UNL A   1      40.502  34.317  35.805  1.00  0.00     0.057 A 
ATOM     63  C   UNL A   1      39.749  34.202  36.982  1.00  0.00     0.134 A 
ATOM     64  C   UNL A   1      41.269  35.476  35.642  1.00  0.00     0.134 A 
ATOM     65  F   UNL A   1      38.983  33.122  37.197  1.00  0.00    -0.206 F 
ATOM     66  C   UNL A   1      39.733  35.216  37.942  1.00  0.00     0.040 A 
ATOM     67  C   UNL A   1      41.286  36.484  36.609  1.00  0.00     0.040 A 
ATOM     68  F   UNL A   1      42.019  35.650  34.543  1.00  0.00    -0.206 F 
ATOM     69  C   UNL A   1      40.509  36.359  37.759  1.00  0.00     0.006 A 
ENDBRANCH  48  62
BRANCH  49  70
ATOM     70  C   UNL A   1      40.390  27.549  28.469  1.00  0.00     0.057 A 
ATOM     71  C   UNL A   1      39.654  26.361  28.563  1.00  0.00     0.134 A 
ATOM     72  C   UNL A   1      41.117  27.766  27.293  1.00  0.00     0.134 A 
ATOM     73  F   UNL A   1      38.950  26.089  29.671  1.00  0.00    -0.206 F 
ATOM     74  C   UNL A   1      39.655  25.418  27.533  1.00  0.00     0.040 A 
ATOM     75  C   UNL A   1      41.106  26.844  26.246  1.00  0.00     0.040 A 
ATOM     76  F   UNL A   1      41.833  28.889  27.137  1.00  0.00    -0.206 F 
ATOM     77  C   UNL A   1      40.378  25.662  26.367  1.00  0.00     0.006 A 
ENDBRANCH  49  70
BRANCH  61  78
ATOM     78  C   UNL A   1      44.420  28.508  34.070  1.00  0.00     0.057 A 
ATOM     79  C   UNL A   1      44.266  27.417  34.935  1.00  0.00     0.134 A 
ATOM     80  C   UNL A   1      45.724  28.852  33.690  1.00  0.00     0.134 A 
ATOM     81  F   UNL A   1      43.046  27.043  35.348  1.00  0.00    -0.206 F 
ATOM     82  C   UNL A   1      45.368  26.710  35.420  1.00  0.00     0.040 A 
ATOM     83  C   UNL A   1      46.832  28.135  34.147  1.00  0.00     0.040 A 
ATOM     84  F   UNL A   1      45.942  29.881  32.858  1.00  0.00    -0.206 F 
ATOM     85  C   UNL A   1      46.655  27.064  35.020  1.00  0.00     0.006 A 
ENDBRANCH  61  78
ENDBRANCH  35  36
ENDBRANCH  27  30
ENDBRANCH  25  26
ENDBRANCH  24  25
ENDBRANCH  23  24
ENDBRANCH   1  23
TORSDOF 18
ENDMDL
MODEL 2
REMARK VINA RESULT:     -10.4      4.065      8.678
REMARK SMILES C=CCN(CC(=O)NCCCCCCNC(=O)c1ccc(-c2c3nc(c(-c4c(F)cccc4F)c4ccc([nH]4)c(-c4c(F)cccc4F)c4nc(c(-c5c(F)cccc5F)c5ccc2[nH]5)C=C4)C=C3)cc1)c1ccc([N+](=O)[O-])cc1Br
REMARK SMILES IDX 11 1 10 2 9 3 8 4 6 5 7 6 5 8 4 9 3 10 2 11 1 12 72 13 73 14
REMARK SMILES IDX 80 15 74 16 79 17 81 18 75 19 76 20 77 21 78 22 12 23 13 24
REMARK SMILES IDX 14 25 15 26 16 27 17 29 18 30 19 31 71 32 20 33 70 34 21 35
REMARK SMILES IDX 22 36 23 37 64 38 24 39 69 40 63 41 65 42 25 43 68 44 62 45
REMARK SMILES IDX 61 46 26 48 52 49 35 50 51 51 36 52 39 53 50 54 66 55 37 56
REMARK SMILES IDX 38 57 49 59 67 60 40 61 27 62 28 63 33 64 29 65 30 66 32 67
REMARK SMILES IDX 34 68 31 69 53 70 54 71 59 72 55 73 56 74 58 75 60 76 57 77
REMARK SMILES IDX 41 78 42 79 47 80 43 81 44 82 46 83 48 84 45 85
REMARK H PARENT 8 7 15 28 65 47 39 58
REMARK Flexibility Score: inf
ROOT
ATOM      1  C   UNL A   1      35.781  21.158  24.873  1.00  0.00     0.002 C 
ENDROOT
BRANCH   1   2
ATOM      2  C   UNL A   1      34.859  21.599  26.018  1.00  0.00     0.021 C 
BRANCH   2   3
ATOM      3  C   UNL A   1      34.175  22.949  25.784  1.00  0.00     0.116 C 
BRANCH   3   4
ATOM      4  N   UNL A   1      32.951  22.810  25.030  1.00  0.00    -0.355 N 
ATOM      5  C   UNL A   1      32.278  23.699  24.242  1.00  0.00     0.239 C 
ATOM      6  O   UNL A   1      31.241  23.281  23.714  1.00  0.00    -0.273 OA
ATOM      7  H   UNL A   1      32.530  21.922  25.096  1.00  0.00     0.163 HD
BRANCH   5   8
ATOM      8  C   UNL A   1      32.777  25.132  23.973  1.00  0.00     0.216 C 
BRANCH   8   9
ATOM      9  N   UNL A   1      32.146  26.232  24.744  1.00  0.00    -0.358 N 
BRANCH   9  10
ATOM     10  C   UNL A   1      32.290  26.218  26.202  1.00  0.00     0.144 C 
BRANCH  10  11
ATOM     11  C   UNL A   1      32.507  27.566  26.803  1.00  0.00    -0.014 C 
ATOM     12  C   UNL A   1      31.621  28.186  27.595  1.00  0.00     0.006 C 
ENDBRANCH  10  11
ENDBRANCH   9  10
BRANCH   9  13
ATOM     13  C   UNL A   1      31.175  27.036  24.142  1.00  0.00     0.052 A 
ATOM     14  C   UNL A   1      29.825  26.627  24.152  1.00  0.00     0.034 A 
ATOM     15  C   UNL A   1      31.440  28.266  23.494  1.00  0.00     0.048 A 
ATOM     16  C   UNL A   1      28.796  27.378  23.568  1.00  0.00     0.088 A 
ATOM     17  C   UNL A   1      30.410  29.068  22.969  1.00  0.00     0.103 A 
ATOM     18  Br  UNL A   1      33.192  28.884  23.070  1.00  0.00    -0.048 Br
ATOM     19  C   UNL A   1      29.094  28.610  22.996  1.00  0.00     0.270 A 
BRANCH  19  20
ATOM     20  N   UNL A   1      28.029  29.413  22.391  1.00  0.00     0.062 N 
ATOM     21  O   UNL A   1      27.007  29.613  23.063  1.00  0.00    -0.258 OA
ATOM     22  O   UNL A   1      28.216  29.845  21.245  1.00  0.00    -0.258 OA
ENDBRANCH  19  20
ENDBRANCH   9  13
ENDBRANCH   8   9
ENDBRANCH   5   8
ENDBRANCH   3   4
ENDBRANCH   2   3
ENDBRANCH   1   2
BRANCH   1  23
ATOM     23  C   UNL A   1      36.311  19.723  24.977  1.00  0.00     0.002 C 
BRANCH  23  24
ATOM     24  C   UNL A   1      37.795  19.550  24.643  1.00  0.00     0.021 C 
BRANCH  24  25
ATOM     25  C   UNL A   1      38.749  20.020  25.737  1.00  0.00     0.116 C 
BRANCH  25  26
ATOM     26  N   UNL A   1      39.947  19.198  25.806  1.00  0.00    -0.352 N 
ATOM     27  C   UNL A   1      41.241  19.559  26.092  1.00  0.00     0.251 C 
ATOM     28  H   UNL A   1      39.810  18.241  25.621  1.00  0.00     0.163 HD
ATOM     29  O   UNL A   1      42.156  18.767  25.903  1.00  0.00    -0.269 OA
BRANCH  27  30
ATOM     30  C   UNL A   1      41.533  20.912  26.612  1.00  0.00     0.039 A 
ATOM     31  C   UNL A   1      41.436  21.143  27.987  1.00  0.00     0.014 A 
ATOM     32  C   UNL A   1      41.884  21.953  25.748  1.00  0.00     0.014 A 
ATOM     33  C   UNL A   1      41.753  22.402  28.501  1.00  0.00     0.010 A 
ATOM     34  C   UNL A   1      42.272  23.184  26.269  1.00  0.00     0.010 A 
ATOM     35  C   UNL A   1      42.207  23.422  27.650  1.00  0.00    -0.014 A 
BRANCH  35  36
ATOM     36  C   UNL A   1      42.627  24.742  28.187  1.00  0.00     0.031 A 
ATOM     37  C   UNL A   1      41.612  25.825  28.421  1.00  0.00     0.074 A 
ATOM     38  C   UNL A   1      43.935  24.986  28.403  1.00  0.00     0.049 A 
ATOM     39  N   UNL A   1      41.794  27.057  28.825  1.00  0.00    -0.248 NA
ATOM     40  C   UNL A   1      40.209  25.489  28.134  1.00  0.00     0.031 C 
ATOM     41  C   UNL A   1      45.022  24.034  28.169  1.00  0.00     0.029 A 
ATOM     42  N   UNL A   1      44.572  26.114  28.856  1.00  0.00    -0.354 N 
ATOM     43  C   UNL A   1      40.535  27.644  28.828  1.00  0.00     0.074 A 
ATOM     44  C   UNL A   1      39.606  26.653  28.332  1.00  0.00     0.031 C 
ATOM     45  C   UNL A   1      46.187  24.610  28.503  1.00  0.00     0.029 A 
ATOM     46  C   UNL A   1      45.936  25.981  28.934  1.00  0.00     0.049 A 
ATOM     47  H   UNL A   1      44.095  26.939  29.102  1.00  0.00     0.167 HD
ATOM     48  C   UNL A   1      40.182  28.889  29.230  1.00  0.00     0.037 A 
ATOM     49  C   UNL A   1      46.880  26.866  29.305  1.00  0.00     0.037 A 
ATOM     50  C   UNL A   1      41.108  29.867  29.739  1.00  0.00     0.049 A 
ATOM     51  C   UNL A   1      46.466  28.245  29.737  1.00  0.00     0.074 A 
ATOM     52  C   UNL A   1      40.841  31.134  30.229  1.00  0.00     0.029 A 
ATOM     53  N   UNL A   1      42.482  29.691  29.815  1.00  0.00    -0.354 N 
ATOM     54  N   UNL A   1      45.264  28.764  29.804  1.00  0.00    -0.248 NA
ATOM     55  C   UNL A   1      47.539  29.160  30.149  1.00  0.00     0.031 C 
ATOM     56  C   UNL A   1      42.058  31.743  30.553  1.00  0.00     0.029 A 
ATOM     57  C   UNL A   1      43.079  30.836  30.319  1.00  0.00     0.049 A 
ATOM     58  H   UNL A   1      42.962  28.873  29.551  1.00  0.00     0.167 HD
ATOM     59  C   UNL A   1      45.432  30.053  30.292  1.00  0.00     0.074 A 
ATOM     60  C   UNL A   1      46.852  30.233  30.516  1.00  0.00     0.031 C 
ATOM     61  C   UNL A   1      44.494  31.002  30.537  1.00  0.00     0.037 A 
BRANCH  48  62
ATOM     62  C   UNL A   1      38.729  29.261  29.129  1.00  0.00     0.057 A 
ATOM     63  C   UNL A   1      37.877  29.230  30.242  1.00  0.00     0.134 A 
ATOM     64  C   UNL A   1      38.181  29.676  27.910  1.00  0.00     0.134 A 
ATOM     65  F   UNL A   1      38.335  28.831  31.439  1.00  0.00    -0.206 F 
ATOM     66  C   UNL A   1      36.525  29.563  30.138  1.00  0.00     0.040 A 
ATOM     67  C   UNL A   1      36.838  30.042  27.799  1.00  0.00     0.040 A 
ATOM     68  F   UNL A   1      38.940  29.737  26.806  1.00  0.00    -0.206 F 
ATOM     69  C   UNL A   1      36.004  29.977  28.913  1.00  0.00     0.006 A 
ENDBRANCH  48  62
BRANCH  49  70
ATOM     70  C   UNL A   1      48.310  26.464  29.306  1.00  0.00     0.057 A 
ATOM     71  C   UNL A   1      49.128  26.708  28.196  1.00  0.00     0.134 A 
ATOM     72  C   UNL A   1      48.894  25.839  30.413  1.00  0.00     0.134 A 
ATOM     73  F   UNL A   1      48.622  27.289  27.099  1.00  0.00    -0.206 F 
ATOM     74  C   UNL A   1      50.472  26.330  28.182  1.00  0.00     0.040 A 
ATOM     75  C   UNL A   1      50.242  25.480  30.422  1.00  0.00     0.040 A 
ATOM     76  F   UNL A   1      48.166  25.587  31.511  1.00  0.00    -0.206 F 
ATOM     77  C   UNL A   1      51.034  25.720  29.302  1.00  0.00     0.006 A 
ENDBRANCH  49  70
BRANCH  61  78
ATOM     78  C   UNL A   1      44.968  32.308  31.105  1.00  0.00     0.057 A 
ATOM     79  C   UNL A   1      45.318  33.390  30.287  1.00  0.00     0.134 A 
ATOM     80  C   UNL A   1      45.036  32.497  32.491  1.00  0.00     0.134 A 
ATOM     81  F   UNL A   1      45.287  33.271  28.951  1.00  0.00    -0.206 F 
ATOM     82  C   UNL A   1      45.741  34.605  30.827  1.00  0.00     0.040 A 
ATOM     83  C   UNL A   1      45.430  33.717  33.044  1.00  0.00     0.040 A 
ATOM     84  F   UNL A   1      44.707  31.506  33.332  1.00  0.00    -0.206 F 
ATOM     85  C   UNL A   1      45.790  34.774  32.210  1.00  0.00     0.006 A 
ENDBRANCH  61  78
ENDBRANCH  35  36
ENDBRANCH  27  30
ENDBRANCH  25  26
ENDBRANCH  24  25
ENDBRANCH  23  24
ENDBRANCH   1  23
TORSDOF 18
ENDMDL
MODEL 3
REMARK VINA RESULT:     -10.4      3.996      8.556
REMARK SMILES C=CCN(CC(=O)NCCCCCCNC(=O)c1ccc(-c2c3nc(c(-c4c(F)cccc4F)c4ccc([nH]4)c(-c4c(F)cccc4F)c4nc(c(-c5c(F)cccc5F)c5ccc2[nH]5)C=C4)C=C3)cc1)c1ccc([N+](=O)[O-])cc1Br
REMARK SMILES IDX 11 1 10 2 9 3 8 4 6 5 7 6 5 8 4 9 3 10 2 11 1 12 72 13 73 14
REMARK SMILES IDX 80 15 74 16 79 17 81 18 75 19 76 20 77 21 78 22 12 23 13 24
REMARK SMILES IDX 14 25 15 26 16 27 17 29 18 30 19 31 71 32 20 33 70 34 21 35
REMARK SMILES IDX 22 36 23 37 64 38 24 39 69 40 63 41 65 42 25 43 68 44 62 45
REMARK SMILES IDX 61 46 26 48 52 49 35 50 51 51 36 52 39 53 50 54 66 55 37 56
REMARK SMILES IDX 38 57 49 59 67 60 40 61 27 62 28 63 33 64 29 65 30 66 32 67
REMARK SMILES IDX 34 68 31 69 53 70 54 71 59 72 55 73 56 74 58 75 60 76 57 77
REMARK SMILES IDX 41 78 42 79 47 80 43 81 44 82 46 83 48 84 45 85
REMARK H PARENT 8 7 15 28 65 47 39 58
REMARK Flexibility Score: inf
ROOT
ATOM      1  C   UNL A   1      35.851  21.880  25.873  1.00  0.00     0.002 C 
ENDROOT
BRANCH   1   2
ATOM      2  C   UNL A   1      34.421  21.539  26.313  1.00  0.00     0.021 C 
BRANCH   2   3
ATOM      3  C   UNL A   1      33.901  22.399  27.468  1.00  0.00     0.116 C 
BRANCH   3   4
ATOM      4  N   UNL A   1      32.459  22.476  27.478  1.00  0.00    -0.355 N 
ATOM      5  C   UNL A   1      31.612  23.476  27.095  1.00  0.00     0.239 C 
ATOM      6  O   UNL A   1      30.403  23.243  27.220  1.00  0.00    -0.273 OA
ATOM      7  H   UNL A   1      32.010  21.668  27.818  1.00  0.00     0.163 HD
BRANCH   5   8
ATOM      8  C   UNL A   1      32.099  24.813  26.503  1.00  0.00     0.216 C 
BRANCH   8   9
ATOM      9  N   UNL A   1      32.022  24.978  25.030  1.00  0.00    -0.358 N 
BRANCH   9  10
ATOM     10  C   UNL A   1      32.905  24.155  24.201  1.00  0.00     0.144 C 
BRANCH  10  11
ATOM     11  C   UNL A   1      32.186  23.273  23.238  1.00  0.00    -0.014 C 
ATOM     12  C   UNL A   1      32.238  21.934  23.262  1.00  0.00     0.006 C 
ENDBRANCH  10  11
ENDBRANCH   9  10
BRANCH   9  13
ATOM     13  C   UNL A   1      31.398  26.104  24.488  1.00  0.00     0.052 A 
ATOM     14  C   UNL A   1      30.073  26.009  24.012  1.00  0.00     0.034 A 
ATOM     15  C   UNL A   1      32.006  27.377  24.365  1.00  0.00     0.048 A 
ATOM     16  C   UNL A   1      29.383  27.093  23.455  1.00  0.00     0.088 A 
ATOM     17  C   UNL A   1      31.301  28.494  23.878  1.00  0.00     0.103 A 
ATOM     18  Br  UNL A   1      33.865  27.694  24.638  1.00  0.00    -0.048 Br
ATOM     19  C   UNL A   1      29.998  28.340  23.412  1.00  0.00     0.270 A 
BRANCH  19  20
ATOM     20  N   UNL A   1      29.286  29.487  22.842  1.00  0.00     0.062 N 
ATOM     21  O   UNL A   1      29.054  29.474  21.625  1.00  0.00    -0.258 OA
ATOM     22  O   UNL A   1      28.957  30.399  23.615  1.00  0.00    -0.258 OA
ENDBRANCH  19  20
ENDBRANCH   9  13
ENDBRANCH   8   9
ENDBRANCH   5   8
ENDBRANCH   3   4
ENDBRANCH   2   3
ENDBRANCH   1   2
BRANCH   1  23
ATOM     23  C   UNL A   1      36.354  21.120  24.641  1.00  0.00     0.002 C 
BRANCH  23  24
ATOM     24  C   UNL A   1      37.404  20.042  24.923  1.00  0.00     0.021 C 
BRANCH  24  25
ATOM     25  C   UNL A   1      38.641  20.541  25.664  1.00  0.00     0.116 C 
BRANCH  25  26
ATOM     26  N   UNL A   1      39.681  19.527  25.735  1.00  0.00    -0.352 N 
ATOM     27  C   UNL A   1      41.010  19.658  26.054  1.00  0.00     0.251 C 
ATOM     28  H   UNL A   1      39.388  18.612  25.524  1.00  0.00     0.163 HD
ATOM     29  O   UNL A   1      41.783  18.726  25.862  1.00  0.00    -0.269 OA
BRANCH  27  30
ATOM     30  C   UNL A   1      41.514  20.930  26.612  1.00  0.00     0.039 A 
ATOM     31  C   UNL A   1      42.003  21.905  25.739  1.00  0.00     0.014 A 
ATOM     32  C   UNL A   1      41.521  21.158  27.992  1.00  0.00     0.014 A 
ATOM     33  C   UNL A   1      42.440  23.132  26.244  1.00  0.00     0.010 A 
ATOM     34  C   UNL A   1      41.886  22.406  28.486  1.00  0.00     0.010 A 
ATOM     35  C   UNL A   1      42.352  23.405  27.619  1.00  0.00    -0.014 A 
BRANCH  35  36
ATOM     36  C   UNL A   1      42.735  24.732  28.165  1.00  0.00     0.031 A 
ATOM     37  C   UNL A   1      41.695  25.797  28.375  1.00  0.00     0.074 A 
ATOM     38  C   UNL A   1      44.033  25.000  28.410  1.00  0.00     0.049 A 
ATOM     39  N   UNL A   1      41.846  27.031  28.782  1.00  0.00    -0.248 NA
ATOM     40  C   UNL A   1      40.305  25.435  28.057  1.00  0.00     0.031 C 
ATOM     41  C   UNL A   1      45.142  24.068  28.201  1.00  0.00     0.029 A 
ATOM     42  N   UNL A   1      44.639  26.139  28.877  1.00  0.00    -0.354 N 
ATOM     43  C   UNL A   1      40.577  27.595  28.757  1.00  0.00     0.074 A 
ATOM     44  C   UNL A   1      39.678  26.587  28.241  1.00  0.00     0.031 C 
ATOM     45  C   UNL A   1      46.290  24.665  28.561  1.00  0.00     0.029 A 
ATOM     46  C   UNL A   1      46.004  26.031  28.986  1.00  0.00     0.049 A 
ATOM     47  H   UNL A   1      44.142  26.956  29.111  1.00  0.00     0.167 HD
ATOM     48  C   UNL A   1      40.192  28.834  29.150  1.00  0.00     0.037 A 
ATOM     49  C   UNL A   1      46.923  26.933  29.377  1.00  0.00     0.037 A 
ATOM     50  C   UNL A   1      41.088  29.829  29.679  1.00  0.00     0.049 A 
ATOM     51  C   UNL A   1      46.474  28.305  29.798  1.00  0.00     0.074 A 
ATOM     52  C   UNL A   1      40.787  31.090  30.162  1.00  0.00     0.029 A 
ATOM     53  N   UNL A   1      42.463  29.677  29.786  1.00  0.00    -0.354 N 
ATOM     54  N   UNL A   1      45.262  28.801  29.838  1.00  0.00    -0.248 NA
ATOM     55  C   UNL A   1      47.521  29.239  30.234  1.00  0.00     0.031 C 
ATOM     56  C   UNL A   1      41.986  31.722  30.512  1.00  0.00     0.029 A 
ATOM     57  C   UNL A   1      43.028  30.833  30.302  1.00  0.00     0.049 A 
ATOM     58  H   UNL A   1      42.964  28.869  29.533  1.00  0.00     0.167 HD
ATOM     59  C   UNL A   1      45.395  30.094  30.329  1.00  0.00     0.074 A 
ATOM     60  C   UNL A   1      46.805  30.299  30.585  1.00  0.00     0.031 C 
ATOM     61  C   UNL A   1      44.435  31.025  30.552  1.00  0.00     0.037 A 
BRANCH  48  62
ATOM     62  C   UNL A   1      38.736  29.180  29.016  1.00  0.00     0.057 A 
ATOM     63  C   UNL A   1      38.183  29.604  27.799  1.00  0.00     0.134 A 
ATOM     64  C   UNL A   1      37.871  29.068  30.111  1.00  0.00     0.134 A 
ATOM     65  F   UNL A   1      38.958  29.743  26.712  1.00  0.00    -0.206 F 
ATOM     66  C   UNL A   1      36.833  29.938  27.686  1.00  0.00     0.040 A 
ATOM     67  C   UNL A   1      36.512  29.370  30.003  1.00  0.00     0.040 A 
ATOM     68  F   UNL A   1      38.330  28.662  31.304  1.00  0.00    -0.206 F 
ATOM     69  C   UNL A   1      35.991  29.815  28.790  1.00  0.00     0.006 A 
ENDBRANCH  48  62
BRANCH  49  70
ATOM     70  C   UNL A   1      48.359  26.558  29.410  1.00  0.00     0.057 A 
ATOM     71  C   UNL A   1      48.911  25.917  30.526  1.00  0.00     0.134 A 
ATOM     72  C   UNL A   1      49.209  26.818  28.330  1.00  0.00     0.134 A 
ATOM     73  F   UNL A   1      48.151  25.656  31.599  1.00  0.00    -0.206 F 
ATOM     74  C   UNL A   1      50.261  25.565  30.572  1.00  0.00     0.040 A 
ATOM     75  C   UNL A   1      50.554  26.447  28.352  1.00  0.00     0.040 A 
ATOM     76  F   UNL A   1      48.739  27.419  27.227  1.00  0.00    -0.206 F 
ATOM     77  C   UNL A   1      51.085  25.824  29.479  1.00  0.00     0.006 A 
ENDBRANCH  49  70
BRANCH  61  78
ATOM     78  C   UNL A   1      44.872  32.339  31.130  1.00  0.00     0.057 A 
ATOM     79  C   UNL A   1      45.194  33.436  30.320  1.00  0.00     0.134 A 
ATOM     80  C   UNL A   1      44.932  32.521  32.518  1.00  0.00     0.134 A 
ATOM     81  F   UNL A   1      45.169  33.325  28.983  1.00  0.00    -0.206 F 
ATOM     82  C   UNL A   1      45.582  34.659  30.869  1.00  0.00     0.040 A 
ATOM     83  C   UNL A   1      45.292  33.748  33.079  1.00  0.00     0.040 A 
ATOM     84  F   UNL A   1      44.628  31.516  33.351  1.00  0.00    -0.206 F 
ATOM     85  C   UNL A   1      45.624  34.819  32.253  1.00  0.00     0.006 A 
ENDBRANCH  61  78
ENDBRANCH  35  36
ENDBRANCH  27  30
ENDBRANCH  25  26
ENDBRANCH  24  25
ENDBRANCH  23  24
ENDBRANCH   1  23
TORSDOF 18
ENDMDL
