MODEL 1
REMARK VINA RESULT:     -11.2      0.000      0.000
REMARK SMILES Cc1onc2c(=O)n(C)nc(C(=O)NCCCCCCNC(=O)c3ccc(-c4c5nc(c(-c6c(F)cccc6F)c6ccc([nH]6)c(-c6c(F)cccc6F)c6nc(c(-c7c(F)cccc7F)c7ccc4[nH]7)C=C6)C=C5)cc3)c12
REMARK SMILES IDX 18 1 17 2 16 3 15 4 14 5 12 6 13 7 11 9 1 10 2 11 3 12 78 13
REMARK SMILES IDX 4 14 5 15 6 16 10 17 7 18 8 19 9 20 19 21 20 22 21 23 22 24
REMARK SMILES IDX 23 26 24 27 25 28 77 29 26 30 76 31 27 32 28 33 29 34 70 35
REMARK SMILES IDX 30 36 75 37 69 38 71 39 31 40 74 41 68 42 67 43 32 45 58 46
REMARK SMILES IDX 41 47 57 48 42 49 45 50 56 51 72 52 43 53 44 54 55 56 73 57
REMARK SMILES IDX 46 58 33 59 34 60 39 61 35 62 36 63 38 64 40 65 37 66 59 67
REMARK SMILES IDX 60 68 65 69 61 70 62 71 64 72 66 73 63 74 47 75 48 76 53 77
REMARK SMILES IDX 49 78 50 79 52 80 54 81 51 82
REMARK H PARENT 14 8 21 25 71 44 45 55
REMARK Flexibility Score: inf
ROOT
ATOM      1  C   UNL A   1      42.634  25.419  27.970  1.00  0.00     0.002 C 
ENDROOT
BRANCH   1   2
ATOM      2  C   UNL A   1      44.132  25.128  28.114  1.00  0.00     0.002 C 
BRANCH   2   3
ATOM      3  C   UNL A   1      44.499  23.648  28.248  1.00  0.00     0.021 C 
BRANCH   3   4
ATOM      4  C   UNL A   1      45.704  23.206  27.418  1.00  0.00     0.116 C 
BRANCH   4   5
ATOM      5  N   UNL A   1      45.524  23.474  26.000  1.00  0.00    -0.351 N 
ATOM      6  C   UNL A   1      44.705  22.905  25.048  1.00  0.00     0.272 C 
ATOM      7  O   UNL A   1      44.703  23.393  23.923  1.00  0.00    -0.267 OA
ATOM      8  H   UNL A   1      46.094  24.199  25.655  1.00  0.00     0.163 HD
BRANCH   6   9
ATOM      9  C   UNL A   1      43.792  21.706  25.347  1.00  0.00     0.161 A 
ATOM     10  C   UNL A   1      46.775  20.058  24.625  1.00  0.00     0.091 C 
ATOM     11  C   UNL A   1      45.388  19.675  24.954  1.00  0.00     0.144 A 
ATOM     12  O   UNL A   1      45.163  18.327  24.994  1.00  0.00    -0.360 OA
ATOM     13  C   UNL A   1      44.212  20.326  25.248  1.00  0.00     0.083 A 
ATOM     14  N   UNL A   1      43.845  18.078  25.332  1.00  0.00    -0.074 NA
ATOM     15  C   UNL A   1      43.292  19.284  25.489  1.00  0.00     0.183 A 
ATOM     16  C   UNL A   1      41.923  19.545  25.875  1.00  0.00     0.296 A 
ATOM     17  N   UNL A   1      42.552  21.939  25.687  1.00  0.00    -0.164 NA
ATOM     18  O   UNL A   1      41.087  18.667  26.104  1.00  0.00    -0.265 OA
ATOM     19  N   UNL A   1      41.649  20.919  25.976  1.00  0.00    -0.230 N 
ATOM     20  C   UNL A   1      40.331  21.338  26.409  1.00  0.00     0.178 C 
ENDBRANCH   6   9
ENDBRANCH   4   5
ENDBRANCH   3   4
ENDBRANCH   2   3
ENDBRANCH   1   2
BRANCH   1  21
ATOM     21  C   UNL A   1      41.904  24.631  26.867  1.00  0.00     0.021 C 
BRANCH  21  22
ATOM     22  C   UNL A   1      41.134  25.489  25.850  1.00  0.00     0.116 C 
BRANCH  22  23
ATOM     23  N   UNL A   1      41.984  26.553  25.348  1.00  0.00    -0.352 N 
ATOM     24  C   UNL A   1      41.906  27.909  25.467  1.00  0.00     0.251 C 
ATOM     25  H   UNL A   1      42.757  26.237  24.828  1.00  0.00     0.163 HD
ATOM     26  O   UNL A   1      42.487  28.595  24.626  1.00  0.00    -0.269 OA
BRANCH  24  27
ATOM     27  C   UNL A   1      41.202  28.589  26.579  1.00  0.00     0.039 A 
ATOM     28  C   UNL A   1      41.929  28.795  27.759  1.00  0.00     0.014 A 
ATOM     29  C   UNL A   1      39.827  28.840  26.563  1.00  0.00     0.014 A 
ATOM     30  C   UNL A   1      41.293  29.244  28.914  1.00  0.00     0.010 A 
ATOM     31  C   UNL A   1      39.189  29.297  27.725  1.00  0.00     0.010 A 
ATOM     32  C   UNL A   1      39.915  29.497  28.907  1.00  0.00    -0.014 A 
BRANCH  32  33
ATOM     33  C   UNL A   1      39.319  30.065  30.134  1.00  0.00     0.031 A 
ATOM     34  C   UNL A   1      39.680  29.372  31.405  1.00  0.00     0.074 A 
ATOM     35  C   UNL A   1      38.909  31.350  30.215  1.00  0.00     0.049 A 
ATOM     36  N   UNL A   1      40.791  29.608  32.040  1.00  0.00    -0.248 NA
ATOM     37  C   UNL A   1      38.946  28.211  31.905  1.00  0.00     0.031 C 
ATOM     38  C   UNL A   1      39.557  32.454  29.497  1.00  0.00     0.029 A 
ATOM     39  N   UNL A   1      38.049  31.973  31.093  1.00  0.00    -0.354 N 
ATOM     40  C   UNL A   1      40.942  28.613  32.986  1.00  0.00     0.074 A 
ATOM     41  C   UNL A   1      39.766  27.775  32.875  1.00  0.00     0.031 C 
ATOM     42  C   UNL A   1      39.203  33.615  30.086  1.00  0.00     0.029 A 
ATOM     43  C   UNL A   1      38.188  33.359  31.106  1.00  0.00     0.049 A 
ATOM     44  H   UNL A   1      37.402  31.487  31.653  1.00  0.00     0.167 HD
ATOM     45  C   UNL A   1      42.026  28.529  33.799  1.00  0.00     0.037 A 
ATOM     46  C   UNL A   1      37.978  34.157  32.191  1.00  0.00     0.037 A 
ATOM     47  C   UNL A   1      43.003  29.564  33.644  1.00  0.00     0.049 A 
ATOM     48  C   UNL A   1      39.129  33.754  33.078  1.00  0.00     0.074 A 
ATOM     49  C   UNL A   1      44.178  29.758  32.952  1.00  0.00     0.029 A 
ATOM     50  N   UNL A   1      42.770  30.762  34.276  1.00  0.00    -0.354 N 
ATOM     51  N   UNL A   1      40.365  34.163  32.967  1.00  0.00    -0.248 NA
ATOM     52  C   UNL A   1      38.951  32.564  33.912  1.00  0.00     0.031 C 
ATOM     53  C   UNL A   1      44.320  31.176  32.833  1.00  0.00     0.029 A 
ATOM     54  C   UNL A   1      43.195  31.747  33.424  1.00  0.00     0.049 A 
ATOM     55  H   UNL A   1      42.374  30.888  35.170  1.00  0.00     0.167 HD
ATOM     56  C   UNL A   1      41.144  33.127  33.487  1.00  0.00     0.074 A 
ATOM     57  C   UNL A   1      40.212  32.188  34.075  1.00  0.00     0.031 C 
ATOM     58  C   UNL A   1      42.481  32.991  33.248  1.00  0.00     0.037 A 
BRANCH  45  59
ATOM     59  C   UNL A   1      42.175  27.571  34.907  1.00  0.00     0.057 A 
ATOM     60  C   UNL A   1      42.793  26.342  34.643  1.00  0.00     0.134 A 
ATOM     61  C   UNL A   1      41.530  27.731  36.133  1.00  0.00     0.134 A 
ATOM     62  F   UNL A   1      43.411  26.138  33.468  1.00  0.00    -0.206 F 
ATOM     63  C   UNL A   1      42.734  25.286  35.548  1.00  0.00     0.040 A 
ATOM     64  C   UNL A   1      41.471  26.682  37.054  1.00  0.00     0.040 A 
ATOM     65  F   UNL A   1      40.906  28.880  36.433  1.00  0.00    -0.206 F 
ATOM     66  C   UNL A   1      42.059  25.451  36.754  1.00  0.00     0.006 A 
ENDBRANCH  45  59
BRANCH  46  67
ATOM     67  C   UNL A   1      36.563  34.259  32.670  1.00  0.00     0.057 A 
ATOM     68  C   UNL A   1      35.525  34.231  31.717  1.00  0.00     0.134 A 
ATOM     69  C   UNL A   1      36.151  34.413  34.002  1.00  0.00     0.134 A 
ATOM     70  F   UNL A   1      35.808  34.215  30.405  1.00  0.00    -0.206 F 
ATOM     71  C   UNL A   1      34.172  34.225  32.073  1.00  0.00     0.040 A 
ATOM     72  C   UNL A   1      34.802  34.382  34.376  1.00  0.00     0.040 A 
ATOM     73  F   UNL A   1      37.036  34.596  34.989  1.00  0.00    -0.206 F 
ATOM     74  C   UNL A   1      33.806  34.268  33.412  1.00  0.00     0.006 A 
ENDBRANCH  46  67
BRANCH  58  75
ATOM     75  C   UNL A   1      43.139  34.124  32.543  1.00  0.00     0.057 A 
ATOM     76  C   UNL A   1      43.153  34.173  31.147  1.00  0.00     0.134 A 
ATOM     77  C   UNL A   1      43.700  35.203  33.239  1.00  0.00     0.134 A 
ATOM     78  F   UNL A   1      42.623  33.175  30.424  1.00  0.00    -0.206 F 
ATOM     79  C   UNL A   1      43.680  35.272  30.464  1.00  0.00     0.040 A 
ATOM     80  C   UNL A   1      44.209  36.317  32.568  1.00  0.00     0.040 A 
ATOM     81  F   UNL A   1      43.734  35.218  34.581  1.00  0.00    -0.206 F 
ATOM     82  C   UNL A   1      44.195  36.354  31.176  1.00  0.00     0.006 A 
ENDBRANCH  58  75
ENDBRANCH  32  33
ENDBRANCH  24  27
ENDBRANCH  22  23
ENDBRANCH  21  22
ENDBRANCH   1  21
TORSDOF 13
ENDMDL
MODEL 2
REMARK VINA RESULT:     -11.2      4.776      9.260
REMARK SMILES Cc1onc2c(=O)n(C)nc(C(=O)NCCCCCCNC(=O)c3ccc(-c4c5nc(c(-c6c(F)cccc6F)c6ccc([nH]6)c(-c6c(F)cccc6F)c6nc(c(-c7c(F)cccc7F)c7ccc4[nH]7)C=C6)C=C5)cc3)c12
REMARK SMILES IDX 18 1 17 2 16 3 15 4 14 5 12 6 13 7 11 9 1 10 2 11 3 12 78 13
REMARK SMILES IDX 4 14 5 15 6 16 10 17 7 18 8 19 9 20 19 21 20 22 21 23 22 24
REMARK SMILES IDX 23 26 24 27 25 28 77 29 26 30 76 31 27 32 28 33 29 34 70 35
REMARK SMILES IDX 30 36 75 37 69 38 71 39 31 40 74 41 68 42 67 43 32 45 58 46
REMARK SMILES IDX 41 47 57 48 42 49 45 50 56 51 72 52 43 53 44 54 55 56 73 57
REMARK SMILES IDX 46 58 33 59 34 60 39 61 35 62 36 63 38 64 40 65 37 66 59 67
REMARK SMILES IDX 60 68 65 69 61 70 62 71 64 72 66 73 63 74 47 75 48 76 53 77
REMARK SMILES IDX 49 78 50 79 52 80 54 81 51 82
REMARK H PARENT 14 8 21 25 71 44 45 55
REMARK Flexibility Score: inf
ROOT
ATOM      1  C   UNL A   1      35.913  21.338  24.536  1.00  0.00     0.002 C 
ENDROOT
BRANCH   1   2
ATOM      2  C   UNL A   1      34.739  20.865  25.399  1.00  0.00     0.002 C 
BRANCH   2   3
ATOM      3  C   UNL A   1      34.467  21.708  26.649  1.00  0.00     0.021 C 
BRANCH   3   4
ATOM      4  C   UNL A   1      34.237  23.196  26.384  1.00  0.00     0.116 C 
BRANCH   4   5
ATOM      5  N   UNL A   1      32.866  23.597  26.655  1.00  0.00    -0.351 N 
ATOM      6  C   UNL A   1      32.075  24.599  26.133  1.00  0.00     0.272 C 
ATOM      7  O   UNL A   1      30.905  24.659  26.497  1.00  0.00    -0.267 OA
ATOM      8  H   UNL A   1      32.417  23.051  27.340  1.00  0.00     0.163 HD
BRANCH   6   9
ATOM      9  C   UNL A   1      32.596  25.620  25.110  1.00  0.00     0.161 A 
ATOM     10  C   UNL A   1      32.376  22.781  23.105  1.00  0.00     0.091 C 
ATOM     11  C   UNL A   1      32.834  24.175  22.947  1.00  0.00     0.144 A 
ATOM     12  O   UNL A   1      33.312  24.481  21.703  1.00  0.00    -0.360 OA
ATOM     13  C   UNL A   1      32.913  25.299  23.737  1.00  0.00     0.083 A 
ATOM     14  N   UNL A   1      33.691  25.810  21.656  1.00  0.00    -0.074 NA
ATOM     15  C   UNL A   1      33.439  26.288  22.879  1.00  0.00     0.183 A 
ATOM     16  C   UNL A   1      33.645  27.651  23.316  1.00  0.00     0.296 A 
ATOM     17  N   UNL A   1      32.793  26.851  25.506  1.00  0.00    -0.164 NA
ATOM     18  O   UNL A   1      34.093  28.549  22.598  1.00  0.00    -0.265 OA
ATOM     19  N   UNL A   1      33.263  27.846  24.653  1.00  0.00    -0.230 N 
ATOM     20  C   UNL A   1      33.360  29.177  25.218  1.00  0.00     0.178 C 
ENDBRANCH   6   9
ENDBRANCH   4   5
ENDBRANCH   3   4
ENDBRANCH   2   3
ENDBRANCH   1   2
BRANCH   1  21
ATOM     21  C   UNL A   1      37.310  20.889  25.005  1.00  0.00     0.021 C 
BRANCH  21  22
ATOM     22  C   UNL A   1      38.194  22.001  25.590  1.00  0.00     0.116 C 
BRANCH  22  23
ATOM     23  N   UNL A   1      39.158  21.438  26.517  1.00  0.00    -0.352 N 
ATOM     24  C   UNL A   1      40.304  21.945  27.055  1.00  0.00     0.251 C 
ATOM     25  H   UNL A   1      38.945  20.523  26.812  1.00  0.00     0.163 HD
ATOM     26  O   UNL A   1      41.146  21.149  27.471  1.00  0.00    -0.269 OA
BRANCH  24  27
ATOM     27  C   UNL A   1      40.560  23.396  27.204  1.00  0.00     0.039 A 
ATOM     28  C   UNL A   1      41.738  23.896  26.633  1.00  0.00     0.014 A 
ATOM     29  C   UNL A   1      39.796  24.217  28.038  1.00  0.00     0.014 A 
ATOM     30  C   UNL A   1      42.154  25.200  26.893  1.00  0.00     0.010 A 
ATOM     31  C   UNL A   1      40.212  25.531  28.295  1.00  0.00     0.010 A 
ATOM     32  C   UNL A   1      41.394  26.029  27.728  1.00  0.00    -0.014 A 
BRANCH  32  33
ATOM     33  C   UNL A   1      41.836  27.430  27.885  1.00  0.00     0.031 A 
ATOM     34  C   UNL A   1      40.765  28.461  27.763  1.00  0.00     0.074 A 
ATOM     35  C   UNL A   1      42.955  27.766  28.564  1.00  0.00     0.049 A 
ATOM     36  N   UNL A   1      39.980  28.775  28.753  1.00  0.00    -0.248 NA
ATOM     37  C   UNL A   1      40.349  29.016  26.477  1.00  0.00     0.031 C 
ATOM     38  C   UNL A   1      43.453  27.021  29.727  1.00  0.00     0.029 A 
ATOM     39  N   UNL A   1      43.715  28.916  28.547  1.00  0.00    -0.354 N 
ATOM     40  C   UNL A   1      38.942  29.523  28.230  1.00  0.00     0.074 A 
ATOM     41  C   UNL A   1      39.220  29.658  26.816  1.00  0.00     0.031 C 
ATOM     42  C   UNL A   1      44.307  27.812  30.410  1.00  0.00     0.029 A 
ATOM     43  C   UNL A   1      44.544  29.043  29.659  1.00  0.00     0.049 A 
ATOM     44  H   UNL A   1      43.675  29.580  27.820  1.00  0.00     0.167 HD
ATOM     45  C   UNL A   1      37.911  29.980  28.987  1.00  0.00     0.037 A 
ATOM     46  C   UNL A   1      44.914  30.225  30.228  1.00  0.00     0.037 A 
ATOM     47  C   UNL A   1      37.978  29.669  30.383  1.00  0.00     0.049 A 
ATOM     48  C   UNL A   1      43.604  30.697  30.803  1.00  0.00     0.074 A 
ATOM     49  C   UNL A   1      37.496  28.698  31.233  1.00  0.00     0.029 A 
ATOM     50  N   UNL A   1      38.761  30.471  31.179  1.00  0.00    -0.354 N 
ATOM     51  N   UNL A   1      43.060  30.286  31.918  1.00  0.00    -0.248 NA
ATOM     52  C   UNL A   1      42.693  31.409  29.906  1.00  0.00     0.031 C 
ATOM     53  C   UNL A   1      38.382  28.703  32.356  1.00  0.00     0.029 A 
ATOM     54  C   UNL A   1      39.370  29.648  32.090  1.00  0.00     0.049 A 
ATOM     55  H   UNL A   1      38.864  31.448  31.109  1.00  0.00     0.167 HD
ATOM     56  C   UNL A   1      41.684  30.444  31.738  1.00  0.00     0.074 A 
ATOM     57  C   UNL A   1      41.529  31.165  30.491  1.00  0.00     0.031 C 
ATOM     58  C   UNL A   1      40.742  29.822  32.505  1.00  0.00     0.037 A 
BRANCH  45  59
ATOM     59  C   UNL A   1      36.854  30.886  28.509  1.00  0.00     0.057 A 
ATOM     60  C   UNL A   1      37.050  32.265  28.648  1.00  0.00     0.134 A 
ATOM     61  C   UNL A   1      35.584  30.436  28.145  1.00  0.00     0.134 A 
ATOM     62  F   UNL A   1      38.251  32.742  29.012  1.00  0.00    -0.206 F 
ATOM     63  C   UNL A   1      36.007  33.172  28.475  1.00  0.00     0.040 A 
ATOM     64  C   UNL A   1      34.531  31.336  27.961  1.00  0.00     0.040 A 
ATOM     65  F   UNL A   1      35.335  29.125  28.015  1.00  0.00    -0.206 F 
ATOM     66  C   UNL A   1      34.738  32.705  28.144  1.00  0.00     0.006 A 
ENDBRANCH  45  59
BRANCH  46  67
ATOM     67  C   UNL A   1      45.819  31.095  29.410  1.00  0.00     0.057 A 
ATOM     68  C   UNL A   1      46.952  31.659  30.030  1.00  0.00     0.134 A 
ATOM     69  C   UNL A   1      45.636  31.441  28.064  1.00  0.00     0.134 A 
ATOM     70  F   UNL A   1      47.156  31.499  31.347  1.00  0.00    -0.206 F 
ATOM     71  C   UNL A   1      47.904  32.406  29.327  1.00  0.00     0.040 A 
ATOM     72  C   UNL A   1      46.592  32.166  27.341  1.00  0.00     0.040 A 
ATOM     73  F   UNL A   1      44.529  31.091  27.397  1.00  0.00    -0.206 F 
ATOM     74  C   UNL A   1      47.742  32.634  27.967  1.00  0.00     0.006 A 
ENDBRANCH  46  67
BRANCH  58  75
ATOM     75  C   UNL A   1      41.248  29.090  33.697  1.00  0.00     0.057 A 
ATOM     76  C   UNL A   1      41.220  29.690  34.958  1.00  0.00     0.134 A 
ATOM     77  C   UNL A   1      41.699  27.765  33.616  1.00  0.00     0.134 A 
ATOM     78  F   UNL A   1      40.788  30.952  35.104  1.00  0.00    -0.206 F 
ATOM     79  C   UNL A   1      41.599  28.989  36.105  1.00  0.00     0.040 A 
ATOM     80  C   UNL A   1      42.059  27.047  34.758  1.00  0.00     0.040 A 
ATOM     81  F   UNL A   1      41.767  27.130  32.436  1.00  0.00    -0.206 F 
ATOM     82  C   UNL A   1      42.005  27.659  36.008  1.00  0.00     0.006 A 
ENDBRANCH  58  75
ENDBRANCH  32  33
ENDBRANCH  24  27
ENDBRANCH  22  23
ENDBRANCH  21  22
ENDBRANCH   1  21
TORSDOF 13
ENDMDL
MODEL 3
REMARK VINA RESULT:     -11.1      7.857     14.139
REMARK SMILES Cc1onc2c(=O)n(C)nc(C(=O)NCCCCCCNC(=O)c3ccc(-c4c5nc(c(-c6c(F)cccc6F)c6ccc([nH]6)c(-c6c(F)cccc6F)c6nc(c(-c7c(F)cccc7F)c7ccc4[nH]7)C=C6)C=C5)cc3)c12
REMARK SMILES IDX 18 1 17 2 16 3 15 4 14 5 12 6 13 7 11 9 1 10 2 11 3 12 78 13
REMARK SMILES IDX 4 14 5 15 6 16 10 17 7 18 8 19 9 20 19 21 20 22 21 23 22 24
REMARK SMILES IDX 23 26 24 27 25 28 77 29 26 30 76 31 27 32 28 33 29 34 70 35
REMARK SMILES IDX 30 36 75 37 69 38 71 39 31 40 74 41 68 42 67 43 32 45 58 46
REMARK SMILES IDX 41 47 57 48 42 49 45 50 56 51 72 52 43 53 44 54 55 56 73 57
REMARK SMILES IDX 46 58 33 59 34 60 39 61 35 62 36 63 38 64 40 65 37 66 59 67
REMARK SMILES IDX 60 68 65 69 61 70 62 71 64 72 66 73 63 74 47 75 48 76 53 77
REMARK SMILES IDX 49 78 50 79 52 80 54 81 51 82
REMARK H PARENT 14 8 21 25 71 44 45 55
REMARK Flexibility Score: inf
ROOT
ATOM      1  C   UNL A   1      40.261  34.095  32.500  1.00  0.00     0.002 C 
ENDROOT
BRANCH   1   2
ATOM      2  C   UNL A   1      39.092  34.503  31.598  1.00  0.00     0.002 C 
BRANCH   2   3
ATOM      3  C   UNL A   1      37.708  34.420  32.248  1.00  0.00     0.021 C 
BRANCH   3   4
ATOM      4  C   UNL A   1      36.907  33.167  31.897  1.00  0.00     0.116 C 
BRANCH   4   5
ATOM      5  N   UNL A   1      35.742  33.001  32.752  1.00  0.00    -0.351 N 
ATOM      6  C   UNL A   1      34.448  33.467  32.652  1.00  0.00     0.272 C 
ATOM      7  O   UNL A   1      33.635  33.098  33.494  1.00  0.00    -0.267 OA
ATOM      8  H   UNL A   1      35.908  32.454  33.553  1.00  0.00     0.163 HD
BRANCH   6   9
ATOM      9  C   UNL A   1      33.988  34.405  31.526  1.00  0.00     0.161 A 
ATOM     10  C   UNL A   1      33.958  36.605  34.227  1.00  0.00     0.091 C 
ATOM     11  C   UNL A   1      33.603  36.656  32.795  1.00  0.00     0.144 A 
ATOM     12  O   UNL A   1      33.129  37.865  32.368  1.00  0.00    -0.360 OA
ATOM     13  C   UNL A   1      33.623  35.789  31.725  1.00  0.00     0.083 A 
ATOM     14  N   UNL A   1      32.850  37.812  31.014  1.00  0.00    -0.074 NA
ATOM     15  C   UNL A   1      33.159  36.566  30.643  1.00  0.00     0.183 A 
ATOM     16  C   UNL A   1      33.063  36.032  29.303  1.00  0.00     0.296 A 
ATOM     17  N   UNL A   1      33.891  33.922  30.315  1.00  0.00    -0.164 NA
ATOM     18  O   UNL A   1      32.672  36.676  28.326  1.00  0.00    -0.265 OA
ATOM     19  N   UNL A   1      33.482  34.693  29.230  1.00  0.00    -0.230 N 
ATOM     20  C   UNL A   1      33.496  34.036  27.939  1.00  0.00     0.178 C 
ENDBRANCH   6   9
ENDBRANCH   4   5
ENDBRANCH   3   4
ENDBRANCH   2   3
ENDBRANCH   1   2
BRANCH   1  21
ATOM     21  C   UNL A   1      41.511  33.563  31.774  1.00  0.00     0.021 C 
BRANCH  21  22
ATOM     22  C   UNL A   1      41.301  33.188  30.298  1.00  0.00     0.116 C 
BRANCH  22  23
ATOM     23  N   UNL A   1      42.559  32.775  29.704  1.00  0.00    -0.352 N 
ATOM     24  C   UNL A   1      43.375  33.381  28.794  1.00  0.00     0.251 C 
ATOM     25  H   UNL A   1      42.882  31.899  30.015  1.00  0.00     0.163 HD
ATOM     26  O   UNL A   1      44.145  32.669  28.149  1.00  0.00    -0.269 OA
BRANCH  24  27
ATOM     27  C   UNL A   1      43.412  34.846  28.584  1.00  0.00     0.039 A 
ATOM     28  C   UNL A   1      42.864  35.330  27.389  1.00  0.00     0.014 A 
ATOM     29  C   UNL A   1      44.131  35.711  29.413  1.00  0.00     0.014 A 
ATOM     30  C   UNL A   1      43.031  36.664  27.021  1.00  0.00     0.010 A 
ATOM     31  C   UNL A   1      44.295  37.054  29.045  1.00  0.00     0.010 A 
ATOM     32  C   UNL A   1      43.751  37.537  27.846  1.00  0.00    -0.014 A 
BRANCH  32  33
ATOM     33  C   UNL A   1      43.810  38.959  27.448  1.00  0.00     0.031 A 
ATOM     34  C   UNL A   1      43.361  39.936  28.482  1.00  0.00     0.074 A 
ATOM     35  C   UNL A   1      44.638  39.408  26.480  1.00  0.00     0.049 A 
ATOM     36  N   UNL A   1      44.138  40.347  29.442  1.00  0.00    -0.248 NA
ATOM     37  C   UNL A   1      41.960  40.316  28.650  1.00  0.00     0.031 C 
ATOM     38  C   UNL A   1      45.958  38.827  26.207  1.00  0.00     0.029 A 
ATOM     39  N   UNL A   1      44.618  40.569  25.736  1.00  0.00    -0.354 N 
ATOM     40  C   UNL A   1      43.340  40.995  30.366  1.00  0.00     0.074 A 
ATOM     41  C   UNL A   1      41.998  40.963  29.826  1.00  0.00     0.031 C 
ATOM     42  C   UNL A   1      46.683  39.719  25.502  1.00  0.00     0.029 A 
ATOM     43  C   UNL A   1      45.840  40.855  25.133  1.00  0.00     0.049 A 
ATOM     44  H   UNL A   1      43.819  41.136  25.641  1.00  0.00     0.167 HD
ATOM     45  C   UNL A   1      43.827  41.512  31.523  1.00  0.00     0.037 A 
ATOM     46  C   UNL A   1      46.314  42.108  24.883  1.00  0.00     0.037 A 
ATOM     47  C   UNL A   1      45.239  41.377  31.720  1.00  0.00     0.049 A 
ATOM     48  C   UNL A   1      46.570  42.610  26.280  1.00  0.00     0.074 A 
ATOM     49  C   UNL A   1      46.099  40.505  32.349  1.00  0.00     0.029 A 
ATOM     50  N   UNL A   1      46.060  42.293  31.106  1.00  0.00    -0.354 N 
ATOM     51  N   UNL A   1      47.607  42.324  27.024  1.00  0.00    -0.248 NA
ATOM     52  C   UNL A   1      45.436  43.180  27.009  1.00  0.00     0.031 C 
ATOM     53  C   UNL A   1      47.359  40.673  31.692  1.00  0.00     0.029 A 
ATOM     54  C   UNL A   1      47.165  41.606  30.676  1.00  0.00     0.049 A 
ATOM     55  H   UNL A   1      45.887  43.257  30.996  1.00  0.00     0.167 HD
ATOM     56  C   UNL A   1      47.154  42.419  28.341  1.00  0.00     0.074 A 
ATOM     57  C   UNL A   1      45.819  42.976  28.261  1.00  0.00     0.031 C 
ATOM     58  C   UNL A   1      47.804  41.869  29.407  1.00  0.00     0.037 A 
BRANCH  45  59
ATOM     59  C   UNL A   1      43.050  42.321  32.476  1.00  0.00     0.057 A 
ATOM     60  C   UNL A   1      42.810  43.665  32.163  1.00  0.00     0.134 A 
ATOM     61  C   UNL A   1      42.747  41.883  33.765  1.00  0.00     0.134 A 
ATOM     62  F   UNL A   1      43.102  44.134  30.939  1.00  0.00    -0.206 F 
ATOM     63  C   UNL A   1      42.326  44.561  33.113  1.00  0.00     0.040 A 
ATOM     64  C   UNL A   1      42.253  42.770  34.726  1.00  0.00     0.040 A 
ATOM     65  F   UNL A   1      42.973  40.611  34.126  1.00  0.00    -0.206 F 
ATOM     66  C   UNL A   1      42.059  44.115  34.405  1.00  0.00     0.006 A 
ENDBRANCH  45  59
BRANCH  46  67
ATOM     67  C   UNL A   1      45.577  42.897  23.844  1.00  0.00     0.057 A 
ATOM     68  C   UNL A   1      46.283  43.338  22.706  1.00  0.00     0.134 A 
ATOM     69  C   UNL A   1      44.229  43.278  23.900  1.00  0.00     0.134 A 
ATOM     70  F   UNL A   1      47.606  43.140  22.609  1.00  0.00    -0.206 F 
ATOM     71  C   UNL A   1      45.661  43.998  21.641  1.00  0.00     0.040 A 
ATOM     72  C   UNL A   1      43.587  43.915  22.830  1.00  0.00     0.040 A 
ATOM     73  F   UNL A   1      43.483  43.047  24.987  1.00  0.00    -0.206 F 
ATOM     74  C   UNL A   1      44.298  44.260  21.687  1.00  0.00     0.006 A 
ENDBRANCH  46  67
BRANCH  58  75
ATOM     75  C   UNL A   1      49.153  41.304  29.132  1.00  0.00     0.057 A 
ATOM     76  C   UNL A   1      50.298  42.074  29.348  1.00  0.00     0.134 A 
ATOM     77  C   UNL A   1      49.329  39.975  28.722  1.00  0.00     0.134 A 
ATOM     78  F   UNL A   1      50.196  43.350  29.752  1.00  0.00    -0.206 F 
ATOM     79  C   UNL A   1      51.577  41.536  29.189  1.00  0.00     0.040 A 
ATOM     80  C   UNL A   1      50.602  39.419  28.582  1.00  0.00     0.040 A 
ATOM     81  F   UNL A   1      48.274  39.181  28.482  1.00  0.00    -0.206 F 
ATOM     82  C   UNL A   1      51.730  40.200  28.820  1.00  0.00     0.006 A 
ENDBRANCH  58  75
ENDBRANCH  32  33
ENDBRANCH  24  27
ENDBRANCH  22  23
ENDBRANCH  21  22
ENDBRANCH   1  21
TORSDOF 13
ENDMDL
