MODEL 1
REMARK VINA RESULT:     -12.1      0.000      0.000
REMARK SMILES O=C1NC(=S)S/C1=C\c1ccc(OCc2cn(-c3ccc(C(=O)NCCCCCCNC(=O)c4ccc(-c5c6nc(c(-c7c(F)cccc7F)c7ccc([nH]7)c(-c7c(F)cccc7F)c7nc(c(-c8c(F)cccc8F)c8ccc5[nH]8)C=C7)C=C6)cc4)cc3)nn2)cc1
REMARK SMILES IDX 26 1 25 2 24 3 22 4 23 5 21 7 18 8 19 9 89 10 20 11 88 12
REMARK SMILES IDX 17 13 15 14 16 15 91 16 90 17 14 18 13 19 12 20 9 21 10 22
REMARK SMILES IDX 93 23 11 24 92 25 8 26 1 27 2 28 3 29 7 30 4 31 6 33 5 34
REMARK SMILES IDX 27 35 28 36 29 37 30 38 31 39 32 40 33 42 34 43 35 44 87 45
REMARK SMILES IDX 36 46 86 47 37 48 38 49 39 50 80 51 40 52 85 53 79 54 81 55
REMARK SMILES IDX 41 56 84 57 78 58 77 59 42 61 68 62 51 63 67 64 52 65 55 66
REMARK SMILES IDX 66 67 82 68 53 69 54 70 65 72 83 73 56 74 43 75 44 76 49 77
REMARK SMILES IDX 45 78 46 79 48 80 50 81 47 82 69 83 70 84 75 85 71 86 72 87
REMARK SMILES IDX 74 88 76 89 73 90 57 91 58 92 63 93 59 94 60 95 62 96 64 97
REMARK SMILES IDX 61 98
REMARK H PARENT 24 6 3 32 31 41 81 60 55 71
REMARK Flexibility Score: inf
ROOT
ATOM      1  C   UNL A   1      45.292  21.425  24.163  1.00  0.00     0.021 C 
ENDROOT
BRANCH   1   2
ATOM      2  C   UNL A   1      45.081  21.049  25.631  1.00  0.00     0.116 C 
BRANCH   2   3
ATOM      3  N   UNL A   1      44.563  19.698  25.720  1.00  0.00    -0.352 N 
ATOM      4  C   UNL A   1      43.314  19.191  25.959  1.00  0.00     0.251 C 
ATOM      5  O   UNL A   1      43.205  17.966  26.023  1.00  0.00    -0.269 OA
ATOM      6  H   UNL A   1      45.249  19.006  25.579  1.00  0.00     0.163 HD
BRANCH   4   7
ATOM      7  C   UNL A   1      42.091  20.036  26.062  1.00  0.00     0.039 A 
ATOM      8  C   UNL A   1      39.685  21.477  25.990  1.00  0.00     0.066 A 
ATOM      9  C   UNL A   1      39.658  20.079  25.984  1.00  0.00     0.029 A 
ATOM     10  C   UNL A   1      40.898  22.156  26.114  1.00  0.00     0.029 A 
ATOM     11  C   UNL A   1      40.859  19.368  25.985  1.00  0.00     0.016 A 
ATOM     12  C   UNL A   1      42.086  21.425  26.219  1.00  0.00     0.016 A 
BRANCH   8  13
ATOM     13  N   UNL A   1      38.475  22.194  25.890  1.00  0.00    -0.220 N 
ATOM     14  C   UNL A   1      36.457  22.895  25.449  1.00  0.00     0.120 A 
ATOM     15  C   UNL A   1      37.300  21.817  25.280  1.00  0.00     0.144 A 
ATOM     16  N   UNL A   1      37.117  23.850  26.178  1.00  0.00    -0.131 NA
ATOM     17  N   UNL A   1      38.325  23.403  26.468  1.00  0.00    -0.062 NA
BRANCH  14  18
ATOM     18  C   UNL A   1      35.024  23.089  25.074  1.00  0.00     0.289 C 
BRANCH  18  19
ATOM     19  O   UNL A   1      34.165  23.556  26.129  1.00  0.00    -0.487 OA
BRANCH  19  20
ATOM     20  C   UNL A   1      33.485  24.729  25.947  1.00  0.00     0.119 A 
ATOM     21  C   UNL A   1      32.428  27.326  25.764  1.00  0.00    -0.024 A 
ATOM     22  C   UNL A   1      33.687  27.044  25.231  1.00  0.00     0.012 A 
ATOM     23  C   UNL A   1      31.664  26.285  26.294  1.00  0.00     0.012 A 
ATOM     24  C   UNL A   1      34.212  25.749  25.328  1.00  0.00     0.047 A 
ATOM     25  C   UNL A   1      32.179  24.989  26.355  1.00  0.00     0.047 A 
BRANCH  21  26
ATOM     26  C   UNL A   1      31.910  28.695  25.796  1.00  0.00     0.029 C 
ATOM     27  O   UNL A   1      30.980  31.454  25.764  1.00  0.00    -0.268 OA
ATOM     28  C   UNL A   1      30.658  30.641  24.917  1.00  0.00     0.263 C 
ATOM     29  N   UNL A   1      29.851  30.908  23.846  1.00  0.00    -0.307 N 
ATOM     30  C   UNL A   1      31.085  29.216  24.876  1.00  0.00     0.080 C 
ATOM     31  C   UNL A   1      29.571  29.894  22.982  1.00  0.00     0.145 C 
ATOM     32  H   UNL A   1      29.482  31.810  23.704  1.00  0.00     0.171 HD
ATOM     33  S   UNL A   1      30.381  28.436  23.503  1.00  0.00    -0.055 SA
ATOM     34  S   UNL A   1      28.598  30.065  21.653  1.00  0.00    -0.052 S 
ENDBRANCH  21  26
ENDBRANCH  19  20
ENDBRANCH  18  19
ENDBRANCH  14  18
ENDBRANCH   8  13
ENDBRANCH   4   7
ENDBRANCH   2   3
ENDBRANCH   1   2
BRANCH   1  35
ATOM     35  C   UNL A   1      45.292  22.942  23.932  1.00  0.00     0.002 C 
BRANCH  35  36
ATOM     36  C   UNL A   1      44.404  23.748  24.894  1.00  0.00     0.002 C 
BRANCH  36  37
ATOM     37  C   UNL A   1      44.969  25.103  25.345  1.00  0.00     0.021 C 
BRANCH  37  38
ATOM     38  C   UNL A   1      44.976  25.274  26.856  1.00  0.00     0.116 C 
BRANCH  38  39
ATOM     39  N   UNL A   1      44.280  24.174  27.523  1.00  0.00    -0.352 N 
ATOM     40  C   UNL A   1      43.485  24.206  28.651  1.00  0.00     0.251 C 
ATOM     41  H   UNL A   1      44.393  23.289  27.109  1.00  0.00     0.163 HD
ATOM     42  O   UNL A   1      43.259  23.196  29.292  1.00  0.00    -0.269 OA
BRANCH  40  43
ATOM     43  C   UNL A   1      42.912  25.496  29.066  1.00  0.00     0.039 A 
ATOM     44  C   UNL A   1      43.497  26.248  30.088  1.00  0.00     0.014 A 
ATOM     45  C   UNL A   1      41.785  25.954  28.392  1.00  0.00     0.014 A 
ATOM     46  C   UNL A   1      42.983  27.509  30.373  1.00  0.00     0.010 A 
ATOM     47  C   UNL A   1      41.379  27.251  28.565  1.00  0.00     0.010 A 
ATOM     48  C   UNL A   1      41.933  28.012  29.592  1.00  0.00    -0.014 A 
BRANCH  48  49
ATOM     49  C   UNL A   1      41.456  29.380  29.759  1.00  0.00     0.031 A 
ATOM     50  C   UNL A   1      42.424  30.444  29.367  1.00  0.00     0.074 A 
ATOM     51  C   UNL A   1      40.154  29.647  29.995  1.00  0.00     0.049 A 
ATOM     52  N   UNL A   1      42.899  31.389  30.108  1.00  0.00    -0.248 NA
ATOM     53  C   UNL A   1      43.021  30.392  28.022  1.00  0.00     0.031 C 
ATOM     54  C   UNL A   1      39.040  28.696  30.110  1.00  0.00     0.029 A 
ATOM     55  N   UNL A   1      39.519  30.847  30.038  1.00  0.00    -0.354 N 
ATOM     56  C   UNL A   1      43.702  32.170  29.279  1.00  0.00     0.074 A 
ATOM     57  C   UNL A   1      43.872  31.420  28.062  1.00  0.00     0.031 C 
ATOM     58  C   UNL A   1      37.870  29.349  29.943  1.00  0.00     0.029 A 
ATOM     59  C   UNL A   1      38.140  30.772  29.875  1.00  0.00     0.049 A 
ATOM     60  H   UNL A   1      39.995  31.699  30.173  1.00  0.00     0.167 HD
ATOM     61  C   UNL A   1      43.967  33.473  29.576  1.00  0.00     0.037 A 
ATOM     62  C   UNL A   1      37.292  31.807  29.655  1.00  0.00     0.037 A 
ATOM     63  C   UNL A   1      43.653  33.767  30.952  1.00  0.00     0.049 A 
ATOM     64  C   UNL A   1      37.991  33.042  30.091  1.00  0.00     0.074 A 
ATOM     65  C   UNL A   1      44.070  33.261  32.168  1.00  0.00     0.029 A 
ATOM     66  N   UNL A   1      42.492  34.454  31.213  1.00  0.00    -0.354 N 
ATOM     67  N   UNL A   1      38.276  33.310  31.336  1.00  0.00    -0.248 NA
ATOM     68  C   UNL A   1      38.795  33.751  29.105  1.00  0.00     0.031 C 
ATOM     69  C   UNL A   1      42.893  33.232  32.973  1.00  0.00     0.029 A 
ATOM     70  C   UNL A   1      41.854  33.792  32.229  1.00  0.00     0.049 A 
ATOM     71  H   UNL A   1      42.179  35.269  30.757  1.00  0.00     0.167 HD
ATOM     72  C   UNL A   1      39.553  33.849  31.298  1.00  0.00     0.074 A 
ATOM     73  C   UNL A   1      39.783  34.184  29.892  1.00  0.00     0.031 C 
ATOM     74  C   UNL A   1      40.418  33.694  32.343  1.00  0.00     0.037 A 
BRANCH  61  75
ATOM     75  C   UNL A   1      44.146  34.572  28.555  1.00  0.00     0.057 A 
ATOM     76  C   UNL A   1      45.445  35.025  28.259  1.00  0.00     0.134 A 
ATOM     77  C   UNL A   1      43.105  35.402  28.093  1.00  0.00     0.134 A 
ATOM     78  F   UNL A   1      46.524  34.328  28.648  1.00  0.00    -0.206 F 
ATOM     79  C   UNL A   1      45.689  36.255  27.636  1.00  0.00     0.040 A 
ATOM     80  C   UNL A   1      43.337  36.605  27.423  1.00  0.00     0.040 A 
ATOM     81  F   UNL A   1      41.816  35.150  28.353  1.00  0.00    -0.206 F 
ATOM     82  C   UNL A   1      44.632  37.055  27.225  1.00  0.00     0.006 A 
ENDBRANCH  61  75
BRANCH  62  83
ATOM     83  C   UNL A   1      36.041  31.825  28.859  1.00  0.00     0.057 A 
ATOM     84  C   UNL A   1      35.829  30.902  27.824  1.00  0.00     0.134 A 
ATOM     85  C   UNL A   1      34.914  32.572  29.251  1.00  0.00     0.134 A 
ATOM     86  F   UNL A   1      36.827  30.114  27.400  1.00  0.00    -0.206 F 
ATOM     87  C   UNL A   1      34.569  30.711  27.238  1.00  0.00     0.040 A 
ATOM     88  C   UNL A   1      33.654  32.401  28.665  1.00  0.00     0.040 A 
ATOM     89  F   UNL A   1      34.970  33.433  30.277  1.00  0.00    -0.206 F 
ATOM     90  C   UNL A   1      33.474  31.455  27.666  1.00  0.00     0.006 A 
ENDBRANCH  62  83
BRANCH  74  91
ATOM     91  C   UNL A   1      39.885  33.131  33.633  1.00  0.00     0.057 A 
ATOM     92  C   UNL A   1      39.886  31.765  33.957  1.00  0.00     0.134 A 
ATOM     93  C   UNL A   1      39.521  34.016  34.653  1.00  0.00     0.134 A 
ATOM     94  F   UNL A   1      40.319  30.846  33.089  1.00  0.00    -0.206 F 
ATOM     95  C   UNL A   1      39.500  31.301  35.219  1.00  0.00     0.040 A 
ATOM     96  C   UNL A   1      39.168  33.569  35.929  1.00  0.00     0.040 A 
ATOM     97  F   UNL A   1      39.554  35.342  34.441  1.00  0.00    -0.206 F 
ATOM     98  C   UNL A   1      39.146  32.206  36.212  1.00  0.00     0.006 A 
ENDBRANCH  74  91
ENDBRANCH  48  49
ENDBRANCH  40  43
ENDBRANCH  38  39
ENDBRANCH  37  38
ENDBRANCH  36  37
ENDBRANCH  35  36
ENDBRANCH   1  35
TORSDOF 18
ENDMDL
MODEL 2
REMARK VINA RESULT:     -11.7      4.040     10.464
REMARK SMILES O=C1NC(=S)S/C1=C\c1ccc(OCc2cn(-c3ccc(C(=O)NCCCCCCNC(=O)c4ccc(-c5c6nc(c(-c7c(F)cccc7F)c7ccc([nH]7)c(-c7c(F)cccc7F)c7nc(c(-c8c(F)cccc8F)c8ccc5[nH]8)C=C7)C=C6)cc4)cc3)nn2)cc1
REMARK SMILES IDX 26 1 25 2 24 3 22 4 23 5 21 7 18 8 19 9 89 10 20 11 88 12
REMARK SMILES IDX 17 13 15 14 16 15 91 16 90 17 14 18 13 19 12 20 9 21 10 22
REMARK SMILES IDX 93 23 11 24 92 25 8 26 1 27 2 28 3 29 7 30 4 31 6 33 5 34
REMARK SMILES IDX 27 35 28 36 29 37 30 38 31 39 32 40 33 42 34 43 35 44 87 45
REMARK SMILES IDX 36 46 86 47 37 48 38 49 39 50 80 51 40 52 85 53 79 54 81 55
REMARK SMILES IDX 41 56 84 57 78 58 77 59 42 61 68 62 51 63 67 64 52 65 55 66
REMARK SMILES IDX 66 67 82 68 53 69 54 70 65 72 83 73 56 74 43 75 44 76 49 77
REMARK SMILES IDX 45 78 46 79 48 80 50 81 47 82 69 83 70 84 75 85 71 86 72 87
REMARK SMILES IDX 74 88 76 89 73 90 57 91 58 92 63 93 59 94 60 95 62 96 64 97
REMARK SMILES IDX 61 98
REMARK H PARENT 24 6 3 32 31 41 81 60 55 71
REMARK Flexibility Score: inf
ROOT
ATOM      1  C   UNL A   1      36.417  32.006  32.607  1.00  0.00     0.021 C 
ENDROOT
BRANCH   1   2
ATOM      2  C   UNL A   1      35.060  32.327  31.977  1.00  0.00     0.116 C 
BRANCH   2   3
ATOM      3  N   UNL A   1      35.167  33.524  31.168  1.00  0.00    -0.352 N 
ATOM      4  C   UNL A   1      35.122  33.744  29.817  1.00  0.00     0.251 C 
ATOM      5  O   UNL A   1      35.300  34.899  29.427  1.00  0.00    -0.269 OA
ATOM      6  H   UNL A   1      35.299  34.344  31.696  1.00  0.00     0.163 HD
BRANCH   4   7
ATOM      7  C   UNL A   1      34.791  32.685  28.823  1.00  0.00     0.039 A 
ATOM      8  C   UNL A   1      33.884  30.668  27.096  1.00  0.00     0.066 A 
ATOM      9  C   UNL A   1      33.133  31.837  27.256  1.00  0.00     0.029 A 
ATOM     10  C   UNL A   1      35.121  30.537  27.728  1.00  0.00     0.029 A 
ATOM     11  C   UNL A   1      33.571  32.821  28.142  1.00  0.00     0.016 A 
ATOM     12  C   UNL A   1      35.595  31.579  28.532  1.00  0.00     0.016 A 
BRANCH   8  13
ATOM     13  N   UNL A   1      33.390  29.633  26.276  1.00  0.00    -0.220 N 
ATOM     14  C   UNL A   1      32.236  28.366  24.926  1.00  0.00     0.120 A 
ATOM     15  C   UNL A   1      32.267  29.629  25.479  1.00  0.00     0.144 A 
ATOM     16  N   UNL A   1      33.339  27.678  25.359  1.00  0.00    -0.131 NA
ATOM     17  N   UNL A   1      34.048  28.463  26.149  1.00  0.00    -0.062 NA
BRANCH  14  18
ATOM     18  C   UNL A   1      31.309  27.754  23.928  1.00  0.00     0.289 C 
BRANCH  18  19
ATOM     19  O   UNL A   1      30.238  26.968  24.479  1.00  0.00    -0.487 OA
BRANCH  19  20
ATOM     20  C   UNL A   1      30.403  25.612  24.570  1.00  0.00     0.119 A 
ATOM     21  C   UNL A   1      31.063  22.921  25.031  1.00  0.00    -0.024 A 
ATOM     22  C   UNL A   1      30.756  23.760  26.103  1.00  0.00     0.012 A 
ATOM     23  C   UNL A   1      30.938  23.407  23.729  1.00  0.00     0.012 A 
ATOM     24  C   UNL A   1      30.433  25.102  25.870  1.00  0.00     0.047 A 
ATOM     25  C   UNL A   1      30.579  24.737  23.501  1.00  0.00     0.047 A 
BRANCH  21  26
ATOM     26  C   UNL A   1      31.533  21.552  25.252  1.00  0.00     0.029 C 
ATOM     27  O   UNL A   1      32.477  18.813  25.549  1.00  0.00    -0.268 OA
ATOM     28  C   UNL A   1      33.229  19.752  25.361  1.00  0.00     0.263 C 
ATOM     29  N   UNL A   1      34.588  19.652  25.245  1.00  0.00    -0.307 N 
ATOM     30  C   UNL A   1      32.819  21.175  25.211  1.00  0.00     0.080 C 
ATOM     31  C   UNL A   1      35.302  20.792  25.043  1.00  0.00     0.145 C 
ATOM     32  H   UNL A   1      35.037  18.777  25.307  1.00  0.00     0.171 HD
ATOM     33  S   UNL A   1      34.219  22.161  24.970  1.00  0.00    -0.055 SA
ATOM     34  S   UNL A   1      36.952  20.827  24.900  1.00  0.00    -0.052 S 
ENDBRANCH  21  26
ENDBRANCH  19  20
ENDBRANCH  18  19
ENDBRANCH  14  18
ENDBRANCH   8  13
ENDBRANCH   4   7
ENDBRANCH   2   3
ENDBRANCH   1   2
BRANCH   1  35
ATOM     35  C   UNL A   1      36.591  32.631  33.996  1.00  0.00     0.002 C 
BRANCH  35  36
ATOM     36  C   UNL A   1      37.416  33.928  34.029  1.00  0.00     0.002 C 
BRANCH  36  37
ATOM     37  C   UNL A   1      38.918  33.757  34.306  1.00  0.00     0.021 C 
BRANCH  37  38
ATOM     38  C   UNL A   1      39.780  33.971  33.073  1.00  0.00     0.116 C 
BRANCH  38  39
ATOM     39  N   UNL A   1      38.964  34.213  31.883  1.00  0.00    -0.352 N 
ATOM     40  C   UNL A   1      39.145  33.749  30.596  1.00  0.00     0.251 C 
ATOM     41  H   UNL A   1      38.176  34.785  32.020  1.00  0.00     0.163 HD
ATOM     42  O   UNL A   1      38.611  34.293  29.648  1.00  0.00    -0.269 OA
BRANCH  40  43
ATOM     43  C   UNL A   1      40.004  32.570  30.393  1.00  0.00     0.039 A 
ATOM     44  C   UNL A   1      41.389  32.703  30.268  1.00  0.00     0.014 A 
ATOM     45  C   UNL A   1      39.395  31.321  30.355  1.00  0.00     0.014 A 
ATOM     46  C   UNL A   1      42.169  31.553  30.184  1.00  0.00     0.010 A 
ATOM     47  C   UNL A   1      40.169  30.194  30.429  1.00  0.00     0.010 A 
ATOM     48  C   UNL A   1      41.551  30.299  30.283  1.00  0.00    -0.014 A 
BRANCH  48  49
ATOM     49  C   UNL A   1      42.338  29.073  30.344  1.00  0.00     0.031 A 
ATOM     50  C   UNL A   1      42.741  28.642  31.713  1.00  0.00     0.074 A 
ATOM     51  C   UNL A   1      42.457  28.261  29.271  1.00  0.00     0.049 A 
ATOM     52  N   UNL A   1      43.939  28.462  32.161  1.00  0.00    -0.248 NA
ATOM     53  C   UNL A   1      41.698  28.495  32.741  1.00  0.00     0.031 C 
ATOM     54  C   UNL A   1      41.859  28.424  27.940  1.00  0.00     0.029 A 
ATOM     55  N   UNL A   1      43.025  27.029  29.188  1.00  0.00    -0.354 N 
ATOM     56  C   UNL A   1      43.802  27.991  33.465  1.00  0.00     0.074 A 
ATOM     57  C   UNL A   1      42.422  28.192  33.821  1.00  0.00     0.031 C 
ATOM     58  C   UNL A   1      41.872  27.240  27.292  1.00  0.00     0.029 A 
ATOM     59  C   UNL A   1      42.619  26.284  28.086  1.00  0.00     0.049 A 
ATOM     60  H   UNL A   1      43.671  26.693  29.851  1.00  0.00     0.167 HD
ATOM     61  C   UNL A   1      44.787  27.261  34.060  1.00  0.00     0.037 A 
ATOM     62  C   UNL A   1      42.845  24.964  27.872  1.00  0.00     0.037 A 
ATOM     63  C   UNL A   1      46.032  27.389  33.345  1.00  0.00     0.049 A 
ATOM     64  C   UNL A   1      43.982  24.571  28.742  1.00  0.00     0.074 A 
ATOM     65  C   UNL A   1      46.842  28.451  32.995  1.00  0.00     0.029 A 
ATOM     66  N   UNL A   1      46.420  26.344  32.540  1.00  0.00    -0.354 N 
ATOM     67  N   UNL A   1      45.205  24.990  28.566  1.00  0.00    -0.248 NA
ATOM     68  C   UNL A   1      43.676  24.097  30.085  1.00  0.00     0.031 C 
ATOM     69  C   UNL A   1      47.296  28.144  31.679  1.00  0.00     0.029 A 
ATOM     70  C   UNL A   1      46.803  26.884  31.340  1.00  0.00     0.049 A 
ATOM     71  H   UNL A   1      46.423  25.389  32.781  1.00  0.00     0.167 HD
ATOM     72  C   UNL A   1      45.675  25.255  29.844  1.00  0.00     0.074 A 
ATOM     73  C   UNL A   1      44.726  24.597  30.742  1.00  0.00     0.031 C 
ATOM     74  C   UNL A   1      46.605  26.230  30.068  1.00  0.00     0.037 A 
BRANCH  61  75
ATOM     75  C   UNL A   1      44.555  26.144  35.050  1.00  0.00     0.057 A 
ATOM     76  C   UNL A   1      45.234  26.170  36.282  1.00  0.00     0.134 A 
ATOM     77  C   UNL A   1      43.952  24.912  34.727  1.00  0.00     0.134 A 
ATOM     78  F   UNL A   1      45.855  27.282  36.704  1.00  0.00    -0.206 F 
ATOM     79  C   UNL A   1      45.381  25.032  37.084  1.00  0.00     0.040 A 
ATOM     80  C   UNL A   1      44.048  23.784  35.546  1.00  0.00     0.040 A 
ATOM     81  F   UNL A   1      43.329  24.700  33.561  1.00  0.00    -0.206 F 
ATOM     82  C   UNL A   1      44.796  23.830  36.711  1.00  0.00     0.006 A 
ENDBRANCH  61  75
BRANCH  62  83
ATOM     83  C   UNL A   1      41.984  23.980  27.173  1.00  0.00     0.057 A 
ATOM     84  C   UNL A   1      42.536  23.021  26.310  1.00  0.00     0.134 A 
ATOM     85  C   UNL A   1      40.636  23.781  27.525  1.00  0.00     0.134 A 
ATOM     86  F   UNL A   1      43.824  23.096  25.943  1.00  0.00    -0.206 F 
ATOM     87  C   UNL A   1      41.803  21.918  25.850  1.00  0.00     0.040 A 
ATOM     88  C   UNL A   1      39.889  22.691  27.062  1.00  0.00     0.040 A 
ATOM     89  F   UNL A   1      40.016  24.586  28.399  1.00  0.00    -0.206 F 
ATOM     90  C   UNL A   1      40.477  21.745  26.235  1.00  0.00     0.006 A 
ENDBRANCH  62  83
BRANCH  74  91
ATOM     91  C   UNL A   1      47.286  26.853  28.881  1.00  0.00     0.057 A 
ATOM     92  C   UNL A   1      46.825  28.005  28.223  1.00  0.00     0.134 A 
ATOM     93  C   UNL A   1      48.544  26.375  28.499  1.00  0.00     0.134 A 
ATOM     94  F   UNL A   1      45.686  28.603  28.585  1.00  0.00    -0.206 F 
ATOM     95  C   UNL A   1      47.560  28.623  27.206  1.00  0.00     0.040 A 
ATOM     96  C   UNL A   1      49.304  27.004  27.510  1.00  0.00     0.040 A 
ATOM     97  F   UNL A   1      49.082  25.315  29.124  1.00  0.00    -0.206 F 
ATOM     98  C   UNL A   1      48.808  28.126  26.852  1.00  0.00     0.006 A 
ENDBRANCH  74  91
ENDBRANCH  48  49
ENDBRANCH  40  43
ENDBRANCH  38  39
ENDBRANCH  37  38
ENDBRANCH  36  37
ENDBRANCH  35  36
ENDBRANCH   1  35
TORSDOF 18
ENDMDL
MODEL 3
REMARK VINA RESULT:     -11.6      2.791      5.897
REMARK SMILES O=C1NC(=S)S/C1=C\c1ccc(OCc2cn(-c3ccc(C(=O)NCCCCCCNC(=O)c4ccc(-c5c6nc(c(-c7c(F)cccc7F)c7ccc([nH]7)c(-c7c(F)cccc7F)c7nc(c(-c8c(F)cccc8F)c8ccc5[nH]8)C=C7)C=C6)cc4)cc3)nn2)cc1
REMARK SMILES IDX 26 1 25 2 24 3 22 4 23 5 21 7 18 8 19 9 89 10 20 11 88 12
REMARK SMILES IDX 17 13 15 14 16 15 91 16 90 17 14 18 13 19 12 20 9 21 10 22
REMARK SMILES IDX 93 23 11 24 92 25 8 26 1 27 2 28 3 29 7 30 4 31 6 33 5 34
REMARK SMILES IDX 27 35 28 36 29 37 30 38 31 39 32 40 33 42 34 43 35 44 87 45
REMARK SMILES IDX 36 46 86 47 37 48 38 49 39 50 80 51 40 52 85 53 79 54 81 55
REMARK SMILES IDX 41 56 84 57 78 58 77 59 42 61 68 62 51 63 67 64 52 65 55 66
REMARK SMILES IDX 66 67 82 68 53 69 54 70 65 72 83 73 56 74 43 75 44 76 49 77
REMARK SMILES IDX 45 78 46 79 48 80 50 81 47 82 69 83 70 84 75 85 71 86 72 87
REMARK SMILES IDX 74 88 76 89 73 90 57 91 58 92 63 93 59 94 60 95 62 96 64 97
REMARK SMILES IDX 61 98
REMARK H PARENT 24 6 3 32 31 41 81 60 55 71
REMARK Flexibility Score: inf
ROOT
ATOM      1  C   UNL A   1      43.754  23.396  29.677  1.00  0.00     0.021 C 
ENDROOT
BRANCH   1   2
ATOM      2  C   UNL A   1      42.644  22.696  28.889  1.00  0.00     0.116 C 
BRANCH   2   3
ATOM      3  N   UNL A   1      43.008  22.628  27.488  1.00  0.00    -0.352 N 
ATOM      4  C   UNL A   1      42.274  22.517  26.338  1.00  0.00     0.251 C 
ATOM      5  O   UNL A   1      42.895  22.430  25.278  1.00  0.00    -0.269 OA
ATOM      6  H   UNL A   1      43.979  22.670  27.333  1.00  0.00     0.163 HD
BRANCH   4   7
ATOM      7  C   UNL A   1      40.785  22.578  26.305  1.00  0.00     0.039 A 
ATOM      8  C   UNL A   1      38.001  22.544  25.957  1.00  0.00     0.066 A 
ATOM      9  C   UNL A   1      38.727  21.352  25.873  1.00  0.00     0.029 A 
ATOM     10  C   UNL A   1      38.646  23.735  26.293  1.00  0.00     0.029 A 
ATOM     11  C   UNL A   1      40.115  21.379  26.012  1.00  0.00     0.016 A 
ATOM     12  C   UNL A   1      40.023  23.727  26.533  1.00  0.00     0.016 A 
BRANCH   8  13
ATOM     13  N   UNL A   1      36.612  22.529  25.718  1.00  0.00    -0.220 N 
ATOM     14  C   UNL A   1      34.577  22.081  25.072  1.00  0.00     0.120 A 
ATOM     15  C   UNL A   1      35.868  21.597  25.030  1.00  0.00     0.144 A 
ATOM     16  N   UNL A   1      34.573  23.238  25.805  1.00  0.00    -0.131 NA
ATOM     17  N   UNL A   1      35.802  23.484  26.220  1.00  0.00    -0.062 NA
BRANCH  14  18
ATOM     18  C   UNL A   1      33.295  21.503  24.567  1.00  0.00     0.289 C 
BRANCH  18  19
ATOM     19  O   UNL A   1      32.950  21.850  23.215  1.00  0.00    -0.487 OA
BRANCH  19  20
ATOM     20  C   UNL A   1      32.302  23.035  22.990  1.00  0.00     0.119 A 
ATOM     21  C   UNL A   1      31.339  25.654  22.663  1.00  0.00    -0.024 A 
ATOM     22  C   UNL A   1      32.519  25.258  22.031  1.00  0.00     0.012 A 
ATOM     23  C   UNL A   1      30.596  24.708  23.370  1.00  0.00     0.012 A 
ATOM     24  C   UNL A   1      32.999  23.953  22.200  1.00  0.00     0.047 A 
ATOM     25  C   UNL A   1      31.061  23.398  23.505  1.00  0.00     0.047 A 
BRANCH  21  26
ATOM     26  C   UNL A   1      30.884  27.044  22.613  1.00  0.00     0.029 C 
ATOM     27  O   UNL A   1      29.871  29.775  22.601  1.00  0.00    -0.268 OA
ATOM     28  C   UNL A   1      30.581  29.339  23.491  1.00  0.00     0.263 C 
ATOM     29  N   UNL A   1      30.974  30.047  24.592  1.00  0.00    -0.307 N 
ATOM     30  C   UNL A   1      31.141  27.962  23.556  1.00  0.00     0.080 C 
ATOM     31  C   UNL A   1      31.775  29.428  25.502  1.00  0.00     0.145 C 
ATOM     32  H   UNL A   1      30.685  30.979  24.723  1.00  0.00     0.171 HD
ATOM     33  S   UNL A   1      32.094  27.789  24.988  1.00  0.00    -0.055 SA
ATOM     34  S   UNL A   1      32.342  30.164  26.873  1.00  0.00    -0.052 S 
ENDBRANCH  21  26
ENDBRANCH  19  20
ENDBRANCH  18  19
ENDBRANCH  14  18
ENDBRANCH   8  13
ENDBRANCH   4   7
ENDBRANCH   2   3
ENDBRANCH   1   2
BRANCH   1  35
ATOM     35  C   UNL A   1      43.893  24.881  29.317  1.00  0.00     0.002 C 
BRANCH  35  36
ATOM     36  C   UNL A   1      45.256  25.285  28.733  1.00  0.00     0.002 C 
BRANCH  36  37
ATOM     37  C   UNL A   1      45.509  24.864  27.277  1.00  0.00     0.021 C 
BRANCH  37  38
ATOM     38  C   UNL A   1      45.519  26.037  26.310  1.00  0.00     0.116 C 
BRANCH  38  39
ATOM     39  N   UNL A   1      44.477  25.902  25.293  1.00  0.00    -0.352 N 
ATOM     40  C   UNL A   1      43.122  26.142  25.400  1.00  0.00     0.251 C 
ATOM     41  H   UNL A   1      44.785  25.599  24.409  1.00  0.00     0.163 HD
ATOM     42  O   UNL A   1      42.332  25.666  24.606  1.00  0.00    -0.269 OA
BRANCH  40  43
ATOM     43  C   UNL A   1      42.648  26.993  26.503  1.00  0.00     0.039 A 
ATOM     44  C   UNL A   1      41.690  26.530  27.409  1.00  0.00     0.014 A 
ATOM     45  C   UNL A   1      43.203  28.262  26.631  1.00  0.00     0.014 A 
ATOM     46  C   UNL A   1      41.352  27.330  28.496  1.00  0.00     0.010 A 
ATOM     47  C   UNL A   1      42.987  28.978  27.778  1.00  0.00     0.010 A 
ATOM     48  C   UNL A   1      42.020  28.547  28.684  1.00  0.00    -0.014 A 
BRANCH  48  49
ATOM     49  C   UNL A   1      41.803  29.351  29.881  1.00  0.00     0.031 A 
ATOM     50  C   UNL A   1      40.580  30.204  29.863  1.00  0.00     0.074 A 
ATOM     51  C   UNL A   1      42.508  29.133  31.012  1.00  0.00     0.049 A 
ATOM     52  N   UNL A   1      40.513  31.488  29.983  1.00  0.00    -0.248 NA
ATOM     53  C   UNL A   1      39.283  29.570  29.569  1.00  0.00     0.031 C 
ATOM     54  C   UNL A   1      43.543  28.119  31.253  1.00  0.00     0.029 A 
ATOM     55  N   UNL A   1      42.345  29.683  32.243  1.00  0.00    -0.354 N 
ATOM     56  C   UNL A   1      39.158  31.811  29.978  1.00  0.00     0.074 A 
ATOM     57  C   UNL A   1      38.463  30.623  29.555  1.00  0.00     0.031 C 
ATOM     58  C   UNL A   1      43.713  27.955  32.582  1.00  0.00     0.029 A 
ATOM     59  C   UNL A   1      42.929  28.958  33.277  1.00  0.00     0.049 A 
ATOM     60  H   UNL A   1      41.855  30.524  32.392  1.00  0.00     0.167 HD
ATOM     61  C   UNL A   1      38.703  32.963  30.548  1.00  0.00     0.037 A 
ATOM     62  C   UNL A   1      42.739  29.144  34.606  1.00  0.00     0.037 A 
ATOM     63  C   UNL A   1      39.783  33.892  30.771  1.00  0.00     0.049 A 
ATOM     64  C   UNL A   1      42.207  30.520  34.780  1.00  0.00     0.074 A 
ATOM     65  C   UNL A   1      40.719  34.501  29.958  1.00  0.00     0.029 A 
ATOM     66  N   UNL A   1      40.260  34.025  32.053  1.00  0.00    -0.354 N 
ATOM     67  N   UNL A   1      42.904  31.598  34.549  1.00  0.00    -0.248 NA
ATOM     68  C   UNL A   1      40.762  30.696  34.751  1.00  0.00     0.031 C 
ATOM     69  C   UNL A   1      41.921  34.499  30.724  1.00  0.00     0.029 A 
ATOM     70  C   UNL A   1      41.628  33.965  31.979  1.00  0.00     0.049 A 
ATOM     71  H   UNL A   1      39.722  34.141  32.869  1.00  0.00     0.167 HD
ATOM     72  C   UNL A   1      42.021  32.458  33.913  1.00  0.00     0.074 A 
ATOM     73  C   UNL A   1      40.695  31.888  34.151  1.00  0.00     0.031 C 
ATOM     74  C   UNL A   1      42.460  33.376  33.001  1.00  0.00     0.037 A 
BRANCH  61  75
ATOM     75  C   UNL A   1      37.373  33.114  31.246  1.00  0.00     0.057 A 
ATOM     76  C   UNL A   1      37.122  32.362  32.410  1.00  0.00     0.134 A 
ATOM     77  C   UNL A   1      36.237  33.713  30.666  1.00  0.00     0.134 A 
ATOM     78  F   UNL A   1      38.119  31.738  33.055  1.00  0.00    -0.206 F 
ATOM     79  C   UNL A   1      35.829  32.146  32.901  1.00  0.00     0.040 A 
ATOM     80  C   UNL A   1      34.948  33.546  31.179  1.00  0.00     0.040 A 
ATOM     81  F   UNL A   1      36.294  34.401  29.519  1.00  0.00    -0.206 F 
ATOM     82  C   UNL A   1      34.735  32.731  32.278  1.00  0.00     0.006 A 
ENDBRANCH  61  75
BRANCH  62  83
ATOM     83  C   UNL A   1      42.737  28.134  35.692  1.00  0.00     0.057 A 
ATOM     84  C   UNL A   1      41.933  26.988  35.611  1.00  0.00     0.134 A 
ATOM     85  C   UNL A   1      43.708  28.129  36.711  1.00  0.00     0.134 A 
ATOM     86  F   UNL A   1      41.002  26.874  34.652  1.00  0.00    -0.206 F 
ATOM     87  C   UNL A   1      42.102  25.893  36.471  1.00  0.00     0.040 A 
ATOM     88  C   UNL A   1      43.879  27.048  37.584  1.00  0.00     0.040 A 
ATOM     89  F   UNL A   1      44.584  29.134  36.846  1.00  0.00    -0.206 F 
ATOM     90  C   UNL A   1      43.085  25.917  37.455  1.00  0.00     0.006 A 
ENDBRANCH  62  83
BRANCH  74  91
ATOM     91  C   UNL A   1      43.942  33.599  32.869  1.00  0.00     0.057 A 
ATOM     92  C   UNL A   1      44.768  32.898  31.976  1.00  0.00     0.134 A 
ATOM     93  C   UNL A   1      44.522  34.679  33.543  1.00  0.00     0.134 A 
ATOM     94  F   UNL A   1      44.285  31.918  31.206  1.00  0.00    -0.206 F 
ATOM     95  C   UNL A   1      46.115  33.228  31.796  1.00  0.00     0.040 A 
ATOM     96  C   UNL A   1      45.856  35.042  33.345  1.00  0.00     0.040 A 
ATOM     97  F   UNL A   1      43.781  35.437  34.368  1.00  0.00    -0.206 F 
ATOM     98  C   UNL A   1      46.661  34.309  32.478  1.00  0.00     0.006 A 
ENDBRANCH  74  91
ENDBRANCH  48  49
ENDBRANCH  40  43
ENDBRANCH  38  39
ENDBRANCH  37  38
ENDBRANCH  36  37
ENDBRANCH  35  36
ENDBRANCH   1  35
TORSDOF 18
ENDMDL
