MODEL 1
REMARK VINA RESULT:     -12.5      0.000      0.000
REMARK SMILES Cc1cc(C(=O)NCCCCCCNC(=O)c2ccc(-c3c4nc(c(-c5c(F)cccc5F)c5ccc([nH]5)c(-c5c(F)cccc5F)c5nc(c(-c6c(F)cccc6F)c6ccc3[nH]6)C=C5)C=C4)cc2)cc(S(=O)(=O)NNC(=O)c2c[nH]c3ccccc23)c1C
REMARK SMILES IDX 9 1 8 2 7 3 5 4 6 5 4 7 1 8 2 9 3 10 89 11 72 12 90 13 71 14
REMARK SMILES IDX 73 15 74 16 75 17 76 18 77 20 78 21 79 23 80 24 81 25 88 26
REMARK SMILES IDX 82 27 83 28 87 29 84 31 86 32 85 33 10 34 11 35 12 36 13 37
REMARK SMILES IDX 14 38 15 39 16 41 17 42 18 43 70 44 19 45 69 46 20 47 21 48
REMARK SMILES IDX 22 49 63 50 23 51 68 52 62 53 64 54 24 55 67 56 61 57 60 58
REMARK SMILES IDX 25 60 51 61 34 62 50 63 35 64 38 65 49 66 65 67 36 68 37 69
REMARK SMILES IDX 48 71 66 72 39 73 26 74 27 75 32 76 28 77 29 78 31 79 33 80
REMARK SMILES IDX 30 81 52 82 53 83 58 84 54 85 55 86 57 87 59 88 56 89 40 90
REMARK SMILES IDX 41 91 46 92 42 93 43 94 45 95 47 96 44 97
REMARK H PARENT 7 6 76 19 77 22 82 30 14 40 64 59 38 70
REMARK Flexibility Score: inf
ROOT
ATOM      1  C   UNL A   1      35.233  31.538  28.381  1.00  0.00     0.021 C 
ENDROOT
BRANCH   1   2
ATOM      2  C   UNL A   1      34.290  30.702  27.509  1.00  0.00     0.116 C 
BRANCH   2   3
ATOM      3  N   UNL A   1      33.094  31.458  27.178  1.00  0.00    -0.352 N 
ATOM      4  C   UNL A   1      31.929  31.168  26.518  1.00  0.00     0.251 C 
ATOM      5  O   UNL A   1      31.111  32.084  26.399  1.00  0.00    -0.269 OA
ATOM      6  H   UNL A   1      33.129  32.388  27.500  1.00  0.00     0.163 HD
BRANCH   4   7
ATOM      7  C   UNL A   1      31.562  29.828  25.972  1.00  0.00     0.041 A 
ATOM      8  C   UNL A   1      31.578  26.141  26.902  1.00  0.00     0.044 C 
ATOM      9  C   UNL A   1      31.366  27.389  26.083  1.00  0.00    -0.046 A 
ATOM     10  C   UNL A   1      31.828  28.611  26.603  1.00  0.00     0.017 A 
ATOM     11  C   UNL A   1      30.728  27.364  24.825  1.00  0.00    -0.028 A 
ATOM     12  C   UNL A   1      30.592  28.585  24.114  1.00  0.00     0.088 A 
ATOM     13  C   UNL A   1      30.215  26.068  24.241  1.00  0.00     0.046 C 
ATOM     14  C   UNL A   1      30.954  29.799  24.706  1.00  0.00     0.036 A 
BRANCH  12  15
ATOM     15  S   UNL A   1      30.126  28.528  22.396  1.00  0.00     0.257 S 
ATOM     16  O   UNL A   1      28.670  28.369  22.383  1.00  0.00    -0.205 OA
ATOM     17  O   UNL A   1      30.758  29.638  21.733  1.00  0.00    -0.205 OA
BRANCH  15  18
ATOM     18  N   UNL A   1      30.801  27.142  21.679  1.00  0.00    -0.123 NA
ATOM     19  H   UNL A   1      30.390  27.067  20.748  1.00  0.00     0.167 HD
BRANCH  18  20
ATOM     20  N   UNL A   1      32.256  27.019  21.505  1.00  0.00    -0.273 N 
ATOM     21  C   UNL A   1      32.854  25.765  21.477  1.00  0.00     0.268 C 
ATOM     22  H   UNL A   1      32.809  27.828  21.410  1.00  0.00     0.186 HD
ATOM     23  O   UNL A   1      33.335  25.310  20.443  1.00  0.00    -0.268 OA
BRANCH  21  24
ATOM     24  C   UNL A   1      33.161  25.227  22.803  1.00  0.00     0.066 A 
ATOM     25  C   UNL A   1      33.876  25.870  23.797  1.00  0.00     0.097 A 
ATOM     26  C   UNL A   1      32.993  23.883  23.276  1.00  0.00     0.012 A 
ATOM     27  N   UNL A   1      34.566  24.900  24.471  1.00  0.00    -0.360 N 
ATOM     28  C   UNL A   1      34.045  23.669  24.170  1.00  0.00     0.046 A 
ATOM     29  C   UNL A   1      32.171  22.785  22.946  1.00  0.00     0.011 A 
ATOM     30  H   UNL A   1      35.322  25.062  25.081  1.00  0.00     0.166 HD
ATOM     31  C   UNL A   1      34.437  22.398  24.595  1.00  0.00     0.027 A 
ATOM     32  C   UNL A   1      32.465  21.524  23.483  1.00  0.00     0.001 A 
ATOM     33  C   UNL A   1      33.615  21.326  24.243  1.00  0.00     0.002 A 
ENDBRANCH  21  24
ENDBRANCH  18  20
ENDBRANCH  15  18
ENDBRANCH  12  15
ENDBRANCH   4   7
ENDBRANCH   2   3
ENDBRANCH   1   2
BRANCH   1  34
ATOM     34  C   UNL A   1      34.493  32.452  29.372  1.00  0.00     0.002 C 
BRANCH  34  35
ATOM     35  C   UNL A   1      34.626  33.956  29.093  1.00  0.00     0.002 C 
BRANCH  35  36
ATOM     36  C   UNL A   1      33.311  34.739  29.085  1.00  0.00     0.021 C 
BRANCH  36  37
ATOM     37  C   UNL A   1      33.403  36.148  29.667  1.00  0.00     0.116 C 
BRANCH  37  38
ATOM     38  N   UNL A   1      32.523  36.322  30.812  1.00  0.00    -0.352 N 
ATOM     39  C   UNL A   1      32.598  35.766  32.065  1.00  0.00     0.251 C 
ATOM     40  H   UNL A   1      31.761  36.929  30.667  1.00  0.00     0.163 HD
ATOM     41  O   UNL A   1      31.651  35.866  32.839  1.00  0.00    -0.269 OA
BRANCH  39  42
ATOM     42  C   UNL A   1      33.813  35.036  32.483  1.00  0.00     0.039 A 
ATOM     43  C   UNL A   1      33.686  33.724  32.949  1.00  0.00     0.014 A 
ATOM     44  C   UNL A   1      35.068  35.649  32.448  1.00  0.00     0.014 A 
ATOM     45  C   UNL A   1      34.824  33.008  33.327  1.00  0.00     0.010 A 
ATOM     46  C   UNL A   1      36.209  34.915  32.767  1.00  0.00     0.010 A 
ATOM     47  C   UNL A   1      36.097  33.589  33.213  1.00  0.00    -0.014 A 
BRANCH  47  48
ATOM     48  C   UNL A   1      37.324  32.827  33.556  1.00  0.00     0.031 A 
ATOM     49  C   UNL A   1      38.073  33.131  34.824  1.00  0.00     0.074 A 
ATOM     50  C   UNL A   1      37.799  31.904  32.697  1.00  0.00     0.049 A 
ATOM     51  N   UNL A   1      39.204  32.634  35.256  1.00  0.00    -0.248 NA
ATOM     52  C   UNL A   1      37.484  34.145  35.713  1.00  0.00     0.031 C 
ATOM     53  C   UNL A   1      37.188  31.548  31.414  1.00  0.00     0.029 A 
ATOM     54  N   UNL A   1      38.915  31.109  32.766  1.00  0.00    -0.354 N 
ATOM     55  C   UNL A   1      39.468  33.282  36.456  1.00  0.00     0.074 A 
ATOM     56  C   UNL A   1      38.405  34.242  36.661  1.00  0.00     0.031 C 
ATOM     57  C   UNL A   1      37.929  30.596  30.825  1.00  0.00     0.029 A 
ATOM     58  C   UNL A   1      39.083  30.299  31.668  1.00  0.00     0.049 A 
ATOM     59  H   UNL A   1      39.536  31.117  33.529  1.00  0.00     0.167 HD
ATOM     60  C   UNL A   1      40.492  33.080  37.320  1.00  0.00     0.037 A 
ATOM     61  C   UNL A   1      40.061  29.423  31.372  1.00  0.00     0.037 A 
ATOM     62  C   UNL A   1      41.534  32.107  37.128  1.00  0.00     0.049 A 
ATOM     63  C   UNL A   1      41.185  29.216  32.349  1.00  0.00     0.074 A 
ATOM     64  C   UNL A   1      42.588  31.795  37.970  1.00  0.00     0.029 A 
ATOM     65  N   UNL A   1      41.653  31.286  36.018  1.00  0.00    -0.354 N 
ATOM     66  N   UNL A   1      41.392  29.798  33.506  1.00  0.00    -0.248 NA
ATOM     67  C   UNL A   1      42.208  28.227  31.983  1.00  0.00     0.031 C 
ATOM     68  C   UNL A   1      43.364  30.808  37.354  1.00  0.00     0.029 A 
ATOM     69  C   UNL A   1      42.770  30.477  36.146  1.00  0.00     0.049 A 
ATOM     70  H   UNL A   1      41.035  31.280  35.252  1.00  0.00     0.167 HD
ATOM     71  C   UNL A   1      42.550  29.228  34.016  1.00  0.00     0.074 A 
ATOM     72  C   UNL A   1      42.993  28.244  33.050  1.00  0.00     0.031 C 
ATOM     73  C   UNL A   1      43.191  29.496  35.180  1.00  0.00     0.037 A 
BRANCH  60  74
ATOM     74  C   UNL A   1      40.526  33.922  38.562  1.00  0.00     0.057 A 
ATOM     75  C   UNL A   1      41.253  35.119  38.618  1.00  0.00     0.134 A 
ATOM     76  C   UNL A   1      39.794  33.556  39.698  1.00  0.00     0.134 A 
ATOM     77  F   UNL A   1      41.984  35.520  37.569  1.00  0.00    -0.206 F 
ATOM     78  C   UNL A   1      41.266  35.911  39.767  1.00  0.00     0.040 A 
ATOM     79  C   UNL A   1      39.780  34.353  40.844  1.00  0.00     0.040 A 
ATOM     80  F   UNL A   1      39.073  32.425  39.710  1.00  0.00    -0.206 F 
ATOM     81  C   UNL A   1      40.521  35.532  40.883  1.00  0.00     0.006 A 
ENDBRANCH  60  74
BRANCH  61  82
ATOM     82  C   UNL A   1      40.016  28.659  30.100  1.00  0.00     0.057 A 
ATOM     83  C   UNL A   1      39.308  27.455  30.005  1.00  0.00     0.134 A 
ATOM     84  C   UNL A   1      40.690  29.103  28.957  1.00  0.00     0.134 A 
ATOM     85  F   UNL A   1      38.659  26.969  31.074  1.00  0.00    -0.206 F 
ATOM     86  C   UNL A   1      39.290  26.709  28.827  1.00  0.00     0.040 A 
ATOM     87  C   UNL A   1      40.660  28.379  27.764  1.00  0.00     0.040 A 
ATOM     88  F   UNL A   1      41.379  30.254  28.979  1.00  0.00    -0.206 F 
ATOM     89  C   UNL A   1      39.965  27.174  27.700  1.00  0.00     0.006 A 
ENDBRANCH  61  82
BRANCH  73  90
ATOM     90  C   UNL A   1      44.417  28.690  35.488  1.00  0.00     0.057 A 
ATOM     91  C   UNL A   1      45.695  29.116  35.108  1.00  0.00     0.134 A 
ATOM     92  C   UNL A   1      44.319  27.492  36.207  1.00  0.00     0.134 A 
ATOM     93  F   UNL A   1      45.854  30.248  34.405  1.00  0.00    -0.206 F 
ATOM     94  C   UNL A   1      46.833  28.367  35.414  1.00  0.00     0.040 A 
ATOM     95  C   UNL A   1      45.452  26.747  36.540  1.00  0.00     0.040 A 
ATOM     96  F   UNL A   1      43.125  27.033  36.609  1.00  0.00    -0.206 F 
ATOM     97  C   UNL A   1      46.713  27.182  36.138  1.00  0.00     0.006 A 
ENDBRANCH  73  90
ENDBRANCH  47  48
ENDBRANCH  39  42
ENDBRANCH  37  38
ENDBRANCH  36  37
ENDBRANCH  35  36
ENDBRANCH  34  35
ENDBRANCH   1  34
TORSDOF 17
ENDMDL
MODEL 2
REMARK VINA RESULT:     -12.3      3.199      8.683
REMARK SMILES Cc1cc(C(=O)NCCCCCCNC(=O)c2ccc(-c3c4nc(c(-c5c(F)cccc5F)c5ccc([nH]5)c(-c5c(F)cccc5F)c5nc(c(-c6c(F)cccc6F)c6ccc3[nH]6)C=C5)C=C4)cc2)cc(S(=O)(=O)NNC(=O)c2c[nH]c3ccccc23)c1C
REMARK SMILES IDX 9 1 8 2 7 3 5 4 6 5 4 7 1 8 2 9 3 10 89 11 72 12 90 13 71 14
REMARK SMILES IDX 73 15 74 16 75 17 76 18 77 20 78 21 79 23 80 24 81 25 88 26
REMARK SMILES IDX 82 27 83 28 87 29 84 31 86 32 85 33 10 34 11 35 12 36 13 37
REMARK SMILES IDX 14 38 15 39 16 41 17 42 18 43 70 44 19 45 69 46 20 47 21 48
REMARK SMILES IDX 22 49 63 50 23 51 68 52 62 53 64 54 24 55 67 56 61 57 60 58
REMARK SMILES IDX 25 60 51 61 34 62 50 63 35 64 38 65 49 66 65 67 36 68 37 69
REMARK SMILES IDX 48 71 66 72 39 73 26 74 27 75 32 76 28 77 29 78 31 79 33 80
REMARK SMILES IDX 30 81 52 82 53 83 58 84 54 85 55 86 57 87 59 88 56 89 40 90
REMARK SMILES IDX 41 91 46 92 42 93 43 94 45 95 47 96 44 97
REMARK H PARENT 7 6 76 19 77 22 82 30 14 40 64 59 38 70
REMARK Flexibility Score: inf
ROOT
ATOM      1  C   UNL A   1      38.860  19.689  25.398  1.00  0.00     0.021 C 
ENDROOT
BRANCH   1   2
ATOM      2  C   UNL A   1      37.708  20.593  24.944  1.00  0.00     0.116 C 
BRANCH   2   3
ATOM      3  N   UNL A   1      37.927  21.960  25.385  1.00  0.00    -0.352 N 
ATOM      4  C   UNL A   1      37.106  23.025  25.649  1.00  0.00     0.251 C 
ATOM      5  O   UNL A   1      37.650  24.076  25.996  1.00  0.00    -0.269 OA
ATOM      6  H   UNL A   1      38.879  22.168  25.524  1.00  0.00     0.163 HD
BRANCH   4   7
ATOM      7  C   UNL A   1      35.615  22.996  25.587  1.00  0.00     0.041 A 
ATOM      8  C   UNL A   1      32.558  22.706  27.829  1.00  0.00     0.044 C 
ATOM      9  C   UNL A   1      33.378  22.842  26.571  1.00  0.00    -0.046 A 
ATOM     10  C   UNL A   1      34.778  22.756  26.677  1.00  0.00     0.017 A 
ATOM     11  C   UNL A   1      32.787  23.047  25.307  1.00  0.00    -0.028 A 
ATOM     12  C   UNL A   1      33.636  23.140  24.174  1.00  0.00     0.088 A 
ATOM     13  C   UNL A   1      31.286  23.149  25.160  1.00  0.00     0.046 C 
ATOM     14  C   UNL A   1      35.025  23.170  24.324  1.00  0.00     0.036 A 
BRANCH  12  15
ATOM     15  S   UNL A   1      32.911  23.037  22.550  1.00  0.00     0.257 S 
ATOM     16  O   UNL A   1      33.978  23.397  21.613  1.00  0.00    -0.205 OA
ATOM     17  O   UNL A   1      32.231  21.772  22.452  1.00  0.00    -0.205 OA
BRANCH  15  18
ATOM     18  N   UNL A   1      31.686  24.208  22.409  1.00  0.00    -0.123 NA
ATOM     19  H   UNL A   1      31.448  24.494  23.359  1.00  0.00     0.167 HD
BRANCH  18  20
ATOM     20  N   UNL A   1      31.911  25.443  21.644  1.00  0.00    -0.273 N 
ATOM     21  C   UNL A   1      32.614  26.500  22.209  1.00  0.00     0.268 C 
ATOM     22  H   UNL A   1      31.560  25.522  20.727  1.00  0.00     0.186 HD
ATOM     23  O   UNL A   1      33.733  26.807  21.811  1.00  0.00    -0.268 OA
BRANCH  21  24
ATOM     24  C   UNL A   1      31.788  27.387  23.030  1.00  0.00     0.066 A 
ATOM     25  C   UNL A   1      30.950  28.383  22.561  1.00  0.00     0.097 A 
ATOM     26  C   UNL A   1      31.825  27.571  24.452  1.00  0.00     0.012 A 
ATOM     27  N   UNL A   1      30.980  29.387  23.490  1.00  0.00    -0.360 N 
ATOM     28  C   UNL A   1      31.514  28.916  24.661  1.00  0.00     0.046 A 
ATOM     29  C   UNL A   1      32.226  26.803  25.565  1.00  0.00     0.011 A 
ATOM     30  H   UNL A   1      30.666  30.308  23.340  1.00  0.00     0.166 HD
ATOM     31  C   UNL A   1      31.764  29.577  25.866  1.00  0.00     0.027 A 
ATOM     32  C   UNL A   1      32.342  27.422  26.818  1.00  0.00     0.001 A 
ATOM     33  C   UNL A   1      32.174  28.798  26.949  1.00  0.00     0.002 A 
ENDBRANCH  21  24
ENDBRANCH  18  20
ENDBRANCH  15  18
ENDBRANCH  12  15
ENDBRANCH   4   7
ENDBRANCH   2   3
ENDBRANCH   1   2
BRANCH   1  34
ATOM     34  C   UNL A   1      39.946  20.438  26.187  1.00  0.00     0.002 C 
BRANCH  34  35
ATOM     35  C   UNL A   1      41.349  19.820  26.109  1.00  0.00     0.002 C 
BRANCH  35  36
ATOM     36  C   UNL A   1      42.509  20.816  26.189  1.00  0.00     0.021 C 
BRANCH  36  37
ATOM     37  C   UNL A   1      42.172  22.229  25.718  1.00  0.00     0.116 C 
BRANCH  37  38
ATOM     38  N   UNL A   1      43.293  22.857  25.036  1.00  0.00    -0.352 N 
ATOM     39  C   UNL A   1      43.820  24.114  25.196  1.00  0.00     0.251 C 
ATOM     40  H   UNL A   1      43.740  22.298  24.360  1.00  0.00     0.163 HD
ATOM     41  O   UNL A   1      44.636  24.546  24.388  1.00  0.00    -0.269 OA
BRANCH  39  42
ATOM     42  C   UNL A   1      43.400  24.958  26.335  1.00  0.00     0.039 A 
ATOM     43  C   UNL A   1      43.898  26.260  26.431  1.00  0.00     0.014 A 
ATOM     44  C   UNL A   1      42.543  24.460  27.321  1.00  0.00     0.014 A 
ATOM     45  C   UNL A   1      43.494  27.082  27.485  1.00  0.00     0.010 A 
ATOM     46  C   UNL A   1      42.094  25.299  28.338  1.00  0.00     0.010 A 
ATOM     47  C   UNL A   1      42.567  26.617  28.432  1.00  0.00    -0.014 A 
BRANCH  47  48
ATOM     48  C   UNL A   1      42.083  27.493  29.529  1.00  0.00     0.031 A 
ATOM     49  C   UNL A   1      42.747  27.453  30.877  1.00  0.00     0.074 A 
ATOM     50  C   UNL A   1      41.006  28.277  29.330  1.00  0.00     0.049 A 
ATOM     51  N   UNL A   1      42.419  28.077  31.980  1.00  0.00    -0.248 NA
ATOM     52  C   UNL A   1      43.922  26.577  31.010  1.00  0.00     0.031 C 
ATOM     53  C   UNL A   1      40.247  28.372  28.082  1.00  0.00     0.029 A 
ATOM     54  N   UNL A   1      40.353  29.132  30.182  1.00  0.00    -0.354 N 
ATOM     55  C   UNL A   1      43.336  27.661  32.937  1.00  0.00     0.074 A 
ATOM     56  C   UNL A   1      44.204  26.695  32.300  1.00  0.00     0.031 C 
ATOM     57  C   UNL A   1      39.241  29.247  28.245  1.00  0.00     0.029 A 
ATOM     58  C   UNL A   1      39.263  29.748  29.616  1.00  0.00     0.049 A 
ATOM     59  H   UNL A   1      40.638  29.289  31.111  1.00  0.00     0.167 HD
ATOM     60  C   UNL A   1      43.457  28.065  34.225  1.00  0.00     0.037 A 
ATOM     61  C   UNL A   1      38.376  30.611  30.146  1.00  0.00     0.037 A 
ATOM     62  C   UNL A   1      42.609  29.045  34.850  1.00  0.00     0.049 A 
ATOM     63  C   UNL A   1      38.534  31.044  31.577  1.00  0.00     0.074 A 
ATOM     64  C   UNL A   1      42.683  29.554  36.136  1.00  0.00     0.029 A 
ATOM     65  N   UNL A   1      41.535  29.667  34.235  1.00  0.00    -0.354 N 
ATOM     66  N   UNL A   1      39.439  30.682  32.454  1.00  0.00    -0.248 NA
ATOM     67  C   UNL A   1      37.552  32.009  32.090  1.00  0.00     0.031 C 
ATOM     68  C   UNL A   1      41.631  30.461  36.309  1.00  0.00     0.029 A 
ATOM     69  C   UNL A   1      40.928  30.546  35.117  1.00  0.00     0.049 A 
ATOM     70  H   UNL A   1      41.245  29.508  33.308  1.00  0.00     0.167 HD
ATOM     71  C   UNL A   1      39.152  31.394  33.611  1.00  0.00     0.074 A 
ATOM     72  C   UNL A   1      37.998  32.219  33.320  1.00  0.00     0.031 C 
ATOM     73  C   UNL A   1      39.786  31.366  34.808  1.00  0.00     0.037 A 
BRANCH  60  74
ATOM     74  C   UNL A   1      44.557  27.453  35.042  1.00  0.00     0.057 A 
ATOM     75  C   UNL A   1      45.831  28.034  35.112  1.00  0.00     0.134 A 
ATOM     76  C   UNL A   1      44.331  26.298  35.799  1.00  0.00     0.134 A 
ATOM     77  F   UNL A   1      46.116  29.134  34.401  1.00  0.00    -0.206 F 
ATOM     78  C   UNL A   1      46.846  27.475  35.890  1.00  0.00     0.040 A 
ATOM     79  C   UNL A   1      45.331  25.743  36.600  1.00  0.00     0.040 A 
ATOM     80  F   UNL A   1      43.134  25.694  35.782  1.00  0.00    -0.206 F 
ATOM     81  C   UNL A   1      46.594  26.329  36.643  1.00  0.00     0.006 A 
ENDBRANCH  60  74
BRANCH  61  82
ATOM     82  C   UNL A   1      37.265  31.140  29.315  1.00  0.00     0.057 A 
ATOM     83  C   UNL A   1      37.309  32.438  28.793  1.00  0.00     0.134 A 
ATOM     84  C   UNL A   1      36.130  30.370  29.037  1.00  0.00     0.134 A 
ATOM     85  F   UNL A   1      38.363  33.229  29.042  1.00  0.00    -0.206 F 
ATOM     86  C   UNL A   1      36.254  32.960  28.042  1.00  0.00     0.040 A 
ATOM     87  C   UNL A   1      35.079  30.871  28.267  1.00  0.00     0.040 A 
ATOM     88  F   UNL A   1      36.030  29.116  29.500  1.00  0.00    -0.206 F 
ATOM     89  C   UNL A   1      35.136  32.173  27.775  1.00  0.00     0.006 A 
ENDBRANCH  61  82
BRANCH  73  90
ATOM     90  C   UNL A   1      39.268  32.279  35.879  1.00  0.00     0.057 A 
ATOM     91  C   UNL A   1      39.706  33.603  35.996  1.00  0.00     0.134 A 
ATOM     92  C   UNL A   1      38.291  31.837  36.781  1.00  0.00     0.134 A 
ATOM     93  F   UNL A   1      40.650  34.082  35.171  1.00  0.00    -0.206 F 
ATOM     94  C   UNL A   1      39.206  34.451  36.985  1.00  0.00     0.040 A 
ATOM     95  C   UNL A   1      37.767  32.682  37.759  1.00  0.00     0.040 A 
ATOM     96  F   UNL A   1      37.823  30.581  36.718  1.00  0.00    -0.206 F 
ATOM     97  C   UNL A   1      38.229  33.993  37.867  1.00  0.00     0.006 A 
ENDBRANCH  73  90
ENDBRANCH  47  48
ENDBRANCH  39  42
ENDBRANCH  37  38
ENDBRANCH  36  37
ENDBRANCH  35  36
ENDBRANCH  34  35
ENDBRANCH   1  34
TORSDOF 17
ENDMDL
MODEL 3
REMARK VINA RESULT:     -12.3      6.379     11.781
REMARK SMILES Cc1cc(C(=O)NCCCCCCNC(=O)c2ccc(-c3c4nc(c(-c5c(F)cccc5F)c5ccc([nH]5)c(-c5c(F)cccc5F)c5nc(c(-c6c(F)cccc6F)c6ccc3[nH]6)C=C5)C=C4)cc2)cc(S(=O)(=O)NNC(=O)c2c[nH]c3ccccc23)c1C
REMARK SMILES IDX 9 1 8 2 7 3 5 4 6 5 4 7 1 8 2 9 3 10 89 11 72 12 90 13 71 14
REMARK SMILES IDX 73 15 74 16 75 17 76 18 77 20 78 21 79 23 80 24 81 25 88 26
REMARK SMILES IDX 82 27 83 28 87 29 84 31 86 32 85 33 10 34 11 35 12 36 13 37
REMARK SMILES IDX 14 38 15 39 16 41 17 42 18 43 70 44 19 45 69 46 20 47 21 48
REMARK SMILES IDX 22 49 63 50 23 51 68 52 62 53 64 54 24 55 67 56 61 57 60 58
REMARK SMILES IDX 25 60 51 61 34 62 50 63 35 64 38 65 49 66 65 67 36 68 37 69
REMARK SMILES IDX 48 71 66 72 39 73 26 74 27 75 32 76 28 77 29 78 31 79 33 80
REMARK SMILES IDX 30 81 52 82 53 83 58 84 54 85 55 86 57 87 59 88 56 89 40 90
REMARK SMILES IDX 41 91 46 92 42 93 43 94 45 95 47 96 44 97
REMARK H PARENT 7 6 76 19 77 22 82 30 14 40 64 59 38 70
REMARK Flexibility Score: inf
ROOT
ATOM      1  C   UNL A   1      39.901  23.084  26.877  1.00  0.00     0.021 C 
ENDROOT
BRANCH   1   2
ATOM      2  C   UNL A   1      38.559  23.117  26.136  1.00  0.00     0.116 C 
BRANCH   2   3
ATOM      3  N   UNL A   1      38.302  21.842  25.488  1.00  0.00    -0.352 N 
ATOM      4  C   UNL A   1      37.169  21.175  25.101  1.00  0.00     0.251 C 
ATOM      5  O   UNL A   1      37.323  20.068  24.579  1.00  0.00    -0.269 OA
ATOM      6  H   UNL A   1      39.126  21.346  25.280  1.00  0.00     0.163 HD
BRANCH   4   7
ATOM      7  C   UNL A   1      35.778  21.701  25.228  1.00  0.00     0.041 A 
ATOM      8  C   UNL A   1      33.144  22.522  27.844  1.00  0.00     0.044 C 
ATOM      9  C   UNL A   1      33.788  22.369  26.490  1.00  0.00    -0.046 A 
ATOM     10  C   UNL A   1      35.058  21.768  26.421  1.00  0.00     0.017 A 
ATOM     11  C   UNL A   1      33.158  22.801  25.304  1.00  0.00    -0.028 A 
ATOM     12  C   UNL A   1      33.829  22.595  24.071  1.00  0.00     0.088 A 
ATOM     13  C   UNL A   1      31.796  23.456  25.344  1.00  0.00     0.046 C 
ATOM     14  C   UNL A   1      35.138  22.105  24.044  1.00  0.00     0.036 A 
BRANCH  12  15
ATOM     15  S   UNL A   1      32.916  22.799  22.555  1.00  0.00     0.257 S 
ATOM     16  O   UNL A   1      33.901  23.197  21.546  1.00  0.00    -0.205 OA
ATOM     17  O   UNL A   1      32.098  21.629  22.374  1.00  0.00    -0.205 OA
BRANCH  15  18
ATOM     18  N   UNL A   1      31.815  24.083  22.734  1.00  0.00    -0.123 NA
ATOM     19  H   UNL A   1      31.945  24.447  23.678  1.00  0.00     0.167 HD
BRANCH  18  20
ATOM     20  N   UNL A   1      31.857  25.241  21.829  1.00  0.00    -0.273 N 
ATOM     21  C   UNL A   1      32.717  26.300  22.085  1.00  0.00     0.268 C 
ATOM     22  H   UNL A   1      31.271  25.266  21.037  1.00  0.00     0.186 HD
ATOM     23  O   UNL A   1      33.693  26.517  21.374  1.00  0.00    -0.268 OA
BRANCH  21  24
ATOM     24  C   UNL A   1      32.174  27.291  23.016  1.00  0.00     0.066 A 
ATOM     25  C   UNL A   1      31.265  28.287  22.705  1.00  0.00     0.097 A 
ATOM     26  C   UNL A   1      32.608  27.586  24.351  1.00  0.00     0.012 A 
ATOM     27  N   UNL A   1      31.577  29.360  23.495  1.00  0.00    -0.360 N 
ATOM     28  C   UNL A   1      32.401  28.959  24.514  1.00  0.00     0.046 A 
ATOM     29  C   UNL A   1      33.280  26.892  25.378  1.00  0.00     0.011 A 
ATOM     30  H   UNL A   1      31.258  30.280  23.353  1.00  0.00     0.166 HD
ATOM     31  C   UNL A   1      32.991  29.701  25.539  1.00  0.00     0.027 A 
ATOM     32  C   UNL A   1      33.754  27.603  26.489  1.00  0.00     0.001 A 
ATOM     33  C   UNL A   1      33.664  28.992  26.535  1.00  0.00     0.002 A 
ENDBRANCH  21  24
ENDBRANCH  18  20
ENDBRANCH  15  18
ENDBRANCH  12  15
ENDBRANCH   4   7
ENDBRANCH   2   3
ENDBRANCH   1   2
BRANCH   1  34
ATOM     34  C   UNL A   1      40.406  21.659  27.155  1.00  0.00     0.002 C 
BRANCH  34  35
ATOM     35  C   UNL A   1      41.722  21.288  26.455  1.00  0.00     0.002 C 
BRANCH  35  36
ATOM     36  C   UNL A   1      41.763  19.887  25.838  1.00  0.00     0.021 C 
BRANCH  36  37
ATOM     37  C   UNL A   1      42.964  19.041  26.255  1.00  0.00     0.116 C 
BRANCH  37  38
ATOM     38  N   UNL A   1      43.818  18.715  25.124  1.00  0.00    -0.352 N 
ATOM     39  C   UNL A   1      44.595  19.538  24.348  1.00  0.00     0.251 C 
ATOM     40  H   UNL A   1      43.843  17.761  24.879  1.00  0.00     0.163 HD
ATOM     41  O   UNL A   1      45.089  19.117  23.307  1.00  0.00    -0.269 OA
BRANCH  39  42
ATOM     42  C   UNL A   1      44.832  20.939  24.757  1.00  0.00     0.039 A 
ATOM     43  C   UNL A   1      44.434  21.969  23.900  1.00  0.00     0.014 A 
ATOM     44  C   UNL A   1      45.472  21.237  25.963  1.00  0.00     0.014 A 
ATOM     45  C   UNL A   1      44.627  23.300  24.278  1.00  0.00     0.010 A 
ATOM     46  C   UNL A   1      45.608  22.564  26.367  1.00  0.00     0.010 A 
ATOM     47  C   UNL A   1      45.191  23.608  25.527  1.00  0.00    -0.014 A 
BRANCH  47  48
ATOM     48  C   UNL A   1      45.354  25.015  25.972  1.00  0.00     0.031 A 
ATOM     49  C   UNL A   1      46.705  25.673  25.918  1.00  0.00     0.074 A 
ATOM     50  C   UNL A   1      44.299  25.680  26.481  1.00  0.00     0.049 A 
ATOM     51  N   UNL A   1      47.064  26.860  26.337  1.00  0.00    -0.248 NA
ATOM     52  C   UNL A   1      47.803  24.883  25.340  1.00  0.00     0.031 C 
ATOM     53  C   UNL A   1      42.946  25.138  26.627  1.00  0.00     0.029 A 
ATOM     54  N   UNL A   1      44.203  26.952  26.987  1.00  0.00    -0.354 N 
ATOM     55  C   UNL A   1      48.426  26.954  26.085  1.00  0.00     0.074 A 
ATOM     56  C   UNL A   1      48.841  25.687  25.522  1.00  0.00     0.031 C 
ATOM     57  C   UNL A   1      42.154  26.075  27.171  1.00  0.00     0.029 A 
ATOM     58  C   UNL A   1      42.947  27.270  27.444  1.00  0.00     0.049 A 
ATOM     59  H   UNL A   1      44.962  27.578  27.019  1.00  0.00     0.167 HD
ATOM     60  C   UNL A   1      49.253  28.008  26.284  1.00  0.00     0.037 A 
ATOM     61  C   UNL A   1      42.489  28.395  28.026  1.00  0.00     0.037 A 
ATOM     62  C   UNL A   1      48.835  29.277  26.819  1.00  0.00     0.049 A 
ATOM     63  C   UNL A   1      43.428  29.551  28.234  1.00  0.00     0.074 A 
ATOM     64  C   UNL A   1      49.590  30.421  27.014  1.00  0.00     0.029 A 
ATOM     65  N   UNL A   1      47.549  29.569  27.243  1.00  0.00    -0.354 N 
ATOM     66  N   UNL A   1      44.702  29.643  27.940  1.00  0.00    -0.248 NA
ATOM     67  C   UNL A   1      42.863  30.761  28.847  1.00  0.00     0.031 C 
ATOM     68  C   UNL A   1      48.766  31.396  27.587  1.00  0.00     0.029 A 
ATOM     69  C   UNL A   1      47.489  30.871  27.711  1.00  0.00     0.049 A 
ATOM     70  H   UNL A   1      46.789  28.943  27.216  1.00  0.00     0.167 HD
ATOM     71  C   UNL A   1      45.084  30.926  28.308  1.00  0.00     0.074 A 
ATOM     72  C   UNL A   1      43.903  31.581  28.832  1.00  0.00     0.031 C 
ATOM     73  C   UNL A   1      46.304  31.510  28.221  1.00  0.00     0.037 A 
BRANCH  60  74
ATOM     74  C   UNL A   1      50.696  27.838  25.907  1.00  0.00     0.057 A 
ATOM     75  C   UNL A   1      51.138  28.017  24.590  1.00  0.00     0.134 A 
ATOM     76  C   UNL A   1      51.659  27.533  26.876  1.00  0.00     0.134 A 
ATOM     77  F   UNL A   1      50.265  28.299  23.612  1.00  0.00    -0.206 F 
ATOM     78  C   UNL A   1      52.484  27.880  24.246  1.00  0.00     0.040 A 
ATOM     79  C   UNL A   1      53.011  27.416  26.550  1.00  0.00     0.040 A 
ATOM     80  F   UNL A   1      51.305  27.353  28.157  1.00  0.00    -0.206 F 
ATOM     81  C   UNL A   1      53.426  27.585  25.230  1.00  0.00     0.006 A 
ENDBRANCH  60  74
BRANCH  61  82
ATOM     82  C   UNL A   1      41.067  28.492  28.440  1.00  0.00     0.057 A 
ATOM     83  C   UNL A   1      40.667  28.148  29.736  1.00  0.00     0.134 A 
ATOM     84  C   UNL A   1      40.074  28.915  27.549  1.00  0.00     0.134 A 
ATOM     85  F   UNL A   1      41.571  27.717  30.628  1.00  0.00    -0.206 F 
ATOM     86  C   UNL A   1      39.328  28.199  30.126  1.00  0.00     0.040 A 
ATOM     87  C   UNL A   1      38.734  28.994  27.933  1.00  0.00     0.040 A 
ATOM     88  F   UNL A   1      40.393  29.268  26.295  1.00  0.00    -0.206 F 
ATOM     89  C   UNL A   1      38.357  28.627  29.222  1.00  0.00     0.006 A 
ENDBRANCH  61  82
BRANCH  73  90
ATOM     90  C   UNL A   1      46.414  32.937  28.669  1.00  0.00     0.057 A 
ATOM     91  C   UNL A   1      46.753  33.273  29.985  1.00  0.00     0.134 A 
ATOM     92  C   UNL A   1      46.216  33.986  27.762  1.00  0.00     0.134 A 
ATOM     93  F   UNL A   1      46.943  32.314  30.905  1.00  0.00    -0.206 F 
ATOM     94  C   UNL A   1      46.870  34.603  30.390  1.00  0.00     0.040 A 
ATOM     95  C   UNL A   1      46.353  35.319  28.149  1.00  0.00     0.040 A 
ATOM     96  F   UNL A   1      45.897  33.731  26.484  1.00  0.00    -0.206 F 
ATOM     97  C   UNL A   1      46.676  35.631  29.468  1.00  0.00     0.006 A 
ENDBRANCH  73  90
ENDBRANCH  47  48
ENDBRANCH  39  42
ENDBRANCH  37  38
ENDBRANCH  36  37
ENDBRANCH  35  36
ENDBRANCH  34  35
ENDBRANCH   1  34
TORSDOF 17
ENDMDL
