MODEL 1
REMARK VINA RESULT:     -12.1      0.000      0.000
REMARK SMILES CC1=NN(c2ccc(Cl)c(C(=O)NCCCCCCNC(=O)c3ccc(-c4c5nc(c(-c6c(F)cccc6F)c6ccc([nH]6)c(-c6c(F)cccc6F)c6nc(c(-c7c(F)cccc7F)c7ccc4[nH]7)C=C6)C=C5)cc3)c2)C(=O)/C1=C\c1ccccc1Cl
REMARK SMILES IDX 16 1 15 2 14 3 13 4 11 5 12 6 10 8 5 9 6 10 77 11 7 12 8 13
REMARK SMILES IDX 9 14 4 15 1 16 2 17 3 18 80 19 78 20 81 21 79 22 82 23 83 24
REMARK SMILES IDX 87 25 84 26 86 27 88 28 85 29 17 30 18 31 19 32 20 33 21 34
REMARK SMILES IDX 22 36 23 37 24 38 76 39 25 40 75 41 26 42 27 43 28 44 69 45
REMARK SMILES IDX 29 46 74 47 68 48 70 49 30 50 73 51 67 52 66 53 31 55 57 56
REMARK SMILES IDX 40 57 56 58 41 59 44 60 55 61 71 62 42 63 43 64 54 66 72 67
REMARK SMILES IDX 45 68 32 69 33 70 38 71 34 72 35 73 37 74 39 75 36 76 58 77
REMARK SMILES IDX 59 78 64 79 60 80 61 81 63 82 65 83 62 84 46 85 47 86 52 87
REMARK SMILES IDX 48 88 49 89 51 90 53 91 50 92
REMARK H PARENT 13 7 20 35 70 54 44 65
REMARK Flexibility Score: inf
ROOT
ATOM      1  C   UNL A   1      33.749  25.020  25.894  1.00  0.00     0.002 C 
ENDROOT
BRANCH   1   2
ATOM      2  C   UNL A   1      32.566  24.108  26.237  1.00  0.00     0.021 C 
BRANCH   2   3
ATOM      3  C   UNL A   1      32.880  22.875  27.073  1.00  0.00     0.116 C 
BRANCH   3   4
ATOM      4  N   UNL A   1      32.725  21.611  26.382  1.00  0.00    -0.352 N 
ATOM      5  C   UNL A   1      33.516  21.018  25.422  1.00  0.00     0.252 C 
ATOM      6  O   UNL A   1      33.196  19.904  25.008  1.00  0.00    -0.269 OA
ATOM      7  H   UNL A   1      31.928  21.092  26.639  1.00  0.00     0.163 HD
BRANCH   5   8
ATOM      8  C   UNL A   1      34.694  21.695  24.810  1.00  0.00     0.060 A 
ATOM      9  C   UNL A   1      37.007  22.408  25.119  1.00  0.00     0.070 A 
ATOM     10  C   UNL A   1      36.989  22.960  23.834  1.00  0.00     0.030 A 
ATOM     11  C   UNL A   1      35.895  21.681  25.562  1.00  0.00     0.044 A 
ATOM     12  C   UNL A   1      35.817  22.987  23.093  1.00  0.00     0.023 A 
ATOM     13  C   UNL A   1      34.647  22.457  23.632  1.00  0.00     0.053 A 
ATOM     14  Cl  UNL A   1      33.190  23.006  22.878  1.00  0.00    -0.083 Cl
BRANCH   9  15
ATOM     15  N   UNL A   1      38.046  22.794  25.989  1.00  0.00    -0.196 N 
ATOM     16  C   UNL A   1      39.690  25.199  28.103  1.00  0.00     0.069 C 
ATOM     17  C   UNL A   1      39.243  24.076  27.229  1.00  0.00     0.071 C 
ATOM     18  N   UNL A   1      38.130  24.069  26.532  1.00  0.00    -0.169 NA
ATOM     19  C   UNL A   1      40.018  22.831  27.067  1.00  0.00     0.065 C 
ATOM     20  C   UNL A   1      39.122  21.947  26.297  1.00  0.00     0.280 C 
ATOM     21  C   UNL A   1      41.294  22.586  27.405  1.00  0.00     0.025 C 
ATOM     22  O   UNL A   1      39.324  20.783  25.997  1.00  0.00    -0.267 OA
BRANCH  21  23
ATOM     23  C   UNL A   1      42.004  21.385  26.927  1.00  0.00    -0.006 A 
ATOM     24  C   UNL A   1      41.823  20.171  27.603  1.00  0.00     0.009 A 
ATOM     25  C   UNL A   1      42.786  21.396  25.752  1.00  0.00     0.048 A 
ATOM     26  C   UNL A   1      42.383  18.991  27.100  1.00  0.00     0.001 A 
ATOM     27  C   UNL A   1      43.336  20.212  25.250  1.00  0.00     0.021 A 
ATOM     28  Cl  UNL A   1      43.087  22.857  24.870  1.00  0.00    -0.084 Cl
ATOM     29  C   UNL A   1      43.127  19.009  25.922  1.00  0.00     0.002 A 
ENDBRANCH  21  23
ENDBRANCH   9  15
ENDBRANCH   5   8
ENDBRANCH   3   4
ENDBRANCH   2   3
ENDBRANCH   1   2
BRANCH   1  30
ATOM     30  C   UNL A   1      33.452  26.288  25.085  1.00  0.00     0.002 C 
BRANCH  30  31
ATOM     31  C   UNL A   1      33.106  27.555  25.873  1.00  0.00     0.021 C 
BRANCH  31  32
ATOM     32  C   UNL A   1      33.730  28.852  25.372  1.00  0.00     0.116 C 
BRANCH  32  33
ATOM     33  N   UNL A   1      33.054  30.039  25.865  1.00  0.00    -0.352 N 
ATOM     34  C   UNL A   1      33.402  30.887  26.888  1.00  0.00     0.251 C 
ATOM     35  H   UNL A   1      32.221  30.272  25.395  1.00  0.00     0.163 HD
ATOM     36  O   UNL A   1      32.631  31.776  27.236  1.00  0.00    -0.269 OA
BRANCH  34  37
ATOM     37  C   UNL A   1      34.692  30.720  27.595  1.00  0.00     0.039 A 
ATOM     38  C   UNL A   1      35.543  31.824  27.704  1.00  0.00     0.014 A 
ATOM     39  C   UNL A   1      35.076  29.489  28.135  1.00  0.00     0.014 A 
ATOM     40  C   UNL A   1      36.746  31.710  28.406  1.00  0.00     0.010 A 
ATOM     41  C   UNL A   1      36.241  29.395  28.895  1.00  0.00     0.010 A 
ATOM     42  C   UNL A   1      37.089  30.504  29.038  1.00  0.00    -0.014 A 
BRANCH  42  43
ATOM     43  C   UNL A   1      38.329  30.386  29.849  1.00  0.00     0.031 A 
ATOM     44  C   UNL A   1      39.535  29.683  29.291  1.00  0.00     0.074 A 
ATOM     45  C   UNL A   1      38.353  30.868  31.107  1.00  0.00     0.049 A 
ATOM     46  N   UNL A   1      40.681  29.421  29.868  1.00  0.00    -0.248 NA
ATOM     47  C   UNL A   1      39.435  29.190  27.908  1.00  0.00     0.031 C 
ATOM     48  C   UNL A   1      37.238  31.542  31.778  1.00  0.00     0.029 A 
ATOM     49  N   UNL A   1      39.350  30.858  32.051  1.00  0.00    -0.354 N 
ATOM     50  C   UNL A   1      41.433  28.731  28.923  1.00  0.00     0.074 A 
ATOM     51  C   UNL A   1      40.593  28.564  27.757  1.00  0.00     0.031 C 
ATOM     52  C   UNL A   1      37.622  31.903  33.013  1.00  0.00     0.029 A 
ATOM     53  C   UNL A   1      38.991  31.450  33.238  1.00  0.00     0.049 A 
ATOM     54  H   UNL A   1      40.238  30.464  31.893  1.00  0.00     0.167 HD
ATOM     55  C   UNL A   1      42.713  28.301  29.009  1.00  0.00     0.037 A 
ATOM     56  C   UNL A   1      39.685  31.604  34.382  1.00  0.00     0.037 A 
ATOM     57  C   UNL A   1      43.554  28.479  30.164  1.00  0.00     0.049 A 
ATOM     58  C   UNL A   1      41.094  31.081  34.462  1.00  0.00     0.074 A 
ATOM     59  C   UNL A   1      44.875  28.104  30.336  1.00  0.00     0.029 A 
ATOM     60  N   UNL A   1      43.153  29.085  31.345  1.00  0.00    -0.354 N 
ATOM     61  N   UNL A   1      41.807  30.477  33.543  1.00  0.00    -0.248 NA
ATOM     62  C   UNL A   1      41.796  31.267  35.741  1.00  0.00     0.031 C 
ATOM     63  C   UNL A   1      45.263  28.448  31.635  1.00  0.00     0.029 A 
ATOM     64  C   UNL A   1      44.198  29.081  32.256  1.00  0.00     0.049 A 
ATOM     65  H   UNL A   1      42.260  29.464  31.512  1.00  0.00     0.167 HD
ATOM     66  C   UNL A   1      43.050  30.244  34.118  1.00  0.00     0.074 A 
ATOM     67  C   UNL A   1      42.998  30.783  35.461  1.00  0.00     0.031 C 
ATOM     68  C   UNL A   1      44.137  29.637  33.583  1.00  0.00     0.037 A 
BRANCH  55  69
ATOM     69  C   UNL A   1      43.291  27.602  27.812  1.00  0.00     0.057 A 
ATOM     70  C   UNL A   1      43.784  28.316  26.711  1.00  0.00     0.134 A 
ATOM     71  C   UNL A   1      43.396  26.206  27.774  1.00  0.00     0.134 A 
ATOM     72  F   UNL A   1      43.705  29.655  26.679  1.00  0.00    -0.206 F 
ATOM     73  C   UNL A   1      44.339  27.667  25.607  1.00  0.00     0.040 A 
ATOM     74  C   UNL A   1      43.974  25.546  26.688  1.00  0.00     0.040 A 
ATOM     75  F   UNL A   1      42.950  25.460  28.796  1.00  0.00    -0.206 F 
ATOM     76  C   UNL A   1      44.442  26.278  25.597  1.00  0.00     0.006 A 
ENDBRANCH  55  69
BRANCH  56  77
ATOM     77  C   UNL A   1      39.072  32.296  35.546  1.00  0.00     0.057 A 
ATOM     78  C   UNL A   1      39.261  33.669  35.749  1.00  0.00     0.134 A 
ATOM     79  C   UNL A   1      38.317  31.602  36.498  1.00  0.00     0.134 A 
ATOM     80  F   UNL A   1      39.992  34.384  34.882  1.00  0.00    -0.206 F 
ATOM     81  C   UNL A   1      38.746  34.320  36.870  1.00  0.00     0.040 A 
ATOM     82  C   UNL A   1      37.772  32.247  37.610  1.00  0.00     0.040 A 
ATOM     83  F   UNL A   1      38.095  30.287  36.360  1.00  0.00    -0.206 F 
ATOM     84  C   UNL A   1      37.995  33.609  37.803  1.00  0.00     0.006 A 
ENDBRANCH  56  77
BRANCH  68  85
ATOM     85  C   UNL A   1      45.372  29.568  34.431  1.00  0.00     0.057 A 
ATOM     86  C   UNL A   1      45.639  28.479  35.269  1.00  0.00     0.134 A 
ATOM     87  C   UNL A   1      46.326  30.594  34.382  1.00  0.00     0.134 A 
ATOM     88  F   UNL A   1      44.759  27.470  35.373  1.00  0.00    -0.206 F 
ATOM     89  C   UNL A   1      46.797  28.422  36.046  1.00  0.00     0.040 A 
ATOM     90  C   UNL A   1      47.501  30.535  35.132  1.00  0.00     0.040 A 
ATOM     91  F   UNL A   1      46.138  31.663  33.593  1.00  0.00    -0.206 F 
ATOM     92  C   UNL A   1      47.736  29.450  35.972  1.00  0.00     0.006 A 
ENDBRANCH  68  85
ENDBRANCH  42  43
ENDBRANCH  34  37
ENDBRANCH  32  33
ENDBRANCH  31  32
ENDBRANCH  30  31
ENDBRANCH   1  30
TORSDOF 15
ENDMDL
MODEL 2
REMARK VINA RESULT:     -11.8      0.384      6.016
REMARK SMILES CC1=NN(c2ccc(Cl)c(C(=O)NCCCCCCNC(=O)c3ccc(-c4c5nc(c(-c6c(F)cccc6F)c6ccc([nH]6)c(-c6c(F)cccc6F)c6nc(c(-c7c(F)cccc7F)c7ccc4[nH]7)C=C6)C=C5)cc3)c2)C(=O)/C1=C\c1ccccc1Cl
REMARK SMILES IDX 16 1 15 2 14 3 13 4 11 5 12 6 10 8 5 9 6 10 77 11 7 12 8 13
REMARK SMILES IDX 9 14 4 15 1 16 2 17 3 18 80 19 78 20 81 21 79 22 82 23 83 24
REMARK SMILES IDX 87 25 84 26 86 27 88 28 85 29 17 30 18 31 19 32 20 33 21 34
REMARK SMILES IDX 22 36 23 37 24 38 76 39 25 40 75 41 26 42 27 43 28 44 69 45
REMARK SMILES IDX 29 46 74 47 68 48 70 49 30 50 73 51 67 52 66 53 31 55 57 56
REMARK SMILES IDX 40 57 56 58 41 59 44 60 55 61 71 62 42 63 43 64 54 66 72 67
REMARK SMILES IDX 45 68 32 69 33 70 38 71 34 72 35 73 37 74 39 75 36 76 58 77
REMARK SMILES IDX 59 78 64 79 60 80 61 81 63 82 65 83 62 84 46 85 47 86 52 87
REMARK SMILES IDX 48 88 49 89 51 90 53 91 50 92
REMARK H PARENT 13 7 20 35 70 54 44 65
REMARK Flexibility Score: inf
ROOT
ATOM      1  C   UNL A   1      32.148  25.486  26.415  1.00  0.00     0.002 C 
ENDROOT
BRANCH   1   2
ATOM      2  C   UNL A   1      31.836  24.012  26.137  1.00  0.00     0.021 C 
BRANCH   2   3
ATOM      3  C   UNL A   1      32.700  22.987  26.858  1.00  0.00     0.116 C 
BRANCH   3   4
ATOM      4  N   UNL A   1      32.680  21.656  26.285  1.00  0.00    -0.352 N 
ATOM      5  C   UNL A   1      33.575  21.037  25.440  1.00  0.00     0.252 C 
ATOM      6  O   UNL A   1      33.361  19.869  25.117  1.00  0.00    -0.269 OA
ATOM      7  H   UNL A   1      31.903  21.107  26.539  1.00  0.00     0.163 HD
BRANCH   5   8
ATOM      8  C   UNL A   1      34.747  21.739  24.843  1.00  0.00     0.060 A 
ATOM      9  C   UNL A   1      37.062  22.443  25.156  1.00  0.00     0.070 A 
ATOM     10  C   UNL A   1      37.030  23.045  23.895  1.00  0.00     0.030 A 
ATOM     11  C   UNL A   1      35.955  21.698  25.583  1.00  0.00     0.044 A 
ATOM     12  C   UNL A   1      35.851  23.098  23.166  1.00  0.00     0.023 A 
ATOM     13  C   UNL A   1      34.686  22.546  23.696  1.00  0.00     0.053 A 
ATOM     14  Cl  UNL A   1      33.222  23.121  22.979  1.00  0.00    -0.083 Cl
BRANCH   9  15
ATOM     15  N   UNL A   1      38.109  22.797  26.031  1.00  0.00    -0.196 N 
ATOM     16  C   UNL A   1      39.793  25.135  28.189  1.00  0.00     0.069 C 
ATOM     17  C   UNL A   1      39.328  24.036  27.293  1.00  0.00     0.071 C 
ATOM     18  N   UNL A   1      38.212  24.058  26.600  1.00  0.00    -0.169 NA
ATOM     19  C   UNL A   1      40.085  22.785  27.102  1.00  0.00     0.065 C 
ATOM     20  C   UNL A   1      39.175  21.929  26.317  1.00  0.00     0.280 C 
ATOM     21  C   UNL A   1      41.358  22.515  27.430  1.00  0.00     0.025 C 
ATOM     22  O   UNL A   1      39.359  20.769  25.992  1.00  0.00    -0.267 OA
BRANCH  21  23
ATOM     23  C   UNL A   1      42.051  21.315  26.924  1.00  0.00    -0.006 A 
ATOM     24  C   UNL A   1      41.850  20.089  27.570  1.00  0.00     0.009 A 
ATOM     25  C   UNL A   1      42.835  21.342  25.750  1.00  0.00     0.048 A 
ATOM     26  C   UNL A   1      42.392  18.912  27.040  1.00  0.00     0.001 A 
ATOM     27  C   UNL A   1      43.367  20.163  25.221  1.00  0.00     0.021 A 
ATOM     28  Cl  UNL A   1      43.159  22.819  24.904  1.00  0.00    -0.084 Cl
ATOM     29  C   UNL A   1      43.139  18.947  25.864  1.00  0.00     0.002 A 
ENDBRANCH  21  23
ENDBRANCH   9  15
ENDBRANCH   5   8
ENDBRANCH   3   4
ENDBRANCH   2   3
ENDBRANCH   1   2
BRANCH   1  30
ATOM     30  C   UNL A   1      33.364  26.096  25.709  1.00  0.00     0.002 C 
BRANCH  30  31
ATOM     31  C   UNL A   1      33.146  27.405  24.946  1.00  0.00     0.021 C 
BRANCH  31  32
ATOM     32  C   UNL A   1      34.017  28.584  25.365  1.00  0.00     0.116 C 
BRANCH  32  33
ATOM     33  N   UNL A   1      33.249  29.754  25.750  1.00  0.00    -0.352 N 
ATOM     34  C   UNL A   1      33.469  30.655  26.762  1.00  0.00     0.251 C 
ATOM     35  H   UNL A   1      32.450  29.928  25.202  1.00  0.00     0.163 HD
ATOM     36  O   UNL A   1      32.632  31.519  27.008  1.00  0.00    -0.269 OA
BRANCH  34  37
ATOM     37  C   UNL A   1      34.700  30.578  27.582  1.00  0.00     0.039 A 
ATOM     38  C   UNL A   1      34.998  29.376  28.231  1.00  0.00     0.014 A 
ATOM     39  C   UNL A   1      35.550  31.678  27.729  1.00  0.00     0.014 A 
ATOM     40  C   UNL A   1      36.176  29.259  28.974  1.00  0.00     0.010 A 
ATOM     41  C   UNL A   1      36.758  31.538  28.410  1.00  0.00     0.010 A 
ATOM     42  C   UNL A   1      37.084  30.327  29.041  1.00  0.00    -0.014 A 
BRANCH  42  43
ATOM     43  C   UNL A   1      38.375  30.195  29.765  1.00  0.00     0.031 A 
ATOM     44  C   UNL A   1      38.531  30.771  31.146  1.00  0.00     0.074 A 
ATOM     45  C   UNL A   1      39.422  29.601  29.161  1.00  0.00     0.049 A 
ATOM     46  N   UNL A   1      39.595  30.816  31.908  1.00  0.00    -0.248 NA
ATOM     47  C   UNL A   1      37.341  31.399  31.741  1.00  0.00     0.031 C 
ATOM     48  C   UNL A   1      39.411  29.030  27.812  1.00  0.00     0.029 A 
ATOM     49  N   UNL A   1      40.705  29.384  29.601  1.00  0.00    -0.354 N 
ATOM     50  C   UNL A   1      39.203  31.479  33.066  1.00  0.00     0.074 A 
ATOM     51  C   UNL A   1      37.823  31.868  32.883  1.00  0.00     0.031 C 
ATOM     52  C   UNL A   1      40.618  28.506  27.546  1.00  0.00     0.029 A 
ATOM     53  C   UNL A   1      41.501  28.740  28.684  1.00  0.00     0.049 A 
ATOM     54  H   UNL A   1      41.024  29.663  30.490  1.00  0.00     0.167 HD
ATOM     55  C   UNL A   1      39.920  31.716  34.190  1.00  0.00     0.037 A 
ATOM     56  C   UNL A   1      42.799  28.386  28.751  1.00  0.00     0.037 A 
ATOM     57  C   UNL A   1      41.290  31.316  34.378  1.00  0.00     0.049 A 
ATOM     58  C   UNL A   1      43.582  28.697  29.998  1.00  0.00     0.074 A 
ATOM     59  C   UNL A   1      42.093  31.485  35.493  1.00  0.00     0.029 A 
ATOM     60  N   UNL A   1      42.060  30.665  33.426  1.00  0.00    -0.354 N 
ATOM     61  N   UNL A   1      43.183  29.278  31.103  1.00  0.00    -0.248 NA
ATOM     62  C   UNL A   1      44.997  28.298  30.007  1.00  0.00     0.031 C 
ATOM     63  C   UNL A   1      43.361  30.972  35.202  1.00  0.00     0.029 A 
ATOM     64  C   UNL A   1      43.335  30.440  33.923  1.00  0.00     0.049 A 
ATOM     65  H   UNL A   1      41.749  30.401  32.531  1.00  0.00     0.167 HD
ATOM     66  C   UNL A   1      44.285  29.281  31.950  1.00  0.00     0.074 A 
ATOM     67  C   UNL A   1      45.364  28.633  31.235  1.00  0.00     0.031 C 
ATOM     68  C   UNL A   1      44.393  29.777  33.206  1.00  0.00     0.037 A 
BRANCH  55  69
ATOM     69  C   UNL A   1      39.230  32.435  35.313  1.00  0.00     0.057 A 
ATOM     70  C   UNL A   1      38.499  31.743  36.289  1.00  0.00     0.134 A 
ATOM     71  C   UNL A   1      39.330  33.825  35.447  1.00  0.00     0.134 A 
ATOM     72  F   UNL A   1      38.356  30.411  36.213  1.00  0.00    -0.206 F 
ATOM     73  C   UNL A   1      37.874  32.410  37.344  1.00  0.00     0.040 A 
ATOM     74  C   UNL A   1      38.732  34.501  36.513  1.00  0.00     0.040 A 
ATOM     75  F   UNL A   1      40.019  34.550  34.553  1.00  0.00    -0.206 F 
ATOM     76  C   UNL A   1      37.996  33.792  37.462  1.00  0.00     0.006 A 
ENDBRANCH  55  69
BRANCH  56  77
ATOM     77  C   UNL A   1      43.445  27.682  27.613  1.00  0.00     0.057 A 
ATOM     78  C   UNL A   1      43.984  28.396  26.536  1.00  0.00     0.134 A 
ATOM     79  C   UNL A   1      43.509  26.285  27.556  1.00  0.00     0.134 A 
ATOM     80  F   UNL A   1      43.934  29.737  26.524  1.00  0.00    -0.206 F 
ATOM     81  C   UNL A   1      44.536  27.748  25.431  1.00  0.00     0.040 A 
ATOM     82  C   UNL A   1      44.084  25.623  26.469  1.00  0.00     0.040 A 
ATOM     83  F   UNL A   1      43.016  25.542  28.557  1.00  0.00    -0.206 F 
ATOM     84  C   UNL A   1      44.591  26.357  25.397  1.00  0.00     0.006 A 
ENDBRANCH  56  77
BRANCH  68  85
ATOM     85  C   UNL A   1      45.708  29.594  33.906  1.00  0.00     0.057 A 
ATOM     86  C   UNL A   1      46.723  30.555  33.842  1.00  0.00     0.134 A 
ATOM     87  C   UNL A   1      45.946  28.452  34.683  1.00  0.00     0.134 A 
ATOM     88  F   UNL A   1      46.564  31.665  33.104  1.00  0.00    -0.206 F 
ATOM     89  C   UNL A   1      47.938  30.378  34.506  1.00  0.00     0.040 A 
ATOM     90  C   UNL A   1      47.145  28.276  35.374  1.00  0.00     0.040 A 
ATOM     91  F   UNL A   1      45.011  27.495  34.794  1.00  0.00    -0.206 F 
ATOM     92  C   UNL A   1      48.148  29.238  35.281  1.00  0.00     0.006 A 
ENDBRANCH  68  85
ENDBRANCH  42  43
ENDBRANCH  34  37
ENDBRANCH  32  33
ENDBRANCH  31  32
ENDBRANCH  30  31
ENDBRANCH   1  30
TORSDOF 15
ENDMDL
MODEL 3
REMARK VINA RESULT:     -11.4      2.688      4.469
REMARK SMILES CC1=NN(c2ccc(Cl)c(C(=O)NCCCCCCNC(=O)c3ccc(-c4c5nc(c(-c6c(F)cccc6F)c6ccc([nH]6)c(-c6c(F)cccc6F)c6nc(c(-c7c(F)cccc7F)c7ccc4[nH]7)C=C6)C=C5)cc3)c2)C(=O)/C1=C\c1ccccc1Cl
REMARK SMILES IDX 16 1 15 2 14 3 13 4 11 5 12 6 10 8 5 9 6 10 77 11 7 12 8 13
REMARK SMILES IDX 9 14 4 15 1 16 2 17 3 18 80 19 78 20 81 21 79 22 82 23 83 24
REMARK SMILES IDX 87 25 84 26 86 27 88 28 85 29 17 30 18 31 19 32 20 33 21 34
REMARK SMILES IDX 22 36 23 37 24 38 76 39 25 40 75 41 26 42 27 43 28 44 69 45
REMARK SMILES IDX 29 46 74 47 68 48 70 49 30 50 73 51 67 52 66 53 31 55 57 56
REMARK SMILES IDX 40 57 56 58 41 59 44 60 55 61 71 62 42 63 43 64 54 66 72 67
REMARK SMILES IDX 45 68 32 69 33 70 38 71 34 72 35 73 37 74 39 75 36 76 58 77
REMARK SMILES IDX 59 78 64 79 60 80 61 81 63 82 65 83 62 84 46 85 47 86 52 87
REMARK SMILES IDX 48 88 49 89 51 90 53 91 50 92
REMARK H PARENT 13 7 20 35 70 54 44 65
REMARK Flexibility Score: inf
ROOT
ATOM      1  C   UNL A   1      32.289  29.770  27.129  1.00  0.00     0.002 C 
ENDROOT
BRANCH   1   2
ATOM      2  C   UNL A   1      31.744  28.347  27.292  1.00  0.00     0.021 C 
BRANCH   2   3
ATOM      3  C   UNL A   1      31.726  27.480  26.042  1.00  0.00     0.116 C 
BRANCH   3   4
ATOM      4  N   UNL A   1      30.437  27.377  25.386  1.00  0.00    -0.352 N 
ATOM      5  C   UNL A   1      30.073  26.712  24.236  1.00  0.00     0.252 C 
ATOM      6  O   UNL A   1      28.891  26.738  23.896  1.00  0.00    -0.269 OA
ATOM      7  H   UNL A   1      29.705  27.860  25.835  1.00  0.00     0.163 HD
BRANCH   5   8
ATOM      8  C   UNL A   1      31.056  26.029  23.348  1.00  0.00     0.060 A 
ATOM      9  C   UNL A   1      32.280  23.969  22.889  1.00  0.00     0.070 A 
ATOM     10  C   UNL A   1      32.904  24.602  21.809  1.00  0.00     0.030 A 
ATOM     11  C   UNL A   1      31.278  24.650  23.590  1.00  0.00     0.044 A 
ATOM     12  C   UNL A   1      32.701  25.953  21.568  1.00  0.00     0.023 A 
ATOM     13  C   UNL A   1      31.867  26.687  22.410  1.00  0.00     0.053 A 
ATOM     14  Cl  UNL A   1      32.103  28.399  22.348  1.00  0.00    -0.083 Cl
BRANCH   9  15
ATOM     15  N   UNL A   1      32.842  22.766  23.363  1.00  0.00    -0.196 N 
ATOM     16  C   UNL A   1      32.582  19.325  24.387  1.00  0.00     0.069 C 
ATOM     17  C   UNL A   1      32.921  20.748  24.093  1.00  0.00     0.071 C 
ATOM     18  N   UNL A   1      32.080  21.634  23.611  1.00  0.00    -0.169 NA
ATOM     19  C   UNL A   1      34.269  21.310  24.309  1.00  0.00     0.065 C 
ATOM     20  C   UNL A   1      34.199  22.655  23.707  1.00  0.00     0.280 C 
ATOM     21  C   UNL A   1      35.290  20.796  25.012  1.00  0.00     0.025 C 
ATOM     22  O   UNL A   1      35.113  23.452  23.589  1.00  0.00    -0.267 OA
BRANCH  21  23
ATOM     23  C   UNL A   1      36.473  21.604  25.363  1.00  0.00    -0.006 A 
ATOM     24  C   UNL A   1      36.289  22.892  25.884  1.00  0.00     0.009 A 
ATOM     25  C   UNL A   1      37.784  21.087  25.283  1.00  0.00     0.048 A 
ATOM     26  C   UNL A   1      37.384  23.633  26.343  1.00  0.00     0.001 A 
ATOM     27  C   UNL A   1      38.873  21.829  25.751  1.00  0.00     0.021 A 
ATOM     28  Cl  UNL A   1      38.106  19.517  24.626  1.00  0.00    -0.084 Cl
ATOM     29  C   UNL A   1      38.670  23.099  26.287  1.00  0.00     0.002 A 
ENDBRANCH  21  23
ENDBRANCH   9  15
ENDBRANCH   5   8
ENDBRANCH   3   4
ENDBRANCH   2   3
ENDBRANCH   1   2
BRANCH   1  30
ATOM     30  C   UNL A   1      31.579  30.689  26.128  1.00  0.00     0.002 C 
BRANCH  30  31
ATOM     31  C   UNL A   1      31.407  32.157  26.526  1.00  0.00     0.021 C 
BRANCH  31  32
ATOM     32  C   UNL A   1      32.581  32.801  27.254  1.00  0.00     0.116 C 
BRANCH  32  33
ATOM     33  N   UNL A   1      32.339  34.185  27.619  1.00  0.00    -0.352 N 
ATOM     34  C   UNL A   1      32.962  34.967  28.560  1.00  0.00     0.251 C 
ATOM     35  H   UNL A   1      31.620  34.630  27.115  1.00  0.00     0.163 HD
ATOM     36  O   UNL A   1      32.529  36.089  28.809  1.00  0.00    -0.269 OA
BRANCH  34  37
ATOM     37  C   UNL A   1      34.138  34.457  29.301  1.00  0.00     0.039 A 
ATOM     38  C   UNL A   1      33.935  33.857  30.547  1.00  0.00     0.014 A 
ATOM     39  C   UNL A   1      35.433  34.580  28.789  1.00  0.00     0.014 A 
ATOM     40  C   UNL A   1      35.021  33.325  31.249  1.00  0.00     0.010 A 
ATOM     41  C   UNL A   1      36.504  33.986  29.455  1.00  0.00     0.010 A 
ATOM     42  C   UNL A   1      36.310  33.354  30.693  1.00  0.00    -0.014 A 
BRANCH  42  43
ATOM     43  C   UNL A   1      37.463  32.728  31.392  1.00  0.00     0.031 A 
ATOM     44  C   UNL A   1      38.168  31.548  30.783  1.00  0.00     0.074 A 
ATOM     45  C   UNL A   1      37.844  33.191  32.599  1.00  0.00     0.049 A 
ATOM     46  N   UNL A   1      39.147  30.827  31.270  1.00  0.00    -0.248 NA
ATOM     47  C   UNL A   1      37.699  31.105  29.461  1.00  0.00     0.031 C 
ATOM     48  C   UNL A   1      37.222  34.309  33.313  1.00  0.00     0.029 A 
ATOM     49  N   UNL A   1      38.843  32.774  33.443  1.00  0.00    -0.354 N 
ATOM     50  C   UNL A   1      39.405  29.846  30.319  1.00  0.00     0.074 A 
ATOM     51  C   UNL A   1      38.443  30.028  29.254  1.00  0.00     0.031 C 
ATOM     52  C   UNL A   1      37.869  34.504  34.473  1.00  0.00     0.029 A 
ATOM     53  C   UNL A   1      38.922  33.502  34.606  1.00  0.00     0.049 A 
ATOM     54  H   UNL A   1      39.446  32.025  33.235  1.00  0.00     0.167 HD
ATOM     55  C   UNL A   1      40.372  28.899  30.320  1.00  0.00     0.037 A 
ATOM     56  C   UNL A   1      39.746  33.372  35.663  1.00  0.00     0.037 A 
ATOM     57  C   UNL A   1      41.338  28.727  31.373  1.00  0.00     0.049 A 
ATOM     58  C   UNL A   1      40.787  32.285  35.654  1.00  0.00     0.074 A 
ATOM     59  C   UNL A   1      42.377  27.814  31.451  1.00  0.00     0.029 A 
ATOM     60  N   UNL A   1      41.386  29.485  32.532  1.00  0.00    -0.354 N 
ATOM     61  N   UNL A   1      41.051  31.399  34.725  1.00  0.00    -0.248 NA
ATOM     62  C   UNL A   1      41.647  32.184  36.842  1.00  0.00     0.031 C 
ATOM     63  C   UNL A   1      43.027  27.994  32.676  1.00  0.00     0.029 A 
ATOM     64  C   UNL A   1      42.425  29.051  33.340  1.00  0.00     0.049 A 
ATOM     65  H   UNL A   1      40.772  30.224  32.751  1.00  0.00     0.167 HD
ATOM     66  C   UNL A   1      42.128  30.662  35.199  1.00  0.00     0.074 A 
ATOM     67  C   UNL A   1      42.476  31.211  36.492  1.00  0.00     0.031 C 
ATOM     68  C   UNL A   1      42.772  29.621  34.616  1.00  0.00     0.037 A 
BRANCH  55  69
ATOM     69  C   UNL A   1      40.441  27.978  29.136  1.00  0.00     0.057 A 
ATOM     70  C   UNL A   1      39.683  26.801  29.075  1.00  0.00     0.134 A 
ATOM     71  C   UNL A   1      41.239  28.289  28.027  1.00  0.00     0.134 A 
ATOM     72  F   UNL A   1      38.905  26.440  30.107  1.00  0.00    -0.206 F 
ATOM     73  C   UNL A   1      39.732  25.955  27.966  1.00  0.00     0.040 A 
ATOM     74  C   UNL A   1      41.276  27.465  26.900  1.00  0.00     0.040 A 
ATOM     75  F   UNL A   1      41.986  29.403  28.015  1.00  0.00    -0.206 F 
ATOM     76  C   UNL A   1      40.525  26.291  26.871  1.00  0.00     0.006 A 
ENDBRANCH  55  69
BRANCH  56  77
ATOM     77  C   UNL A   1      39.639  34.301  36.818  1.00  0.00     0.057 A 
ATOM     78  C   UNL A   1      38.903  33.952  37.958  1.00  0.00     0.134 A 
ATOM     79  C   UNL A   1      40.234  35.567  36.799  1.00  0.00     0.134 A 
ATOM     80  F   UNL A   1      38.292  32.760  38.027  1.00  0.00    -0.206 F 
ATOM     81  C   UNL A   1      38.740  34.837  39.024  1.00  0.00     0.040 A 
ATOM     82  C   UNL A   1      40.103  36.453  37.871  1.00  0.00     0.040 A 
ATOM     83  F   UNL A   1      40.956  35.961  35.741  1.00  0.00    -0.206 F 
ATOM     84  C   UNL A   1      39.344  36.092  38.983  1.00  0.00     0.006 A 
ENDBRANCH  56  77
BRANCH  68  85
ATOM     85  C   UNL A   1      43.946  29.042  35.348  1.00  0.00     0.057 A 
ATOM     86  C   UNL A   1      43.805  28.008  36.281  1.00  0.00     0.134 A 
ATOM     87  C   UNL A   1      45.243  29.506  35.089  1.00  0.00     0.134 A 
ATOM     88  F   UNL A   1      42.589  27.528  36.584  1.00  0.00    -0.206 F 
ATOM     89  C   UNL A   1      44.908  27.471  36.948  1.00  0.00     0.040 A 
ATOM     90  C   UNL A   1      46.356  28.959  35.728  1.00  0.00     0.040 A 
ATOM     91  F   UNL A   1      45.451  30.490  34.200  1.00  0.00    -0.206 F 
ATOM     92  C   UNL A   1      46.189  27.942  36.666  1.00  0.00     0.006 A 
ENDBRANCH  68  85
ENDBRANCH  42  43
ENDBRANCH  34  37
ENDBRANCH  32  33
ENDBRANCH  31  32
ENDBRANCH  30  31
ENDBRANCH   1  30
TORSDOF 15
ENDMDL
