MODEL 1
REMARK VINA RESULT:     -11.3      0.000      0.000
REMARK SMILES COc1ccc(-c2ccc(C(=O)NCc3ccc(C(=O)NCCCCCCNC(=O)c4ccc(-c5c6nc(c(-c7c(F)cccc7F)c7ccc([nH]7)c(-c7c(F)cccc7F)c7nc(c(-c8c(F)cccc8F)c8ccc5[nH]8)C=C7)C=C6)cc4)cc3)o2)c([N+](=O)[O-])c1
REMARK SMILES IDX 23 1 22 2 21 3 19 4 20 5 18 7 15 8 16 9 86 10 17 11 85 12
REMARK SMILES IDX 14 13 13 14 11 15 12 16 10 18 7 19 8 20 87 21 9 22 6 23 3 24
REMARK SMILES IDX 4 25 92 26 5 27 88 28 2 29 1 30 89 31 90 32 91 33 24 34
REMARK SMILES IDX 25 35 26 36 27 37 28 38 29 39 30 41 31 42 32 43 84 44 33 45
REMARK SMILES IDX 83 46 34 47 35 48 36 49 77 50 37 51 82 52 76 53 78 54 38 55
REMARK SMILES IDX 81 56 75 57 74 58 39 60 65 61 48 62 64 63 49 64 52 65 63 66
REMARK SMILES IDX 79 67 50 68 51 69 62 71 80 72 53 73 40 74 41 75 46 76 42 77
REMARK SMILES IDX 43 78 45 79 47 80 44 81 66 82 67 83 72 84 68 85 69 86 71 87
REMARK SMILES IDX 73 88 70 89 54 90 55 91 60 92 56 93 57 94 59 95 61 96 58 97
REMARK H PARENT 21 6 13 17 28 40 78 59 52 70
REMARK Flexibility Score: inf
ROOT
ATOM      1  C   UNL A   1      39.318  27.864  30.210  1.00  0.00     0.021 C 
ENDROOT
BRANCH   1   2
ATOM      2  C   UNL A   1      38.040  28.686  30.039  1.00  0.00     0.116 C 
BRANCH   2   3
ATOM      3  N   UNL A   1      38.371  30.086  29.859  1.00  0.00    -0.352 N 
ATOM      4  C   UNL A   1      37.714  31.090  29.199  1.00  0.00     0.251 C 
ATOM      5  O   UNL A   1      38.202  32.219  29.211  1.00  0.00    -0.269 OA
ATOM      6  H   UNL A   1      39.214  30.362  30.285  1.00  0.00     0.163 HD
BRANCH   4   7
ATOM      7  C   UNL A   1      36.404  30.875  28.533  1.00  0.00     0.039 A 
ATOM      8  C   UNL A   1      34.007  30.338  27.138  1.00  0.00    -0.029 A 
ATOM      9  C   UNL A   1      35.054  29.406  27.150  1.00  0.00     0.006 A 
ATOM     10  C   UNL A   1      34.160  31.522  27.872  1.00  0.00     0.006 A 
ATOM     11  C   UNL A   1      36.237  29.668  27.844  1.00  0.00     0.014 A 
ATOM     12  C   UNL A   1      35.340  31.779  28.579  1.00  0.00     0.014 A 
BRANCH   8  13
ATOM     13  C   UNL A   1      32.731  30.079  26.375  1.00  0.00     0.152 C 
BRANCH  13  14
ATOM     14  N   UNL A   1      32.983  29.897  24.964  1.00  0.00    -0.345 N 
ATOM     15  C   UNL A   1      33.034  28.780  24.173  1.00  0.00     0.287 C 
ATOM     16  O   UNL A   1      33.162  29.002  22.961  1.00  0.00    -0.266 OA
ATOM     17  H   UNL A   1      33.152  30.737  24.480  1.00  0.00     0.164 HD
BRANCH  15  18
ATOM     18  C   UNL A   1      32.955  27.436  24.715  1.00  0.00     0.192 A 
ATOM     19  C   UNL A   1      33.774  25.397  25.009  1.00  0.00     0.142 A 
ATOM     20  C   UNL A   1      32.595  25.439  25.714  1.00  0.00     0.052 A 
ATOM     21  O   UNL A   1      34.009  26.598  24.423  1.00  0.00    -0.451 OA
ATOM     22  C   UNL A   1      32.072  26.741  25.527  1.00  0.00     0.057 A 
BRANCH  19  23
ATOM     23  C   UNL A   1      34.783  24.374  24.798  1.00  0.00     0.095 A 
ATOM     24  C   UNL A   1      36.678  22.275  24.619  1.00  0.00     0.125 A 
ATOM     25  C   UNL A   1      36.758  23.225  25.640  1.00  0.00     0.047 A 
ATOM     26  C   UNL A   1      35.664  22.378  23.670  1.00  0.00     0.132 A 
ATOM     27  C   UNL A   1      35.831  24.269  25.724  1.00  0.00     0.023 A 
ATOM     28  C   UNL A   1      34.730  23.427  23.766  1.00  0.00     0.284 A 
BRANCH  24  29
ATOM     29  O   UNL A   1      37.623  21.292  24.677  1.00  0.00    -0.497 OA
ATOM     30  C   UNL A   1      38.674  21.466  25.621  1.00  0.00     0.278 C 
ENDBRANCH  24  29
BRANCH  28  31
ATOM     31  N   UNL A   1      33.700  23.491  22.738  1.00  0.00     0.063 N 
ATOM     32  O   UNL A   1      33.830  24.327  21.835  1.00  0.00    -0.258 OA
ATOM     33  O   UNL A   1      32.773  22.673  22.822  1.00  0.00    -0.258 OA
ENDBRANCH  28  31
ENDBRANCH  19  23
ENDBRANCH  15  18
ENDBRANCH  13  14
ENDBRANCH   8  13
ENDBRANCH   4   7
ENDBRANCH   2   3
ENDBRANCH   1   2
BRANCH   1  34
ATOM     34  C   UNL A   1      40.482  28.364  29.346  1.00  0.00     0.002 C 
BRANCH  34  35
ATOM     35  C   UNL A   1      40.629  27.656  27.994  1.00  0.00     0.002 C 
BRANCH  35  36
ATOM     36  C   UNL A   1      39.754  26.412  27.817  1.00  0.00     0.021 C 
BRANCH  36  37
ATOM     37  C   UNL A   1      39.904  25.727  26.462  1.00  0.00     0.116 C 
BRANCH  37  38
ATOM     38  N   UNL A   1      40.387  24.361  26.600  1.00  0.00    -0.352 N 
ATOM     39  C   UNL A   1      41.670  23.886  26.511  1.00  0.00     0.251 C 
ATOM     40  H   UNL A   1      39.697  23.684  26.782  1.00  0.00     0.163 HD
ATOM     41  O   UNL A   1      41.881  22.677  26.415  1.00  0.00    -0.269 OA
BRANCH  39  42
ATOM     42  C   UNL A   1      42.804  24.831  26.520  1.00  0.00     0.039 A 
ATOM     43  C   UNL A   1      43.252  25.369  25.311  1.00  0.00     0.014 A 
ATOM     44  C   UNL A   1      43.423  25.182  27.723  1.00  0.00     0.014 A 
ATOM     45  C   UNL A   1      44.284  26.309  25.316  1.00  0.00     0.010 A 
ATOM     46  C   UNL A   1      44.407  26.164  27.733  1.00  0.00     0.010 A 
ATOM     47  C   UNL A   1      44.845  26.738  26.529  1.00  0.00    -0.014 A 
BRANCH  47  48
ATOM     48  C   UNL A   1      45.885  27.797  26.567  1.00  0.00     0.031 A 
ATOM     49  C   UNL A   1      45.490  29.241  26.685  1.00  0.00     0.074 A 
ATOM     50  C   UNL A   1      47.180  27.459  26.417  1.00  0.00     0.049 A 
ATOM     51  N   UNL A   1      46.242  30.310  26.644  1.00  0.00    -0.248 NA
ATOM     52  C   UNL A   1      44.054  29.521  26.844  1.00  0.00     0.031 C 
ATOM     53  C   UNL A   1      47.686  26.096  26.249  1.00  0.00     0.029 A 
ATOM     54  N   UNL A   1      48.307  28.241  26.365  1.00  0.00    -0.354 N 
ATOM     55  C   UNL A   1      45.375  31.388  26.759  1.00  0.00     0.074 A 
ATOM     56  C   UNL A   1      44.034  30.847  26.822  1.00  0.00     0.031 C 
ATOM     57  C   UNL A   1      49.023  26.134  26.131  1.00  0.00     0.029 A 
ATOM     58  C   UNL A   1      49.464  27.525  26.175  1.00  0.00     0.049 A 
ATOM     59  H   UNL A   1      48.288  29.220  26.455  1.00  0.00     0.167 HD
ATOM     60  C   UNL A   1      45.670  32.708  26.828  1.00  0.00     0.037 A 
ATOM     61  C   UNL A   1      50.737  27.943  26.041  1.00  0.00     0.037 A 
ATOM     62  C   UNL A   1      47.006  33.242  26.787  1.00  0.00     0.049 A 
ATOM     63  C   UNL A   1      51.036  29.415  26.104  1.00  0.00     0.074 A 
ATOM     64  C   UNL A   1      47.413  34.558  26.914  1.00  0.00     0.029 A 
ATOM     65  N   UNL A   1      48.154  32.484  26.603  1.00  0.00    -0.354 N 
ATOM     66  N   UNL A   1      50.211  30.420  26.278  1.00  0.00    -0.248 NA
ATOM     67  C   UNL A   1      52.444  29.811  25.954  1.00  0.00     0.031 C 
ATOM     68  C   UNL A   1      48.804  34.603  26.765  1.00  0.00     0.029 A 
ATOM     69  C   UNL A   1      49.267  33.309  26.587  1.00  0.00     0.049 A 
ATOM     70  H   UNL A   1      48.174  31.506  26.500  1.00  0.00     0.167 HD
ATOM     71  C   UNL A   1      51.000  31.562  26.278  1.00  0.00     0.074 A 
ATOM     72  C   UNL A   1      52.370  31.126  26.105  1.00  0.00     0.031 C 
ATOM     73  C   UNL A   1      50.623  32.858  26.411  1.00  0.00     0.037 A 
BRANCH  60  74
ATOM     74  C   UNL A   1      44.524  33.667  26.956  1.00  0.00     0.057 A 
ATOM     75  C   UNL A   1      44.010  34.040  28.205  1.00  0.00     0.134 A 
ATOM     76  C   UNL A   1      43.945  34.247  25.820  1.00  0.00     0.134 A 
ATOM     77  F   UNL A   1      44.511  33.511  29.331  1.00  0.00    -0.206 F 
ATOM     78  C   UNL A   1      42.946  34.936  28.319  1.00  0.00     0.040 A 
ATOM     79  C   UNL A   1      42.897  35.165  25.923  1.00  0.00     0.040 A 
ATOM     80  F   UNL A   1      44.392  33.938  24.594  1.00  0.00    -0.206 F 
ATOM     81  C   UNL A   1      42.390  35.506  27.175  1.00  0.00     0.006 A 
ENDBRANCH  60  74
BRANCH  61  82
ATOM     82  C   UNL A   1      51.827  26.956  25.848  1.00  0.00     0.057 A 
ATOM     83  C   UNL A   1      52.536  26.445  26.940  1.00  0.00     0.134 A 
ATOM     84  C   UNL A   1      52.188  26.503  24.573  1.00  0.00     0.134 A 
ATOM     85  F   UNL A   1      52.247  26.855  28.184  1.00  0.00    -0.206 F 
ATOM     86  C   UNL A   1      53.577  25.530  26.773  1.00  0.00     0.040 A 
ATOM     87  C   UNL A   1      53.212  25.572  24.393  1.00  0.00     0.040 A 
ATOM     88  F   UNL A   1      51.542  26.950  23.487  1.00  0.00    -0.206 F 
ATOM     89  C   UNL A   1      53.914  25.089  25.495  1.00  0.00     0.006 A 
ENDBRANCH  61  82
BRANCH  73  90
ATOM     90  C   UNL A   1      51.710  33.892  26.391  1.00  0.00     0.057 A 
ATOM     91  C   UNL A   1      52.388  34.268  27.557  1.00  0.00     0.134 A 
ATOM     92  C   UNL A   1      52.105  34.490  25.187  1.00  0.00     0.134 A 
ATOM     93  F   UNL A   1      52.046  33.744  28.742  1.00  0.00    -0.206 F 
ATOM     94  C   UNL A   1      53.410  35.218  27.529  1.00  0.00     0.040 A 
ATOM     95  C   UNL A   1      53.142  35.422  25.143  1.00  0.00     0.040 A 
ATOM     96  F   UNL A   1      51.500  34.167  24.035  1.00  0.00    -0.206 F 
ATOM     97  C   UNL A   1      53.795  35.792  26.318  1.00  0.00     0.006 A 
ENDBRANCH  73  90
ENDBRANCH  47  48
ENDBRANCH  39  42
ENDBRANCH  37  38
ENDBRANCH  36  37
ENDBRANCH  35  36
ENDBRANCH  34  35
ENDBRANCH   1  34
TORSDOF 19
ENDMDL
MODEL 2
REMARK VINA RESULT:     -11.3      5.681      9.913
REMARK SMILES COc1ccc(-c2ccc(C(=O)NCc3ccc(C(=O)NCCCCCCNC(=O)c4ccc(-c5c6nc(c(-c7c(F)cccc7F)c7ccc([nH]7)c(-c7c(F)cccc7F)c7nc(c(-c8c(F)cccc8F)c8ccc5[nH]8)C=C7)C=C6)cc4)cc3)o2)c([N+](=O)[O-])c1
REMARK SMILES IDX 23 1 22 2 21 3 19 4 20 5 18 7 15 8 16 9 86 10 17 11 85 12
REMARK SMILES IDX 14 13 13 14 11 15 12 16 10 18 7 19 8 20 87 21 9 22 6 23 3 24
REMARK SMILES IDX 4 25 92 26 5 27 88 28 2 29 1 30 89 31 90 32 91 33 24 34
REMARK SMILES IDX 25 35 26 36 27 37 28 38 29 39 30 41 31 42 32 43 84 44 33 45
REMARK SMILES IDX 83 46 34 47 35 48 36 49 77 50 37 51 82 52 76 53 78 54 38 55
REMARK SMILES IDX 81 56 75 57 74 58 39 60 65 61 48 62 64 63 49 64 52 65 63 66
REMARK SMILES IDX 79 67 50 68 51 69 62 71 80 72 53 73 40 74 41 75 46 76 42 77
REMARK SMILES IDX 43 78 45 79 47 80 44 81 66 82 67 83 72 84 68 85 69 86 71 87
REMARK SMILES IDX 73 88 70 89 54 90 55 91 60 92 56 93 57 94 59 95 61 96 58 97
REMARK H PARENT 21 6 13 17 28 40 78 59 52 70
REMARK Flexibility Score: inf
ROOT
ATOM      1  C   UNL A   1      44.040  22.584  24.643  1.00  0.00     0.021 C 
ENDROOT
BRANCH   1   2
ATOM      2  C   UNL A   1      43.246  21.595  25.498  1.00  0.00     0.116 C 
BRANCH   2   3
ATOM      3  N   UNL A   1      43.236  22.031  26.880  1.00  0.00    -0.352 N 
ATOM      4  C   UNL A   1      42.239  22.572  27.648  1.00  0.00     0.251 C 
ATOM      5  O   UNL A   1      42.483  22.842  28.823  1.00  0.00    -0.269 OA
ATOM      6  H   UNL A   1      44.094  21.919  27.348  1.00  0.00     0.163 HD
BRANCH   4   7
ATOM      7  C   UNL A   1      40.862  22.776  27.129  1.00  0.00     0.039 A 
ATOM      8  C   UNL A   1      38.273  23.002  26.022  1.00  0.00    -0.029 A 
ATOM      9  C   UNL A   1      38.933  21.765  26.057  1.00  0.00     0.006 A 
ATOM     10  C   UNL A   1      38.910  24.113  26.590  1.00  0.00     0.006 A 
ATOM     11  C   UNL A   1      40.211  21.652  26.609  1.00  0.00     0.014 A 
ATOM     12  C   UNL A   1      40.184  23.997  27.156  1.00  0.00     0.014 A 
BRANCH   8  13
ATOM     13  C   UNL A   1      36.902  23.145  25.409  1.00  0.00     0.152 C 
BRANCH  13  14
ATOM     14  N   UNL A   1      35.859  22.919  26.382  1.00  0.00    -0.345 N 
ATOM     15  C   UNL A   1      34.505  22.747  26.260  1.00  0.00     0.287 C 
ATOM     16  O   UNL A   1      33.918  22.454  27.311  1.00  0.00    -0.266 OA
ATOM     17  H   UNL A   1      36.183  22.882  27.311  1.00  0.00     0.164 HD
BRANCH  15  18
ATOM     18  C   UNL A   1      33.808  22.908  24.997  1.00  0.00     0.192 A 
ATOM     19  C   UNL A   1      32.458  24.024  23.639  1.00  0.00     0.142 A 
ATOM     20  C   UNL A   1      32.887  22.927  22.932  1.00  0.00     0.052 A 
ATOM     21  O   UNL A   1      33.022  24.033  24.873  1.00  0.00    -0.451 OA
ATOM     22  C   UNL A   1      33.750  22.214  23.798  1.00  0.00     0.057 A 
BRANCH  19  23
ATOM     23  C   UNL A   1      31.579  25.138  23.331  1.00  0.00     0.095 A 
ATOM     24  C   UNL A   1      29.904  27.396  22.979  1.00  0.00     0.125 A 
ATOM     25  C   UNL A   1      29.576  26.399  23.901  1.00  0.00     0.047 A 
ATOM     26  C   UNL A   1      31.059  27.263  22.213  1.00  0.00     0.132 A 
ATOM     27  C   UNL A   1      30.395  25.278  24.069  1.00  0.00     0.023 A 
ATOM     28  C   UNL A   1      31.882  26.135  22.392  1.00  0.00     0.284 A 
BRANCH  24  29
ATOM     29  O   UNL A   1      29.037  28.450  22.943  1.00  0.00    -0.497 OA
ATOM     30  C   UNL A   1      29.611  29.752  22.901  1.00  0.00     0.278 C 
ENDBRANCH  24  29
BRANCH  28  31
ATOM     31  N   UNL A   1      33.070  26.042  21.554  1.00  0.00     0.063 N 
ATOM     32  O   UNL A   1      34.111  26.574  21.959  1.00  0.00    -0.258 OA
ATOM     33  O   UNL A   1      32.962  25.401  20.500  1.00  0.00    -0.258 OA
ENDBRANCH  28  31
ENDBRANCH  19  23
ENDBRANCH  15  18
ENDBRANCH  13  14
ENDBRANCH   8  13
ENDBRANCH   4   7
ENDBRANCH   2   3
ENDBRANCH   1   2
BRANCH   1  34
ATOM     34  C   UNL A   1      45.559  22.402  24.757  1.00  0.00     0.002 C 
BRANCH  34  35
ATOM     35  C   UNL A   1      46.341  23.691  25.037  1.00  0.00     0.002 C 
BRANCH  35  36
ATOM     36  C   UNL A   1      46.051  24.342  26.392  1.00  0.00     0.021 C 
BRANCH  36  37
ATOM     37  C   UNL A   1      45.474  25.751  26.301  1.00  0.00     0.116 C 
BRANCH  37  38
ATOM     38  N   UNL A   1      44.305  25.798  25.435  1.00  0.00    -0.352 N 
ATOM     39  C   UNL A   1      43.047  26.269  25.707  1.00  0.00     0.251 C 
ATOM     40  H   UNL A   1      44.436  25.440  24.527  1.00  0.00     0.163 HD
ATOM     41  O   UNL A   1      42.110  26.019  24.949  1.00  0.00    -0.269 OA
BRANCH  39  42
ATOM     42  C   UNL A   1      42.812  27.073  26.922  1.00  0.00     0.039 A 
ATOM     43  C   UNL A   1      43.115  28.437  26.906  1.00  0.00     0.014 A 
ATOM     44  C   UNL A   1      42.294  26.477  28.076  1.00  0.00     0.014 A 
ATOM     45  C   UNL A   1      42.839  29.218  28.030  1.00  0.00     0.010 A 
ATOM     46  C   UNL A   1      41.962  27.267  29.172  1.00  0.00     0.010 A 
ATOM     47  C   UNL A   1      42.230  28.645  29.158  1.00  0.00    -0.014 A 
BRANCH  47  48
ATOM     48  C   UNL A   1      41.851  29.469  30.333  1.00  0.00     0.031 A 
ATOM     49  C   UNL A   1      40.576  30.261  30.321  1.00  0.00     0.074 A 
ATOM     50  C   UNL A   1      42.697  29.562  31.377  1.00  0.00     0.049 A 
ATOM     51  N   UNL A   1      40.118  31.105  31.209  1.00  0.00    -0.248 NA
ATOM     52  C   UNL A   1      39.711  30.102  29.141  1.00  0.00     0.031 C 
ATOM     53  C   UNL A   1      43.986  28.877  31.487  1.00  0.00     0.029 A 
ATOM     54  N   UNL A   1      42.605  30.286  32.539  1.00  0.00    -0.354 N 
ATOM     55  C   UNL A   1      38.923  31.587  30.693  1.00  0.00     0.074 A 
ATOM     56  C   UNL A   1      38.749  30.979  29.391  1.00  0.00     0.031 C 
ATOM     57  C   UNL A   1      44.556  29.198  32.660  1.00  0.00     0.029 A 
ATOM     58  C   UNL A   1      43.693  30.142  33.365  1.00  0.00     0.049 A 
ATOM     59  H   UNL A   1      41.832  30.855  32.760  1.00  0.00     0.167 HD
ATOM     60  C   UNL A   1      38.040  32.443  31.261  1.00  0.00     0.037 A 
ATOM     61  C   UNL A   1      43.969  30.712  34.552  1.00  0.00     0.037 A 
ATOM     62  C   UNL A   1      38.205  33.029  32.564  1.00  0.00     0.049 A 
ATOM     63  C   UNL A   1      42.980  31.671  35.154  1.00  0.00     0.074 A 
ATOM     64  C   UNL A   1      37.337  33.857  33.255  1.00  0.00     0.029 A 
ATOM     65  N   UNL A   1      39.316  32.851  33.375  1.00  0.00    -0.354 N 
ATOM     66  N   UNL A   1      41.822  32.068  34.683  1.00  0.00    -0.248 NA
ATOM     67  C   UNL A   1      43.336  32.261  36.453  1.00  0.00     0.031 C 
ATOM     68  C   UNL A   1      37.941  34.213  34.465  1.00  0.00     0.029 A 
ATOM     69  C   UNL A   1      39.168  33.574  34.547  1.00  0.00     0.049 A 
ATOM     70  H   UNL A   1      40.096  32.294  33.151  1.00  0.00     0.167 HD
ATOM     71  C   UNL A   1      41.303  32.936  35.634  1.00  0.00     0.074 A 
ATOM     72  C   UNL A   1      42.263  32.994  36.717  1.00  0.00     0.031 C 
ATOM     73  C   UNL A   1      40.135  33.623  35.613  1.00  0.00     0.037 A 
BRANCH  60  74
ATOM     74  C   UNL A   1      36.813  32.794  30.472  1.00  0.00     0.057 A 
ATOM     75  C   UNL A   1      35.615  32.081  30.614  1.00  0.00     0.134 A 
ATOM     76  C   UNL A   1      36.818  33.875  29.582  1.00  0.00     0.134 A 
ATOM     77  F   UNL A   1      35.547  31.026  31.441  1.00  0.00    -0.206 F 
ATOM     78  C   UNL A   1      34.475  32.414  29.882  1.00  0.00     0.040 A 
ATOM     79  C   UNL A   1      35.676  34.234  28.863  1.00  0.00     0.040 A 
ATOM     80  F   UNL A   1      37.930  34.604  29.402  1.00  0.00    -0.206 F 
ATOM     81  C   UNL A   1      34.502  33.498  29.007  1.00  0.00     0.006 A 
ENDBRANCH  60  74
BRANCH  61  82
ATOM     82  C   UNL A   1      45.230  30.382  35.260  1.00  0.00     0.057 A 
ATOM     83  C   UNL A   1      46.401  31.110  35.022  1.00  0.00     0.134 A 
ATOM     84  C   UNL A   1      45.299  29.334  36.186  1.00  0.00     0.134 A 
ATOM     85  F   UNL A   1      46.401  32.114  34.132  1.00  0.00    -0.206 F 
ATOM     86  C   UNL A   1      47.600  30.799  35.665  1.00  0.00     0.040 A 
ATOM     87  C   UNL A   1      46.485  29.026  36.854  1.00  0.00     0.040 A 
ATOM     88  F   UNL A   1      44.209  28.603  36.463  1.00  0.00    -0.206 F 
ATOM     89  C   UNL A   1      47.642  29.756  36.588  1.00  0.00     0.006 A 
ENDBRANCH  61  82
BRANCH  73  90
ATOM     90  C   UNL A   1      39.825  34.481  36.804  1.00  0.00     0.057 A 
ATOM     91  C   UNL A   1      39.195  33.962  37.942  1.00  0.00     0.134 A 
ATOM     92  C   UNL A   1      40.192  35.833  36.826  1.00  0.00     0.134 A 
ATOM     93  F   UNL A   1      38.804  32.679  37.976  1.00  0.00    -0.206 F 
ATOM     94  C   UNL A   1      38.925  34.761  39.053  1.00  0.00     0.040 A 
ATOM     95  C   UNL A   1      39.951  36.636  37.940  1.00  0.00     0.040 A 
ATOM     96  F   UNL A   1      40.805  36.390  35.770  1.00  0.00    -0.206 F 
ATOM     97  C   UNL A   1      39.310  36.101  39.057  1.00  0.00     0.006 A 
ENDBRANCH  73  90
ENDBRANCH  47  48
ENDBRANCH  39  42
ENDBRANCH  37  38
ENDBRANCH  36  37
ENDBRANCH  35  36
ENDBRANCH  34  35
ENDBRANCH   1  34
TORSDOF 19
ENDMDL
MODEL 3
REMARK VINA RESULT:     -11.3      0.494      5.950
REMARK SMILES COc1ccc(-c2ccc(C(=O)NCc3ccc(C(=O)NCCCCCCNC(=O)c4ccc(-c5c6nc(c(-c7c(F)cccc7F)c7ccc([nH]7)c(-c7c(F)cccc7F)c7nc(c(-c8c(F)cccc8F)c8ccc5[nH]8)C=C7)C=C6)cc4)cc3)o2)c([N+](=O)[O-])c1
REMARK SMILES IDX 23 1 22 2 21 3 19 4 20 5 18 7 15 8 16 9 86 10 17 11 85 12
REMARK SMILES IDX 14 13 13 14 11 15 12 16 10 18 7 19 8 20 87 21 9 22 6 23 3 24
REMARK SMILES IDX 4 25 92 26 5 27 88 28 2 29 1 30 89 31 90 32 91 33 24 34
REMARK SMILES IDX 25 35 26 36 27 37 28 38 29 39 30 41 31 42 32 43 84 44 33 45
REMARK SMILES IDX 83 46 34 47 35 48 36 49 77 50 37 51 82 52 76 53 78 54 38 55
REMARK SMILES IDX 81 56 75 57 74 58 39 60 65 61 48 62 64 63 49 64 52 65 63 66
REMARK SMILES IDX 79 67 50 68 51 69 62 71 80 72 53 73 40 74 41 75 46 76 42 77
REMARK SMILES IDX 43 78 45 79 47 80 44 81 66 82 67 83 72 84 68 85 69 86 71 87
REMARK SMILES IDX 73 88 70 89 54 90 55 91 60 92 56 93 57 94 59 95 61 96 58 97
REMARK H PARENT 21 6 13 17 28 40 78 59 52 70
REMARK Flexibility Score: inf
ROOT
ATOM      1  C   UNL A   1      39.226  27.804  29.715  1.00  0.00     0.021 C 
ENDROOT
BRANCH   1   2
ATOM      2  C   UNL A   1      37.946  28.595  29.445  1.00  0.00     0.116 C 
BRANCH   2   3
ATOM      3  N   UNL A   1      38.254  30.004  29.300  1.00  0.00    -0.352 N 
ATOM      4  C   UNL A   1      37.516  31.041  28.792  1.00  0.00     0.251 C 
ATOM      5  O   UNL A   1      38.006  32.169  28.800  1.00  0.00    -0.269 OA
ATOM      6  H   UNL A   1      39.148  30.259  29.621  1.00  0.00     0.163 HD
BRANCH   4   7
ATOM      7  C   UNL A   1      36.127  30.858  28.301  1.00  0.00     0.039 A 
ATOM      8  C   UNL A   1      33.556  30.368  27.239  1.00  0.00    -0.029 A 
ATOM      9  C   UNL A   1      34.547  29.377  27.204  1.00  0.00     0.006 A 
ATOM     10  C   UNL A   1      33.857  31.591  27.853  1.00  0.00     0.006 A 
ATOM     11  C   UNL A   1      35.816  29.617  27.734  1.00  0.00     0.014 A 
ATOM     12  C   UNL A   1      35.125  31.826  28.396  1.00  0.00     0.014 A 
BRANCH   8  13
ATOM     13  C   UNL A   1      32.186  30.132  26.651  1.00  0.00     0.152 C 
BRANCH  13  14
ATOM     14  N   UNL A   1      32.239  30.010  25.213  1.00  0.00    -0.345 N 
ATOM     15  C   UNL A   1      32.236  28.923  24.379  1.00  0.00     0.287 C 
ATOM     16  O   UNL A   1      32.172  29.189  23.170  1.00  0.00    -0.266 OA
ATOM     17  H   UNL A   1      32.287  30.872  24.742  1.00  0.00     0.164 HD
BRANCH  15  18
ATOM     18  C   UNL A   1      32.313  27.560  24.872  1.00  0.00     0.192 A 
ATOM     19  C   UNL A   1      33.320  25.591  25.025  1.00  0.00     0.142 A 
ATOM     20  C   UNL A   1      32.202  25.509  25.819  1.00  0.00     0.052 A 
ATOM     21  O   UNL A   1      33.407  26.826  24.469  1.00  0.00    -0.451 OA
ATOM     22  C   UNL A   1      31.558  26.766  25.723  1.00  0.00     0.057 A 
BRANCH  19  23
ATOM     23  C   UNL A   1      34.391  24.667  24.698  1.00  0.00     0.095 A 
ATOM     24  C   UNL A   1      36.405  22.720  24.270  1.00  0.00     0.125 A 
ATOM     25  C   UNL A   1      36.402  23.503  25.427  1.00  0.00     0.047 A 
ATOM     26  C   UNL A   1      35.416  22.917  23.311  1.00  0.00     0.132 A 
ATOM     27  C   UNL A   1      35.415  24.473  25.635  1.00  0.00     0.023 A 
ATOM     28  C   UNL A   1      34.422  23.889  23.531  1.00  0.00     0.284 A 
BRANCH  24  29
ATOM     29  O   UNL A   1      37.403  21.789  24.212  1.00  0.00    -0.497 OA
ATOM     30  C   UNL A   1      38.107  21.527  25.420  1.00  0.00     0.278 C 
ENDBRANCH  24  29
BRANCH  28  31
ATOM     31  N   UNL A   1      33.421  24.060  22.487  1.00  0.00     0.063 N 
ATOM     32  O   UNL A   1      33.582  24.975  21.669  1.00  0.00    -0.258 OA
ATOM     33  O   UNL A   1      32.485  23.248  22.470  1.00  0.00    -0.258 OA
ENDBRANCH  28  31
ENDBRANCH  19  23
ENDBRANCH  15  18
ENDBRANCH  13  14
ENDBRANCH   8  13
ENDBRANCH   4   7
ENDBRANCH   2   3
ENDBRANCH   1   2
BRANCH   1  34
ATOM     34  C   UNL A   1      40.329  28.065  28.682  1.00  0.00     0.002 C 
BRANCH  34  35
ATOM     35  C   UNL A   1      40.264  27.177  27.435  1.00  0.00     0.002 C 
BRANCH  35  36
ATOM     36  C   UNL A   1      39.784  25.744  27.685  1.00  0.00     0.021 C 
BRANCH  36  37
ATOM     37  C   UNL A   1      39.802  24.851  26.447  1.00  0.00     0.116 C 
BRANCH  37  38
ATOM     38  N   UNL A   1      40.595  23.650  26.662  1.00  0.00    -0.352 N 
ATOM     39  C   UNL A   1      41.956  23.493  26.611  1.00  0.00     0.251 C 
ATOM     40  H   UNL A   1      40.083  22.837  26.873  1.00  0.00     0.163 HD
ATOM     41  O   UNL A   1      42.453  22.368  26.581  1.00  0.00    -0.269 OA
BRANCH  39  42
ATOM     42  C   UNL A   1      42.830  24.682  26.581  1.00  0.00     0.039 A 
ATOM     43  C   UNL A   1      43.374  25.158  27.776  1.00  0.00     0.014 A 
ATOM     44  C   UNL A   1      43.110  25.325  25.372  1.00  0.00     0.014 A 
ATOM     45  C   UNL A   1      44.251  26.244  27.751  1.00  0.00     0.010 A 
ATOM     46  C   UNL A   1      44.031  26.366  25.340  1.00  0.00     0.010 A 
ATOM     47  C   UNL A   1      44.612  26.834  26.529  1.00  0.00    -0.014 A 
BRANCH  47  48
ATOM     48  C   UNL A   1      45.605  27.935  26.468  1.00  0.00     0.031 A 
ATOM     49  C   UNL A   1      47.070  27.626  26.354  1.00  0.00     0.074 A 
ATOM     50  C   UNL A   1      45.189  29.210  26.591  1.00  0.00     0.049 A 
ATOM     51  N   UNL A   1      48.091  28.443  26.377  1.00  0.00    -0.248 NA
ATOM     52  C   UNL A   1      47.437  26.207  26.224  1.00  0.00     0.031 C 
ATOM     53  C   UNL A   1      43.797  29.636  26.752  1.00  0.00     0.029 A 
ATOM     54  N   UNL A   1      45.900  30.384  26.618  1.00  0.00    -0.354 N 
ATOM     55  C   UNL A   1      49.220  27.641  26.277  1.00  0.00     0.074 A 
ATOM     56  C   UNL A   1      48.761  26.269  26.243  1.00  0.00     0.031 C 
ATOM     57  C   UNL A   1      43.754  30.975  26.842  1.00  0.00     0.029 A 
ATOM     58  C   UNL A   1      45.116  31.499  26.786  1.00  0.00     0.049 A 
ATOM     59  H   UNL A   1      46.879  30.422  26.526  1.00  0.00     0.167 HD
ATOM     60  C   UNL A   1      50.519  28.015  26.199  1.00  0.00     0.037 A 
ATOM     61  C   UNL A   1      45.456  32.797  26.893  1.00  0.00     0.037 A 
ATOM     62  C   UNL A   1      50.971  29.381  26.210  1.00  0.00     0.049 A 
ATOM     63  C   UNL A   1      46.906  33.184  26.819  1.00  0.00     0.074 A 
ATOM     64  C   UNL A   1      52.260  29.865  26.072  1.00  0.00     0.029 A 
ATOM     65  N   UNL A   1      50.145  30.484  26.372  1.00  0.00    -0.354 N 
ATOM     66  N   UNL A   1      47.959  32.418  26.660  1.00  0.00    -0.248 NA
ATOM     67  C   UNL A   1      47.216  34.616  26.940  1.00  0.00     0.031 C 
ATOM     68  C   UNL A   1      52.220  31.258  26.192  1.00  0.00     0.029 A 
ATOM     69  C   UNL A   1      50.900  31.645  26.363  1.00  0.00     0.049 A 
ATOM     70  H   UNL A   1      49.167  30.447  26.478  1.00  0.00     0.167 HD
ATOM     71  C   UNL A   1      49.052  33.275  26.641  1.00  0.00     0.074 A 
ATOM     72  C   UNL A   1      48.534  34.619  26.787  1.00  0.00     0.031 C 
ATOM     73  C   UNL A   1      50.368  32.975  26.513  1.00  0.00     0.037 A 
BRANCH  60  74
ATOM     74  C   UNL A   1      51.546  26.926  26.093  1.00  0.00     0.057 A 
ATOM     75  C   UNL A   1      51.898  26.361  24.859  1.00  0.00     0.134 A 
ATOM     76  C   UNL A   1      52.214  26.457  27.230  1.00  0.00     0.134 A 
ATOM     77  F   UNL A   1      51.287  26.757  23.732  1.00  0.00    -0.206 F 
ATOM     78  C   UNL A   1      52.856  25.352  24.764  1.00  0.00     0.040 A 
ATOM     79  C   UNL A   1      53.194  25.466  27.145  1.00  0.00     0.040 A 
ATOM     80  F   UNL A   1      51.930  26.958  28.443  1.00  0.00    -0.206 F 
ATOM     81  C   UNL A   1      53.513  24.906  25.910  1.00  0.00     0.006 A 
ENDBRANCH  60  74
BRANCH  61  82
ATOM     82  C   UNL A   1      44.405  33.829  27.065  1.00  0.00     0.057 A 
ATOM     83  C   UNL A   1      43.842  34.475  25.959  1.00  0.00     0.134 A 
ATOM     84  C   UNL A   1      43.939  34.196  28.334  1.00  0.00     0.134 A 
ATOM     85  F   UNL A   1      44.261  34.179  24.720  1.00  0.00    -0.206 F 
ATOM     86  C   UNL A   1      42.866  35.462  26.107  1.00  0.00     0.040 A 
ATOM     87  C   UNL A   1      42.947  35.165  28.495  1.00  0.00     0.040 A 
ATOM     88  F   UNL A   1      44.433  33.608  29.433  1.00  0.00    -0.206 F 
ATOM     89  C   UNL A   1      42.413  35.805  27.379  1.00  0.00     0.006 A 
ENDBRANCH  61  82
BRANCH  73  90
ATOM     90  C   UNL A   1      51.334  34.123  26.508  1.00  0.00     0.057 A 
ATOM     91  C   UNL A   1      51.713  34.760  25.320  1.00  0.00     0.134 A 
ATOM     92  C   UNL A   1      51.861  34.618  27.707  1.00  0.00     0.134 A 
ATOM     93  F   UNL A   1      51.255  34.322  24.138  1.00  0.00    -0.206 F 
ATOM     94  C   UNL A   1      52.599  35.838  25.323  1.00  0.00     0.040 A 
ATOM     95  C   UNL A   1      52.727  35.712  27.726  1.00  0.00     0.040 A 
ATOM     96  F   UNL A   1      51.531  34.057  28.880  1.00  0.00    -0.206 F 
ATOM     97  C   UNL A   1      53.102  36.322  26.530  1.00  0.00     0.006 A 
ENDBRANCH  73  90
ENDBRANCH  47  48
ENDBRANCH  39  42
ENDBRANCH  37  38
ENDBRANCH  36  37
ENDBRANCH  35  36
ENDBRANCH  34  35
ENDBRANCH   1  34
TORSDOF 19
ENDMDL
