MODEL 1
REMARK VINA RESULT:     -11.9      0.000      0.000
REMARK SMILES CC[C@](C)(NC(=O)N1Cc2ccccc2C1)C(=O)NCCCCCCNC(=O)c1ccc(-c2c3nc(c(-c4c(F)cccc4F)c4ccc([nH]4)c(-c4c(F)cccc4F)c4nc(c(-c5c(F)cccc5F)c5ccc2[nH]5)C=C4)C=C3)cc1
REMARK SMILES IDX 23 1 22 2 21 3 20 4 19 5 17 6 18 7 3 9 4 10 2 11 1 12 5 13
REMARK SMILES IDX 6 14 7 16 8 17 9 18 16 19 10 20 15 21 11 22 14 23 12 24
REMARK SMILES IDX 13 25 24 26 25 27 26 28 27 29 28 31 29 32 30 33 82 34 31 35
REMARK SMILES IDX 81 36 32 37 33 38 34 39 75 40 35 41 80 42 74 43 76 44 36 45
REMARK SMILES IDX 79 46 73 47 72 48 37 50 63 51 46 52 62 53 47 54 50 55 61 56
REMARK SMILES IDX 77 57 48 58 49 59 60 61 78 62 51 63 38 64 39 65 44 66 40 67
REMARK SMILES IDX 41 68 43 69 45 70 42 71 64 72 65 73 70 74 66 75 67 76 69 77
REMARK SMILES IDX 71 78 68 79 52 80 53 81 58 82 54 83 55 84 57 85 59 86 56 87
REMARK H PARENT 19 8 5 15 26 30 76 49 50 60
REMARK Flexibility Score: inf
ROOT
ATOM      1  C   UNL A   1      31.588  30.531  25.983  1.00  0.00     0.002 C 
ENDROOT
BRANCH   1   2
ATOM      2  C   UNL A   1      32.276  29.540  26.915  1.00  0.00     0.002 C 
BRANCH   2   3
ATOM      3  C   UNL A   1      31.497  28.267  27.253  1.00  0.00     0.021 C 
BRANCH   3   4
ATOM      4  C   UNL A   1      32.186  26.919  27.025  1.00  0.00     0.116 C 
BRANCH   4   5
ATOM      5  N   UNL A   1      31.357  25.844  26.505  1.00  0.00    -0.354 N 
ATOM      6  C   UNL A   1      31.529  24.971  25.462  1.00  0.00     0.245 C 
ATOM      7  O   UNL A   1      30.697  24.064  25.363  1.00  0.00    -0.272 OA
ATOM      8  H   UNL A   1      30.512  25.720  26.994  1.00  0.00     0.163 HD
BRANCH   6   9
ATOM      9  C   UNL A   1      32.769  25.042  24.524  1.00  0.00     0.117 C 
ATOM     10  C   UNL A   1      32.471  24.504  23.110  1.00  0.00     0.045 C 
BRANCH   9  11
ATOM     11  C   UNL A   1      33.757  24.037  25.219  1.00  0.00     0.035 C 
ATOM     12  C   UNL A   1      35.201  24.470  25.416  1.00  0.00     0.007 C 
ENDBRANCH   9  11
BRANCH   9  13
ATOM     13  N   UNL A   1      33.328  26.408  24.395  1.00  0.00    -0.324 N 
ATOM     14  C   UNL A   1      33.014  27.510  23.672  1.00  0.00     0.318 C 
ATOM     15  H   UNL A   1      34.113  26.549  24.972  1.00  0.00     0.166 HD
ATOM     16  O   UNL A   1      33.943  28.311  23.513  1.00  0.00    -0.249 OA
ATOM     17  N   UNL A   1      31.769  27.786  23.202  1.00  0.00    -0.316 N 
ATOM     18  C   UNL A   1      31.522  29.085  22.546  1.00  0.00     0.157 C 
ATOM     19  C   UNL A   1      30.509  27.091  23.419  1.00  0.00     0.157 C 
ATOM     20  C   UNL A   1      30.029  29.245  22.581  1.00  0.00    -0.023 A 
ATOM     21  C   UNL A   1      29.450  28.084  23.087  1.00  0.00    -0.023 A 
ATOM     22  C   UNL A   1      29.237  30.334  22.262  1.00  0.00     0.006 A 
ATOM     23  C   UNL A   1      28.091  27.984  23.340  1.00  0.00     0.006 A 
ATOM     24  C   UNL A   1      27.858  30.247  22.501  1.00  0.00     0.000 A 
ATOM     25  C   UNL A   1      27.290  29.085  23.049  1.00  0.00     0.000 A 
ENDBRANCH   9  13
ENDBRANCH   6   9
ENDBRANCH   4   5
ENDBRANCH   3   4
ENDBRANCH   2   3
ENDBRANCH   1   2
BRANCH   1  26
ATOM     26  C   UNL A   1      31.388  31.929  26.558  1.00  0.00     0.021 C 
BRANCH  26  27
ATOM     27  C   UNL A   1      32.632  32.549  27.181  1.00  0.00     0.116 C 
BRANCH  27  28
ATOM     28  N   UNL A   1      32.446  33.947  27.534  1.00  0.00    -0.352 N 
ATOM     29  C   UNL A   1      33.111  34.685  28.486  1.00  0.00     0.251 C 
ATOM     30  H   UNL A   1      31.754  34.428  27.025  1.00  0.00     0.163 HD
ATOM     31  O   UNL A   1      32.743  35.812  28.780  1.00  0.00    -0.269 OA
BRANCH  29  32
ATOM     32  C   UNL A   1      34.268  34.076  29.178  1.00  0.00     0.039 A 
ATOM     33  C   UNL A   1      34.039  33.230  30.265  1.00  0.00     0.014 A 
ATOM     34  C   UNL A   1      35.568  34.307  28.719  1.00  0.00     0.014 A 
ATOM     35  C   UNL A   1      35.114  32.559  30.851  1.00  0.00     0.010 A 
ATOM     36  C   UNL A   1      36.626  33.580  29.256  1.00  0.00     0.010 A 
ATOM     37  C   UNL A   1      36.410  32.700  30.327  1.00  0.00    -0.014 A 
BRANCH  37  38
ATOM     38  C   UNL A   1      37.555  31.938  30.888  1.00  0.00     0.031 A 
ATOM     39  C   UNL A   1      38.065  32.253  32.267  1.00  0.00     0.074 A 
ATOM     40  C   UNL A   1      38.177  31.012  30.131  1.00  0.00     0.049 A 
ATOM     41  N   UNL A   1      39.090  31.748  32.905  1.00  0.00    -0.248 NA
ATOM     42  C   UNL A   1      37.346  33.296  33.016  1.00  0.00     0.031 C 
ATOM     43  C   UNL A   1      37.812  30.653  28.759  1.00  0.00     0.029 A 
ATOM     44  N   UNL A   1      39.259  30.213  30.406  1.00  0.00    -0.354 N 
ATOM     45  C   UNL A   1      39.150  32.425  34.116  1.00  0.00     0.074 A 
ATOM     46  C   UNL A   1      38.091  33.408  34.106  1.00  0.00     0.031 C 
ATOM     47  C   UNL A   1      38.641  29.691  28.321  1.00  0.00     0.029 A 
ATOM     48  C   UNL A   1      39.616  29.391  29.365  1.00  0.00     0.049 A 
ATOM     49  H   UNL A   1      39.733  30.227  31.268  1.00  0.00     0.167 HD
ATOM     50  C   UNL A   1      39.999  32.228  35.152  1.00  0.00     0.037 A 
ATOM     51  C   UNL A   1      40.620  28.498  29.262  1.00  0.00     0.037 A 
ATOM     52  C   UNL A   1      41.028  31.222  35.174  1.00  0.00     0.049 A 
ATOM     53  C   UNL A   1      41.543  28.294  30.433  1.00  0.00     0.074 A 
ATOM     54  C   UNL A   1      41.883  30.888  36.210  1.00  0.00     0.029 A 
ATOM     55  N   UNL A   1      41.342  30.391  34.111  1.00  0.00    -0.354 N 
ATOM     56  N   UNL A   1      41.534  28.881  31.605  1.00  0.00    -0.248 NA
ATOM     57  C   UNL A   1      42.613  27.300  30.267  1.00  0.00     0.031 C 
ATOM     58  C   UNL A   1      42.747  29.886  35.757  1.00  0.00     0.029 A 
ATOM     59  C   UNL A   1      42.396  29.562  34.456  1.00  0.00     0.049 A 
ATOM     60  H   UNL A   1      40.883  30.389  33.240  1.00  0.00     0.167 HD
ATOM     61  C   UNL A   1      42.572  28.305  32.327  1.00  0.00     0.074 A 
ATOM     62  C   UNL A   1      43.182  27.315  31.464  1.00  0.00     0.031 C 
ATOM     63  C   UNL A   1      42.983  28.572  33.590  1.00  0.00     0.037 A 
BRANCH  50  64
ATOM     64  C   UNL A   1      39.849  33.116  36.352  1.00  0.00     0.057 A 
ATOM     65  C   UNL A   1      40.567  34.312  36.483  1.00  0.00     0.134 A 
ATOM     66  C   UNL A   1      38.942  32.793  37.369  1.00  0.00     0.134 A 
ATOM     67  F   UNL A   1      41.462  34.674  35.551  1.00  0.00    -0.206 F 
ATOM     68  C   UNL A   1      40.406  35.142  37.594  1.00  0.00     0.040 A 
ATOM     69  C   UNL A   1      38.752  33.629  38.471  1.00  0.00     0.040 A 
ATOM     70  F   UNL A   1      38.217  31.666  37.303  1.00  0.00    -0.206 F 
ATOM     71  C   UNL A   1      39.490  34.805  38.588  1.00  0.00     0.006 A 
ENDBRANCH  50  64
BRANCH  51  72
ATOM     72  C   UNL A   1      40.801  27.713  28.015  1.00  0.00     0.057 A 
ATOM     73  C   UNL A   1      40.221  26.448  27.869  1.00  0.00     0.134 A 
ATOM     74  C   UNL A   1      41.575  28.192  26.951  1.00  0.00     0.134 A 
ATOM     75  F   UNL A   1      39.483  25.926  28.861  1.00  0.00    -0.206 F 
ATOM     76  C   UNL A   1      40.424  25.676  26.724  1.00  0.00     0.040 A 
ATOM     77  C   UNL A   1      41.766  27.442  25.790  1.00  0.00     0.040 A 
ATOM     78  F   UNL A   1      42.152  29.401  27.025  1.00  0.00    -0.206 F 
ATOM     79  C   UNL A   1      41.197  26.175  25.678  1.00  0.00     0.006 A 
ENDBRANCH  51  72
BRANCH  63  80
ATOM     80  C   UNL A   1      44.121  27.756  34.130  1.00  0.00     0.057 A 
ATOM     81  C   UNL A   1      45.447  28.202  34.069  1.00  0.00     0.134 A 
ATOM     82  C   UNL A   1      43.879  26.526  34.755  1.00  0.00     0.134 A 
ATOM     83  F   UNL A   1      45.745  29.365  33.471  1.00  0.00    -0.206 F 
ATOM     84  C   UNL A   1      46.495  27.444  34.592  1.00  0.00     0.040 A 
ATOM     85  C   UNL A   1      44.916  25.771  35.306  1.00  0.00     0.040 A 
ATOM     86  F   UNL A   1      42.631  26.045  34.854  1.00  0.00    -0.206 F 
ATOM     87  C   UNL A   1      46.229  26.228  35.219  1.00  0.00     0.006 A 
ENDBRANCH  63  80
ENDBRANCH  37  38
ENDBRANCH  29  32
ENDBRANCH  27  28
ENDBRANCH  26  27
ENDBRANCH   1  26
TORSDOF 15
ENDMDL
MODEL 2
REMARK VINA RESULT:     -11.9      1.239      3.846
REMARK SMILES CC[C@](C)(NC(=O)N1Cc2ccccc2C1)C(=O)NCCCCCCNC(=O)c1ccc(-c2c3nc(c(-c4c(F)cccc4F)c4ccc([nH]4)c(-c4c(F)cccc4F)c4nc(c(-c5c(F)cccc5F)c5ccc2[nH]5)C=C4)C=C3)cc1
REMARK SMILES IDX 23 1 22 2 21 3 20 4 19 5 17 6 18 7 3 9 4 10 2 11 1 12 5 13
REMARK SMILES IDX 6 14 7 16 8 17 9 18 16 19 10 20 15 21 11 22 14 23 12 24
REMARK SMILES IDX 13 25 24 26 25 27 26 28 27 29 28 31 29 32 30 33 82 34 31 35
REMARK SMILES IDX 81 36 32 37 33 38 34 39 75 40 35 41 80 42 74 43 76 44 36 45
REMARK SMILES IDX 79 46 73 47 72 48 37 50 63 51 46 52 62 53 47 54 50 55 61 56
REMARK SMILES IDX 77 57 48 58 49 59 60 61 78 62 51 63 38 64 39 65 44 66 40 67
REMARK SMILES IDX 41 68 43 69 45 70 42 71 64 72 65 73 70 74 66 75 67 76 69 77
REMARK SMILES IDX 71 78 68 79 52 80 53 81 58 82 54 83 55 84 57 85 59 86 56 87
REMARK H PARENT 19 8 5 15 26 30 76 49 50 60
REMARK Flexibility Score: inf
ROOT
ATOM      1  C   UNL A   1      31.683  30.748  26.072  1.00  0.00     0.002 C 
ENDROOT
BRANCH   1   2
ATOM      2  C   UNL A   1      31.964  29.664  27.107  1.00  0.00     0.002 C 
BRANCH   2   3
ATOM      3  C   UNL A   1      33.338  28.994  27.037  1.00  0.00     0.021 C 
BRANCH   3   4
ATOM      4  C   UNL A   1      33.415  27.563  26.499  1.00  0.00     0.116 C 
BRANCH   4   5
ATOM      5  N   UNL A   1      33.505  27.413  25.056  1.00  0.00    -0.354 N 
ATOM      6  C   UNL A   1      32.653  26.864  24.133  1.00  0.00     0.245 C 
ATOM      7  O   UNL A   1      32.955  27.022  22.945  1.00  0.00    -0.272 OA
ATOM      8  H   UNL A   1      34.335  27.772  24.668  1.00  0.00     0.163 HD
BRANCH   6   9
ATOM      9  C   UNL A   1      31.315  26.185  24.548  1.00  0.00     0.117 C 
ATOM     10  C   UNL A   1      30.777  25.229  23.463  1.00  0.00     0.045 C 
BRANCH   9  11
ATOM     11  C   UNL A   1      30.340  27.415  24.626  1.00  0.00     0.035 C 
ATOM     12  C   UNL A   1      29.494  27.739  23.405  1.00  0.00     0.007 C 
ENDBRANCH   9  11
BRANCH   9  13
ATOM     13  N   UNL A   1      31.409  25.439  25.823  1.00  0.00    -0.324 N 
ATOM     14  C   UNL A   1      31.874  24.220  26.191  1.00  0.00     0.318 C 
ATOM     15  H   UNL A   1      31.050  25.948  26.585  1.00  0.00     0.166 HD
ATOM     16  O   UNL A   1      31.406  23.782  27.249  1.00  0.00    -0.249 OA
ATOM     17  N   UNL A   1      32.830  23.531  25.515  1.00  0.00    -0.316 N 
ATOM     18  C   UNL A   1      33.352  22.276  26.091  1.00  0.00     0.157 C 
ATOM     19  C   UNL A   1      33.635  23.925  24.368  1.00  0.00     0.157 C 
ATOM     20  C   UNL A   1      34.652  22.047  25.375  1.00  0.00    -0.023 A 
ATOM     21  C   UNL A   1      34.808  23.007  24.377  1.00  0.00    -0.023 A 
ATOM     22  C   UNL A   1      35.654  21.122  25.610  1.00  0.00     0.006 A 
ATOM     23  C   UNL A   1      35.968  23.112  23.626  1.00  0.00     0.006 A 
ATOM     24  C   UNL A   1      36.831  21.206  24.853  1.00  0.00     0.000 A 
ATOM     25  C   UNL A   1      36.992  22.203  23.876  1.00  0.00     0.000 A 
ENDBRANCH   9  13
ENDBRANCH   6   9
ENDBRANCH   4   5
ENDBRANCH   3   4
ENDBRANCH   2   3
ENDBRANCH   1   2
BRANCH   1  26
ATOM     26  C   UNL A   1      31.405  32.133  26.645  1.00  0.00     0.021 C 
BRANCH  26  27
ATOM     27  C   UNL A   1      32.612  32.824  27.264  1.00  0.00     0.116 C 
BRANCH  27  28
ATOM     28  N   UNL A   1      32.344  34.206  27.627  1.00  0.00    -0.352 N 
ATOM     29  C   UNL A   1      32.957  34.972  28.591  1.00  0.00     0.251 C 
ATOM     30  H   UNL A   1      31.630  34.652  27.116  1.00  0.00     0.163 HD
ATOM     31  O   UNL A   1      32.523  36.074  28.890  1.00  0.00    -0.269 OA
BRANCH  29  32
ATOM     32  C   UNL A   1      34.141  34.425  29.287  1.00  0.00     0.039 A 
ATOM     33  C   UNL A   1      33.964  33.751  30.498  1.00  0.00     0.014 A 
ATOM     34  C   UNL A   1      35.413  34.538  28.718  1.00  0.00     0.014 A 
ATOM     35  C   UNL A   1      35.057  33.130  31.105  1.00  0.00     0.010 A 
ATOM     36  C   UNL A   1      36.484  33.855  29.285  1.00  0.00     0.010 A 
ATOM     37  C   UNL A   1      36.317  33.145  30.484  1.00  0.00    -0.014 A 
BRANCH  37  38
ATOM     38  C   UNL A   1      37.476  32.427  31.075  1.00  0.00     0.031 A 
ATOM     39  C   UNL A   1      38.101  32.928  32.347  1.00  0.00     0.074 A 
ATOM     40  C   UNL A   1      38.006  31.369  30.430  1.00  0.00     0.049 A 
ATOM     41  N   UNL A   1      39.155  32.482  32.982  1.00  0.00    -0.248 NA
ATOM     42  C   UNL A   1      37.479  34.105  32.973  1.00  0.00     0.031 C 
ATOM     43  C   UNL A   1      37.524  30.819  29.161  1.00  0.00     0.029 A 
ATOM     44  N   UNL A   1      39.078  30.574  30.750  1.00  0.00    -0.354 N 
ATOM     45  C   UNL A   1      39.332  33.333  34.064  1.00  0.00     0.074 A 
ATOM     46  C   UNL A   1      38.309  34.350  33.976  1.00  0.00     0.031 C 
ATOM     47  C   UNL A   1      38.283  29.765  28.822  1.00  0.00     0.029 A 
ATOM     48  C   UNL A   1      39.326  29.585  29.828  1.00  0.00     0.049 A 
ATOM     49  H   UNL A   1      39.619  30.699  31.563  1.00  0.00     0.167 HD
ATOM     50  C   UNL A   1      40.252  33.260  35.055  1.00  0.00     0.037 A 
ATOM     51  C   UNL A   1      40.289  28.643  29.795  1.00  0.00     0.037 A 
ATOM     52  C   UNL A   1      41.245  32.225  35.162  1.00  0.00     0.049 A 
ATOM     53  C   UNL A   1      41.292  28.580  30.915  1.00  0.00     0.074 A 
ATOM     54  C   UNL A   1      42.166  32.016  36.173  1.00  0.00     0.029 A 
ATOM     55  N   UNL A   1      41.447  31.226  34.222  1.00  0.00    -0.354 N 
ATOM     56  N   UNL A   1      41.393  29.340  31.978  1.00  0.00    -0.248 NA
ATOM     57  C   UNL A   1      42.312  27.525  30.832  1.00  0.00     0.031 C 
ATOM     58  C   UNL A   1      42.957  30.918  35.823  1.00  0.00     0.029 A 
ATOM     59  C   UNL A   1      42.496  30.413  34.618  1.00  0.00     0.049 A 
ATOM     60  H   UNL A   1      40.922  31.111  33.398  1.00  0.00     0.167 HD
ATOM     61  C   UNL A   1      42.464  28.836  32.706  1.00  0.00     0.074 A 
ATOM     62  C   UNL A   1      42.972  27.699  31.968  1.00  0.00     0.031 C 
ATOM     63  C   UNL A   1      42.981  29.276  33.878  1.00  0.00     0.037 A 
BRANCH  50  64
ATOM     64  C   UNL A   1      40.225  34.329  36.109  1.00  0.00     0.057 A 
ATOM     65  C   UNL A   1      39.441  34.210  37.264  1.00  0.00     0.134 A 
ATOM     66  C   UNL A   1      41.028  35.470  35.987  1.00  0.00     0.134 A 
ATOM     67  F   UNL A   1      38.640  33.148  37.437  1.00  0.00    -0.206 F 
ATOM     68  C   UNL A   1      39.438  35.199  38.249  1.00  0.00     0.040 A 
ATOM     69  C   UNL A   1      41.054  36.452  36.978  1.00  0.00     0.040 A 
ATOM     70  F   UNL A   1      41.808  35.643  34.910  1.00  0.00    -0.206 F 
ATOM     71  C   UNL A   1      40.252  36.322  38.111  1.00  0.00     0.006 A 
ENDBRANCH  50  64
BRANCH  51  72
ATOM     72  C   UNL A   1      40.346  27.667  28.677  1.00  0.00     0.057 A 
ATOM     73  C   UNL A   1      41.094  27.934  27.525  1.00  0.00     0.134 A 
ATOM     74  C   UNL A   1      39.636  26.461  28.719  1.00  0.00     0.134 A 
ATOM     75  F   UNL A   1      41.780  29.082  27.417  1.00  0.00    -0.206 F 
ATOM     76  C   UNL A   1      41.116  27.051  26.444  1.00  0.00     0.040 A 
ATOM     77  C   UNL A   1      39.669  25.556  27.656  1.00  0.00     0.040 A 
ATOM     78  F   UNL A   1      38.906  26.142  29.798  1.00  0.00    -0.206 F 
ATOM     79  C   UNL A   1      40.404  25.855  26.511  1.00  0.00     0.006 A 
ENDBRANCH  51  72
BRANCH  63  80
ATOM     80  C   UNL A   1      44.129  28.502  34.457  1.00  0.00     0.057 A 
ATOM     81  C   UNL A   1      43.930  27.390  35.285  1.00  0.00     0.134 A 
ATOM     82  C   UNL A   1      45.449  28.851  34.148  1.00  0.00     0.134 A 
ATOM     83  F   UNL A   1      42.689  27.013  35.629  1.00  0.00    -0.206 F 
ATOM     84  C   UNL A   1      45.004  26.666  35.802  1.00  0.00     0.040 A 
ATOM     85  C   UNL A   1      46.531  28.119  34.638  1.00  0.00     0.040 A 
ATOM     86  F   UNL A   1      45.709  29.901  33.354  1.00  0.00    -0.206 F 
ATOM     87  C   UNL A   1      46.309  27.026  35.472  1.00  0.00     0.006 A 
ENDBRANCH  63  80
ENDBRANCH  37  38
ENDBRANCH  29  32
ENDBRANCH  27  28
ENDBRANCH  26  27
ENDBRANCH   1  26
TORSDOF 15
ENDMDL
MODEL 3
REMARK VINA RESULT:     -11.9      4.560      9.554
REMARK SMILES CC[C@](C)(NC(=O)N1Cc2ccccc2C1)C(=O)NCCCCCCNC(=O)c1ccc(-c2c3nc(c(-c4c(F)cccc4F)c4ccc([nH]4)c(-c4c(F)cccc4F)c4nc(c(-c5c(F)cccc5F)c5ccc2[nH]5)C=C4)C=C3)cc1
REMARK SMILES IDX 23 1 22 2 21 3 20 4 19 5 17 6 18 7 3 9 4 10 2 11 1 12 5 13
REMARK SMILES IDX 6 14 7 16 8 17 9 18 16 19 10 20 15 21 11 22 14 23 12 24
REMARK SMILES IDX 13 25 24 26 25 27 26 28 27 29 28 31 29 32 30 33 82 34 31 35
REMARK SMILES IDX 81 36 32 37 33 38 34 39 75 40 35 41 80 42 74 43 76 44 36 45
REMARK SMILES IDX 79 46 73 47 72 48 37 50 63 51 46 52 62 53 47 54 50 55 61 56
REMARK SMILES IDX 77 57 48 58 49 59 60 61 78 62 51 63 38 64 39 65 44 66 40 67
REMARK SMILES IDX 41 68 43 69 45 70 42 71 64 72 65 73 70 74 66 75 67 76 69 77
REMARK SMILES IDX 71 78 68 79 52 80 53 81 58 82 54 83 55 84 57 85 59 86 56 87
REMARK H PARENT 19 8 5 15 26 30 76 49 50 60
REMARK Flexibility Score: inf
ROOT
ATOM      1  C   UNL A   1      36.653  20.953  24.848  1.00  0.00     0.002 C 
ENDROOT
BRANCH   1   2
ATOM      2  C   UNL A   1      36.971  22.342  24.305  1.00  0.00     0.002 C 
BRANCH   2   3
ATOM      3  C   UNL A   1      35.977  22.926  23.301  1.00  0.00     0.021 C 
BRANCH   3   4
ATOM      4  C   UNL A   1      35.112  24.108  23.747  1.00  0.00     0.116 C 
BRANCH   4   5
ATOM      5  N   UNL A   1      33.789  24.207  23.155  1.00  0.00    -0.354 N 
ATOM      6  C   UNL A   1      32.547  24.402  23.702  1.00  0.00     0.245 C 
ATOM      7  O   UNL A   1      31.620  24.587  22.907  1.00  0.00    -0.272 OA
ATOM      8  H   UNL A   1      33.783  24.116  22.174  1.00  0.00     0.163 HD
BRANCH   6   9
ATOM      9  C   UNL A   1      32.332  24.507  25.240  1.00  0.00     0.117 C 
ATOM     10  C   UNL A   1      30.933  24.022  25.675  1.00  0.00     0.045 C 
BRANCH   9  11
ATOM     11  C   UNL A   1      32.391  26.060  25.469  1.00  0.00     0.035 C 
ATOM     12  C   UNL A   1      33.716  26.673  25.893  1.00  0.00     0.007 C 
ENDBRANCH   9  11
BRANCH   9  13
ATOM     13  N   UNL A   1      33.347  23.767  26.024  1.00  0.00    -0.324 N 
ATOM     14  C   UNL A   1      33.530  22.472  26.380  1.00  0.00     0.318 C 
ATOM     15  H   UNL A   1      34.059  24.354  26.368  1.00  0.00     0.166 HD
ATOM     16  O   UNL A   1      34.246  22.301  27.374  1.00  0.00    -0.249 OA
ATOM     17  N   UNL A   1      33.041  21.412  25.685  1.00  0.00    -0.316 N 
ATOM     18  C   UNL A   1      33.423  20.046  26.095  1.00  0.00     0.157 C 
ATOM     19  C   UNL A   1      32.337  21.370  24.411  1.00  0.00     0.157 C 
ATOM     20  C   UNL A   1      33.117  19.195  24.896  1.00  0.00    -0.023 A 
ATOM     21  C   UNL A   1      32.487  19.970  23.926  1.00  0.00    -0.023 A 
ATOM     22  C   UNL A   1      33.419  17.870  24.638  1.00  0.00     0.006 A 
ATOM     23  C   UNL A   1      32.188  19.478  22.665  1.00  0.00     0.006 A 
ATOM     24  C   UNL A   1      33.114  17.351  23.372  1.00  0.00     0.000 A 
ATOM     25  C   UNL A   1      32.514  18.153  22.387  1.00  0.00     0.000 A 
ENDBRANCH   9  13
ENDBRANCH   6   9
ENDBRANCH   4   5
ENDBRANCH   3   4
ENDBRANCH   2   3
ENDBRANCH   1   2
BRANCH   1  26
ATOM     26  C   UNL A   1      37.818  19.969  24.835  1.00  0.00     0.021 C 
BRANCH  26  27
ATOM     27  C   UNL A   1      38.983  20.345  25.741  1.00  0.00     0.116 C 
BRANCH  27  28
ATOM     28  N   UNL A   1      40.022  19.329  25.769  1.00  0.00    -0.352 N 
ATOM     29  C   UNL A   1      41.353  19.476  26.083  1.00  0.00     0.251 C 
ATOM     30  H   UNL A   1      39.736  18.417  25.531  1.00  0.00     0.163 HD
ATOM     31  O   UNL A   1      42.145  18.561  25.916  1.00  0.00    -0.269 OA
BRANCH  29  32
ATOM     32  C   UNL A   1      41.822  20.779  26.601  1.00  0.00     0.039 A 
ATOM     33  C   UNL A   1      42.301  21.734  25.702  1.00  0.00     0.014 A 
ATOM     34  C   UNL A   1      41.742  21.068  27.967  1.00  0.00     0.014 A 
ATOM     35  C   UNL A   1      42.636  23.007  26.165  1.00  0.00     0.010 A 
ATOM     36  C   UNL A   1      42.005  22.359  28.414  1.00  0.00     0.010 A 
ATOM     37  C   UNL A   1      42.455  23.341  27.518  1.00  0.00    -0.014 A 
BRANCH  37  38
ATOM     38  C   UNL A   1      42.735  24.712  28.017  1.00  0.00     0.031 A 
ATOM     39  C   UNL A   1      44.132  25.096  28.416  1.00  0.00     0.074 A 
ATOM     40  C   UNL A   1      41.720  25.585  28.177  1.00  0.00     0.049 A 
ATOM     41  N   UNL A   1      44.565  26.217  28.935  1.00  0.00    -0.248 NA
ATOM     42  C   UNL A   1      45.177  24.076  28.237  1.00  0.00     0.031 C 
ATOM     43  C   UNL A   1      40.312  25.315  27.878  1.00  0.00     0.029 A 
ATOM     44  N   UNL A   1      41.718  26.875  28.644  1.00  0.00    -0.354 N 
ATOM     45  C   UNL A   1      45.922  26.028  29.162  1.00  0.00     0.074 A 
ATOM     46  C   UNL A   1      46.233  24.672  28.770  1.00  0.00     0.031 C 
ATOM     47  C   UNL A   1      39.587  26.412  28.148  1.00  0.00     0.029 A 
ATOM     48  C   UNL A   1      40.469  27.449  28.672  1.00  0.00     0.049 A 
ATOM     49  H   UNL A   1      42.533  27.346  28.932  1.00  0.00     0.167 HD
ATOM     50  C   UNL A   1      46.832  26.913  29.634  1.00  0.00     0.037 A 
ATOM     51  C   UNL A   1      40.080  28.674  29.080  1.00  0.00     0.037 A 
ATOM     52  C   UNL A   1      46.527  28.274  29.986  1.00  0.00     0.049 A 
ATOM     53  C   UNL A   1      41.113  29.640  29.591  1.00  0.00     0.074 A 
ATOM     54  C   UNL A   1      47.394  29.273  30.393  1.00  0.00     0.029 A 
ATOM     55  N   UNL A   1      45.255  28.827  29.976  1.00  0.00    -0.354 N 
ATOM     56  N   UNL A   1      42.408  29.476  29.718  1.00  0.00    -0.248 NA
ATOM     57  C   UNL A   1      40.633  30.963  30.011  1.00  0.00     0.031 C 
ATOM     58  C   UNL A   1      46.641  30.418  30.674  1.00  0.00     0.029 A 
ATOM     59  C   UNL A   1      45.311  30.145  30.395  1.00  0.00     0.049 A 
ATOM     60  H   UNL A   1      44.435  28.352  29.710  1.00  0.00     0.167 HD
ATOM     61  C   UNL A   1      42.899  30.682  30.200  1.00  0.00     0.074 A 
ATOM     62  C   UNL A   1      41.765  31.573  30.331  1.00  0.00     0.031 C 
ATOM     63  C   UNL A   1      44.174  31.023  30.507  1.00  0.00     0.037 A 
BRANCH  50  64
ATOM     64  C   UNL A   1      48.246  26.439  29.792  1.00  0.00     0.057 A 
ATOM     65  C   UNL A   1      49.203  26.611  28.783  1.00  0.00     0.134 A 
ATOM     66  C   UNL A   1      48.669  25.843  30.987  1.00  0.00     0.134 A 
ATOM     67  F   UNL A   1      48.861  27.163  27.609  1.00  0.00    -0.206 F 
ATOM     68  C   UNL A   1      50.522  26.185  28.947  1.00  0.00     0.040 A 
ATOM     69  C   UNL A   1      49.992  25.439  31.173  1.00  0.00     0.040 A 
ATOM     70  F   UNL A   1      47.806  25.655  31.997  1.00  0.00    -0.206 F 
ATOM     71  C   UNL A   1      50.922  25.604  30.148  1.00  0.00     0.006 A 
ENDBRANCH  50  64
BRANCH  51  72
ATOM     72  C   UNL A   1      38.650  29.069  29.006  1.00  0.00     0.057 A 
ATOM     73  C   UNL A   1      38.100  29.567  27.820  1.00  0.00     0.134 A 
ATOM     74  C   UNL A   1      37.807  28.984  30.121  1.00  0.00     0.134 A 
ATOM     75  F   UNL A   1      38.862  29.690  26.722  1.00  0.00    -0.206 F 
ATOM     76  C   UNL A   1      36.772  29.991  27.749  1.00  0.00     0.040 A 
ATOM     77  C   UNL A   1      36.470  29.381  30.058  1.00  0.00     0.040 A 
ATOM     78  F   UNL A   1      38.271  28.508  31.286  1.00  0.00    -0.206 F 
ATOM     79  C   UNL A   1      35.952  29.895  28.871  1.00  0.00     0.006 A 
ENDBRANCH  51  72
BRANCH  63  80
ATOM     80  C   UNL A   1      44.418  32.427  30.975  1.00  0.00     0.057 A 
ATOM     81  C   UNL A   1      44.666  33.474  30.079  1.00  0.00     0.134 A 
ATOM     82  C   UNL A   1      44.362  32.741  32.339  1.00  0.00     0.134 A 
ATOM     83  F   UNL A   1      44.744  33.236  28.761  1.00  0.00    -0.206 F 
ATOM     84  C   UNL A   1      44.871  34.780  30.525  1.00  0.00     0.040 A 
ATOM     85  C   UNL A   1      44.540  34.048  32.795  1.00  0.00     0.040 A 
ATOM     86  F   UNL A   1      44.121  31.786  33.249  1.00  0.00    -0.206 F 
ATOM     87  C   UNL A   1      44.801  35.071  31.886  1.00  0.00     0.006 A 
ENDBRANCH  63  80
ENDBRANCH  37  38
ENDBRANCH  29  32
ENDBRANCH  27  28
ENDBRANCH  26  27
ENDBRANCH   1  26
TORSDOF 15
ENDMDL
