MODEL 1
REMARK VINA RESULT:     -12.1      0.000      0.000
REMARK SMILES O=C(NCCCCCCNC(=O)c1ccc(-c2ccc(F)c(C(F)(F)F)c2)cc1[N+](=O)[O-])c1ccc(-c2c3nc(c(-c4c(F)cccc4F)c4ccc([nH]4)c(-c4c(F)cccc4F)c4nc(c(-c5c(F)cccc5F)c5ccc2[nH]5)C=C4)C=C3)cc1
REMARK SMILES IDX 6 1 5 2 4 3 3 4 1 5 2 6 33 8 34 9 86 10 35 11 85 12 36 13
REMARK SMILES IDX 37 14 38 15 79 16 39 17 84 18 78 19 80 20 40 21 83 22 77 23
REMARK SMILES IDX 76 24 41 26 67 27 50 28 66 29 51 30 54 31 65 32 81 33 52 34
REMARK SMILES IDX 53 35 64 37 82 38 55 39 42 40 43 41 48 42 44 43 45 44 47 45
REMARK SMILES IDX 49 46 46 47 68 48 69 49 74 50 70 51 71 52 73 53 75 54 72 55
REMARK SMILES IDX 56 56 57 57 62 58 58 59 59 60 61 61 63 62 60 63 7 64 8 65
REMARK SMILES IDX 9 66 10 67 11 68 12 70 13 71 14 72 29 73 15 74 28 75 16 76
REMARK SMILES IDX 30 77 31 78 32 79 17 80 18 81 27 82 19 83 22 84 20 85 21 86
REMARK SMILES IDX 23 87 24 88 25 89 26 90
REMARK H PARENT 3 7 80 25 54 36 10 69
REMARK Flexibility Score: inf
ROOT
ATOM      1  C   UNL A   1      33.716  26.064  25.655  1.00  0.00     0.002 C 
ENDROOT
BRANCH   1   2
ATOM      2  C   UNL A   1      33.673  27.591  25.694  1.00  0.00     0.021 C 
BRANCH   2   3
ATOM      3  C   UNL A   1      33.583  28.207  27.084  1.00  0.00     0.116 C 
BRANCH   3   4
ATOM      4  N   UNL A   1      33.481  29.655  27.062  1.00  0.00    -0.352 N 
ATOM      5  O   UNL A   1      34.062  31.781  27.553  1.00  0.00    -0.269 OA
ATOM      6  C   UNL A   1      34.361  30.590  27.548  1.00  0.00     0.251 C 
ATOM      7  H   UNL A   1      32.668  30.016  26.640  1.00  0.00     0.163 HD
BRANCH   6   8
ATOM      8  C   UNL A   1      35.665  30.158  28.096  1.00  0.00     0.039 A 
ATOM      9  C   UNL A   1      36.828  30.232  27.323  1.00  0.00     0.014 A 
ATOM     10  C   UNL A   1      35.724  29.680  29.408  1.00  0.00     0.014 A 
ATOM     11  C   UNL A   1      38.020  29.715  27.817  1.00  0.00     0.010 A 
ATOM     12  C   UNL A   1      36.940  29.231  29.931  1.00  0.00     0.010 A 
ATOM     13  C   UNL A   1      38.092  29.223  29.131  1.00  0.00    -0.014 A 
BRANCH  13  14
ATOM     14  C   UNL A   1      39.399  28.770  29.668  1.00  0.00     0.031 A 
ATOM     15  C   UNL A   1      40.004  29.401  30.889  1.00  0.00     0.074 A 
ATOM     16  C   UNL A   1      40.033  27.758  29.045  1.00  0.00     0.049 A 
ATOM     17  N   UNL A   1      41.128  29.111  31.494  1.00  0.00    -0.248 NA
ATOM     18  C   UNL A   1      39.256  30.505  31.509  1.00  0.00     0.031 C 
ATOM     19  C   UNL A   1      39.550  27.078  27.840  1.00  0.00     0.029 A 
ATOM     20  N   UNL A   1      41.207  27.116  29.342  1.00  0.00    -0.354 N 
ATOM     21  C   UNL A   1      41.233  30.003  32.553  1.00  0.00     0.074 A 
ATOM     22  C   UNL A   1      40.068  30.862  32.496  1.00  0.00     0.031 C 
ATOM     23  C   UNL A   1      40.397  26.087  27.526  1.00  0.00     0.029 A 
ATOM     24  C   UNL A   1      41.508  26.097  28.471  1.00  0.00     0.049 A 
ATOM     25  H   UNL A   1      41.778  27.360  30.105  1.00  0.00     0.167 HD
ATOM     26  C   UNL A   1      42.209  30.092  33.489  1.00  0.00     0.037 A 
ATOM     27  C   UNL A   1      42.566  25.269  28.428  1.00  0.00     0.037 A 
ATOM     28  C   UNL A   1      43.359  29.225  33.549  1.00  0.00     0.049 A 
ATOM     29  C   UNL A   1      43.641  25.402  29.466  1.00  0.00     0.074 A 
ATOM     30  C   UNL A   1      44.380  29.209  34.485  1.00  0.00     0.029 A 
ATOM     31  N   UNL A   1      43.644  28.225  32.632  1.00  0.00    -0.354 N 
ATOM     32  N   UNL A   1      43.706  26.226  30.483  1.00  0.00    -0.248 NA
ATOM     33  C   UNL A   1      44.788  24.493  29.348  1.00  0.00     0.031 C 
ATOM     34  C   UNL A   1      45.303  28.226  34.111  1.00  0.00     0.029 A 
ATOM     35  C   UNL A   1      44.836  27.601  32.966  1.00  0.00     0.049 A 
ATOM     36  H   UNL A   1      43.083  27.992  31.857  1.00  0.00     0.167 HD
ATOM     37  C   UNL A   1      44.897  25.933  31.131  1.00  0.00     0.074 A 
ATOM     38  C   UNL A   1      45.510  24.839  30.405  1.00  0.00     0.031 C 
ATOM     39  C   UNL A   1      45.435  26.519  32.227  1.00  0.00     0.037 A 
BRANCH  26  40
ATOM     40  C   UNL A   1      42.084  31.173  34.521  1.00  0.00     0.057 A 
ATOM     41  C   UNL A   1      42.639  32.446  34.330  1.00  0.00     0.134 A 
ATOM     42  C   UNL A   1      41.362  30.955  35.701  1.00  0.00     0.134 A 
ATOM     43  F   UNL A   1      43.351  32.719  33.226  1.00  0.00    -0.206 F 
ATOM     44  C   UNL A   1      42.495  33.455  35.284  1.00  0.00     0.040 A 
ATOM     45  C   UNL A   1      41.194  31.962  36.653  1.00  0.00     0.040 A 
ATOM     46  F   UNL A   1      40.800  29.761  35.943  1.00  0.00    -0.206 F 
ATOM     47  C   UNL A   1      41.767  33.216  36.447  1.00  0.00     0.006 A 
ENDBRANCH  26  40
BRANCH  27  48
ATOM     48  C   UNL A   1      42.654  24.246  27.360  1.00  0.00     0.057 A 
ATOM     49  C   UNL A   1      42.124  22.964  27.543  1.00  0.00     0.134 A 
ATOM     50  C   UNL A   1      43.242  24.532  26.122  1.00  0.00     0.134 A 
ATOM     51  F   UNL A   1      41.560  22.627  28.712  1.00  0.00    -0.206 F 
ATOM     52  C   UNL A   1      42.182  22.000  26.536  1.00  0.00     0.040 A 
ATOM     53  C   UNL A   1      43.285  23.587  25.098  1.00  0.00     0.040 A 
ATOM     54  F   UNL A   1      43.760  25.747  25.885  1.00  0.00    -0.206 F 
ATOM     55  C   UNL A   1      42.757  22.314  25.305  1.00  0.00     0.006 A 
ENDBRANCH  27  48
BRANCH  39  56
ATOM     56  C   UNL A   1      46.747  25.976  32.710  1.00  0.00     0.057 A 
ATOM     57  C   UNL A   1      46.811  24.961  33.674  1.00  0.00     0.134 A 
ATOM     58  C   UNL A   1      47.954  26.458  32.193  1.00  0.00     0.134 A 
ATOM     59  F   UNL A   1      45.689  24.470  34.220  1.00  0.00    -0.206 F 
ATOM     60  C   UNL A   1      48.034  24.462  34.123  1.00  0.00     0.040 A 
ATOM     61  C   UNL A   1      49.183  25.950  32.617  1.00  0.00     0.040 A 
ATOM     62  F   UNL A   1      47.960  27.426  31.264  1.00  0.00    -0.206 F 
ATOM     63  C   UNL A   1      49.224  24.953  33.590  1.00  0.00     0.006 A 
ENDBRANCH  39  56
ENDBRANCH  13  14
ENDBRANCH   6   8
ENDBRANCH   3   4
ENDBRANCH   2   3
ENDBRANCH   1   2
BRANCH   1  64
ATOM     64  C   UNL A   1      34.396  25.444  24.431  1.00  0.00     0.002 C 
BRANCH  64  65
ATOM     65  C   UNL A   1      34.844  23.985  24.573  1.00  0.00     0.021 C 
BRANCH  65  66
ATOM     66  C   UNL A   1      34.332  23.256  25.813  1.00  0.00     0.116 C 
BRANCH  66  67
ATOM     67  N   UNL A   1      33.555  22.074  25.487  1.00  0.00    -0.352 N 
ATOM     68  C   UNL A   1      32.267  21.973  25.033  1.00  0.00     0.258 C 
ATOM     69  H   UNL A   1      34.023  21.217  25.611  1.00  0.00     0.163 HD
ATOM     70  O   UNL A   1      31.725  20.883  24.905  1.00  0.00    -0.269 OA
BRANCH  68  71
ATOM     71  C   UNL A   1      31.494  23.194  24.757  1.00  0.00     0.117 A 
ATOM     72  C   UNL A   1      31.491  23.668  23.442  1.00  0.00     0.022 A 
ATOM     73  C   UNL A   1      30.777  23.890  25.727  1.00  0.00     0.282 A 
ATOM     74  C   UNL A   1      30.739  24.800  23.107  1.00  0.00     0.010 A 
ATOM     75  C   UNL A   1      30.008  25.015  25.395  1.00  0.00     0.095 A 
ATOM     76  C   UNL A   1      29.976  25.485  24.072  1.00  0.00    -0.012 A 
BRANCH  73  77
ATOM     77  N   UNL A   1      30.807  23.472  27.113  1.00  0.00     0.063 N 
ATOM     78  O   UNL A   1      29.760  22.988  27.568  1.00  0.00    -0.258 OA
ATOM     79  O   UNL A   1      31.852  23.646  27.747  1.00  0.00    -0.258 OA
ENDBRANCH  73  77
BRANCH  76  80
ATOM     80  C   UNL A   1      29.178  26.668  23.707  1.00  0.00    -0.017 A 
ATOM     81  C   UNL A   1      27.799  26.724  23.971  1.00  0.00     0.012 A 
ATOM     82  C   UNL A   1      29.777  27.780  23.087  1.00  0.00     0.025 A 
ATOM     83  C   UNL A   1      27.046  27.848  23.626  1.00  0.00     0.040 A 
ATOM     84  C   UNL A   1      29.029  28.920  22.740  1.00  0.00     0.092 A 
ATOM     85  C   UNL A   1      27.667  28.933  23.015  1.00  0.00     0.135 A 
ATOM     86  F   UNL A   1      26.927  30.000  22.691  1.00  0.00    -0.206 F 
BRANCH  84  87
ATOM     87  C   UNL A   1      29.657  30.108  22.078  1.00  0.00     0.419 C 
ATOM     88  F   UNL A   1      30.984  29.938  21.833  1.00  0.00    -0.166 F 
ATOM     89  F   UNL A   1      29.080  30.419  20.885  1.00  0.00    -0.166 F 
ATOM     90  F   UNL A   1      29.566  31.243  22.832  1.00  0.00    -0.166 F 
ENDBRANCH  84  87
ENDBRANCH  76  80
ENDBRANCH  68  71
ENDBRANCH  66  67
ENDBRANCH  65  66
ENDBRANCH  64  65
ENDBRANCH   1  64
TORSDOF 16
ENDMDL
MODEL 2
REMARK VINA RESULT:     -12.0      3.721      5.594
REMARK SMILES O=C(NCCCCCCNC(=O)c1ccc(-c2ccc(F)c(C(F)(F)F)c2)cc1[N+](=O)[O-])c1ccc(-c2c3nc(c(-c4c(F)cccc4F)c4ccc([nH]4)c(-c4c(F)cccc4F)c4nc(c(-c5c(F)cccc5F)c5ccc2[nH]5)C=C4)C=C3)cc1
REMARK SMILES IDX 6 1 5 2 4 3 3 4 1 5 2 6 33 8 34 9 86 10 35 11 85 12 36 13
REMARK SMILES IDX 37 14 38 15 79 16 39 17 84 18 78 19 80 20 40 21 83 22 77 23
REMARK SMILES IDX 76 24 41 26 67 27 50 28 66 29 51 30 54 31 65 32 81 33 52 34
REMARK SMILES IDX 53 35 64 37 82 38 55 39 42 40 43 41 48 42 44 43 45 44 47 45
REMARK SMILES IDX 49 46 46 47 68 48 69 49 74 50 70 51 71 52 73 53 75 54 72 55
REMARK SMILES IDX 56 56 57 57 62 58 58 59 59 60 61 61 63 62 60 63 7 64 8 65
REMARK SMILES IDX 9 66 10 67 11 68 12 70 13 71 14 72 29 73 15 74 28 75 16 76
REMARK SMILES IDX 30 77 31 78 32 79 17 80 18 81 27 82 19 83 22 84 20 85 21 86
REMARK SMILES IDX 23 87 24 88 25 89 26 90
REMARK H PARENT 3 7 80 25 54 36 10 69
REMARK Flexibility Score: inf
ROOT
ATOM      1  C   UNL A   1      31.784  30.478  26.766  1.00  0.00     0.002 C 
ENDROOT
BRANCH   1   2
ATOM      2  C   UNL A   1      31.510  31.977  26.888  1.00  0.00     0.021 C 
BRANCH   2   3
ATOM      3  C   UNL A   1      32.746  32.864  26.943  1.00  0.00     0.116 C 
BRANCH   3   4
ATOM      4  N   UNL A   1      32.498  34.151  27.570  1.00  0.00    -0.352 N 
ATOM      5  O   UNL A   1      32.713  35.773  29.126  1.00  0.00    -0.269 OA
ATOM      6  C   UNL A   1      33.130  34.722  28.647  1.00  0.00     0.251 C 
ATOM      7  H   UNL A   1      31.777  34.687  27.168  1.00  0.00     0.163 HD
BRANCH   6   8
ATOM      8  C   UNL A   1      34.302  34.053  29.252  1.00  0.00     0.039 A 
ATOM      9  C   UNL A   1      35.603  34.443  28.918  1.00  0.00     0.014 A 
ATOM     10  C   UNL A   1      34.094  33.025  30.175  1.00  0.00     0.014 A 
ATOM     11  C   UNL A   1      36.687  33.727  29.410  1.00  0.00     0.010 A 
ATOM     12  C   UNL A   1      35.188  32.355  30.729  1.00  0.00     0.010 A 
ATOM     13  C   UNL A   1      36.493  32.685  30.332  1.00  0.00    -0.014 A 
BRANCH  13  14
ATOM     14  C   UNL A   1      37.672  32.003  30.920  1.00  0.00     0.031 A 
ATOM     15  C   UNL A   1      38.151  32.325  32.306  1.00  0.00     0.074 A 
ATOM     16  C   UNL A   1      38.302  31.066  30.187  1.00  0.00     0.049 A 
ATOM     17  N   UNL A   1      39.153  31.807  32.971  1.00  0.00    -0.248 NA
ATOM     18  C   UNL A   1      37.417  33.365  33.042  1.00  0.00     0.031 C 
ATOM     19  C   UNL A   1      37.937  30.680  28.821  1.00  0.00     0.029 A 
ATOM     20  N   UNL A   1      39.368  30.257  30.487  1.00  0.00    -0.354 N 
ATOM     21  C   UNL A   1      39.183  32.467  34.192  1.00  0.00     0.074 A 
ATOM     22  C   UNL A   1      38.111  33.440  34.170  1.00  0.00     0.031 C 
ATOM     23  C   UNL A   1      38.736  29.682  28.417  1.00  0.00     0.029 A 
ATOM     24  C   UNL A   1      39.703  29.395  29.472  1.00  0.00     0.049 A 
ATOM     25  H   UNL A   1      39.846  30.291  31.346  1.00  0.00     0.167 HD
ATOM     26  C   UNL A   1      40.024  32.273  35.237  1.00  0.00     0.037 A 
ATOM     27  C   UNL A   1      40.687  28.483  29.390  1.00  0.00     0.037 A 
ATOM     28  C   UNL A   1      41.081  31.294  35.258  1.00  0.00     0.049 A 
ATOM     29  C   UNL A   1      41.615  28.302  30.555  1.00  0.00     0.074 A 
ATOM     30  C   UNL A   1      41.958  30.994  36.287  1.00  0.00     0.029 A 
ATOM     31  N   UNL A   1      41.409  30.460  34.200  1.00  0.00    -0.354 N 
ATOM     32  N   UNL A   1      41.606  28.908  31.716  1.00  0.00    -0.248 NA
ATOM     33  C   UNL A   1      42.691  27.316  30.394  1.00  0.00     0.031 C 
ATOM     34  C   UNL A   1      42.841  30.006  35.837  1.00  0.00     0.029 A 
ATOM     35  C   UNL A   1      42.489  29.662  34.542  1.00  0.00     0.049 A 
ATOM     36  H   UNL A   1      40.943  30.439  33.333  1.00  0.00     0.167 HD
ATOM     37  C   UNL A   1      42.668  28.373  32.430  1.00  0.00     0.074 A 
ATOM     38  C   UNL A   1      43.285  27.376  31.578  1.00  0.00     0.031 C 
ATOM     39  C   UNL A   1      43.095  28.681  33.678  1.00  0.00     0.037 A 
BRANCH  26  40
ATOM     40  C   UNL A   1      39.846  33.148  36.442  1.00  0.00     0.057 A 
ATOM     41  C   UNL A   1      40.553  34.347  36.598  1.00  0.00     0.134 A 
ATOM     42  C   UNL A   1      38.922  32.810  37.439  1.00  0.00     0.134 A 
ATOM     43  F   UNL A   1      41.461  34.726  35.684  1.00  0.00    -0.206 F 
ATOM     44  C   UNL A   1      40.362  35.169  37.711  1.00  0.00     0.040 A 
ATOM     45  C   UNL A   1      38.706  33.633  38.546  1.00  0.00     0.040 A 
ATOM     46  F   UNL A   1      38.207  31.679  37.349  1.00  0.00    -0.206 F 
ATOM     47  C   UNL A   1      39.432  34.815  38.687  1.00  0.00     0.006 A 
ENDBRANCH  26  40
BRANCH  27  48
ATOM     48  C   UNL A   1      40.838  27.676  28.156  1.00  0.00     0.057 A 
ATOM     49  C   UNL A   1      40.215  26.430  28.027  1.00  0.00     0.134 A 
ATOM     50  C   UNL A   1      41.584  28.142  27.067  1.00  0.00     0.134 A 
ATOM     51  F   UNL A   1      39.499  25.925  29.042  1.00  0.00    -0.206 F 
ATOM     52  C   UNL A   1      40.334  25.672  26.862  1.00  0.00     0.040 A 
ATOM     53  C   UNL A   1      41.691  27.407  25.886  1.00  0.00     0.040 A 
ATOM     54  F   UNL A   1      42.197  29.334  27.128  1.00  0.00    -0.206 F 
ATOM     55  C   UNL A   1      41.067  26.165  25.783  1.00  0.00     0.006 A 
ENDBRANCH  27  48
BRANCH  39  56
ATOM     56  C   UNL A   1      44.279  27.920  34.196  1.00  0.00     0.057 A 
ATOM     57  C   UNL A   1      45.583  28.413  34.063  1.00  0.00     0.134 A 
ATOM     58  C   UNL A   1      44.111  26.694  34.848  1.00  0.00     0.134 A 
ATOM     59  F   UNL A   1      45.811  29.575  33.432  1.00  0.00    -0.206 F 
ATOM     60  C   UNL A   1      46.682  27.699  34.543  1.00  0.00     0.040 A 
ATOM     61  C   UNL A   1      45.200  25.982  35.353  1.00  0.00     0.040 A 
ATOM     62  F   UNL A   1      42.886  26.171  35.011  1.00  0.00    -0.206 F 
ATOM     63  C   UNL A   1      46.491  26.482  35.195  1.00  0.00     0.006 A 
ENDBRANCH  39  56
ENDBRANCH  13  14
ENDBRANCH   6   8
ENDBRANCH   3   4
ENDBRANCH   2   3
ENDBRANCH   1   2
BRANCH   1  64
ATOM     64  C   UNL A   1      31.525  29.861  25.389  1.00  0.00     0.002 C 
BRANCH  64  65
ATOM     65  C   UNL A   1      32.700  29.109  24.754  1.00  0.00     0.021 C 
BRANCH  65  66
ATOM     66  C   UNL A   1      32.321  28.007  23.767  1.00  0.00     0.116 C 
BRANCH  66  67
ATOM     67  N   UNL A   1      30.888  27.782  23.703  1.00  0.00    -0.352 N 
ATOM     68  C   UNL A   1      30.186  26.607  23.749  1.00  0.00     0.258 C 
ATOM     69  H   UNL A   1      30.340  28.594  23.611  1.00  0.00     0.163 HD
ATOM     70  O   UNL A   1      28.974  26.587  23.576  1.00  0.00    -0.269 OA
BRANCH  68  71
ATOM     71  C   UNL A   1      30.902  25.337  23.944  1.00  0.00     0.117 A 
ATOM     72  C   UNL A   1      31.459  24.735  22.812  1.00  0.00     0.022 A 
ATOM     73  C   UNL A   1      31.046  24.713  25.180  1.00  0.00     0.282 A 
ATOM     74  C   UNL A   1      32.190  23.547  22.938  1.00  0.00     0.010 A 
ATOM     75  C   UNL A   1      31.791  23.532  25.316  1.00  0.00     0.095 A 
ATOM     76  C   UNL A   1      32.379  22.932  24.191  1.00  0.00    -0.012 A 
BRANCH  73  77
ATOM     77  N   UNL A   1      30.428  25.267  26.367  1.00  0.00     0.063 N 
ATOM     78  O   UNL A   1      29.601  24.548  26.947  1.00  0.00    -0.258 OA
ATOM     79  O   UNL A   1      30.746  26.412  26.703  1.00  0.00    -0.258 OA
ENDBRANCH  73  77
BRANCH  76  80
ATOM     80  C   UNL A   1      33.159  21.690  24.315  1.00  0.00    -0.017 A 
ATOM     81  C   UNL A   1      34.433  21.688  24.907  1.00  0.00     0.012 A 
ATOM     82  C   UNL A   1      32.646  20.465  23.848  1.00  0.00     0.025 A 
ATOM     83  C   UNL A   1      35.169  20.506  25.024  1.00  0.00     0.040 A 
ATOM     84  C   UNL A   1      33.376  19.269  23.967  1.00  0.00     0.092 A 
ATOM     85  C   UNL A   1      34.635  19.311  24.555  1.00  0.00     0.135 A 
ATOM     86  F   UNL A   1      35.357  18.191  24.676  1.00  0.00    -0.206 F 
BRANCH  84  87
ATOM     87  C   UNL A   1      32.840  17.961  23.472  1.00  0.00     0.419 C 
ATOM     88  F   UNL A   1      31.715  18.100  22.718  1.00  0.00    -0.166 F 
ATOM     89  F   UNL A   1      33.734  17.274  22.708  1.00  0.00    -0.166 F 
ATOM     90  F   UNL A   1      32.499  17.111  24.484  1.00  0.00    -0.166 F 
ENDBRANCH  84  87
ENDBRANCH  76  80
ENDBRANCH  68  71
ENDBRANCH  66  67
ENDBRANCH  65  66
ENDBRANCH  64  65
ENDBRANCH   1  64
TORSDOF 16
ENDMDL
MODEL 3
REMARK VINA RESULT:     -12.0      2.866      6.661
REMARK SMILES O=C(NCCCCCCNC(=O)c1ccc(-c2ccc(F)c(C(F)(F)F)c2)cc1[N+](=O)[O-])c1ccc(-c2c3nc(c(-c4c(F)cccc4F)c4ccc([nH]4)c(-c4c(F)cccc4F)c4nc(c(-c5c(F)cccc5F)c5ccc2[nH]5)C=C4)C=C3)cc1
REMARK SMILES IDX 6 1 5 2 4 3 3 4 1 5 2 6 33 8 34 9 86 10 35 11 85 12 36 13
REMARK SMILES IDX 37 14 38 15 79 16 39 17 84 18 78 19 80 20 40 21 83 22 77 23
REMARK SMILES IDX 76 24 41 26 67 27 50 28 66 29 51 30 54 31 65 32 81 33 52 34
REMARK SMILES IDX 53 35 64 37 82 38 55 39 42 40 43 41 48 42 44 43 45 44 47 45
REMARK SMILES IDX 49 46 46 47 68 48 69 49 74 50 70 51 71 52 73 53 75 54 72 55
REMARK SMILES IDX 56 56 57 57 62 58 58 59 59 60 61 61 63 62 60 63 7 64 8 65
REMARK SMILES IDX 9 66 10 67 11 68 12 70 13 71 14 72 29 73 15 74 28 75 16 76
REMARK SMILES IDX 30 77 31 78 32 79 17 80 18 81 27 82 19 83 22 84 20 85 21 86
REMARK SMILES IDX 23 87 24 88 25 89 26 90
REMARK H PARENT 3 7 80 25 54 36 10 69
REMARK Flexibility Score: inf
ROOT
ATOM      1  C   UNL A   1      36.701  20.333  24.971  1.00  0.00     0.002 C 
ENDROOT
BRANCH   1   2
ATOM      2  C   UNL A   1      37.973  19.486  24.959  1.00  0.00     0.021 C 
BRANCH   2   3
ATOM      3  C   UNL A   1      39.160  20.079  25.707  1.00  0.00     0.116 C 
BRANCH   3   4
ATOM      4  N   UNL A   1      40.307  19.190  25.755  1.00  0.00    -0.352 N 
ATOM      5  O   UNL A   1      42.482  18.624  25.971  1.00  0.00    -0.269 OA
ATOM      6  C   UNL A   1      41.605  19.474  26.100  1.00  0.00     0.251 C 
ATOM      7  H   UNL A   1      40.129  18.254  25.504  1.00  0.00     0.163 HD
BRANCH   6   8
ATOM      8  C   UNL A   1      41.955  20.820  26.602  1.00  0.00     0.039 A 
ATOM      9  C   UNL A   1      41.905  21.111  27.969  1.00  0.00     0.014 A 
ATOM     10  C   UNL A   1      42.349  21.803  25.689  1.00  0.00     0.014 A 
ATOM     11  C   UNL A   1      42.127  22.412  28.407  1.00  0.00     0.010 A 
ATOM     12  C   UNL A   1      42.646  23.092  26.140  1.00  0.00     0.010 A 
ATOM     13  C   UNL A   1      42.514  23.412  27.500  1.00  0.00    -0.014 A 
BRANCH  13  14
ATOM     14  C   UNL A   1      42.844  24.767  28.008  1.00  0.00     0.031 A 
ATOM     15  C   UNL A   1      41.774  25.794  28.248  1.00  0.00     0.074 A 
ATOM     16  C   UNL A   1      44.132  25.058  28.272  1.00  0.00     0.049 A 
ATOM     17  N   UNL A   1      41.894  27.015  28.705  1.00  0.00    -0.248 NA
ATOM     18  C   UNL A   1      40.392  25.405  27.929  1.00  0.00     0.031 C 
ATOM     19  C   UNL A   1      45.260  24.145  28.063  1.00  0.00     0.029 A 
ATOM     20  N   UNL A   1      44.710  26.190  28.784  1.00  0.00    -0.354 N 
ATOM     21  C   UNL A   1      40.611  27.546  28.712  1.00  0.00     0.074 A 
ATOM     22  C   UNL A   1      39.729  26.523  28.193  1.00  0.00     0.031 C 
ATOM     23  C   UNL A   1      46.387  24.737  28.482  1.00  0.00     0.029 A 
ATOM     24  C   UNL A   1      46.071  26.087  28.938  1.00  0.00     0.049 A 
ATOM     25  H   UNL A   1      44.200  26.998  29.019  1.00  0.00     0.167 HD
ATOM     26  C   UNL A   1      40.209  28.774  29.121  1.00  0.00     0.037 A 
ATOM     27  C   UNL A   1      46.970  26.982  29.382  1.00  0.00     0.037 A 
ATOM     28  C   UNL A   1      41.090  29.785  29.649  1.00  0.00     0.049 A 
ATOM     29  C   UNL A   1      46.498  28.340  29.811  1.00  0.00     0.074 A 
ATOM     30  C   UNL A   1      40.770  31.044  30.130  1.00  0.00     0.029 A 
ATOM     31  N   UNL A   1      42.466  29.654  29.761  1.00  0.00    -0.354 N 
ATOM     32  N   UNL A   1      45.278  28.814  29.848  1.00  0.00    -0.248 NA
ATOM     33  C   UNL A   1      47.529  29.287  30.255  1.00  0.00     0.031 C 
ATOM     34  C   UNL A   1      41.957  31.689  30.495  1.00  0.00     0.029 A 
ATOM     35  C   UNL A   1      43.012  30.818  30.281  1.00  0.00     0.049 A 
ATOM     36  H   UNL A   1      42.980  28.854  29.508  1.00  0.00     0.167 HD
ATOM     37  C   UNL A   1      45.390  30.112  30.325  1.00  0.00     0.074 A 
ATOM     38  C   UNL A   1      46.797  30.341  30.586  1.00  0.00     0.031 C 
ATOM     39  C   UNL A   1      44.415  31.031  30.526  1.00  0.00     0.037 A 
BRANCH  26  40
ATOM     40  C   UNL A   1      38.750  29.102  29.001  1.00  0.00     0.057 A 
ATOM     41  C   UNL A   1      37.878  29.008  30.093  1.00  0.00     0.134 A 
ATOM     42  C   UNL A   1      38.218  29.560  27.789  1.00  0.00     0.134 A 
ATOM     43  F   UNL A   1      38.320  28.567  31.281  1.00  0.00    -0.206 F 
ATOM     44  C   UNL A   1      36.526  29.339  29.979  1.00  0.00     0.040 A 
ATOM     45  C   UNL A   1      36.874  29.914  27.667  1.00  0.00     0.040 A 
ATOM     46  F   UNL A   1      39.000  29.679  26.705  1.00  0.00    -0.206 F 
ATOM     47  C   UNL A   1      36.022  29.799  28.764  1.00  0.00     0.006 A 
ENDBRANCH  26  40
BRANCH  27  48
ATOM     48  C   UNL A   1      48.405  26.614  29.440  1.00  0.00     0.057 A 
ATOM     49  C   UNL A   1      48.934  25.945  30.548  1.00  0.00     0.134 A 
ATOM     50  C   UNL A   1      49.273  26.898  28.379  1.00  0.00     0.134 A 
ATOM     51  F   UNL A   1      48.154  25.659  31.601  1.00  0.00    -0.206 F 
ATOM     52  C   UNL A   1      50.279  25.575  30.602  1.00  0.00     0.040 A 
ATOM     53  C   UNL A   1      50.613  26.512  28.409  1.00  0.00     0.040 A 
ATOM     54  F   UNL A   1      48.821  27.530  27.286  1.00  0.00    -0.206 F 
ATOM     55  C   UNL A   1      51.120  25.852  29.526  1.00  0.00     0.006 A 
ENDBRANCH  27  48
BRANCH  39  56
ATOM     56  C   UNL A   1      44.843  32.363  31.066  1.00  0.00     0.057 A 
ATOM     57  C   UNL A   1      44.944  32.598  32.443  1.00  0.00     0.134 A 
ATOM     58  C   UNL A   1      45.175  33.412  30.202  1.00  0.00     0.134 A 
ATOM     59  F   UNL A   1      44.624  31.638  33.323  1.00  0.00    -0.206 F 
ATOM     60  C   UNL A   1      45.339  33.841  32.941  1.00  0.00     0.040 A 
ATOM     61  C   UNL A   1      45.593  34.651  30.687  1.00  0.00     0.040 A 
ATOM     62  F   UNL A   1      45.103  33.248  28.872  1.00  0.00    -0.206 F 
ATOM     63  C   UNL A   1      45.670  34.870  32.061  1.00  0.00     0.006 A 
ENDBRANCH  39  56
ENDBRANCH  13  14
ENDBRANCH   6   8
ENDBRANCH   3   4
ENDBRANCH   2   3
ENDBRANCH   1   2
BRANCH   1  64
ATOM     64  C   UNL A   1      36.878  21.802  25.363  1.00  0.00     0.002 C 
BRANCH  64  65
ATOM     65  C   UNL A   1      35.614  22.669  25.322  1.00  0.00     0.021 C 
BRANCH  65  66
ATOM     66  C   UNL A   1      34.568  22.360  26.390  1.00  0.00     0.116 C 
BRANCH  66  67
ATOM     67  N   UNL A   1      33.574  21.403  25.939  1.00  0.00    -0.352 N 
ATOM     68  C   UNL A   1      32.395  21.615  25.277  1.00  0.00     0.258 C 
ATOM     69  H   UNL A   1      33.777  20.461  26.141  1.00  0.00     0.163 HD
ATOM     70  O   UNL A   1      31.615  20.695  25.061  1.00  0.00    -0.269 OA
BRANCH  68  71
ATOM     71  C   UNL A   1      32.019  22.980  24.875  1.00  0.00     0.117 A 
ATOM     72  C   UNL A   1      32.432  23.412  23.612  1.00  0.00     0.022 A 
ATOM     73  C   UNL A   1      31.287  23.848  25.680  1.00  0.00     0.282 A 
ATOM     74  C   UNL A   1      32.069  24.685  23.154  1.00  0.00     0.010 A 
ATOM     75  C   UNL A   1      30.906  25.118  25.221  1.00  0.00     0.095 A 
ATOM     76  C   UNL A   1      31.292  25.554  23.942  1.00  0.00    -0.012 A 
BRANCH  73  77
ATOM     77  N   UNL A   1      30.897  23.466  27.021  1.00  0.00     0.063 N 
ATOM     78  O   UNL A   1      31.815  23.220  27.816  1.00  0.00    -0.258 OA
ATOM     79  O   UNL A   1      29.690  23.389  27.272  1.00  0.00    -0.258 OA
ENDBRANCH  73  77
BRANCH  76  80
ATOM     80  C   UNL A   1      30.904  26.885  23.447  1.00  0.00    -0.017 A 
ATOM     81  C   UNL A   1      31.863  27.780  22.943  1.00  0.00     0.012 A 
ATOM     82  C   UNL A   1      29.559  27.298  23.461  1.00  0.00     0.025 A 
ATOM     83  C   UNL A   1      31.490  29.042  22.472  1.00  0.00     0.040 A 
ATOM     84  C   UNL A   1      29.172  28.563  22.984  1.00  0.00     0.092 A 
ATOM     85  C   UNL A   1      30.152  29.420  22.497  1.00  0.00     0.135 A 
ATOM     86  F   UNL A   1      29.817  30.633  22.043  1.00  0.00    -0.206 F 
BRANCH  84  87
ATOM     87  C   UNL A   1      27.743  29.012  22.996  1.00  0.00     0.419 C 
ATOM     88  F   UNL A   1      27.250  29.246  21.750  1.00  0.00    -0.166 F 
ATOM     89  F   UNL A   1      26.907  28.108  23.578  1.00  0.00    -0.166 F 
ATOM     90  F   UNL A   1      27.559  30.174  23.687  1.00  0.00    -0.166 F 
ENDBRANCH  84  87
ENDBRANCH  76  80
ENDBRANCH  68  71
ENDBRANCH  66  67
ENDBRANCH  65  66
ENDBRANCH  64  65
ENDBRANCH   1  64
TORSDOF 16
ENDMDL
