MODEL 1
REMARK VINA RESULT:     -10.0      0.000      0.000
REMARK SMILES C[C@H](C(=O)NCCCCCCNC(=O)c1ccc(-c2c3nc(c(-c4c(F)cccc4F)c4ccc([nH]4)c(-c4c(F)cccc4F)c4nc(c(-c5c(F)cccc5F)c5ccc2[nH]5)C=C4)C=C3)cc1)S(=O)(=O)NC[C@@H]1C[N@@H+](C)CCO1
REMARK SMILES IDX 7 1 6 2 5 3 3 4 4 5 2 7 1 8 69 9 70 10 71 11 72 12 73 14
REMARK SMILES IDX 74 15 75 16 80 17 76 18 79 19 77 20 78 21 8 23 9 24 10 25
REMARK SMILES IDX 11 26 12 27 13 28 14 30 15 31 16 32 68 33 17 34 67 35 18 36
REMARK SMILES IDX 19 37 20 38 61 39 21 40 66 41 60 42 62 43 22 44 65 45 59 46
REMARK SMILES IDX 58 47 23 49 49 50 32 51 48 52 33 53 36 54 47 55 63 56 34 57
REMARK SMILES IDX 35 58 46 60 64 61 37 62 24 63 25 64 30 65 26 66 27 67 29 68
REMARK SMILES IDX 31 69 28 70 50 71 51 72 56 73 52 74 53 75 55 76 57 77 54 78
REMARK SMILES IDX 38 79 39 80 44 81 40 82 41 83 43 84 45 85 42 86
REMARK H PARENT 5 6 72 13 76 22 12 29 62 48 36 59
REMARK Flexibility Score: inf
ROOT
ATOM      1  C   UNL A   1      37.916  23.595  26.128  1.00  0.00     0.021 C 
ENDROOT
BRANCH   1   2
ATOM      2  C   UNL A   1      36.415  23.599  25.776  1.00  0.00     0.116 C 
BRANCH   2   3
ATOM      3  N   UNL A   1      35.617  22.788  26.685  1.00  0.00    -0.355 N 
ATOM      4  C   UNL A   1      34.594  21.913  26.503  1.00  0.00     0.239 C 
ATOM      5  O   UNL A   1      34.104  21.486  27.559  1.00  0.00    -0.274 OA
ATOM      6  H   UNL A   1      35.873  22.897  27.629  1.00  0.00     0.163 HD
BRANCH   4   7
ATOM      7  C   UNL A   1      34.112  21.406  25.160  1.00  0.00     0.209 C 
ATOM      8  C   UNL A   1      34.699  20.017  24.873  1.00  0.00     0.037 C 
BRANCH   7   9
ATOM      9  S   UNL A   1      32.321  21.340  24.994  1.00  0.00     0.223 S 
ATOM     10  O   UNL A   1      31.915  21.895  23.724  1.00  0.00    -0.212 OA
ATOM     11  O   UNL A   1      31.908  19.982  25.294  1.00  0.00    -0.212 OA
BRANCH   9  12
ATOM     12  N   UNL A   1      31.636  22.270  26.217  1.00  0.00    -0.212 NA
ATOM     13  H   UNL A   1      32.400  22.508  26.850  1.00  0.00     0.141 HD
BRANCH  12  14
ATOM     14  C   UNL A   1      30.904  23.550  25.958  1.00  0.00     0.136 C 
BRANCH  14  15
ATOM     15  C   UNL A   1      31.694  24.785  26.390  1.00  0.00     0.188 C 
ATOM     16  C   UNL A   1      31.012  26.143  26.075  1.00  0.00     0.295 C 
ATOM     17  O   UNL A   1      33.076  24.658  26.023  1.00  0.00    -0.365 OA
ATOM     18  N   UNL A   1      31.590  26.976  25.010  1.00  0.00    -0.333 N 
ATOM     19  C   UNL A   1      33.391  25.322  24.806  1.00  0.00     0.222 C 
ATOM     20  C   UNL A   1      31.268  28.388  25.243  1.00  0.00     0.332 C 
ATOM     21  C   UNL A   1      33.048  26.804  24.930  1.00  0.00     0.290 C 
ATOM     22  H   UNL A   1      31.185  26.680  24.123  1.00  0.00     0.348 HD
ENDBRANCH  14  15
ENDBRANCH  12  14
ENDBRANCH   9  12
ENDBRANCH   7   9
ENDBRANCH   4   7
ENDBRANCH   2   3
ENDBRANCH   1   2
BRANCH   1  23
ATOM     23  C   UNL A   1      38.591  22.215  26.056  1.00  0.00     0.002 C 
BRANCH  23  24
ATOM     24  C   UNL A   1      38.064  21.312  24.937  1.00  0.00     0.002 C 
BRANCH  24  25
ATOM     25  C   UNL A   1      38.631  19.888  24.910  1.00  0.00     0.021 C 
BRANCH  25  26
ATOM     26  C   UNL A   1      39.381  19.457  26.167  1.00  0.00     0.116 C 
BRANCH  26  27
ATOM     27  N   UNL A   1      40.691  18.901  25.862  1.00  0.00    -0.352 N 
ATOM     28  C   UNL A   1      41.912  19.530  25.859  1.00  0.00     0.251 C 
ATOM     29  H   UNL A   1      40.703  17.945  25.628  1.00  0.00     0.163 HD
ATOM     30  O   UNL A   1      42.901  18.980  25.388  1.00  0.00    -0.269 OA
BRANCH  28  31
ATOM     31  C   UNL A   1      42.018  20.892  26.417  1.00  0.00     0.039 A 
ATOM     32  C   UNL A   1      41.897  21.072  27.795  1.00  0.00     0.014 A 
ATOM     33  C   UNL A   1      42.264  21.983  25.576  1.00  0.00     0.014 A 
ATOM     34  C   UNL A   1      42.085  22.343  28.339  1.00  0.00     0.010 A 
ATOM     35  C   UNL A   1      42.508  23.239  26.127  1.00  0.00     0.010 A 
ATOM     36  C   UNL A   1      42.424  23.430  27.514  1.00  0.00    -0.014 A 
BRANCH  36  37
ATOM     37  C   UNL A   1      42.716  24.759  28.111  1.00  0.00     0.031 A 
ATOM     38  C   UNL A   1      44.114  25.125  28.522  1.00  0.00     0.074 A 
ATOM     39  C   UNL A   1      41.707  25.635  28.291  1.00  0.00     0.049 A 
ATOM     40  N   UNL A   1      44.561  26.252  29.013  1.00  0.00    -0.248 NA
ATOM     41  C   UNL A   1      45.144  24.084  28.377  1.00  0.00     0.031 C 
ATOM     42  C   UNL A   1      40.298  25.373  27.990  1.00  0.00     0.029 A 
ATOM     43  N   UNL A   1      41.711  26.923  28.766  1.00  0.00    -0.354 N 
ATOM     44  C   UNL A   1      45.921  26.063  29.222  1.00  0.00     0.074 A 
ATOM     45  C   UNL A   1      46.215  24.692  28.867  1.00  0.00     0.031 C 
ATOM     46  C   UNL A   1      39.579  26.476  28.257  1.00  0.00     0.029 A 
ATOM     47  C   UNL A   1      40.468  27.511  28.775  1.00  0.00     0.049 A 
ATOM     48  H   UNL A   1      42.526  27.382  29.071  1.00  0.00     0.167 HD
ATOM     49  C   UNL A   1      46.845  26.960  29.641  1.00  0.00     0.037 A 
ATOM     50  C   UNL A   1      40.091  28.746  29.155  1.00  0.00     0.037 A 
ATOM     51  C   UNL A   1      46.549  28.324  29.996  1.00  0.00     0.049 A 
ATOM     52  C   UNL A   1      41.138  29.716  29.629  1.00  0.00     0.074 A 
ATOM     53  C   UNL A   1      47.421  29.318  30.406  1.00  0.00     0.029 A 
ATOM     54  N   UNL A   1      45.281  28.884  29.988  1.00  0.00    -0.354 N 
ATOM     55  N   UNL A   1      42.433  29.545  29.746  1.00  0.00    -0.248 NA
ATOM     56  C   UNL A   1      40.673  31.057  30.011  1.00  0.00     0.031 C 
ATOM     57  C   UNL A   1      46.675  30.468  30.685  1.00  0.00     0.029 A 
ATOM     58  C   UNL A   1      45.345  30.205  30.401  1.00  0.00     0.049 A 
ATOM     59  H   UNL A   1      44.457  28.414  29.726  1.00  0.00     0.167 HD
ATOM     60  C   UNL A   1      42.938  30.759  30.191  1.00  0.00     0.074 A 
ATOM     61  C   UNL A   1      41.814  31.667  30.293  1.00  0.00     0.031 C 
ATOM     62  C   UNL A   1      44.216  31.094  30.497  1.00  0.00     0.037 A 
BRANCH  49  63
ATOM     63  C   UNL A   1      48.272  26.500  29.721  1.00  0.00     0.057 A 
ATOM     64  C   UNL A   1      48.787  25.907  30.882  1.00  0.00     0.134 A 
ATOM     65  C   UNL A   1      49.124  26.593  28.614  1.00  0.00     0.134 A 
ATOM     66  F   UNL A   1      48.027  25.797  31.984  1.00  0.00    -0.206 F 
ATOM     67  C   UNL A   1      50.101  25.441  30.946  1.00  0.00     0.040 A 
ATOM     68  C   UNL A   1      50.433  26.106  28.655  1.00  0.00     0.040 A 
ATOM     69  F   UNL A   1      48.695  27.143  27.468  1.00  0.00    -0.206 F 
ATOM     70  C   UNL A   1      50.925  25.532  29.825  1.00  0.00     0.006 A 
ENDBRANCH  49  63
BRANCH  50  71
ATOM     71  C   UNL A   1      38.660  29.146  29.095  1.00  0.00     0.057 A 
ATOM     72  C   UNL A   1      37.828  29.050  30.217  1.00  0.00     0.134 A 
ATOM     73  C   UNL A   1      38.081  29.598  27.902  1.00  0.00     0.134 A 
ATOM     74  F   UNL A   1      38.318  28.608  31.384  1.00  0.00    -0.206 F 
ATOM     75  C   UNL A   1      36.467  29.355  30.148  1.00  0.00     0.040 A 
ATOM     76  C   UNL A   1      36.729  29.936  27.827  1.00  0.00     0.040 A 
ATOM     77  F   UNL A   1      38.824  29.723  26.793  1.00  0.00    -0.206 F 
ATOM     78  C   UNL A   1      35.915  29.803  28.950  1.00  0.00     0.006 A 
ENDBRANCH  50  71
BRANCH  62  79
ATOM     79  C   UNL A   1      44.461  32.507  30.945  1.00  0.00     0.057 A 
ATOM     80  C   UNL A   1      44.730  33.536  30.032  1.00  0.00     0.134 A 
ATOM     81  C   UNL A   1      44.417  32.845  32.303  1.00  0.00     0.134 A 
ATOM     82  F   UNL A   1      44.799  33.277  28.717  1.00  0.00    -0.206 F 
ATOM     83  C   UNL A   1      44.985  34.840  30.457  1.00  0.00     0.040 A 
ATOM     84  C   UNL A   1      44.639  34.152  32.739  1.00  0.00     0.040 A 
ATOM     85  F   UNL A   1      44.154  31.911  33.230  1.00  0.00    -0.206 F 
ATOM     86  C   UNL A   1      44.935  35.152  31.814  1.00  0.00     0.006 A 
ENDBRANCH  62  79
ENDBRANCH  36  37
ENDBRANCH  28  31
ENDBRANCH  26  27
ENDBRANCH  25  26
ENDBRANCH  24  25
ENDBRANCH  23  24
ENDBRANCH   1  23
TORSDOF 17
ENDMDL
MODEL 2
REMARK VINA RESULT:     -10.0      2.005      3.554
REMARK SMILES C[C@H](C(=O)NCCCCCCNC(=O)c1ccc(-c2c3nc(c(-c4c(F)cccc4F)c4ccc([nH]4)c(-c4c(F)cccc4F)c4nc(c(-c5c(F)cccc5F)c5ccc2[nH]5)C=C4)C=C3)cc1)S(=O)(=O)NC[C@@H]1C[N@@H+](C)CCO1
REMARK SMILES IDX 7 1 6 2 5 3 3 4 4 5 2 7 1 8 69 9 70 10 71 11 72 12 73 14
REMARK SMILES IDX 74 15 75 16 80 17 76 18 79 19 77 20 78 21 8 23 9 24 10 25
REMARK SMILES IDX 11 26 12 27 13 28 14 30 15 31 16 32 68 33 17 34 67 35 18 36
REMARK SMILES IDX 19 37 20 38 61 39 21 40 66 41 60 42 62 43 22 44 65 45 59 46
REMARK SMILES IDX 58 47 23 49 49 50 32 51 48 52 33 53 36 54 47 55 63 56 34 57
REMARK SMILES IDX 35 58 46 60 64 61 37 62 24 63 25 64 30 65 26 66 27 67 29 68
REMARK SMILES IDX 31 69 28 70 50 71 51 72 56 73 52 74 53 75 55 76 57 77 54 78
REMARK SMILES IDX 38 79 39 80 44 81 40 82 41 83 43 84 45 85 42 86
REMARK H PARENT 5 6 72 13 76 22 12 29 62 48 36 59
REMARK Flexibility Score: inf
ROOT
ATOM      1  C   UNL A   1      36.899  23.390  24.842  1.00  0.00     0.021 C 
ENDROOT
BRANCH   1   2
ATOM      2  C   UNL A   1      35.518  24.069  24.761  1.00  0.00     0.116 C 
BRANCH   2   3
ATOM      3  N   UNL A   1      34.789  23.731  23.547  1.00  0.00    -0.355 N 
ATOM      4  C   UNL A   1      33.477  23.499  23.278  1.00  0.00     0.239 C 
ATOM      5  O   UNL A   1      33.259  23.139  22.113  1.00  0.00    -0.274 OA
ATOM      6  H   UNL A   1      35.368  23.655  22.754  1.00  0.00     0.163 HD
BRANCH   4   7
ATOM      7  C   UNL A   1      32.338  23.724  24.251  1.00  0.00     0.209 C 
ATOM      8  C   UNL A   1      30.993  23.693  23.512  1.00  0.00     0.037 C 
BRANCH   7   9
ATOM      9  S   UNL A   1      32.292  22.555  25.619  1.00  0.00     0.223 S 
ATOM     10  O   UNL A   1      32.764  23.183  26.830  1.00  0.00    -0.212 OA
ATOM     11  O   UNL A   1      30.965  21.968  25.642  1.00  0.00    -0.212 OA
BRANCH   9  12
ATOM     12  N   UNL A   1      33.316  21.270  25.258  1.00  0.00    -0.212 NA
ATOM     13  H   UNL A   1      34.263  21.611  25.424  1.00  0.00     0.141 HD
BRANCH  12  14
ATOM     14  C   UNL A   1      33.232  19.941  25.942  1.00  0.00     0.136 C 
BRANCH  14  15
ATOM     15  C   UNL A   1      32.880  18.802  24.985  1.00  0.00     0.188 C 
ATOM     16  C   UNL A   1      32.402  17.495  25.670  1.00  0.00     0.295 C 
ATOM     17  O   UNL A   1      33.881  18.667  23.966  1.00  0.00    -0.365 OA
ATOM     18  N   UNL A   1      33.304  16.333  25.648  1.00  0.00    -0.333 N 
ATOM     19  C   UNL A   1      34.834  17.652  24.255  1.00  0.00     0.222 C 
ATOM     20  C   UNL A   1      32.530  15.091  25.750  1.00  0.00     0.332 C 
ATOM     21  C   UNL A   1      34.119  16.314  24.425  1.00  0.00     0.290 C 
ATOM     22  H   UNL A   1      33.931  16.406  26.448  1.00  0.00     0.348 HD
ENDBRANCH  14  15
ENDBRANCH  12  14
ENDBRANCH   9  12
ENDBRANCH   7   9
ENDBRANCH   4   7
ENDBRANCH   2   3
ENDBRANCH   1   2
BRANCH   1  23
ATOM     23  C   UNL A   1      36.997  22.042  24.106  1.00  0.00     0.002 C 
BRANCH  23  24
ATOM     24  C   UNL A   1      36.788  20.817  25.000  1.00  0.00     0.002 C 
BRANCH  24  25
ATOM     25  C   UNL A   1      37.927  19.792  25.000  1.00  0.00     0.021 C 
BRANCH  25  26
ATOM     26  C   UNL A   1      39.160  20.182  25.811  1.00  0.00     0.116 C 
BRANCH  26  27
ATOM     27  N   UNL A   1      40.162  19.127  25.829  1.00  0.00    -0.352 N 
ATOM     28  C   UNL A   1      41.523  19.238  25.976  1.00  0.00     0.251 C 
ATOM     29  H   UNL A   1      39.818  18.211  25.724  1.00  0.00     0.163 HD
ATOM     30  O   UNL A   1      42.258  18.279  25.771  1.00  0.00    -0.269 OA
BRANCH  28  31
ATOM     31  C   UNL A   1      42.099  20.540  26.368  1.00  0.00     0.039 A 
ATOM     32  C   UNL A   1      42.465  21.446  25.373  1.00  0.00     0.014 A 
ATOM     33  C   UNL A   1      42.248  20.868  27.720  1.00  0.00     0.014 A 
ATOM     34  C   UNL A   1      42.927  22.712  25.736  1.00  0.00     0.010 A 
ATOM     35  C   UNL A   1      42.653  22.151  28.079  1.00  0.00     0.010 A 
ATOM     36  C   UNL A   1      42.993  23.087  27.090  1.00  0.00    -0.014 A 
BRANCH  36  37
ATOM     37  C   UNL A   1      43.394  24.468  27.464  1.00  0.00     0.031 A 
ATOM     38  C   UNL A   1      44.832  24.897  27.387  1.00  0.00     0.074 A 
ATOM     39  C   UNL A   1      42.451  25.335  27.884  1.00  0.00     0.049 A 
ATOM     40  N   UNL A   1      45.356  26.071  27.628  1.00  0.00    -0.248 NA
ATOM     41  C   UNL A   1      45.814  23.869  27.006  1.00  0.00     0.031 C 
ATOM     42  C   UNL A   1      41.032  25.019  28.060  1.00  0.00     0.029 A 
ATOM     43  N   UNL A   1      42.542  26.658  28.236  1.00  0.00    -0.354 N 
ATOM     44  C   UNL A   1      46.721  25.929  27.414  1.00  0.00     0.074 A 
ATOM     45  C   UNL A   1      46.954  24.539  27.088  1.00  0.00     0.031 C 
ATOM     46  C   UNL A   1      40.380  26.124  28.456  1.00  0.00     0.029 A 
ATOM     47  C   UNL A   1      41.338  27.219  28.590  1.00  0.00     0.049 A 
ATOM     48  H   UNL A   1      43.389  27.159  28.236  1.00  0.00     0.167 HD
ATOM     49  C   UNL A   1      47.687  26.878  27.454  1.00  0.00     0.037 A 
ATOM     50  C   UNL A   1      41.039  28.473  28.975  1.00  0.00     0.037 A 
ATOM     51  C   UNL A   1      47.452  28.261  27.780  1.00  0.00     0.049 A 
ATOM     52  C   UNL A   1      42.136  29.503  29.023  1.00  0.00     0.074 A 
ATOM     53  C   UNL A   1      48.361  29.305  27.820  1.00  0.00     0.029 A 
ATOM     54  N   UNL A   1      46.219  28.792  28.128  1.00  0.00    -0.354 N 
ATOM     55  N   UNL A   1      43.409  29.370  28.741  1.00  0.00    -0.248 NA
ATOM     56  C   UNL A   1      41.749  30.861  29.430  1.00  0.00     0.031 C 
ATOM     57  C   UNL A   1      47.685  30.458  28.233  1.00  0.00     0.029 A 
ATOM     58  C   UNL A   1      46.347  30.145  28.400  1.00  0.00     0.049 A 
ATOM     59  H   UNL A   1      45.378  28.283  28.174  1.00  0.00     0.167 HD
ATOM     60  C   UNL A   1      43.970  30.628  28.913  1.00  0.00     0.074 A 
ATOM     61  C   UNL A   1      42.892  31.517  29.293  1.00  0.00     0.031 C 
ATOM     62  C   UNL A   1      45.263  31.014  28.778  1.00  0.00     0.037 A 
BRANCH  49  63
ATOM     63  C   UNL A   1      49.088  26.456  27.117  1.00  0.00     0.057 A 
ATOM     64  C   UNL A   1      49.980  26.020  28.107  1.00  0.00     0.134 A 
ATOM     65  C   UNL A   1      49.534  26.428  25.791  1.00  0.00     0.134 A 
ATOM     66  F   UNL A   1      49.619  26.032  29.400  1.00  0.00    -0.206 F 
ATOM     67  C   UNL A   1      51.269  25.588  27.792  1.00  0.00     0.040 A 
ATOM     68  C   UNL A   1      50.813  25.973  25.459  1.00  0.00     0.040 A 
ATOM     69  F   UNL A   1      48.731  26.825  24.793  1.00  0.00    -0.206 F 
ATOM     70  C   UNL A   1      51.685  25.556  26.462  1.00  0.00     0.006 A 
ENDBRANCH  49  63
BRANCH  50  71
ATOM     71  C   UNL A   1      39.643  28.837  29.336  1.00  0.00     0.057 A 
ATOM     72  C   UNL A   1      39.163  28.679  30.641  1.00  0.00     0.134 A 
ATOM     73  C   UNL A   1      38.745  29.316  28.374  1.00  0.00     0.134 A 
ATOM     74  F   UNL A   1      39.969  28.208  31.605  1.00  0.00    -0.206 F 
ATOM     75  C   UNL A   1      37.833  28.949  30.971  1.00  0.00     0.040 A 
ATOM     76  C   UNL A   1      37.421  29.620  28.697  1.00  0.00     0.040 A 
ATOM     77  F   UNL A   1      39.143  29.500  27.108  1.00  0.00    -0.206 F 
ATOM     78  C   UNL A   1      36.959  29.425  29.996  1.00  0.00     0.006 A 
ENDBRANCH  50  71
BRANCH  62  79
ATOM     79  C   UNL A   1      45.568  32.465  29.019  1.00  0.00     0.057 A 
ATOM     80  C   UNL A   1      45.489  33.418  27.994  1.00  0.00     0.134 A 
ATOM     81  C   UNL A   1      45.937  32.917  30.292  1.00  0.00     0.134 A 
ATOM     82  F   UNL A   1      45.155  33.050  26.748  1.00  0.00    -0.206 F 
ATOM     83  C   UNL A   1      45.802  34.759  28.218  1.00  0.00     0.040 A 
ATOM     84  C   UNL A   1      46.221  34.261  30.537  1.00  0.00     0.040 A 
ATOM     85  F   UNL A   1      46.021  32.060  31.321  1.00  0.00    -0.206 F 
ATOM     86  C   UNL A   1      46.164  35.184  29.495  1.00  0.00     0.006 A 
ENDBRANCH  62  79
ENDBRANCH  36  37
ENDBRANCH  28  31
ENDBRANCH  26  27
ENDBRANCH  25  26
ENDBRANCH  24  25
ENDBRANCH  23  24
ENDBRANCH   1  23
TORSDOF 17
ENDMDL
MODEL 3
REMARK VINA RESULT:      -9.9      1.084      2.727
REMARK SMILES C[C@H](C(=O)NCCCCCCNC(=O)c1ccc(-c2c3nc(c(-c4c(F)cccc4F)c4ccc([nH]4)c(-c4c(F)cccc4F)c4nc(c(-c5c(F)cccc5F)c5ccc2[nH]5)C=C4)C=C3)cc1)S(=O)(=O)NC[C@@H]1C[N@@H+](C)CCO1
REMARK SMILES IDX 7 1 6 2 5 3 3 4 4 5 2 7 1 8 69 9 70 10 71 11 72 12 73 14
REMARK SMILES IDX 74 15 75 16 80 17 76 18 79 19 77 20 78 21 8 23 9 24 10 25
REMARK SMILES IDX 11 26 12 27 13 28 14 30 15 31 16 32 68 33 17 34 67 35 18 36
REMARK SMILES IDX 19 37 20 38 61 39 21 40 66 41 60 42 62 43 22 44 65 45 59 46
REMARK SMILES IDX 58 47 23 49 49 50 32 51 48 52 33 53 36 54 47 55 63 56 34 57
REMARK SMILES IDX 35 58 46 60 64 61 37 62 24 63 25 64 30 65 26 66 27 67 29 68
REMARK SMILES IDX 31 69 28 70 50 71 51 72 56 73 52 74 53 75 55 76 57 77 54 78
REMARK SMILES IDX 38 79 39 80 44 81 40 82 41 83 43 84 45 85 42 86
REMARK H PARENT 5 6 72 13 76 22 12 29 62 48 36 59
REMARK Flexibility Score: inf
ROOT
ATOM      1  C   UNL A   1      37.729  23.710  25.916  1.00  0.00     0.021 C 
ENDROOT
BRANCH   1   2
ATOM      2  C   UNL A   1      36.199  23.622  26.075  1.00  0.00     0.116 C 
BRANCH   2   3
ATOM      3  N   UNL A   1      35.477  24.273  24.990  1.00  0.00    -0.355 N 
ATOM      4  C   UNL A   1      34.305  24.957  24.926  1.00  0.00     0.239 C 
ATOM      5  O   UNL A   1      33.976  25.284  23.776  1.00  0.00    -0.274 OA
ATOM      6  H   UNL A   1      35.935  24.204  24.122  1.00  0.00     0.163 HD
BRANCH   4   7
ATOM      7  C   UNL A   1      33.479  25.382  26.123  1.00  0.00     0.209 C 
ATOM      8  C   UNL A   1      33.203  26.891  26.071  1.00  0.00     0.037 C 
BRANCH   7   9
ATOM      9  S   UNL A   1      31.921  24.498  26.296  1.00  0.00     0.223 S 
ATOM     10  O   UNL A   1      32.012  23.526  27.359  1.00  0.00    -0.212 OA
ATOM     11  O   UNL A   1      30.867  25.493  26.386  1.00  0.00    -0.212 OA
BRANCH   9  12
ATOM     12  N   UNL A   1      31.607  23.680  24.860  1.00  0.00    -0.212 NA
ATOM     13  H   UNL A   1      32.379  23.908  24.233  1.00  0.00     0.141 HD
BRANCH  12  14
ATOM     14  C   UNL A   1      31.442  22.194  24.785  1.00  0.00     0.136 C 
BRANCH  14  15
ATOM     15  C   UNL A   1      32.578  21.507  24.027  1.00  0.00     0.188 C 
ATOM     16  C   UNL A   1      32.242  20.092  23.486  1.00  0.00     0.295 C 
ATOM     17  O   UNL A   1      33.819  21.650  24.732  1.00  0.00    -0.365 OA
ATOM     18  N   UNL A   1      32.879  18.935  24.132  1.00  0.00    -0.333 N 
ATOM     19  C   UNL A   1      34.141  20.514  25.525  1.00  0.00     0.222 C 
ATOM     20  C   UNL A   1      32.971  17.816  23.189  1.00  0.00     0.332 C 
ATOM     21  C   UNL A   1      34.218  19.277  24.635  1.00  0.00     0.290 C 
ATOM     22  H   UNL A   1      32.301  18.660  24.926  1.00  0.00     0.348 HD
ENDBRANCH  14  15
ENDBRANCH  12  14
ENDBRANCH   9  12
ENDBRANCH   7   9
ENDBRANCH   4   7
ENDBRANCH   2   3
ENDBRANCH   1   2
BRANCH   1  23
ATOM     23  C   UNL A   1      38.449  22.351  25.863  1.00  0.00     0.002 C 
BRANCH  23  24
ATOM     24  C   UNL A   1      37.763  21.306  24.979  1.00  0.00     0.002 C 
BRANCH  24  25
ATOM     25  C   UNL A   1      38.484  19.959  24.862  1.00  0.00     0.021 C 
BRANCH  25  26
ATOM     26  C   UNL A   1      39.198  19.486  26.124  1.00  0.00     0.116 C 
BRANCH  26  27
ATOM     27  N   UNL A   1      40.508  18.920  25.835  1.00  0.00    -0.352 N 
ATOM     28  C   UNL A   1      41.734  19.538  25.856  1.00  0.00     0.251 C 
ATOM     29  H   UNL A   1      40.515  17.966  25.593  1.00  0.00     0.163 HD
ATOM     30  O   UNL A   1      42.725  18.983  25.396  1.00  0.00    -0.269 OA
BRANCH  28  31
ATOM     31  C   UNL A   1      41.844  20.895  26.426  1.00  0.00     0.039 A 
ATOM     32  C   UNL A   1      41.669  21.070  27.799  1.00  0.00     0.014 A 
ATOM     33  C   UNL A   1      42.146  21.985  25.602  1.00  0.00     0.014 A 
ATOM     34  C   UNL A   1      41.858  22.334  28.358  1.00  0.00     0.010 A 
ATOM     35  C   UNL A   1      42.392  23.233  26.171  1.00  0.00     0.010 A 
ATOM     36  C   UNL A   1      42.253  23.419  27.554  1.00  0.00    -0.014 A 
BRANCH  36  37
ATOM     37  C   UNL A   1      42.546  24.738  28.171  1.00  0.00     0.031 A 
ATOM     38  C   UNL A   1      43.936  25.080  28.626  1.00  0.00     0.074 A 
ATOM     39  C   UNL A   1      41.544  25.627  28.328  1.00  0.00     0.049 A 
ATOM     40  N   UNL A   1      44.384  26.197  29.140  1.00  0.00    -0.248 NA
ATOM     41  C   UNL A   1      44.956  24.026  28.503  1.00  0.00     0.031 C 
ATOM     42  C   UNL A   1      40.141  25.388  27.984  1.00  0.00     0.029 A 
ATOM     43  N   UNL A   1      41.553  26.911  28.815  1.00  0.00    -0.354 N 
ATOM     44  C   UNL A   1      45.735  25.987  29.388  1.00  0.00     0.074 A 
ATOM     45  C   UNL A   1      46.020  24.615  29.029  1.00  0.00     0.031 C 
ATOM     46  C   UNL A   1      39.430  26.498  28.239  1.00  0.00     0.029 A 
ATOM     47  C   UNL A   1      40.319  27.516  28.792  1.00  0.00     0.049 A 
ATOM     48  H   UNL A   1      42.365  27.356  29.148  1.00  0.00     0.167 HD
ATOM     49  C   UNL A   1      46.658  26.867  29.842  1.00  0.00     0.037 A 
ATOM     50  C   UNL A   1      39.947  28.753  29.171  1.00  0.00     0.037 A 
ATOM     51  C   UNL A   1      46.372  28.232  30.199  1.00  0.00     0.049 A 
ATOM     52  C   UNL A   1      40.994  29.705  29.684  1.00  0.00     0.074 A 
ATOM     53  C   UNL A   1      47.245  29.211  30.643  1.00  0.00     0.029 A 
ATOM     54  N   UNL A   1      45.112  28.811  30.159  1.00  0.00    -0.354 N 
ATOM     55  N   UNL A   1      42.282  29.514  29.838  1.00  0.00    -0.248 NA
ATOM     56  C   UNL A   1      40.536  31.049  30.064  1.00  0.00     0.031 C 
ATOM     57  C   UNL A   1      46.506  30.368  30.910  1.00  0.00     0.029 A 
ATOM     58  C   UNL A   1      45.182  30.127  30.585  1.00  0.00     0.049 A 
ATOM     59  H   UNL A   1      44.289  28.354  29.869  1.00  0.00     0.167 HD
ATOM     60  C   UNL A   1      42.791  30.718  30.309  1.00  0.00     0.074 A 
ATOM     61  C   UNL A   1      41.677  31.640  30.385  1.00  0.00     0.031 C 
ATOM     62  C   UNL A   1      44.063  31.031  30.655  1.00  0.00     0.037 A 
BRANCH  49  63
ATOM     63  C   UNL A   1      48.076  26.386  29.960  1.00  0.00     0.057 A 
ATOM     64  C   UNL A   1      48.548  25.777  31.131  1.00  0.00     0.134 A 
ATOM     65  C   UNL A   1      48.961  26.476  28.879  1.00  0.00     0.134 A 
ATOM     66  F   UNL A   1      47.754  25.669  32.208  1.00  0.00    -0.206 F 
ATOM     67  C   UNL A   1      49.853  25.291  31.229  1.00  0.00     0.040 A 
ATOM     68  C   UNL A   1      50.261  25.970  28.955  1.00  0.00     0.040 A 
ATOM     69  F   UNL A   1      48.574  27.041  27.725  1.00  0.00    -0.206 F 
ATOM     70  C   UNL A   1      50.711  25.380  30.134  1.00  0.00     0.006 A 
ENDBRANCH  49  63
BRANCH  50  71
ATOM     71  C   UNL A   1      38.525  29.175  29.072  1.00  0.00     0.057 A 
ATOM     72  C   UNL A   1      37.992  29.667  27.875  1.00  0.00     0.134 A 
ATOM     73  C   UNL A   1      37.675  29.132  30.185  1.00  0.00     0.134 A 
ATOM     74  F   UNL A   1      38.759  29.750  26.778  1.00  0.00    -0.206 F 
ATOM     75  C   UNL A   1      36.678  30.133  27.795  1.00  0.00     0.040 A 
ATOM     76  C   UNL A   1      36.351  29.566  30.111  1.00  0.00     0.040 A 
ATOM     77  F   UNL A   1      38.120  28.663  31.359  1.00  0.00    -0.206 F 
ATOM     78  C   UNL A   1      35.852  30.080  28.916  1.00  0.00     0.006 A 
ENDBRANCH  50  71
BRANCH  62  79
ATOM     79  C   UNL A   1      44.315  32.436  31.122  1.00  0.00     0.057 A 
ATOM     80  C   UNL A   1      44.611  33.472  30.225  1.00  0.00     0.134 A 
ATOM     81  C   UNL A   1      44.251  32.761  32.483  1.00  0.00     0.134 A 
ATOM     82  F   UNL A   1      44.701  33.227  28.909  1.00  0.00    -0.206 F 
ATOM     83  C   UNL A   1      44.871  34.770  30.668  1.00  0.00     0.040 A 
ATOM     84  C   UNL A   1      44.478  34.061  32.936  1.00  0.00     0.040 A 
ATOM     85  F   UNL A   1      43.961  31.820  33.395  1.00  0.00    -0.206 F 
ATOM     86  C   UNL A   1      44.800  35.067  32.028  1.00  0.00     0.006 A 
ENDBRANCH  62  79
ENDBRANCH  36  37
ENDBRANCH  28  31
ENDBRANCH  26  27
ENDBRANCH  25  26
ENDBRANCH  24  25
ENDBRANCH  23  24
ENDBRANCH   1  23
TORSDOF 17
ENDMDL
