MODEL 1
REMARK VINA RESULT:      -9.2      0.000      0.000
REMARK SMILES CC1(C)C[C@@H]1[NH2+]Cc1ccc(C(=O)NCCCCCCNC(=O)c2ccc(-c3c4nc(c(-c5c(F)cccc5F)c5ccc([nH]5)c(-c5c(F)cccc5F)c5nc(c(-c6c(F)cccc6F)c6ccc3[nH]6)C=C5)C=C4)cc2)cn1
REMARK SMILES IDX 17 1 16 2 15 3 14 4 12 5 13 6 11 8 8 9 9 10 79 11 10 12
REMARK SMILES IDX 78 13 7 14 6 15 5 18 1 19 2 20 3 21 4 22 18 23 19 24 20 25
REMARK SMILES IDX 21 26 22 27 23 29 24 30 25 31 77 32 26 33 76 34 27 35 28 36
REMARK SMILES IDX 29 37 70 38 30 39 75 40 69 41 71 42 31 43 74 44 68 45 67 46
REMARK SMILES IDX 32 48 58 49 41 50 57 51 42 52 45 53 56 54 72 55 43 56 44 57
REMARK SMILES IDX 55 59 73 60 46 61 33 62 34 63 39 64 35 65 36 66 38 67 40 68
REMARK SMILES IDX 37 69 59 70 60 71 65 72 61 73 62 74 64 75 66 76 63 77 47 78
REMARK SMILES IDX 48 79 53 80 49 81 50 82 52 83 54 84 51 85
REMARK H PARENT 14 7 6 16 6 17 21 28 71 47 45 58
REMARK Flexibility Score: inf
ROOT
ATOM      1  C   UNL A   1      34.822  35.664  32.922  1.00  0.00     0.002 C 
ENDROOT
BRANCH   1   2
ATOM      2  C   UNL A   1      34.926  34.676  34.093  1.00  0.00     0.021 C 
BRANCH   2   3
ATOM      3  C   UNL A   1      36.179  33.799  34.044  1.00  0.00     0.116 C 
BRANCH   3   4
ATOM      4  N   UNL A   1      36.772  33.698  35.363  1.00  0.00    -0.352 N 
ATOM      5  C   UNL A   1      37.685  32.831  35.903  1.00  0.00     0.252 C 
ATOM      6  O   UNL A   1      38.025  33.009  37.072  1.00  0.00    -0.269 OA
ATOM      7  H   UNL A   1      36.456  34.384  35.994  1.00  0.00     0.163 HD
BRANCH   5   8
ATOM      8  C   UNL A   1      38.314  31.735  35.136  1.00  0.00     0.058 A 
ATOM      9  C   UNL A   1      39.753  29.743  33.861  1.00  0.00     0.094 A 
ATOM     10  C   UNL A   1      38.448  30.019  33.448  1.00  0.00     0.030 A 
ATOM     11  N   UNL A   1      40.328  30.395  34.900  1.00  0.00    -0.255 NA
ATOM     12  C   UNL A   1      37.718  31.011  34.108  1.00  0.00     0.017 A 
ATOM     13  C   UNL A   1      39.601  31.363  35.510  1.00  0.00     0.125 A 
BRANCH   9  14
ATOM     14  C   UNL A   1      40.570  28.669  33.166  1.00  0.00     0.318 C 
BRANCH  14  15
ATOM     15  N   UNL A   1      40.714  27.457  33.975  1.00  0.00    -0.338 N 
ATOM     16  H   UNL A   1      40.221  27.612  34.854  1.00  0.00     0.346 HD
ATOM     17  H   UNL A   1      40.335  26.706  33.397  1.00  0.00     0.346 HD
BRANCH  15  18
ATOM     18  C   UNL A   1      42.079  27.034  34.301  1.00  0.00     0.189 C 
ATOM     19  C   UNL A   1      43.480  24.906  34.813  1.00  0.00     0.017 C 
ATOM     20  C   UNL A   1      42.348  25.827  35.194  1.00  0.00     0.022 C 
ATOM     21  C   UNL A   1      41.228  25.144  35.947  1.00  0.00     0.017 C 
ATOM     22  C   UNL A   1      42.723  27.224  35.640  1.00  0.00     0.078 C 
ENDBRANCH  15  18
ENDBRANCH  14  15
ENDBRANCH   9  14
ENDBRANCH   5   8
ENDBRANCH   3   4
ENDBRANCH   2   3
ENDBRANCH   1   2
BRANCH   1  23
ATOM     23  C   UNL A   1      33.667  36.668  33.022  1.00  0.00     0.002 C 
BRANCH  23  24
ATOM     24  C   UNL A   1      32.727  36.707  31.812  1.00  0.00     0.021 C 
BRANCH  24  25
ATOM     25  C   UNL A   1      33.425  36.636  30.456  1.00  0.00     0.116 C 
BRANCH  25  26
ATOM     26  N   UNL A   1      32.761  35.715  29.550  1.00  0.00    -0.352 N 
ATOM     27  C   UNL A   1      33.232  34.577  28.955  1.00  0.00     0.251 C 
ATOM     28  H   UNL A   1      31.829  35.946  29.329  1.00  0.00     0.163 HD
ATOM     29  O   UNL A   1      32.576  34.044  28.055  1.00  0.00    -0.269 OA
BRANCH  27  30
ATOM     30  C   UNL A   1      34.520  33.979  29.365  1.00  0.00     0.039 A 
ATOM     31  C   UNL A   1      35.675  34.340  28.667  1.00  0.00     0.014 A 
ATOM     32  C   UNL A   1      34.591  33.024  30.385  1.00  0.00     0.014 A 
ATOM     33  C   UNL A   1      36.903  33.770  29.009  1.00  0.00     0.010 A 
ATOM     34  C   UNL A   1      35.828  32.499  30.766  1.00  0.00     0.010 A 
ATOM     35  C   UNL A   1      36.992  32.857  30.073  1.00  0.00    -0.014 A 
BRANCH  35  36
ATOM     36  C   UNL A   1      38.304  32.276  30.449  1.00  0.00     0.031 A 
ATOM     37  C   UNL A   1      38.766  30.975  29.853  1.00  0.00     0.074 A 
ATOM     38  C   UNL A   1      39.078  32.919  31.344  1.00  0.00     0.049 A 
ATOM     39  N   UNL A   1      39.901  30.346  30.026  1.00  0.00    -0.248 NA
ATOM     40  C   UNL A   1      37.822  30.279  28.965  1.00  0.00     0.031 C 
ATOM     41  C   UNL A   1      38.715  34.155  32.039  1.00  0.00     0.029 A 
ATOM     42  N   UNL A   1      40.332  32.625  31.815  1.00  0.00    -0.354 N 
ATOM     43  C   UNL A   1      39.806  29.180  29.276  1.00  0.00     0.074 A 
ATOM     44  C   UNL A   1      38.485  29.164  28.687  1.00  0.00     0.031 C 
ATOM     45  C   UNL A   1      39.739  34.534  32.821  1.00  0.00     0.029 A 
ATOM     46  C   UNL A   1      40.819  33.560  32.695  1.00  0.00     0.049 A 
ATOM     47  H   UNL A   1      40.834  31.821  31.550  1.00  0.00     0.167 HD
ATOM     48  C   UNL A   1      40.744  28.224  29.074  1.00  0.00     0.037 A 
ATOM     49  C   UNL A   1      42.011  33.634  33.315  1.00  0.00     0.037 A 
ATOM     50  C   UNL A   1      42.067  28.252  29.639  1.00  0.00     0.049 A 
ATOM     51  C   UNL A   1      43.049  32.583  33.043  1.00  0.00     0.074 A 
ATOM     52  C   UNL A   1      43.108  27.359  29.449  1.00  0.00     0.029 A 
ATOM     53  N   UNL A   1      42.534  29.229  30.505  1.00  0.00    -0.354 N 
ATOM     54  N   UNL A   1      42.973  31.527  32.271  1.00  0.00    -0.248 NA
ATOM     55  C   UNL A   1      44.345  32.744  33.716  1.00  0.00     0.031 C 
ATOM     56  C   UNL A   1      44.195  27.780  30.225  1.00  0.00     0.029 A 
ATOM     57  C   UNL A   1      43.843  28.955  30.869  1.00  0.00     0.049 A 
ATOM     58  H   UNL A   1      42.012  30.004  30.817  1.00  0.00     0.167 HD
ATOM     59  C   UNL A   1      44.214  30.909  32.348  1.00  0.00     0.074 A 
ATOM     60  C   UNL A   1      45.031  31.721  33.228  1.00  0.00     0.031 C 
ATOM     61  C   UNL A   1      44.639  29.772  31.747  1.00  0.00     0.037 A 
BRANCH  48  62
ATOM     62  C   UNL A   1      40.369  27.065  28.195  1.00  0.00     0.057 A 
ATOM     63  C   UNL A   1      40.850  26.951  26.885  1.00  0.00     0.134 A 
ATOM     64  C   UNL A   1      39.543  26.041  28.672  1.00  0.00     0.134 A 
ATOM     65  F   UNL A   1      41.636  27.906  26.363  1.00  0.00    -0.206 F 
ATOM     66  C   UNL A   1      40.504  25.871  26.071  1.00  0.00     0.040 A 
ATOM     67  C   UNL A   1      39.209  24.943  27.876  1.00  0.00     0.040 A 
ATOM     68  F   UNL A   1      39.051  26.085  29.920  1.00  0.00    -0.206 F 
ATOM     69  C   UNL A   1      39.685  24.860  26.569  1.00  0.00     0.006 A 
ENDBRANCH  48  62
BRANCH  49  70
ATOM     70  C   UNL A   1      42.307  34.777  34.213  1.00  0.00     0.057 A 
ATOM     71  C   UNL A   1      42.131  34.670  35.597  1.00  0.00     0.134 A 
ATOM     72  C   UNL A   1      42.773  35.998  33.713  1.00  0.00     0.134 A 
ATOM     73  F   UNL A   1      41.671  33.528  36.132  1.00  0.00    -0.206 F 
ATOM     74  C   UNL A   1      42.391  35.741  36.452  1.00  0.00     0.040 A 
ATOM     75  C   UNL A   1      43.058  37.071  34.557  1.00  0.00     0.040 A 
ATOM     76  F   UNL A   1      42.970  36.158  32.396  1.00  0.00    -0.206 F 
ATOM     77  C   UNL A   1      42.861  36.946  35.932  1.00  0.00     0.006 A 
ENDBRANCH  49  70
BRANCH  61  78
ATOM     78  C   UNL A   1      46.055  29.354  32.011  1.00  0.00     0.057 A 
ATOM     79  C   UNL A   1      46.384  28.488  33.061  1.00  0.00     0.134 A 
ATOM     80  C   UNL A   1      47.099  29.818  31.199  1.00  0.00     0.134 A 
ATOM     81  F   UNL A   1      45.431  28.022  33.881  1.00  0.00    -0.206 F 
ATOM     82  C   UNL A   1      47.707  28.120  33.312  1.00  0.00     0.040 A 
ATOM     83  C   UNL A   1      48.421  29.438  31.427  1.00  0.00     0.040 A 
ATOM     84  F   UNL A   1      46.849  30.645  30.172  1.00  0.00    -0.206 F 
ATOM     85  C   UNL A   1      48.729  28.592  32.491  1.00  0.00     0.006 A 
ENDBRANCH  61  78
ENDBRANCH  35  36
ENDBRANCH  27  30
ENDBRANCH  25  26
ENDBRANCH  24  25
ENDBRANCH  23  24
ENDBRANCH   1  23
TORSDOF 16
ENDMDL
MODEL 2
REMARK VINA RESULT:      -9.1      5.241      8.561
REMARK SMILES CC1(C)C[C@@H]1[NH2+]Cc1ccc(C(=O)NCCCCCCNC(=O)c2ccc(-c3c4nc(c(-c5c(F)cccc5F)c5ccc([nH]5)c(-c5c(F)cccc5F)c5nc(c(-c6c(F)cccc6F)c6ccc3[nH]6)C=C5)C=C4)cc2)cn1
REMARK SMILES IDX 17 1 16 2 15 3 14 4 12 5 13 6 11 8 8 9 9 10 79 11 10 12
REMARK SMILES IDX 78 13 7 14 6 15 5 18 1 19 2 20 3 21 4 22 18 23 19 24 20 25
REMARK SMILES IDX 21 26 22 27 23 29 24 30 25 31 77 32 26 33 76 34 27 35 28 36
REMARK SMILES IDX 29 37 70 38 30 39 75 40 69 41 71 42 31 43 74 44 68 45 67 46
REMARK SMILES IDX 32 48 58 49 41 50 57 51 42 52 45 53 56 54 72 55 43 56 44 57
REMARK SMILES IDX 55 59 73 60 46 61 33 62 34 63 39 64 35 65 36 66 38 67 40 68
REMARK SMILES IDX 37 69 59 70 60 71 65 72 61 73 62 74 64 75 66 76 63 77 47 78
REMARK SMILES IDX 48 79 53 80 49 81 50 82 52 83 54 84 51 85
REMARK H PARENT 14 7 6 16 6 17 21 28 71 47 45 58
REMARK Flexibility Score: inf
ROOT
ATOM      1  C   UNL A   1      31.188  27.506  25.484  1.00  0.00     0.002 C 
ENDROOT
BRANCH   1   2
ATOM      2  C   UNL A   1      31.152  28.287  24.162  1.00  0.00     0.021 C 
BRANCH   2   3
ATOM      3  C   UNL A   1      30.690  27.450  22.969  1.00  0.00     0.116 C 
BRANCH   3   4
ATOM      4  N   UNL A   1      31.801  27.198  22.072  1.00  0.00    -0.352 N 
ATOM      5  C   UNL A   1      32.862  26.334  22.133  1.00  0.00     0.252 C 
ATOM      6  O   UNL A   1      33.653  26.328  21.191  1.00  0.00    -0.269 OA
ATOM      7  H   UNL A   1      31.793  27.759  21.263  1.00  0.00     0.163 HD
BRANCH   5   8
ATOM      8  C   UNL A   1      33.069  25.380  23.243  1.00  0.00     0.058 A 
ATOM      9  C   UNL A   1      33.696  23.771  25.407  1.00  0.00     0.094 A 
ATOM     10  C   UNL A   1      32.679  23.381  24.534  1.00  0.00     0.030 A 
ATOM     11  N   UNL A   1      34.364  24.939  25.252  1.00  0.00    -0.255 NA
ATOM     12  C   UNL A   1      32.351  24.206  23.454  1.00  0.00     0.017 A 
ATOM     13  C   UNL A   1      34.035  25.711  24.186  1.00  0.00     0.125 A 
BRANCH   9  14
ATOM     14  C   UNL A   1      34.073  22.897  26.589  1.00  0.00     0.318 C 
BRANCH  14  15
ATOM     15  N   UNL A   1      35.502  22.584  26.628  1.00  0.00    -0.338 N 
ATOM     16  H   UNL A   1      36.012  23.467  26.593  1.00  0.00     0.346 HD
ATOM     17  H   UNL A   1      35.633  22.046  27.485  1.00  0.00     0.346 HD
BRANCH  15  18
ATOM     18  C   UNL A   1      36.024  21.729  25.558  1.00  0.00     0.189 C 
ATOM     19  C   UNL A   1      38.015  20.155  25.003  1.00  0.00     0.017 C 
ATOM     20  C   UNL A   1      37.523  21.538  25.349  1.00  0.00     0.022 C 
ATOM     21  C   UNL A   1      38.532  22.380  26.096  1.00  0.00     0.017 C 
ATOM     22  C   UNL A   1      36.675  22.242  24.310  1.00  0.00     0.078 C 
ENDBRANCH  15  18
ENDBRANCH  14  15
ENDBRANCH   9  14
ENDBRANCH   5   8
ENDBRANCH   3   4
ENDBRANCH   2   3
ENDBRANCH   1   2
BRANCH   1  23
ATOM     23  C   UNL A   1      32.094  28.104  26.567  1.00  0.00     0.002 C 
BRANCH  23  24
ATOM     24  C   UNL A   1      33.434  28.653  26.069  1.00  0.00     0.021 C 
BRANCH  24  25
ATOM     25  C   UNL A   1      34.570  28.593  27.088  1.00  0.00     0.116 C 
BRANCH  25  26
ATOM     26  N   UNL A   1      34.541  29.722  28.002  1.00  0.00    -0.352 N 
ATOM     27  C   UNL A   1      35.533  30.235  28.793  1.00  0.00     0.251 C 
ATOM     28  H   UNL A   1      33.676  30.188  28.063  1.00  0.00     0.163 HD
ATOM     29  O   UNL A   1      35.251  31.074  29.654  1.00  0.00    -0.269 OA
BRANCH  27  30
ATOM     30  C   UNL A   1      36.935  29.793  28.642  1.00  0.00     0.039 A 
ATOM     31  C   UNL A   1      37.598  29.282  29.760  1.00  0.00     0.014 A 
ATOM     32  C   UNL A   1      37.620  29.935  27.430  1.00  0.00     0.014 A 
ATOM     33  C   UNL A   1      38.932  28.884  29.658  1.00  0.00     0.010 A 
ATOM     34  C   UNL A   1      38.935  29.483  27.313  1.00  0.00     0.010 A 
ATOM     35  C   UNL A   1      39.607  28.966  28.429  1.00  0.00    -0.014 A 
BRANCH  35  36
ATOM     36  C   UNL A   1      41.017  28.517  28.321  1.00  0.00     0.031 A 
ATOM     37  C   UNL A   1      41.343  27.081  28.014  1.00  0.00     0.074 A 
ATOM     38  C   UNL A   1      42.009  29.407  28.514  1.00  0.00     0.049 A 
ATOM     39  N   UNL A   1      42.513  26.523  27.832  1.00  0.00    -0.248 NA
ATOM     40  C   UNL A   1      40.210  26.148  27.921  1.00  0.00     0.031 C 
ATOM     41  C   UNL A   1      41.823  30.812  28.878  1.00  0.00     0.029 A 
ATOM     42  N   UNL A   1      43.370  29.261  28.423  1.00  0.00    -0.354 N 
ATOM     43  C   UNL A   1      42.259  25.175  27.610  1.00  0.00     0.074 A 
ATOM     44  C   UNL A   1      40.829  24.990  27.730  1.00  0.00     0.031 C 
ATOM     45  C   UNL A   1      43.024  31.409  28.944  1.00  0.00     0.029 A 
ATOM     46  C   UNL A   1      44.061  30.427  28.645  1.00  0.00     0.049 A 
ATOM     47  H   UNL A   1      43.809  28.404  28.220  1.00  0.00     0.167 HD
ATOM     48  C   UNL A   1      43.133  24.186  27.308  1.00  0.00     0.037 A 
ATOM     49  C   UNL A   1      45.382  30.679  28.592  1.00  0.00     0.037 A 
ATOM     50  C   UNL A   1      44.553  24.374  27.163  1.00  0.00     0.049 A 
ATOM     51  C   UNL A   1      46.328  29.576  28.214  1.00  0.00     0.074 A 
ATOM     52  C   UNL A   1      45.516  23.447  26.803  1.00  0.00     0.029 A 
ATOM     53  N   UNL A   1      45.215  25.575  27.369  1.00  0.00    -0.354 N 
ATOM     54  N   UNL A   1      46.066  28.323  27.932  1.00  0.00    -0.248 NA
ATOM     55  C   UNL A   1      47.753  29.925  28.132  1.00  0.00     0.031 C 
ATOM     56  C   UNL A   1      46.764  24.080  26.822  1.00  0.00     0.029 A 
ATOM     57  C   UNL A   1      46.574  25.411  27.158  1.00  0.00     0.049 A 
ATOM     58  H   UNL A   1      44.782  26.420  27.629  1.00  0.00     0.167 HD
ATOM     59  C   UNL A   1      47.286  27.740  27.618  1.00  0.00     0.074 A 
ATOM     60  C   UNL A   1      48.287  28.782  27.726  1.00  0.00     0.031 C 
ATOM     61  C   UNL A   1      47.555  26.458  27.272  1.00  0.00     0.037 A 
BRANCH  48  62
ATOM     62  C   UNL A   1      42.573  22.808  27.104  1.00  0.00     0.057 A 
ATOM     63  C   UNL A   1      42.160  22.015  28.182  1.00  0.00     0.134 A 
ATOM     64  C   UNL A   1      42.417  22.280  25.817  1.00  0.00     0.134 A 
ATOM     65  F   UNL A   1      42.295  22.457  29.442  1.00  0.00    -0.206 F 
ATOM     66  C   UNL A   1      41.636  20.736  27.990  1.00  0.00     0.040 A 
ATOM     67  C   UNL A   1      41.871  21.012  25.610  1.00  0.00     0.040 A 
ATOM     68  F   UNL A   1      42.787  22.989  24.739  1.00  0.00    -0.206 F 
ATOM     69  C   UNL A   1      41.484  20.234  26.699  1.00  0.00     0.006 A 
ENDBRANCH  48  62
BRANCH  49  70
ATOM     70  C   UNL A   1      45.882  32.050  28.853  1.00  0.00     0.057 A 
ATOM     71  C   UNL A   1      45.980  32.990  27.819  1.00  0.00     0.134 A 
ATOM     72  C   UNL A   1      46.271  32.456  30.134  1.00  0.00     0.134 A 
ATOM     73  F   UNL A   1      45.636  32.652  26.567  1.00  0.00    -0.206 F 
ATOM     74  C   UNL A   1      46.461  34.279  28.046  1.00  0.00     0.040 A 
ATOM     75  C   UNL A   1      46.735  33.749  30.380  1.00  0.00     0.040 A 
ATOM     76  F   UNL A   1      46.192  31.604  31.167  1.00  0.00    -0.206 F 
ATOM     77  C   UNL A   1      46.837  34.663  29.332  1.00  0.00     0.006 A 
ENDBRANCH  49  70
BRANCH  61  78
ATOM     78  C   UNL A   1      48.986  26.123  26.972  1.00  0.00     0.057 A 
ATOM     79  C   UNL A   1      49.861  25.672  27.968  1.00  0.00     0.134 A 
ATOM     80  C   UNL A   1      49.489  26.244  25.670  1.00  0.00     0.134 A 
ATOM     81  F   UNL A   1      49.443  25.549  29.236  1.00  0.00    -0.206 F 
ATOM     82  C   UNL A   1      51.196  25.382  27.685  1.00  0.00     0.040 A 
ATOM     83  C   UNL A   1      50.816  25.934  25.371  1.00  0.00     0.040 A 
ATOM     84  F   UNL A   1      48.699  26.664  24.670  1.00  0.00    -0.206 F 
ATOM     85  C   UNL A   1      51.676  25.508  26.382  1.00  0.00     0.006 A 
ENDBRANCH  61  78
ENDBRANCH  35  36
ENDBRANCH  27  30
ENDBRANCH  25  26
ENDBRANCH  24  25
ENDBRANCH  23  24
ENDBRANCH   1  23
TORSDOF 16
ENDMDL
MODEL 3
REMARK VINA RESULT:      -9.0      4.553      9.769
REMARK SMILES CC1(C)C[C@@H]1[NH2+]Cc1ccc(C(=O)NCCCCCCNC(=O)c2ccc(-c3c4nc(c(-c5c(F)cccc5F)c5ccc([nH]5)c(-c5c(F)cccc5F)c5nc(c(-c6c(F)cccc6F)c6ccc3[nH]6)C=C5)C=C4)cc2)cn1
REMARK SMILES IDX 17 1 16 2 15 3 14 4 12 5 13 6 11 8 8 9 9 10 79 11 10 12
REMARK SMILES IDX 78 13 7 14 6 15 5 18 1 19 2 20 3 21 4 22 18 23 19 24 20 25
REMARK SMILES IDX 21 26 22 27 23 29 24 30 25 31 77 32 26 33 76 34 27 35 28 36
REMARK SMILES IDX 29 37 70 38 30 39 75 40 69 41 71 42 31 43 74 44 68 45 67 46
REMARK SMILES IDX 32 48 58 49 41 50 57 51 42 52 45 53 56 54 72 55 43 56 44 57
REMARK SMILES IDX 55 59 73 60 46 61 33 62 34 63 39 64 35 65 36 66 38 67 40 68
REMARK SMILES IDX 37 69 59 70 60 71 65 72 61 73 62 74 64 75 66 76 63 77 47 78
REMARK SMILES IDX 48 79 53 80 49 81 50 82 52 83 54 84 51 85
REMARK H PARENT 14 7 6 16 6 17 21 28 71 47 45 58
REMARK Flexibility Score: inf
ROOT
ATOM      1  C   UNL A   1      31.130  27.616  25.284  1.00  0.00     0.002 C 
ENDROOT
BRANCH   1   2
ATOM      2  C   UNL A   1      30.884  28.788  24.322  1.00  0.00     0.021 C 
BRANCH   2   3
ATOM      3  C   UNL A   1      30.957  28.392  22.846  1.00  0.00     0.116 C 
BRANCH   3   4
ATOM      4  N   UNL A   1      32.292  28.626  22.329  1.00  0.00    -0.352 N 
ATOM      5  C   UNL A   1      33.382  27.810  22.180  1.00  0.00     0.252 C 
ATOM      6  O   UNL A   1      34.396  28.293  21.678  1.00  0.00    -0.269 OA
ATOM      7  H   UNL A   1      32.445  29.551  22.029  1.00  0.00     0.163 HD
BRANCH   5   8
ATOM      8  C   UNL A   1      33.378  26.377  22.540  1.00  0.00     0.058 A 
ATOM      9  C   UNL A   1      33.542  23.771  23.462  1.00  0.00     0.094 A 
ATOM     10  C   UNL A   1      32.920  24.028  22.239  1.00  0.00     0.030 A 
ATOM     11  N   UNL A   1      34.037  24.766  24.237  1.00  0.00    -0.255 NA
ATOM     12  C   UNL A   1      32.820  25.347  21.787  1.00  0.00     0.017 A 
ATOM     13  C   UNL A   1      33.940  26.033  23.765  1.00  0.00     0.125 A 
BRANCH   9  14
ATOM     14  C   UNL A   1      33.663  22.350  23.980  1.00  0.00     0.318 C 
BRANCH  14  15
ATOM     15  N   UNL A   1      34.653  22.222  25.052  1.00  0.00    -0.338 N 
ATOM     16  H   UNL A   1      34.760  23.139  25.484  1.00  0.00     0.346 HD
ATOM     17  H   UNL A   1      34.284  21.498  25.668  1.00  0.00     0.346 HD
BRANCH  15  18
ATOM     18  C   UNL A   1      35.988  21.753  24.670  1.00  0.00     0.189 C 
ATOM     19  C   UNL A   1      38.426  21.625  25.558  1.00  0.00     0.017 C 
ATOM     20  C   UNL A   1      37.249  22.470  25.142  1.00  0.00     0.022 C 
ATOM     21  C   UNL A   1      37.174  23.807  25.846  1.00  0.00     0.017 C 
ATOM     22  C   UNL A   1      36.871  22.444  23.677  1.00  0.00     0.078 C 
ENDBRANCH  15  18
ENDBRANCH  14  15
ENDBRANCH   9  14
ENDBRANCH   5   8
ENDBRANCH   3   4
ENDBRANCH   2   3
ENDBRANCH   1   2
BRANCH   1  23
ATOM     23  C   UNL A   1      31.592  28.017  26.690  1.00  0.00     0.002 C 
BRANCH  23  24
ATOM     24  C   UNL A   1      33.093  27.857  26.956  1.00  0.00     0.021 C 
BRANCH  24  25
ATOM     25  C   UNL A   1      33.984  28.862  26.230  1.00  0.00     0.116 C 
BRANCH  25  26
ATOM     26  N   UNL A   1      33.798  30.214  26.729  1.00  0.00    -0.352 N 
ATOM     27  C   UNL A   1      34.493  30.896  27.690  1.00  0.00     0.251 C 
ATOM     28  H   UNL A   1      33.059  30.715  26.314  1.00  0.00     0.163 HD
ATOM     29  O   UNL A   1      34.050  31.967  28.116  1.00  0.00    -0.269 OA
BRANCH  27  30
ATOM     30  C   UNL A   1      35.762  30.368  28.235  1.00  0.00     0.039 A 
ATOM     31  C   UNL A   1      36.929  30.532  27.485  1.00  0.00     0.014 A 
ATOM     32  C   UNL A   1      35.801  29.662  29.442  1.00  0.00     0.014 A 
ATOM     33  C   UNL A   1      38.138  30.018  27.957  1.00  0.00     0.010 A 
ATOM     34  C   UNL A   1      37.020  29.200  29.942  1.00  0.00     0.010 A 
ATOM     35  C   UNL A   1      38.197  29.362  29.198  1.00  0.00    -0.014 A 
BRANCH  35  36
ATOM     36  C   UNL A   1      39.490  28.842  29.707  1.00  0.00     0.031 A 
ATOM     37  C   UNL A   1      40.128  29.438  30.931  1.00  0.00     0.074 A 
ATOM     38  C   UNL A   1      40.098  27.835  29.052  1.00  0.00     0.049 A 
ATOM     39  N   UNL A   1      41.226  29.078  31.546  1.00  0.00    -0.248 NA
ATOM     40  C   UNL A   1      39.458  30.603  31.529  1.00  0.00     0.031 C 
ATOM     41  C   UNL A   1      39.613  27.214  27.819  1.00  0.00     0.029 A 
ATOM     42  N   UNL A   1      41.253  27.152  29.339  1.00  0.00    -0.354 N 
ATOM     43  C   UNL A   1      41.382  29.973  32.597  1.00  0.00     0.074 A 
ATOM     44  C   UNL A   1      40.295  30.924  32.506  1.00  0.00     0.031 C 
ATOM     45  C   UNL A   1      40.444  26.217  27.474  1.00  0.00     0.029 A 
ATOM     46  C   UNL A   1      41.527  26.141  28.450  1.00  0.00     0.049 A 
ATOM     47  H   UNL A   1      41.831  27.367  30.106  1.00  0.00     0.167 HD
ATOM     48  C   UNL A   1      42.330  29.987  33.564  1.00  0.00     0.037 A 
ATOM     49  C   UNL A   1      42.527  25.242  28.436  1.00  0.00     0.037 A 
ATOM     50  C   UNL A   1      43.397  29.027  33.670  1.00  0.00     0.049 A 
ATOM     51  C   UNL A   1      43.542  25.251  29.543  1.00  0.00     0.074 A 
ATOM     52  C   UNL A   1      44.373  28.923  34.646  1.00  0.00     0.029 A 
ATOM     53  N   UNL A   1      43.626  28.001  32.766  1.00  0.00    -0.354 N 
ATOM     54  N   UNL A   1      43.633  26.056  30.573  1.00  0.00    -0.248 NA
ATOM     55  C   UNL A   1      44.584  24.216  29.494  1.00  0.00     0.031 C 
ATOM     56  C   UNL A   1      45.212  27.852  34.315  1.00  0.00     0.029 A 
ATOM     57  C   UNL A   1      44.736  27.267  33.153  1.00  0.00     0.049 A 
ATOM     58  H   UNL A   1      43.082  27.822  31.966  1.00  0.00     0.167 HD
ATOM     59  C   UNL A   1      44.726  25.614  31.305  1.00  0.00     0.074 A 
ATOM     60  C   UNL A   1      45.255  24.458  30.611  1.00  0.00     0.031 C 
ATOM     61  C   UNL A   1      45.248  26.120  32.449  1.00  0.00     0.037 A 
BRANCH  48  62
ATOM     62  C   UNL A   1      42.247  31.076  34.595  1.00  0.00     0.057 A 
ATOM     63  C   UNL A   1      41.490  30.927  35.763  1.00  0.00     0.134 A 
ATOM     64  C   UNL A   1      42.954  32.274  34.432  1.00  0.00     0.134 A 
ATOM     65  F   UNL A   1      40.778  29.809  35.974  1.00  0.00    -0.206 F 
ATOM     66  C   UNL A   1      41.417  31.939  36.722  1.00  0.00     0.040 A 
ATOM     67  C   UNL A   1      42.909  33.284  35.395  1.00  0.00     0.040 A 
ATOM     68  F   UNL A   1      43.703  32.480  33.338  1.00  0.00    -0.206 F 
ATOM     69  C   UNL A   1      42.134  33.120  36.541  1.00  0.00     0.006 A 
ENDBRANCH  48  62
BRANCH  49  70
ATOM     70  C   UNL A   1      42.585  24.220  27.363  1.00  0.00     0.057 A 
ATOM     71  C   UNL A   1      41.996  22.961  27.534  1.00  0.00     0.134 A 
ATOM     72  C   UNL A   1      43.225  24.474  26.145  1.00  0.00     0.134 A 
ATOM     73  F   UNL A   1      41.383  22.656  28.688  1.00  0.00    -0.206 F 
ATOM     74  C   UNL A   1      42.055  21.985  26.539  1.00  0.00     0.040 A 
ATOM     75  C   UNL A   1      43.273  23.515  25.132  1.00  0.00     0.040 A 
ATOM     76  F   UNL A   1      43.800  25.664  25.918  1.00  0.00    -0.206 F 
ATOM     77  C   UNL A   1      42.692  22.263  25.331  1.00  0.00     0.006 A 
ENDBRANCH  49  70
BRANCH  61  78
ATOM     78  C   UNL A   1      46.439  25.412  33.023  1.00  0.00     0.057 A 
ATOM     79  C   UNL A   1      46.300  24.377  33.957  1.00  0.00     0.134 A 
ATOM     80  C   UNL A   1      47.737  25.764  32.630  1.00  0.00     0.134 A 
ATOM     81  F   UNL A   1      45.084  24.004  34.382  1.00  0.00    -0.206 F 
ATOM     82  C   UNL A   1      47.413  23.736  34.502  1.00  0.00     0.040 A 
ATOM     83  C   UNL A   1      48.855  25.114  33.152  1.00  0.00     0.040 A 
ATOM     84  F   UNL A   1      47.937  26.743  31.735  1.00  0.00    -0.206 F 
ATOM     85  C   UNL A   1      48.695  24.101  34.097  1.00  0.00     0.006 A 
ENDBRANCH  61  78
ENDBRANCH  35  36
ENDBRANCH  27  30
ENDBRANCH  25  26
ENDBRANCH  24  25
ENDBRANCH  23  24
ENDBRANCH   1  23
TORSDOF 16
ENDMDL
