MODEL 1
REMARK VINA RESULT:     -12.1      0.000      0.000
REMARK SMILES O=C(NCCCCCCNC(=O)c1c(F)cccc1N[C@H]1CCCc2ccccc21)c1ccc(-c2c3nc(c(-c4c(F)cccc4F)c4ccc([nH]4)c(-c4c(F)cccc4F)c4nc(c(-c5c(F)cccc5F)c5ccc2[nH]5)C=C4)C=C3)cc1
REMARK SMILES IDX 6 1 5 2 4 3 3 4 1 5 2 6 31 8 32 9 84 10 33 11 83 12 34 13
REMARK SMILES IDX 35 14 36 15 77 16 37 17 82 18 76 19 78 20 38 21 81 22 75 23
REMARK SMILES IDX 74 24 39 26 65 27 48 28 64 29 49 30 52 31 63 32 79 33 50 34
REMARK SMILES IDX 51 35 62 37 80 38 53 39 40 40 41 41 46 42 42 43 43 44 45 45
REMARK SMILES IDX 47 46 44 47 66 48 67 49 72 50 68 51 69 52 71 53 73 54 70 55
REMARK SMILES IDX 54 56 55 57 60 58 56 59 57 60 59 61 61 62 58 63 7 64 8 65
REMARK SMILES IDX 9 66 10 67 11 68 12 70 13 71 14 72 19 73 15 74 16 75 18 76
REMARK SMILES IDX 17 77 20 78 21 80 22 81 30 82 23 83 25 84 29 85 24 86 26 87
REMARK SMILES IDX 28 88 27 89
REMARK H PARENT 3 7 78 25 52 36 10 69 20 79
REMARK Flexibility Score: inf
ROOT
ATOM      1  C   UNL A   1      36.190  20.339  24.998  1.00  0.00     0.002 C 
ENDROOT
BRANCH   1   2
ATOM      2  C   UNL A   1      37.651  20.093  24.628  1.00  0.00     0.021 C 
BRANCH   2   3
ATOM      3  C   UNL A   1      38.659  20.273  25.755  1.00  0.00     0.116 C 
BRANCH   3   4
ATOM      4  N   UNL A   1      39.770  19.338  25.693  1.00  0.00    -0.352 N 
ATOM      5  O   UNL A   1      41.921  18.659  25.790  1.00  0.00    -0.269 OA
ATOM      6  C   UNL A   1      41.096  19.537  26.008  1.00  0.00     0.251 C 
ATOM      7  H   UNL A   1      39.543  18.432  25.382  1.00  0.00     0.163 HD
BRANCH   6   8
ATOM      8  C   UNL A   1      41.533  20.832  26.584  1.00  0.00     0.039 A 
ATOM      9  C   UNL A   1      41.497  21.050  27.961  1.00  0.00     0.014 A 
ATOM     10  C   UNL A   1      41.991  21.843  25.731  1.00  0.00     0.014 A 
ATOM     11  C   UNL A   1      41.762  22.318  28.467  1.00  0.00     0.010 A 
ATOM     12  C   UNL A   1      42.348  23.092  26.253  1.00  0.00     0.010 A 
ATOM     13  C   UNL A   1      42.205  23.351  27.623  1.00  0.00    -0.014 A 
BRANCH  13  14
ATOM     14  C   UNL A   1      42.575  24.657  28.231  1.00  0.00     0.031 A 
ATOM     15  C   UNL A   1      44.007  25.024  28.506  1.00  0.00     0.074 A 
ATOM     16  C   UNL A   1      41.594  25.552  28.462  1.00  0.00     0.049 A 
ATOM     17  N   UNL A   1      44.493  26.163  28.936  1.00  0.00    -0.248 NA
ATOM     18  C   UNL A   1      45.027  23.990  28.276  1.00  0.00     0.031 C 
ATOM     19  C   UNL A   1      40.165  25.303  28.250  1.00  0.00     0.029 A 
ATOM     20  N   UNL A   1      41.643  26.858  28.877  1.00  0.00    -0.354 N 
ATOM     21  C   UNL A   1      45.866  25.981  29.039  1.00  0.00     0.074 A 
ATOM     22  C   UNL A   1      46.138  24.615  28.648  1.00  0.00     0.031 C 
ATOM     23  C   UNL A   1      39.485  26.439  28.453  1.00  0.00     0.029 A 
ATOM     24  C   UNL A   1      40.417  27.480  28.872  1.00  0.00     0.049 A 
ATOM     25  H   UNL A   1      42.476  27.307  29.152  1.00  0.00     0.167 HD
ATOM     26  C   UNL A   1      46.810  26.877  29.415  1.00  0.00     0.037 A 
ATOM     27  C   UNL A   1      40.077  28.747  29.169  1.00  0.00     0.037 A 
ATOM     28  C   UNL A   1      46.538  28.244  29.782  1.00  0.00     0.049 A 
ATOM     29  C   UNL A   1      41.145  29.713  29.587  1.00  0.00     0.074 A 
ATOM     30  C   UNL A   1      47.436  29.230  30.155  1.00  0.00     0.029 A 
ATOM     31  N   UNL A   1      45.276  28.818  29.821  1.00  0.00    -0.354 N 
ATOM     32  N   UNL A   1      42.439  29.526  29.662  1.00  0.00    -0.248 NA
ATOM     33  C   UNL A   1      40.704  31.059  29.974  1.00  0.00     0.031 C 
ATOM     34  C   UNL A   1      46.716  30.390  30.453  1.00  0.00     0.029 A 
ATOM     35  C   UNL A   1      45.372  30.140  30.227  1.00  0.00     0.049 A 
ATOM     36  H   UNL A   1      44.437  28.357  29.593  1.00  0.00     0.167 HD
ATOM     37  C   UNL A   1      42.969  30.730  30.102  1.00  0.00     0.074 A 
ATOM     38  C   UNL A   1      41.859  31.649  30.248  1.00  0.00     0.031 C 
ATOM     39  C   UNL A   1      44.259  31.041  30.374  1.00  0.00     0.037 A 
BRANCH  26  40
ATOM     40  C   UNL A   1      48.240  26.425  29.450  1.00  0.00     0.057 A 
ATOM     41  C   UNL A   1      48.782  25.860  30.613  1.00  0.00     0.134 A 
ATOM     42  C   UNL A   1      49.109  26.652  28.376  1.00  0.00     0.134 A 
ATOM     43  F   UNL A   1      48.004  25.626  31.682  1.00  0.00    -0.206 F 
ATOM     44  C   UNL A   1      50.140  25.555  30.713  1.00  0.00     0.040 A 
ATOM     45  C   UNL A   1      50.466  26.333  28.458  1.00  0.00     0.040 A 
ATOM     46  F   UNL A   1      48.652  27.184  27.234  1.00  0.00    -0.206 F 
ATOM     47  C   UNL A   1      50.987  25.794  29.633  1.00  0.00     0.006 A 
ENDBRANCH  26  40
BRANCH  27  48
ATOM     48  C   UNL A   1      38.658  29.172  29.068  1.00  0.00     0.057 A 
ATOM     49  C   UNL A   1      37.798  29.111  30.172  1.00  0.00     0.134 A 
ATOM     50  C   UNL A   1      38.124  29.626  27.857  1.00  0.00     0.134 A 
ATOM     51  F   UNL A   1      38.249  28.678  31.358  1.00  0.00    -0.206 F 
ATOM     52  C   UNL A   1      36.453  29.468  30.071  1.00  0.00     0.040 A 
ATOM     53  C   UNL A   1      36.787  30.013  27.749  1.00  0.00     0.040 A 
ATOM     54  F   UNL A   1      38.903  29.722  26.769  1.00  0.00    -0.206 F 
ATOM     55  C   UNL A   1      35.946  29.926  28.856  1.00  0.00     0.006 A 
ENDBRANCH  27  48
BRANCH  39  56
ATOM     56  C   UNL A   1      44.539  32.433  30.855  1.00  0.00     0.057 A 
ATOM     57  C   UNL A   1      44.807  33.464  29.947  1.00  0.00     0.134 A 
ATOM     58  C   UNL A   1      44.583  32.739  32.220  1.00  0.00     0.134 A 
ATOM     59  F   UNL A   1      44.788  33.233  28.626  1.00  0.00    -0.206 F 
ATOM     60  C   UNL A   1      45.112  34.754  30.383  1.00  0.00     0.040 A 
ATOM     61  C   UNL A   1      44.864  34.031  32.667  1.00  0.00     0.040 A 
ATOM     62  F   UNL A   1      44.323  31.795  33.138  1.00  0.00    -0.206 F 
ATOM     63  C   UNL A   1      45.136  35.041  31.746  1.00  0.00     0.006 A 
ENDBRANCH  39  56
ENDBRANCH  13  14
ENDBRANCH   6   8
ENDBRANCH   3   4
ENDBRANCH   2   3
ENDBRANCH   1   2
BRANCH   1  64
ATOM     64  C   UNL A   1      35.886  21.649  25.732  1.00  0.00     0.002 C 
BRANCH  64  65
ATOM     65  C   UNL A   1      34.793  21.598  26.804  1.00  0.00     0.021 C 
BRANCH  65  66
ATOM     66  C   UNL A   1      33.760  22.722  26.778  1.00  0.00     0.116 C 
BRANCH  66  67
ATOM     67  N   UNL A   1      32.390  22.249  26.724  1.00  0.00    -0.352 N 
ATOM     68  C   UNL A   1      31.510  22.249  25.665  1.00  0.00     0.256 C 
ATOM     69  H   UNL A   1      32.040  21.875  27.565  1.00  0.00     0.163 HD
ATOM     70  O   UNL A   1      30.379  21.789  25.817  1.00  0.00    -0.269 OA
BRANCH  68  71
ATOM     71  C   UNL A   1      31.881  22.873  24.376  1.00  0.00     0.098 A 
ATOM     72  C   UNL A   1      32.778  22.220  23.529  1.00  0.00     0.138 A 
ATOM     73  C   UNL A   1      31.334  24.130  24.023  1.00  0.00     0.050 A 
ATOM     74  F   UNL A   1      33.244  20.998  23.830  1.00  0.00    -0.206 F 
ATOM     75  C   UNL A   1      33.229  22.832  22.367  1.00  0.00     0.040 A 
ATOM     76  C   UNL A   1      31.850  24.756  22.882  1.00  0.00     0.027 A 
ATOM     77  C   UNL A   1      32.781  24.112  22.055  1.00  0.00     0.005 A 
BRANCH  73  78
ATOM     78  N   UNL A   1      30.350  24.703  24.800  1.00  0.00    -0.377 N 
ATOM     79  H   UNL A   1      29.483  24.235  24.786  1.00  0.00     0.161 HD
BRANCH  78  80
ATOM     80  C   UNL A   1      30.395  25.893  25.639  1.00  0.00     0.110 C 
ATOM     81  C   UNL A   1      31.727  25.948  26.406  1.00  0.00     0.030 C 
ATOM     82  C   UNL A   1      30.190  27.087  24.703  1.00  0.00    -0.023 A 
ATOM     83  C   UNL A   1      32.112  27.373  26.787  1.00  0.00     0.007 C 
ATOM     84  C   UNL A   1      31.117  28.142  24.619  1.00  0.00    -0.043 A 
ATOM     85  C   UNL A   1      29.065  27.105  23.854  1.00  0.00     0.006 A 
ATOM     86  C   UNL A   1      32.316  28.206  25.528  1.00  0.00     0.036 C 
ATOM     87  C   UNL A   1      30.959  29.127  23.630  1.00  0.00     0.004 A 
ATOM     88  C   UNL A   1      28.910  28.096  22.885  1.00  0.00     0.000 A 
ATOM     89  C   UNL A   1      29.868  29.097  22.763  1.00  0.00     0.000 A 
ENDBRANCH  78  80
ENDBRANCH  73  78
ENDBRANCH  68  71
ENDBRANCH  66  67
ENDBRANCH  65  66
ENDBRANCH  64  65
ENDBRANCH   1  64
TORSDOF 15
ENDMDL
MODEL 2
REMARK VINA RESULT:     -12.1      5.373     10.025
REMARK SMILES O=C(NCCCCCCNC(=O)c1c(F)cccc1N[C@H]1CCCc2ccccc21)c1ccc(-c2c3nc(c(-c4c(F)cccc4F)c4ccc([nH]4)c(-c4c(F)cccc4F)c4nc(c(-c5c(F)cccc5F)c5ccc2[nH]5)C=C4)C=C3)cc1
REMARK SMILES IDX 6 1 5 2 4 3 3 4 1 5 2 6 31 8 32 9 84 10 33 11 83 12 34 13
REMARK SMILES IDX 35 14 36 15 77 16 37 17 82 18 76 19 78 20 38 21 81 22 75 23
REMARK SMILES IDX 74 24 39 26 65 27 48 28 64 29 49 30 52 31 63 32 79 33 50 34
REMARK SMILES IDX 51 35 62 37 80 38 53 39 40 40 41 41 46 42 42 43 43 44 45 45
REMARK SMILES IDX 47 46 44 47 66 48 67 49 72 50 68 51 69 52 71 53 73 54 70 55
REMARK SMILES IDX 54 56 55 57 60 58 56 59 57 60 59 61 61 62 58 63 7 64 8 65
REMARK SMILES IDX 9 66 10 67 11 68 12 70 13 71 14 72 19 73 15 74 16 75 18 76
REMARK SMILES IDX 17 77 20 78 21 80 22 81 30 82 23 83 25 84 29 85 24 86 26 87
REMARK SMILES IDX 28 88 27 89
REMARK H PARENT 3 7 78 25 52 36 10 69 20 79
REMARK Flexibility Score: inf
ROOT
ATOM      1  C   UNL A   1      34.479  33.569  28.830  1.00  0.00     0.002 C 
ENDROOT
BRANCH   1   2
ATOM      2  C   UNL A   1      33.222  34.435  28.888  1.00  0.00     0.021 C 
BRANCH   2   3
ATOM      3  C   UNL A   1      33.429  35.873  29.341  1.00  0.00     0.116 C 
BRANCH   3   4
ATOM      4  N   UNL A   1      32.569  36.262  30.447  1.00  0.00    -0.352 N 
ATOM      5  O   UNL A   1      31.768  36.254  32.558  1.00  0.00    -0.269 OA
ATOM      6  C   UNL A   1      32.650  35.920  31.778  1.00  0.00     0.251 C 
ATOM      7  H   UNL A   1      31.819  36.855  30.210  1.00  0.00     0.163 HD
BRANCH   6   8
ATOM      8  C   UNL A   1      33.797  35.115  32.266  1.00  0.00     0.039 A 
ATOM      9  C   UNL A   1      35.081  35.657  32.316  1.00  0.00     0.014 A 
ATOM     10  C   UNL A   1      33.580  33.797  32.685  1.00  0.00     0.014 A 
ATOM     11  C   UNL A   1      36.163  34.841  32.628  1.00  0.00     0.010 A 
ATOM     12  C   UNL A   1      34.662  33.004  33.090  1.00  0.00     0.010 A 
ATOM     13  C   UNL A   1      35.967  33.509  33.033  1.00  0.00    -0.014 A 
BRANCH  13  14
ATOM     14  C   UNL A   1      37.151  32.714  33.455  1.00  0.00     0.031 A 
ATOM     15  C   UNL A   1      37.789  31.701  32.546  1.00  0.00     0.074 A 
ATOM     16  C   UNL A   1      37.698  32.977  34.659  1.00  0.00     0.049 A 
ATOM     17  N   UNL A   1      38.884  31.006  32.733  1.00  0.00    -0.248 NA
ATOM     18  C   UNL A   1      37.120  31.425  31.265  1.00  0.00     0.031 C 
ATOM     19  C   UNL A   1      37.158  33.928  35.635  1.00  0.00     0.029 A 
ATOM     20  N   UNL A   1      38.846  32.515  35.249  1.00  0.00    -0.354 N 
ATOM     21  C   UNL A   1      39.030  30.206  31.607  1.00  0.00     0.074 A 
ATOM     22  C   UNL A   1      37.899  30.482  30.747  1.00  0.00     0.031 C 
ATOM     23  C   UNL A   1      38.013  34.040  36.660  1.00  0.00     0.029 A 
ATOM     24  C   UNL A   1      39.129  33.125  36.448  1.00  0.00     0.049 A 
ATOM     25  H   UNL A   1      39.412  31.813  34.853  1.00  0.00     0.167 HD
ATOM     26  C   UNL A   1      40.022  29.331  31.316  1.00  0.00     0.037 A 
ATOM     27  C   UNL A   1      40.171  32.971  37.285  1.00  0.00     0.037 A 
ATOM     28  C   UNL A   1      41.158  29.074  32.165  1.00  0.00     0.049 A 
ATOM     29  C   UNL A   1      41.250  31.990  36.937  1.00  0.00     0.074 A 
ATOM     30  C   UNL A   1      42.225  28.220  31.939  1.00  0.00     0.029 A 
ATOM     31  N   UNL A   1      41.378  29.670  33.397  1.00  0.00    -0.354 N 
ATOM     32  N   UNL A   1      41.378  31.255  35.860  1.00  0.00    -0.248 NA
ATOM     33  C   UNL A   1      42.321  31.806  37.925  1.00  0.00     0.031 C 
ATOM     34  C   UNL A   1      43.071  28.271  33.050  1.00  0.00     0.029 A 
ATOM     35  C   UNL A   1      42.554  29.188  33.950  1.00  0.00     0.049 A 
ATOM     36  H   UNL A   1      40.787  30.335  33.818  1.00  0.00     0.167 HD
ATOM     37  C   UNL A   1      42.543  30.524  36.038  1.00  0.00     0.074 A 
ATOM     38  C   UNL A   1      43.100  30.926  37.312  1.00  0.00     0.031 C 
ATOM     39  C   UNL A   1      43.094  29.592  35.223  1.00  0.00     0.037 A 
BRANCH  26  40
ATOM     40  C   UNL A   1      39.942  28.575  30.023  1.00  0.00     0.057 A 
ATOM     41  C   UNL A   1      39.276  27.344  29.954  1.00  0.00     0.134 A 
ATOM     42  C   UNL A   1      40.619  29.009  28.876  1.00  0.00     0.134 A 
ATOM     43  F   UNL A   1      38.616  26.868  31.021  1.00  0.00    -0.206 F 
ATOM     44  C   UNL A   1      39.302  26.562  28.799  1.00  0.00     0.040 A 
ATOM     45  C   UNL A   1      40.637  28.244  27.708  1.00  0.00     0.040 A 
ATOM     46  F   UNL A   1      41.271  30.180  28.875  1.00  0.00    -0.206 F 
ATOM     47  C   UNL A   1      39.987  27.012  27.671  1.00  0.00     0.006 A 
ENDBRANCH  26  40
BRANCH  27  48
ATOM     48  C   UNL A   1      40.242  33.778  38.529  1.00  0.00     0.057 A 
ATOM     49  C   UNL A   1      39.532  33.409  39.678  1.00  0.00     0.134 A 
ATOM     50  C   UNL A   1      41.005  34.949  38.588  1.00  0.00     0.134 A 
ATOM     51  F   UNL A   1      38.778  32.301  39.682  1.00  0.00    -0.206 F 
ATOM     52  C   UNL A   1      39.561  34.187  40.836  1.00  0.00     0.040 A 
ATOM     53  C   UNL A   1      41.065  35.722  39.748  1.00  0.00     0.040 A 
ATOM     54  F   UNL A   1      41.720  35.343  37.524  1.00  0.00    -0.206 F 
ATOM     55  C   UNL A   1      40.335  35.345  40.874  1.00  0.00     0.006 A 
ENDBRANCH  27  48
BRANCH  39  56
ATOM     56  C   UNL A   1      44.364  28.946  35.685  1.00  0.00     0.057 A 
ATOM     57  C   UNL A   1      44.335  27.803  36.492  1.00  0.00     0.134 A 
ATOM     58  C   UNL A   1      45.617  29.483  35.362  1.00  0.00     0.134 A 
ATOM     59  F   UNL A   1      43.167  27.245  36.843  1.00  0.00    -0.206 F 
ATOM     60  C   UNL A   1      45.510  27.217  36.965  1.00  0.00     0.040 A 
ATOM     61  C   UNL A   1      46.799  28.893  35.811  1.00  0.00     0.040 A 
ATOM     62  F   UNL A   1      45.710  30.571  34.581  1.00  0.00    -0.206 F 
ATOM     63  C   UNL A   1      46.746  27.760  36.620  1.00  0.00     0.006 A 
ENDBRANCH  39  56
ENDBRANCH  13  14
ENDBRANCH   6   8
ENDBRANCH   3   4
ENDBRANCH   2   3
ENDBRANCH   1   2
BRANCH   1  64
ATOM     64  C   UNL A   1      34.267  32.055  28.934  1.00  0.00     0.002 C 
BRANCH  64  65
ATOM     65  C   UNL A   1      34.941  31.192  27.863  1.00  0.00     0.021 C 
BRANCH  65  66
ATOM     66  C   UNL A   1      34.014  30.385  26.957  1.00  0.00     0.116 C 
BRANCH  66  67
ATOM     67  N   UNL A   1      32.978  29.669  27.678  1.00  0.00    -0.352 N 
ATOM     68  C   UNL A   1      32.047  28.772  27.202  1.00  0.00     0.256 C 
ATOM     69  H   UNL A   1      32.934  29.851  28.645  1.00  0.00     0.163 HD
ATOM     70  O   UNL A   1      31.248  28.258  27.983  1.00  0.00    -0.269 OA
BRANCH  68  71
ATOM     71  C   UNL A   1      31.944  28.489  25.753  1.00  0.00     0.098 A 
ATOM     72  C   UNL A   1      31.359  29.433  24.908  1.00  0.00     0.138 A 
ATOM     73  C   UNL A   1      32.427  27.259  25.244  1.00  0.00     0.050 A 
ATOM     74  F   UNL A   1      30.963  30.626  25.377  1.00  0.00    -0.206 F 
ATOM     75  C   UNL A   1      31.149  29.147  23.566  1.00  0.00     0.040 A 
ATOM     76  C   UNL A   1      32.147  26.967  23.904  1.00  0.00     0.027 A 
ATOM     77  C   UNL A   1      31.523  27.904  23.068  1.00  0.00     0.005 A 
BRANCH  73  78
ATOM     78  N   UNL A   1      33.122  26.393  26.062  1.00  0.00    -0.377 N 
ATOM     79  H   UNL A   1      33.927  26.774  26.483  1.00  0.00     0.161 HD
BRANCH  78  80
ATOM     80  C   UNL A   1      32.850  25.002  26.397  1.00  0.00     0.110 C 
ATOM     81  C   UNL A   1      31.341  24.721  26.299  1.00  0.00     0.030 C 
ATOM     82  C   UNL A   1      33.683  24.155  25.431  1.00  0.00    -0.023 A 
ATOM     83  C   UNL A   1      31.046  23.252  26.023  1.00  0.00     0.007 C 
ATOM     84  C   UNL A   1      33.103  23.185  24.593  1.00  0.00    -0.043 A 
ATOM     85  C   UNL A   1      35.069  24.394  25.334  1.00  0.00     0.006 A 
ATOM     86  C   UNL A   1      31.638  22.851  24.678  1.00  0.00     0.036 C 
ATOM     87  C   UNL A   1      33.891  22.554  23.616  1.00  0.00     0.004 A 
ATOM     88  C   UNL A   1      35.844  23.751  24.369  1.00  0.00     0.000 A 
ATOM     89  C   UNL A   1      35.249  22.844  23.499  1.00  0.00     0.000 A 
ENDBRANCH  78  80
ENDBRANCH  73  78
ENDBRANCH  68  71
ENDBRANCH  66  67
ENDBRANCH  65  66
ENDBRANCH  64  65
ENDBRANCH   1  64
TORSDOF 15
ENDMDL
MODEL 3
REMARK VINA RESULT:     -12.0      4.353      9.286
REMARK SMILES O=C(NCCCCCCNC(=O)c1c(F)cccc1N[C@H]1CCCc2ccccc21)c1ccc(-c2c3nc(c(-c4c(F)cccc4F)c4ccc([nH]4)c(-c4c(F)cccc4F)c4nc(c(-c5c(F)cccc5F)c5ccc2[nH]5)C=C4)C=C3)cc1
REMARK SMILES IDX 6 1 5 2 4 3 3 4 1 5 2 6 31 8 32 9 84 10 33 11 83 12 34 13
REMARK SMILES IDX 35 14 36 15 77 16 37 17 82 18 76 19 78 20 38 21 81 22 75 23
REMARK SMILES IDX 74 24 39 26 65 27 48 28 64 29 49 30 52 31 63 32 79 33 50 34
REMARK SMILES IDX 51 35 62 37 80 38 53 39 40 40 41 41 46 42 42 43 43 44 45 45
REMARK SMILES IDX 47 46 44 47 66 48 67 49 72 50 68 51 69 52 71 53 73 54 70 55
REMARK SMILES IDX 54 56 55 57 60 58 56 59 57 60 59 61 61 62 58 63 7 64 8 65
REMARK SMILES IDX 9 66 10 67 11 68 12 70 13 71 14 72 19 73 15 74 16 75 18 76
REMARK SMILES IDX 17 77 20 78 21 80 22 81 30 82 23 83 25 84 29 85 24 86 26 87
REMARK SMILES IDX 28 88 27 89
REMARK H PARENT 3 7 78 25 52 36 10 69 20 79
REMARK Flexibility Score: inf
ROOT
ATOM      1  C   UNL A   1      31.579  30.677  26.195  1.00  0.00     0.002 C 
ENDROOT
BRANCH   1   2
ATOM      2  C   UNL A   1      31.398  32.156  26.533  1.00  0.00     0.021 C 
BRANCH   2   3
ATOM      3  C   UNL A   1      32.619  32.857  27.112  1.00  0.00     0.116 C 
BRANCH   3   4
ATOM      4  N   UNL A   1      32.334  34.186  27.628  1.00  0.00    -0.352 N 
ATOM      5  O   UNL A   1      32.529  35.966  29.003  1.00  0.00    -0.269 OA
ATOM      6  C   UNL A   1      32.977  34.893  28.620  1.00  0.00     0.251 C 
ATOM      7  H   UNL A   1      31.572  34.647  27.208  1.00  0.00     0.163 HD
BRANCH   6   8
ATOM      8  C   UNL A   1      34.200  34.339  29.249  1.00  0.00     0.039 A 
ATOM      9  C   UNL A   1      35.466  34.658  28.757  1.00  0.00     0.014 A 
ATOM     10  C   UNL A   1      34.077  33.489  30.355  1.00  0.00     0.014 A 
ATOM     11  C   UNL A   1      36.587  34.008  29.261  1.00  0.00     0.010 A 
ATOM     12  C   UNL A   1      35.218  32.907  30.922  1.00  0.00     0.010 A 
ATOM     13  C   UNL A   1      36.481  33.136  30.359  1.00  0.00    -0.014 A 
BRANCH  13  14
ATOM     14  C   UNL A   1      37.725  32.550  30.924  1.00  0.00     0.031 A 
ATOM     15  C   UNL A   1      38.301  33.024  32.229  1.00  0.00     0.074 A 
ATOM     16  C   UNL A   1      38.294  31.515  30.273  1.00  0.00     0.049 A 
ATOM     17  N   UNL A   1      39.319  32.541  32.900  1.00  0.00    -0.248 NA
ATOM     18  C   UNL A   1      37.663  34.185  32.869  1.00  0.00     0.031 C 
ATOM     19  C   UNL A   1      37.834  30.978  28.989  1.00  0.00     0.029 A 
ATOM     20  N   UNL A   1      39.343  30.700  30.614  1.00  0.00    -0.354 N 
ATOM     21  C   UNL A   1      39.451  33.341  34.027  1.00  0.00     0.074 A 
ATOM     22  C   UNL A   1      38.424  34.357  33.943  1.00  0.00     0.031 C 
ATOM     23  C   UNL A   1      38.539  29.878  28.694  1.00  0.00     0.029 A 
ATOM     24  C   UNL A   1      39.542  29.666  29.732  1.00  0.00     0.049 A 
ATOM     25  H   UNL A   1      39.899  30.843  31.415  1.00  0.00     0.167 HD
ATOM     26  C   UNL A   1      40.342  33.229  35.041  1.00  0.00     0.037 A 
ATOM     27  C   UNL A   1      40.430  28.656  29.752  1.00  0.00     0.037 A 
ATOM     28  C   UNL A   1      41.350  32.202  35.133  1.00  0.00     0.049 A 
ATOM     29  C   UNL A   1      41.407  28.563  30.886  1.00  0.00     0.074 A 
ATOM     30  C   UNL A   1      42.281  31.998  36.137  1.00  0.00     0.029 A 
ATOM     31  N   UNL A   1      41.556  31.208  34.189  1.00  0.00    -0.354 N 
ATOM     32  N   UNL A   1      41.505  29.320  31.951  1.00  0.00    -0.248 NA
ATOM     33  C   UNL A   1      42.403  27.486  30.815  1.00  0.00     0.031 C 
ATOM     34  C   UNL A   1      43.074  30.903  35.784  1.00  0.00     0.029 A 
ATOM     35  C   UNL A   1      42.611  30.399  34.580  1.00  0.00     0.049 A 
ATOM     36  H   UNL A   1      41.033  31.094  33.363  1.00  0.00     0.167 HD
ATOM     37  C   UNL A   1      42.571  28.811  32.678  1.00  0.00     0.074 A 
ATOM     38  C   UNL A   1      43.067  27.662  31.949  1.00  0.00     0.031 C 
ATOM     39  C   UNL A   1      43.099  29.263  33.841  1.00  0.00     0.037 A 
BRANCH  26  40
ATOM     40  C   UNL A   1      40.280  34.235  36.152  1.00  0.00     0.057 A 
ATOM     41  C   UNL A   1      39.466  34.014  37.271  1.00  0.00     0.134 A 
ATOM     42  C   UNL A   1      40.934  35.470  36.062  1.00  0.00     0.134 A 
ATOM     43  F   UNL A   1      38.805  32.855  37.413  1.00  0.00    -0.206 F 
ATOM     44  C   UNL A   1      39.290  34.992  38.252  1.00  0.00     0.040 A 
ATOM     45  C   UNL A   1      40.779  36.450  37.045  1.00  0.00     0.040 A 
ATOM     46  F   UNL A   1      41.731  35.742  35.018  1.00  0.00    -0.206 F 
ATOM     47  C   UNL A   1      39.946  36.216  38.138  1.00  0.00     0.006 A 
ENDBRANCH  26  40
BRANCH  27  48
ATOM     48  C   UNL A   1      40.424  27.647  28.663  1.00  0.00     0.057 A 
ATOM     49  C   UNL A   1      41.165  27.836  27.490  1.00  0.00     0.134 A 
ATOM     50  C   UNL A   1      39.657  26.482  28.763  1.00  0.00     0.134 A 
ATOM     51  F   UNL A   1      41.914  28.936  27.332  1.00  0.00    -0.206 F 
ATOM     52  C   UNL A   1      41.128  26.911  26.446  1.00  0.00     0.040 A 
ATOM     53  C   UNL A   1      39.632  25.535  27.737  1.00  0.00     0.040 A 
ATOM     54  F   UNL A   1      38.939  26.238  29.870  1.00  0.00    -0.206 F 
ATOM     55  C   UNL A   1      40.363  25.753  26.571  1.00  0.00     0.006 A 
ENDBRANCH  27  48
BRANCH  39  56
ATOM     56  C   UNL A   1      44.272  28.514  34.395  1.00  0.00     0.057 A 
ATOM     57  C   UNL A   1      45.581  28.881  34.060  1.00  0.00     0.134 A 
ATOM     58  C   UNL A   1      44.102  27.403  35.231  1.00  0.00     0.134 A 
ATOM     59  F   UNL A   1      45.810  29.931  33.257  1.00  0.00    -0.206 F 
ATOM     60  C   UNL A   1      46.681  28.165  34.533  1.00  0.00     0.040 A 
ATOM     61  C   UNL A   1      45.195  26.694  35.729  1.00  0.00     0.040 A 
ATOM     62  F   UNL A   1      42.872  27.011  35.599  1.00  0.00    -0.206 F 
ATOM     63  C   UNL A   1      46.489  27.071  35.375  1.00  0.00     0.006 A 
ENDBRANCH  39  56
ENDBRANCH  13  14
ENDBRANCH   6   8
ENDBRANCH   3   4
ENDBRANCH   2   3
ENDBRANCH   1   2
BRANCH   1  64
ATOM     64  C   UNL A   1      32.362  29.839  27.211  1.00  0.00     0.002 C 
BRANCH  64  65
ATOM     65  C   UNL A   1      33.691  29.247  26.734  1.00  0.00     0.021 C 
BRANCH  65  66
ATOM     66  C   UNL A   1      33.653  27.805  26.233  1.00  0.00     0.116 C 
BRANCH  66  67
ATOM     67  N   UNL A   1      32.486  27.067  26.680  1.00  0.00    -0.352 N 
ATOM     68  C   UNL A   1      31.557  26.375  25.936  1.00  0.00     0.256 C 
ATOM     69  H   UNL A   1      32.338  27.061  27.654  1.00  0.00     0.163 HD
ATOM     70  O   UNL A   1      30.632  25.799  26.507  1.00  0.00    -0.269 OA
BRANCH  68  71
ATOM     71  C   UNL A   1      31.611  26.390  24.457  1.00  0.00     0.098 A 
ATOM     72  C   UNL A   1      30.968  27.410  23.756  1.00  0.00     0.138 A 
ATOM     73  C   UNL A   1      32.303  25.362  23.772  1.00  0.00     0.050 A 
ATOM     74  F   UNL A   1      30.371  28.422  24.405  1.00  0.00    -0.206 F 
ATOM     75  C   UNL A   1      30.908  27.388  22.369  1.00  0.00     0.040 A 
ATOM     76  C   UNL A   1      32.175  25.324  22.378  1.00  0.00     0.027 A 
ATOM     77  C   UNL A   1      31.494  26.331  21.680  1.00  0.00     0.005 A 
BRANCH  73  78
ATOM     78  N   UNL A   1      33.046  24.436  24.473  1.00  0.00    -0.377 N 
ATOM     79  H   UNL A   1      32.681  24.192  25.355  1.00  0.00     0.161 HD
BRANCH  78  80
ATOM     80  C   UNL A   1      34.288  23.766  24.111  1.00  0.00     0.110 C 
ATOM     81  C   UNL A   1      35.407  24.162  25.088  1.00  0.00     0.030 C 
ATOM     82  C   UNL A   1      33.985  22.265  24.119  1.00  0.00    -0.023 A 
ATOM     83  C   UNL A   1      36.496  23.099  25.177  1.00  0.00     0.007 C 
ATOM     84  C   UNL A   1      34.714  21.357  24.909  1.00  0.00    -0.043 A 
ATOM     85  C   UNL A   1      32.903  21.782  23.355  1.00  0.00     0.006 A 
ATOM     86  C   UNL A   1      35.907  21.801  25.713  1.00  0.00     0.036 C 
ATOM     87  C   UNL A   1      34.289  20.022  25.000  1.00  0.00     0.004 A 
ATOM     88  C   UNL A   1      32.499  20.450  23.442  1.00  0.00     0.000 A 
ATOM     89  C   UNL A   1      33.183  19.575  24.279  1.00  0.00     0.000 A 
ENDBRANCH  78  80
ENDBRANCH  73  78
ENDBRANCH  68  71
ENDBRANCH  66  67
ENDBRANCH  65  66
ENDBRANCH  64  65
ENDBRANCH   1  64
TORSDOF 15
ENDMDL
