MODEL 1
REMARK VINA RESULT:     -11.3      0.000      0.000
REMARK SMILES O=C(CC[N@H+]1CCC[C@H](c2nccn2Cc2cscn2)C1)NCCCCCCNC(=O)c1ccc(-c2c3nc(c(-c4c(F)cccc4F)c4ccc([nH]4)c(-c4c(F)cccc4F)c4nc(c(-c5c(F)cccc5F)c5ccc2[nH]5)C=C4)C=C3)cc1
REMARK SMILES IDX 24 1 23 2 22 3 1 4 2 5 3 7 4 8 5 9 6 10 21 11 7 13 9 14 8 15
REMARK SMILES IDX 10 16 11 17 14 18 12 19 13 20 15 21 16 22 17 23 20 24 18 25
REMARK SMILES IDX 19 26 25 27 26 28 27 29 28 30 29 31 30 32 31 34 32 35 33 36
REMARK SMILES IDX 85 37 34 38 84 39 35 40 36 41 37 42 78 43 38 44 83 45 77 46
REMARK SMILES IDX 79 47 39 48 82 49 76 50 75 51 40 53 66 54 49 55 65 56 50 57
REMARK SMILES IDX 53 58 64 59 80 60 51 61 52 62 63 64 81 65 54 66 41 67 42 68
REMARK SMILES IDX 47 69 43 70 44 71 46 72 48 73 45 74 67 75 68 76 73 77 69 78
REMARK SMILES IDX 70 79 72 80 74 81 71 82 55 83 56 84 61 85 57 86 58 87 60 88
REMARK SMILES IDX 62 89 59 90
REMARK H PARENT 22 6 5 12 29 33 79 52 53 63
REMARK Flexibility Score: inf
ROOT
ATOM      1  C   UNL A   1      38.956  23.014  26.434  1.00  0.00     0.021 C 
ENDROOT
BRANCH   1   2
ATOM      2  C   UNL A   1      37.726  23.523  25.677  1.00  0.00     0.116 C 
BRANCH   2   3
ATOM      3  N   UNL A   1      36.476  23.170  26.321  1.00  0.00    -0.356 N 
ATOM      4  O   UNL A   1      35.132  24.430  24.978  1.00  0.00    -0.275 OA
ATOM      5  C   UNL A   1      35.257  23.665  25.936  1.00  0.00     0.225 C 
ATOM      6  H   UNL A   1      36.503  22.539  27.077  1.00  0.00     0.163 HD
BRANCH   5   7
ATOM      7  C   UNL A   1      34.062  23.347  26.826  1.00  0.00     0.161 C 
BRANCH   7   8
ATOM      8  C   UNL A   1      32.707  22.957  26.223  1.00  0.00     0.272 C 
BRANCH   8   9
ATOM      9  N   UNL A   1      32.052  23.887  25.290  1.00  0.00    -0.334 N 
ATOM     10  C   UNL A   1      31.251  23.236  24.241  1.00  0.00     0.262 C 
ATOM     11  C   UNL A   1      31.168  24.826  26.018  1.00  0.00     0.273 C 
ATOM     12  H   UNL A   1      32.822  24.374  24.832  1.00  0.00     0.348 HD
ATOM     13  C   UNL A   1      30.819  24.312  23.244  1.00  0.00     0.062 C 
ATOM     14  C   UNL A   1      30.728  25.998  25.135  1.00  0.00     0.111 C 
ATOM     15  C   UNL A   1      29.995  25.411  23.901  1.00  0.00     0.023 C 
BRANCH  14  16
ATOM     16  C   UNL A   1      31.759  27.043  24.709  1.00  0.00     0.117 A 
ATOM     17  N   UNL A   1      32.874  27.180  25.420  1.00  0.00    -0.241 NA
ATOM     18  N   UNL A   1      31.837  27.859  23.584  1.00  0.00    -0.328 N 
ATOM     19  C   UNL A   1      33.703  28.010  24.738  1.00  0.00     0.131 A 
ATOM     20  C   UNL A   1      33.107  28.409  23.578  1.00  0.00     0.108 A 
BRANCH  18  21
ATOM     21  C   UNL A   1      30.938  28.054  22.454  1.00  0.00     0.180 C 
BRANCH  21  22
ATOM     22  C   UNL A   1      30.002  29.219  22.619  1.00  0.00     0.071 A 
ATOM     23  C   UNL A   1      29.917  30.088  23.695  1.00  0.00     0.092 A 
ATOM     24  N   UNL A   1      29.181  29.571  21.554  1.00  0.00    -0.248 NA
ATOM     25  S   UNL A   1      28.735  31.297  23.409  1.00  0.00    -0.130 S 
ATOM     26  C   UNL A   1      28.463  30.631  21.858  1.00  0.00     0.175 A 
ENDBRANCH  21  22
ENDBRANCH  18  21
ENDBRANCH  14  16
ENDBRANCH   8   9
ENDBRANCH   7   8
ENDBRANCH   5   7
ENDBRANCH   2   3
ENDBRANCH   1   2
BRANCH   1  27
ATOM     27  C   UNL A   1      39.381  21.578  26.115  1.00  0.00     0.002 C 
BRANCH  27  28
ATOM     28  C   UNL A   1      40.612  21.034  26.860  1.00  0.00     0.002 C 
BRANCH  28  29
ATOM     29  C   UNL A   1      41.408  19.917  26.178  1.00  0.00     0.021 C 
BRANCH  29  30
ATOM     30  C   UNL A   1      42.793  19.689  26.762  1.00  0.00     0.116 C 
BRANCH  30  31
ATOM     31  N   UNL A   1      43.857  19.561  25.753  1.00  0.00    -0.352 N 
ATOM     32  C   UNL A   1      44.330  20.539  24.881  1.00  0.00     0.251 C 
ATOM     33  H   UNL A   1      44.287  18.677  25.686  1.00  0.00     0.163 HD
ATOM     34  O   UNL A   1      44.910  20.265  23.846  1.00  0.00    -0.269 OA
BRANCH  32  35
ATOM     35  C   UNL A   1      44.135  21.944  25.280  1.00  0.00     0.039 A 
ATOM     36  C   UNL A   1      43.135  22.775  24.766  1.00  0.00     0.014 A 
ATOM     37  C   UNL A   1      44.969  22.377  26.297  1.00  0.00     0.014 A 
ATOM     38  C   UNL A   1      42.956  24.028  25.353  1.00  0.00     0.010 A 
ATOM     39  C   UNL A   1      44.570  23.426  27.059  1.00  0.00     0.010 A 
ATOM     40  C   UNL A   1      43.683  24.335  26.513  1.00  0.00    -0.014 A 
BRANCH  40  41
ATOM     41  C   UNL A   1      43.543  25.577  27.250  1.00  0.00     0.031 A 
ATOM     42  C   UNL A   1      44.520  26.629  26.884  1.00  0.00     0.074 A 
ATOM     43  C   UNL A   1      42.441  25.833  27.994  1.00  0.00     0.049 A 
ATOM     44  N   UNL A   1      45.480  27.089  27.612  1.00  0.00    -0.248 NA
ATOM     45  C   UNL A   1      44.529  27.125  25.499  1.00  0.00     0.031 C 
ATOM     46  C   UNL A   1      41.230  25.018  28.177  1.00  0.00     0.029 A 
ATOM     47  N   UNL A   1      42.125  26.971  28.664  1.00  0.00    -0.354 N 
ATOM     48  C   UNL A   1      46.076  28.096  26.861  1.00  0.00     0.074 A 
ATOM     49  C   UNL A   1      45.593  27.931  25.515  1.00  0.00     0.031 C 
ATOM     50  C   UNL A   1      40.236  25.778  28.687  1.00  0.00     0.029 A 
ATOM     51  C   UNL A   1      40.787  27.070  29.036  1.00  0.00     0.049 A 
ATOM     52  H   UNL A   1      42.787  27.670  28.870  1.00  0.00     0.167 HD
ATOM     53  C   UNL A   1      46.711  29.136  27.469  1.00  0.00     0.037 A 
ATOM     54  C   UNL A   1      40.191  28.173  29.554  1.00  0.00     0.037 A 
ATOM     55  C   UNL A   1      46.960  28.850  28.863  1.00  0.00     0.049 A 
ATOM     56  C   UNL A   1      41.279  29.028  30.104  1.00  0.00     0.074 A 
ATOM     57  C   UNL A   1      47.628  27.846  29.537  1.00  0.00     0.029 A 
ATOM     58  N   UNL A   1      46.124  29.422  29.795  1.00  0.00    -0.354 N 
ATOM     59  N   UNL A   1      42.018  28.679  31.123  1.00  0.00    -0.248 NA
ATOM     60  C   UNL A   1      41.882  29.998  29.199  1.00  0.00     0.031 C 
ATOM     61  C   UNL A   1      46.787  27.528  30.645  1.00  0.00     0.029 A 
ATOM     62  C   UNL A   1      45.711  28.418  30.634  1.00  0.00     0.049 A 
ATOM     63  H   UNL A   1      45.871  30.373  29.849  1.00  0.00     0.167 HD
ATOM     64  C   UNL A   1      43.312  29.043  30.769  1.00  0.00     0.074 A 
ATOM     65  C   UNL A   1      43.155  29.901  29.594  1.00  0.00     0.031 C 
ATOM     66  C   UNL A   1      44.404  28.377  31.251  1.00  0.00     0.037 A 
BRANCH  53  67
ATOM     67  C   UNL A   1      46.760  30.541  26.925  1.00  0.00     0.057 A 
ATOM     68  C   UNL A   1      47.979  31.242  26.961  1.00  0.00     0.134 A 
ATOM     69  C   UNL A   1      45.624  31.327  26.648  1.00  0.00     0.134 A 
ATOM     70  F   UNL A   1      49.131  30.607  27.223  1.00  0.00    -0.206 F 
ATOM     71  C   UNL A   1      48.048  32.633  26.817  1.00  0.00     0.040 A 
ATOM     72  C   UNL A   1      45.689  32.708  26.449  1.00  0.00     0.040 A 
ATOM     73  F   UNL A   1      44.383  30.829  26.656  1.00  0.00    -0.206 F 
ATOM     74  C   UNL A   1      46.899  33.372  26.569  1.00  0.00     0.006 A 
ENDBRANCH  53  67
BRANCH  54  75
ATOM     75  C   UNL A   1      38.821  28.670  29.274  1.00  0.00     0.057 A 
ATOM     76  C   UNL A   1      37.857  28.771  30.286  1.00  0.00     0.134 A 
ATOM     77  C   UNL A   1      38.503  29.306  28.058  1.00  0.00     0.134 A 
ATOM     78  F   UNL A   1      38.085  28.239  31.496  1.00  0.00    -0.206 F 
ATOM     79  C   UNL A   1      36.655  29.472  30.106  1.00  0.00     0.040 A 
ATOM     80  C   UNL A   1      37.305  30.003  27.863  1.00  0.00     0.040 A 
ATOM     81  F   UNL A   1      39.379  29.345  27.044  1.00  0.00    -0.206 F 
ATOM     82  C   UNL A   1      36.380  30.099  28.894  1.00  0.00     0.006 A 
ENDBRANCH  54  75
BRANCH  66  83
ATOM     83  C   UNL A   1      44.205  27.346  32.333  1.00  0.00     0.057 A 
ATOM     84  C   UNL A   1      44.115  25.964  32.101  1.00  0.00     0.134 A 
ATOM     85  C   UNL A   1      44.301  27.747  33.670  1.00  0.00     0.134 A 
ATOM     86  F   UNL A   1      44.122  25.467  30.860  1.00  0.00    -0.206 F 
ATOM     87  C   UNL A   1      44.086  25.032  33.145  1.00  0.00     0.040 A 
ATOM     88  C   UNL A   1      44.304  26.826  34.722  1.00  0.00     0.040 A 
ATOM     89  F   UNL A   1      44.452  29.045  33.975  1.00  0.00    -0.206 F 
ATOM     90  C   UNL A   1      44.188  25.464  34.463  1.00  0.00     0.006 A 
ENDBRANCH  66  83
ENDBRANCH  40  41
ENDBRANCH  32  35
ENDBRANCH  30  31
ENDBRANCH  29  30
ENDBRANCH  28  29
ENDBRANCH  27  28
ENDBRANCH   1  27
TORSDOF 18
ENDMDL
MODEL 2
REMARK VINA RESULT:     -10.6      4.256      9.557
REMARK SMILES O=C(CC[N@H+]1CCC[C@H](c2nccn2Cc2cscn2)C1)NCCCCCCNC(=O)c1ccc(-c2c3nc(c(-c4c(F)cccc4F)c4ccc([nH]4)c(-c4c(F)cccc4F)c4nc(c(-c5c(F)cccc5F)c5ccc2[nH]5)C=C4)C=C3)cc1
REMARK SMILES IDX 24 1 23 2 22 3 1 4 2 5 3 7 4 8 5 9 6 10 21 11 7 13 9 14 8 15
REMARK SMILES IDX 10 16 11 17 14 18 12 19 13 20 15 21 16 22 17 23 20 24 18 25
REMARK SMILES IDX 19 26 25 27 26 28 27 29 28 30 29 31 30 32 31 34 32 35 33 36
REMARK SMILES IDX 85 37 34 38 84 39 35 40 36 41 37 42 78 43 38 44 83 45 77 46
REMARK SMILES IDX 79 47 39 48 82 49 76 50 75 51 40 53 66 54 49 55 65 56 50 57
REMARK SMILES IDX 53 58 64 59 80 60 51 61 52 62 63 64 81 65 54 66 41 67 42 68
REMARK SMILES IDX 47 69 43 70 44 71 46 72 48 73 45 74 67 75 68 76 73 77 69 78
REMARK SMILES IDX 70 79 72 80 74 81 71 82 55 83 56 84 61 85 57 86 58 87 60 88
REMARK SMILES IDX 62 89 59 90
REMARK H PARENT 22 6 5 12 29 33 79 52 53 63
REMARK Flexibility Score: inf
ROOT
ATOM      1  C   UNL A   1      34.610  30.853  27.668  1.00  0.00     0.021 C 
ENDROOT
BRANCH   1   2
ATOM      2  C   UNL A   1      33.272  30.724  26.936  1.00  0.00     0.116 C 
BRANCH   2   3
ATOM      3  N   UNL A   1      33.188  29.535  26.109  1.00  0.00    -0.356 N 
ATOM      4  O   UNL A   1      31.202  30.053  25.118  1.00  0.00    -0.275 OA
ATOM      5  C   UNL A   1      32.143  29.271  25.264  1.00  0.00     0.225 C 
ATOM      6  H   UNL A   1      33.924  28.882  26.156  1.00  0.00     0.163 HD
BRANCH   5   7
ATOM      7  C   UNL A   1      32.108  27.897  24.605  1.00  0.00     0.161 C 
BRANCH   7   8
ATOM      8  C   UNL A   1      31.760  26.640  25.410  1.00  0.00     0.272 C 
BRANCH   8   9
ATOM      9  N   UNL A   1      32.670  25.487  25.353  1.00  0.00    -0.334 N 
ATOM     10  C   UNL A   1      34.092  25.819  25.539  1.00  0.00     0.262 C 
ATOM     11  C   UNL A   1      32.304  24.478  26.375  1.00  0.00     0.273 C 
ATOM     12  H   UNL A   1      32.560  25.120  24.408  1.00  0.00     0.348 HD
ATOM     13  C   UNL A   1      34.911  24.563  25.245  1.00  0.00     0.062 C 
ATOM     14  C   UNL A   1      33.011  23.140  26.138  1.00  0.00     0.111 C 
ATOM     15  C   UNL A   1      34.540  23.403  26.160  1.00  0.00     0.023 C 
BRANCH  14  16
ATOM     16  C   UNL A   1      32.624  22.293  24.926  1.00  0.00     0.117 A 
ATOM     17  N   UNL A   1      31.731  22.768  24.063  1.00  0.00    -0.241 NA
ATOM     18  N   UNL A   1      33.130  21.092  24.438  1.00  0.00    -0.328 N 
ATOM     19  C   UNL A   1      31.707  21.937  22.990  1.00  0.00     0.131 A 
ATOM     20  C   UNL A   1      32.595  20.918  23.174  1.00  0.00     0.108 A 
BRANCH  18  21
ATOM     21  C   UNL A   1      34.159  20.189  24.939  1.00  0.00     0.180 C 
BRANCH  21  22
ATOM     22  C   UNL A   1      33.745  18.744  24.944  1.00  0.00     0.071 A 
ATOM     23  C   UNL A   1      32.756  18.152  25.713  1.00  0.00     0.092 A 
ATOM     24  N   UNL A   1      34.314  17.884  24.012  1.00  0.00    -0.248 NA
ATOM     25  S   UNL A   1      32.605  16.486  25.334  1.00  0.00    -0.130 S 
ATOM     26  C   UNL A   1      33.808  16.676  24.133  1.00  0.00     0.175 A 
ENDBRANCH  21  22
ENDBRANCH  18  21
ENDBRANCH  14  16
ENDBRANCH   8   9
ENDBRANCH   7   8
ENDBRANCH   5   7
ENDBRANCH   2   3
ENDBRANCH   1   2
BRANCH   1  27
ATOM     27  C   UNL A   1      34.701  31.999  28.680  1.00  0.00     0.002 C 
BRANCH  27  28
ATOM     28  C   UNL A   1      35.293  33.327  28.177  1.00  0.00     0.002 C 
BRANCH  28  29
ATOM     29  C   UNL A   1      34.709  34.620  28.754  1.00  0.00     0.021 C 
BRANCH  29  30
ATOM     30  C   UNL A   1      33.473  34.420  29.615  1.00  0.00     0.116 C 
BRANCH  30  31
ATOM     31  N   UNL A   1      33.429  35.276  30.812  1.00  0.00    -0.352 N 
ATOM     32  C   UNL A   1      33.949  35.005  32.075  1.00  0.00     0.251 C 
ATOM     33  H   UNL A   1      32.979  36.145  30.707  1.00  0.00     0.163 HD
ATOM     34  O   UNL A   1      33.545  35.562  33.080  1.00  0.00    -0.269 OA
BRANCH  32  35
ATOM     35  C   UNL A   1      35.051  34.030  32.153  1.00  0.00     0.039 A 
ATOM     36  C   UNL A   1      34.875  32.643  32.165  1.00  0.00     0.014 A 
ATOM     37  C   UNL A   1      36.318  34.588  32.116  1.00  0.00     0.014 A 
ATOM     38  C   UNL A   1      36.009  31.836  32.068  1.00  0.00     0.010 A 
ATOM     39  C   UNL A   1      37.352  33.819  31.690  1.00  0.00     0.010 A 
ATOM     40  C   UNL A   1      37.248  32.447  31.821  1.00  0.00    -0.014 A 
BRANCH  40  41
ATOM     41  C   UNL A   1      38.488  31.715  31.642  1.00  0.00     0.031 A 
ATOM     42  C   UNL A   1      39.190  31.366  32.899  1.00  0.00     0.074 A 
ATOM     43  C   UNL A   1      38.813  31.164  30.449  1.00  0.00     0.049 A 
ATOM     44  N   UNL A   1      40.314  31.838  33.322  1.00  0.00    -0.248 NA
ATOM     45  C   UNL A   1      38.497  30.508  33.873  1.00  0.00     0.031 C 
ATOM     46  C   UNL A   1      38.045  31.138  29.194  1.00  0.00     0.029 A 
ATOM     47  N   UNL A   1      39.883  30.385  30.147  1.00  0.00    -0.354 N 
ATOM     48  C   UNL A   1      40.584  31.165  34.508  1.00  0.00     0.074 A 
ATOM     49  C   UNL A   1      39.354  30.527  34.897  1.00  0.00     0.031 C 
ATOM     50  C   UNL A   1      38.544  30.193  28.368  1.00  0.00     0.029 A 
ATOM     51  C   UNL A   1      39.766  29.680  28.951  1.00  0.00     0.049 A 
ATOM     52  H   UNL A   1      40.677  30.322  30.725  1.00  0.00     0.167 HD
ATOM     53  C   UNL A   1      41.867  30.980  34.927  1.00  0.00     0.037 A 
ATOM     54  C   UNL A   1      40.612  28.712  28.519  1.00  0.00     0.037 A 
ATOM     55  C   UNL A   1      42.779  31.834  34.203  1.00  0.00     0.049 A 
ATOM     56  C   UNL A   1      41.890  28.901  29.259  1.00  0.00     0.074 A 
ATOM     57  C   UNL A   1      42.875  33.199  34.011  1.00  0.00     0.029 A 
ATOM     58  N   UNL A   1      43.521  31.269  33.190  1.00  0.00    -0.354 N 
ATOM     59  N   UNL A   1      42.659  29.947  29.106  1.00  0.00    -0.248 NA
ATOM     60  C   UNL A   1      42.030  28.205  30.531  1.00  0.00     0.031 C 
ATOM     61  C   UNL A   1      43.200  33.350  32.629  1.00  0.00     0.029 A 
ATOM     62  C   UNL A   1      43.375  32.075  32.089  1.00  0.00     0.049 A 
ATOM     63  H   UNL A   1      44.053  30.442  33.246  1.00  0.00     0.167 HD
ATOM     64  C   UNL A   1      43.055  30.291  30.392  1.00  0.00     0.074 A 
ATOM     65  C   UNL A   1      42.679  29.146  31.223  1.00  0.00     0.031 C 
ATOM     66  C   UNL A   1      43.360  31.580  30.731  1.00  0.00     0.037 A 
BRANCH  53  67
ATOM     67  C   UNL A   1      42.347  29.776  35.698  1.00  0.00     0.057 A 
ATOM     68  C   UNL A   1      43.229  29.967  36.776  1.00  0.00     0.134 A 
ATOM     69  C   UNL A   1      42.221  28.445  35.253  1.00  0.00     0.134 A 
ATOM     70  F   UNL A   1      43.441  31.190  37.285  1.00  0.00    -0.206 F 
ATOM     71  C   UNL A   1      43.993  28.923  37.313  1.00  0.00     0.040 A 
ATOM     72  C   UNL A   1      42.939  27.387  35.817  1.00  0.00     0.040 A 
ATOM     73  F   UNL A   1      41.485  28.106  34.189  1.00  0.00    -0.206 F 
ATOM     74  C   UNL A   1      43.855  27.630  36.827  1.00  0.00     0.006 A 
ENDBRANCH  53  67
BRANCH  54  75
ATOM     75  C   UNL A   1      40.257  27.462  27.803  1.00  0.00     0.057 A 
ATOM     76  C   UNL A   1      40.815  27.148  26.556  1.00  0.00     0.134 A 
ATOM     77  C   UNL A   1      39.562  26.418  28.444  1.00  0.00     0.134 A 
ATOM     78  F   UNL A   1      41.536  28.058  25.886  1.00  0.00    -0.206 F 
ATOM     79  C   UNL A   1      40.700  25.870  25.987  1.00  0.00     0.040 A 
ATOM     80  C   UNL A   1      39.434  25.142  27.885  1.00  0.00     0.040 A 
ATOM     81  F   UNL A   1      39.053  26.575  29.675  1.00  0.00    -0.206 F 
ATOM     82  C   UNL A   1      40.015  24.860  26.656  1.00  0.00     0.006 A 
ENDBRANCH  54  75
BRANCH  66  83
ATOM     83  C   UNL A   1      43.446  32.616  29.638  1.00  0.00     0.057 A 
ATOM     84  C   UNL A   1      42.418  33.520  29.325  1.00  0.00     0.134 A 
ATOM     85  C   UNL A   1      44.678  32.831  29.012  1.00  0.00     0.134 A 
ATOM     86  F   UNL A   1      41.235  33.467  29.944  1.00  0.00    -0.206 F 
ATOM     87  C   UNL A   1      42.597  34.564  28.410  1.00  0.00     0.040 A 
ATOM     88  C   UNL A   1      44.880  33.888  28.118  1.00  0.00     0.040 A 
ATOM     89  F   UNL A   1      45.728  32.049  29.303  1.00  0.00    -0.206 F 
ATOM     90  C   UNL A   1      43.836  34.754  27.807  1.00  0.00     0.006 A 
ENDBRANCH  66  83
ENDBRANCH  40  41
ENDBRANCH  32  35
ENDBRANCH  30  31
ENDBRANCH  29  30
ENDBRANCH  28  29
ENDBRANCH  27  28
ENDBRANCH   1  27
TORSDOF 18
ENDMDL
MODEL 3
REMARK VINA RESULT:     -10.3      3.313      8.328
REMARK SMILES O=C(CC[N@H+]1CCC[C@H](c2nccn2Cc2cscn2)C1)NCCCCCCNC(=O)c1ccc(-c2c3nc(c(-c4c(F)cccc4F)c4ccc([nH]4)c(-c4c(F)cccc4F)c4nc(c(-c5c(F)cccc5F)c5ccc2[nH]5)C=C4)C=C3)cc1
REMARK SMILES IDX 24 1 23 2 22 3 1 4 2 5 3 7 4 8 5 9 6 10 21 11 7 13 9 14 8 15
REMARK SMILES IDX 10 16 11 17 14 18 12 19 13 20 15 21 16 22 17 23 20 24 18 25
REMARK SMILES IDX 19 26 25 27 26 28 27 29 28 30 29 31 30 32 31 34 32 35 33 36
REMARK SMILES IDX 85 37 34 38 84 39 35 40 36 41 37 42 78 43 38 44 83 45 77 46
REMARK SMILES IDX 79 47 39 48 82 49 76 50 75 51 40 53 66 54 49 55 65 56 50 57
REMARK SMILES IDX 53 58 64 59 80 60 51 61 52 62 63 64 81 65 54 66 41 67 42 68
REMARK SMILES IDX 47 69 43 70 44 71 46 72 48 73 45 74 67 75 68 76 73 77 69 78
REMARK SMILES IDX 70 79 72 80 74 81 71 82 55 83 56 84 61 85 57 86 58 87 60 88
REMARK SMILES IDX 62 89 59 90
REMARK H PARENT 22 6 5 12 29 33 79 52 53 63
REMARK Flexibility Score: inf
ROOT
ATOM      1  C   UNL A   1      31.780  31.097  26.535  1.00  0.00     0.021 C 
ENDROOT
BRANCH   1   2
ATOM      2  C   UNL A   1      30.694  31.358  25.489  1.00  0.00     0.116 C 
BRANCH   2   3
ATOM      3  N   UNL A   1      30.704  30.394  24.405  1.00  0.00    -0.356 N 
ATOM      4  O   UNL A   1      28.736  31.048  23.462  1.00  0.00    -0.275 OA
ATOM      5  C   UNL A   1      29.709  30.293  23.469  1.00  0.00     0.225 C 
ATOM      6  H   UNL A   1      31.471  29.779  24.336  1.00  0.00     0.163 HD
BRANCH   5   7
ATOM      7  C   UNL A   1      29.772  29.113  22.507  1.00  0.00     0.161 C 
BRANCH   7   8
ATOM      8  C   UNL A   1      29.744  27.669  23.021  1.00  0.00     0.272 C 
BRANCH   8   9
ATOM      9  N   UNL A   1      31.019  26.979  23.268  1.00  0.00    -0.334 N 
ATOM     10  C   UNL A   1      32.203  27.670  22.733  1.00  0.00     0.262 C 
ATOM     11  C   UNL A   1      31.232  26.774  24.720  1.00  0.00     0.273 C 
ATOM     12  H   UNL A   1      30.929  26.092  22.773  1.00  0.00     0.348 HD
ATOM     13  C   UNL A   1      33.402  26.734  22.884  1.00  0.00     0.062 C 
ATOM     14  C   UNL A   1      32.370  25.786  24.997  1.00  0.00     0.111 C 
ATOM     15  C   UNL A   1      33.655  26.349  24.335  1.00  0.00     0.023 C 
BRANCH  14  16
ATOM     16  C   UNL A   1      32.181  24.310  24.650  1.00  0.00     0.117 A 
ATOM     17  N   UNL A   1      31.327  23.975  23.687  1.00  0.00    -0.241 NA
ATOM     18  N   UNL A   1      32.848  23.167  25.081  1.00  0.00    -0.328 N 
ATOM     19  C   UNL A   1      31.485  22.651  23.434  1.00  0.00     0.131 A 
ATOM     20  C   UNL A   1      32.451  22.135  24.248  1.00  0.00     0.108 A 
BRANCH  18  21
ATOM     21  C   UNL A   1      33.912  22.965  26.056  1.00  0.00     0.180 C 
BRANCH  21  22
ATOM     22  C   UNL A   1      35.236  22.603  25.441  1.00  0.00     0.071 A 
ATOM     23  C   UNL A   1      36.088  21.577  25.815  1.00  0.00     0.092 A 
ATOM     24  N   UNL A   1      35.646  23.277  24.297  1.00  0.00    -0.248 NA
ATOM     25  S   UNL A   1      37.458  21.517  24.785  1.00  0.00    -0.130 S 
ATOM     26  C   UNL A   1      36.799  22.806  23.875  1.00  0.00     0.175 A 
ENDBRANCH  21  22
ENDBRANCH  18  21
ENDBRANCH  14  16
ENDBRANCH   8   9
ENDBRANCH   7   8
ENDBRANCH   5   7
ENDBRANCH   2   3
ENDBRANCH   1   2
BRANCH   1  27
ATOM     27  C   UNL A   1      32.189  29.632  26.713  1.00  0.00     0.002 C 
BRANCH  27  28
ATOM     28  C   UNL A   1      33.681  29.299  26.536  1.00  0.00     0.002 C 
BRANCH  28  29
ATOM     29  C   UNL A   1      34.623  29.663  27.687  1.00  0.00     0.021 C 
BRANCH  29  30
ATOM     30  C   UNL A   1      35.242  31.047  27.577  1.00  0.00     0.116 C 
BRANCH  30  31
ATOM     31  N   UNL A   1      34.948  31.929  28.718  1.00  0.00    -0.352 N 
ATOM     32  C   UNL A   1      35.356  31.778  30.041  1.00  0.00     0.251 C 
ATOM     33  H   UNL A   1      34.398  32.722  28.523  1.00  0.00     0.163 HD
ATOM     34  O   UNL A   1      34.770  32.307  30.969  1.00  0.00    -0.269 OA
BRANCH  32  35
ATOM     35  C   UNL A   1      36.566  30.973  30.283  1.00  0.00     0.039 A 
ATOM     36  C   UNL A   1      36.553  29.621  30.638  1.00  0.00     0.014 A 
ATOM     37  C   UNL A   1      37.758  31.633  30.036  1.00  0.00     0.014 A 
ATOM     38  C   UNL A   1      37.768  28.938  30.669  1.00  0.00     0.010 A 
ATOM     39  C   UNL A   1      38.859  30.896  29.746  1.00  0.00     0.010 A 
ATOM     40  C   UNL A   1      38.919  29.594  30.208  1.00  0.00    -0.014 A 
BRANCH  40  41
ATOM     41  C   UNL A   1      40.229  28.974  30.134  1.00  0.00     0.031 A 
ATOM     42  C   UNL A   1      40.909  28.802  31.439  1.00  0.00     0.074 A 
ATOM     43  C   UNL A   1      40.654  28.359  29.006  1.00  0.00     0.049 A 
ATOM     44  N   UNL A   1      41.964  29.415  31.857  1.00  0.00    -0.248 NA
ATOM     45  C   UNL A   1      40.260  27.966  32.461  1.00  0.00     0.031 C 
ATOM     46  C   UNL A   1      39.944  28.154  27.733  1.00  0.00     0.029 A 
ATOM     47  N   UNL A   1      41.804  27.665  28.808  1.00  0.00    -0.354 N 
ATOM     48  C   UNL A   1      42.248  28.874  33.106  1.00  0.00     0.074 A 
ATOM     49  C   UNL A   1      41.068  28.154  33.508  1.00  0.00     0.031 C 
ATOM     50  C   UNL A   1      40.563  27.195  27.010  1.00  0.00     0.029 A 
ATOM     51  C   UNL A   1      41.803  26.855  27.676  1.00  0.00     0.049 A 
ATOM     52  H   UNL A   1      42.576  27.729  29.416  1.00  0.00     0.167 HD
ATOM     53  C   UNL A   1      43.524  28.850  33.581  1.00  0.00     0.037 A 
ATOM     54  C   UNL A   1      42.753  25.941  27.358  1.00  0.00     0.037 A 
ATOM     55  C   UNL A   1      44.381  29.725  32.816  1.00  0.00     0.049 A 
ATOM     56  C   UNL A   1      43.977  26.315  28.120  1.00  0.00     0.074 A 
ATOM     57  C   UNL A   1      44.356  31.072  32.508  1.00  0.00     0.029 A 
ATOM     58  N   UNL A   1      45.213  29.152  31.881  1.00  0.00    -0.354 N 
ATOM     59  N   UNL A   1      44.649  27.414  27.902  1.00  0.00    -0.248 NA
ATOM     60  C   UNL A   1      44.129  25.745  29.453  1.00  0.00     0.031 C 
ATOM     61  C   UNL A   1      44.722  31.138  31.130  1.00  0.00     0.029 A 
ATOM     62  C   UNL A   1      45.038  29.845  30.709  1.00  0.00     0.049 A 
ATOM     63  H   UNL A   1      45.819  28.389  32.027  1.00  0.00     0.167 HD
ATOM     64  C   UNL A   1      44.958  27.902  29.165  1.00  0.00     0.074 A 
ATOM     65  C   UNL A   1      44.657  26.800  30.081  1.00  0.00     0.031 C 
ATOM     66  C   UNL A   1      45.126  29.239  29.400  1.00  0.00     0.037 A 
BRANCH  53  67
ATOM     67  C   UNL A   1      44.083  27.768  34.469  1.00  0.00     0.057 A 
ATOM     68  C   UNL A   1      44.777  28.136  35.636  1.00  0.00     0.134 A 
ATOM     69  C   UNL A   1      44.227  26.419  34.086  1.00  0.00     0.134 A 
ATOM     70  F   UNL A   1      44.725  29.394  36.099  1.00  0.00    -0.206 F 
ATOM     71  C   UNL A   1      45.618  27.250  36.319  1.00  0.00     0.040 A 
ATOM     72  C   UNL A   1      45.022  25.513  34.791  1.00  0.00     0.040 A 
ATOM     73  F   UNL A   1      43.699  25.929  32.959  1.00  0.00    -0.206 F 
ATOM     74  C   UNL A   1      45.750  25.936  35.891  1.00  0.00     0.006 A 
ENDBRANCH  53  67
BRANCH  54  75
ATOM     75  C   UNL A   1      42.547  24.606  26.743  1.00  0.00     0.057 A 
ATOM     76  C   UNL A   1      43.136  24.266  25.518  1.00  0.00     0.134 A 
ATOM     77  C   UNL A   1      41.982  23.540  27.469  1.00  0.00     0.134 A 
ATOM     78  F   UNL A   1      43.743  25.201  24.773  1.00  0.00    -0.206 F 
ATOM     79  C   UNL A   1      43.172  22.943  25.049  1.00  0.00     0.040 A 
ATOM     80  C   UNL A   1      42.005  22.219  27.010  1.00  0.00     0.040 A 
ATOM     81  F   UNL A   1      41.460  23.730  28.689  1.00  0.00    -0.206 F 
ATOM     82  C   UNL A   1      42.613  21.914  25.800  1.00  0.00     0.006 A 
ENDBRANCH  54  75
BRANCH  66  83
ATOM     83  C   UNL A   1      45.159  30.182  28.224  1.00  0.00     0.057 A 
ATOM     84  C   UNL A   1      44.031  30.841  27.708  1.00  0.00     0.134 A 
ATOM     85  C   UNL A   1      46.400  30.585  27.720  1.00  0.00     0.134 A 
ATOM     86  F   UNL A   1      42.808  30.606  28.193  1.00  0.00    -0.206 F 
ATOM     87  C   UNL A   1      44.130  31.824  26.718  1.00  0.00     0.040 A 
ATOM     88  C   UNL A   1      46.517  31.588  26.752  1.00  0.00     0.040 A 
ATOM     89  F   UNL A   1      47.530  30.049  28.204  1.00  0.00    -0.206 F 
ATOM     90  C   UNL A   1      45.379  32.206  26.241  1.00  0.00     0.006 A 
ENDBRANCH  66  83
ENDBRANCH  40  41
ENDBRANCH  32  35
ENDBRANCH  30  31
ENDBRANCH  29  30
ENDBRANCH  28  29
ENDBRANCH  27  28
ENDBRANCH   1  27
TORSDOF 18
ENDMDL
