MODEL 1
REMARK VINA RESULT:     -12.3      0.000      0.000
REMARK SMILES O=CN[C@@H](CCS[C@@H]1CCO[C@]2(CCOC2)C1)C(=O)NCCCCCCNC(=O)c1ccc(-c2c3nc(c(-c4c(F)cccc4F)c4ccc([nH]4)c(-c4c(F)cccc4F)c4nc(c(-c5c(F)cccc5F)c5ccc2[nH]5)C=C4)C=C3)cc1
REMARK SMILES IDX 22 1 21 2 20 3 18 4 19 5 4 7 3 8 1 9 2 10 5 12 6 13 7 14
REMARK SMILES IDX 8 15 9 16 17 17 10 18 12 19 11 20 13 21 16 22 14 23 15 24
REMARK SMILES IDX 23 25 24 26 25 27 26 28 27 29 28 30 29 32 30 33 31 34 83 35
REMARK SMILES IDX 32 36 82 37 33 38 34 39 35 40 76 41 36 42 81 43 75 44 77 45
REMARK SMILES IDX 37 46 80 47 74 48 73 49 38 51 64 52 47 53 63 54 48 55 51 56
REMARK SMILES IDX 62 57 78 58 49 59 50 60 61 62 79 63 52 64 39 65 40 66 45 67
REMARK SMILES IDX 41 68 42 69 44 70 46 71 43 72 65 73 66 74 71 75 67 76 68 77
REMARK SMILES IDX 70 78 72 79 69 80 53 81 54 82 59 83 55 84 56 85 58 86 60 87
REMARK SMILES IDX 57 88
REMARK H PARENT 20 6 3 11 27 31 77 50 51 61
REMARK Flexibility Score: inf
ROOT
ATOM      1  C   UNL A   1      31.460  28.272  27.350  1.00  0.00     0.021 C 
ENDROOT
BRANCH   1   2
ATOM      2  C   UNL A   1      31.600  27.129  26.262  1.00  0.00     0.116 C 
BRANCH   2   3
ATOM      3  N   UNL A   1      31.161  25.733  26.666  1.00  0.00    -0.354 N 
ATOM      4  C   UNL A   1      31.448  24.367  26.501  1.00  0.00     0.242 C 
ATOM      5  O   UNL A   1      31.094  23.483  27.279  1.00  0.00    -0.273 OA
ATOM      6  H   UNL A   1      30.388  25.816  27.269  1.00  0.00     0.163 HD
BRANCH   4   7
ATOM      7  C   UNL A   1      32.317  23.786  25.470  1.00  0.00     0.171 C 
BRANCH   7   8
ATOM      8  N   UNL A   1      32.964  22.780  26.309  1.00  0.00    -0.347 N 
ATOM      9  O   UNL A   1      35.202  22.307  26.506  1.00  0.00    -0.279 OA
ATOM     10  C   UNL A   1      34.161  22.236  25.865  1.00  0.00     0.337 C 
ATOM     11  H   UNL A   1      32.563  22.496  27.162  1.00  0.00     0.164 HD
ENDBRANCH   7   8
BRANCH   7  12
ATOM     12  C   UNL A   1      31.264  23.857  24.405  1.00  0.00     0.046 C 
BRANCH  12  13
ATOM     13  C   UNL A   1      31.743  25.003  23.210  1.00  0.00     0.072 C 
BRANCH  13  14
ATOM     14  S   UNL A   1      31.051  26.949  22.457  1.00  0.00    -0.158 SA
BRANCH  14  15
ATOM     15  C   UNL A   1      29.563  28.239  23.415  1.00  0.00     0.052 C 
ATOM     16  C   UNL A   1      28.150  27.782  23.865  1.00  0.00     0.043 C 
ATOM     17  C   UNL A   1      29.456  29.829  23.235  1.00  0.00     0.052 C 
ATOM     18  C   UNL A   1      27.017  28.464  23.054  1.00  0.00     0.162 C 
ATOM     19  C   UNL A   1      28.147  30.522  22.672  1.00  0.00     0.095 C 
ATOM     20  O   UNL A   1      27.020  29.875  23.272  1.00  0.00    -0.372 OA
ATOM     21  C   UNL A   1      27.886  30.799  21.171  1.00  0.00     0.066 C 
ATOM     22  C   UNL A   1      28.132  32.005  23.110  1.00  0.00     0.195 C 
ATOM     23  C   UNL A   1      28.450  32.181  20.851  1.00  0.00     0.163 C 
ATOM     24  O   UNL A   1      28.843  32.744  22.102  1.00  0.00    -0.378 OA
ENDBRANCH  14  15
ENDBRANCH  13  14
ENDBRANCH  12  13
ENDBRANCH   7  12
ENDBRANCH   4   7
ENDBRANCH   2   3
ENDBRANCH   1   2
BRANCH   1  25
ATOM     25  C   UNL A   1      32.136  29.671  27.232  1.00  0.00     0.002 C 
BRANCH  25  26
ATOM     26  C   UNL A   1      31.422  30.729  26.352  1.00  0.00     0.002 C 
BRANCH  26  27
ATOM     27  C   UNL A   1      31.345  32.176  26.854  1.00  0.00     0.021 C 
BRANCH  27  28
ATOM     28  C   UNL A   1      32.650  32.971  26.820  1.00  0.00     0.116 C 
BRANCH  28  29
ATOM     29  N   UNL A   1      32.549  34.206  27.589  1.00  0.00    -0.352 N 
ATOM     30  C   UNL A   1      33.198  34.545  28.747  1.00  0.00     0.251 C 
ATOM     31  H   UNL A   1      31.934  34.885  27.229  1.00  0.00     0.163 HD
ATOM     32  O   UNL A   1      32.791  35.501  29.431  1.00  0.00    -0.269 OA
BRANCH  30  33
ATOM     33  C   UNL A   1      34.383  33.791  29.201  1.00  0.00     0.039 A 
ATOM     34  C   UNL A   1      34.215  32.640  29.976  1.00  0.00     0.014 A 
ATOM     35  C   UNL A   1      35.671  34.256  28.911  1.00  0.00     0.014 A 
ATOM     36  C   UNL A   1      35.336  31.945  30.442  1.00  0.00     0.010 A 
ATOM     37  C   UNL A   1      36.785  33.525  29.320  1.00  0.00     0.010 A 
ATOM     38  C   UNL A   1      36.631  32.379  30.114  1.00  0.00    -0.014 A 
BRANCH  38  39
ATOM     39  C   UNL A   1      37.827  31.681  30.657  1.00  0.00     0.031 A 
ATOM     40  C   UNL A   1      38.306  31.987  32.053  1.00  0.00     0.074 A 
ATOM     41  C   UNL A   1      38.489  30.782  29.902  1.00  0.00     0.049 A 
ATOM     42  N   UNL A   1      39.325  31.492  32.709  1.00  0.00    -0.248 NA
ATOM     43  C   UNL A   1      37.548  33.000  32.805  1.00  0.00     0.031 C 
ATOM     44  C   UNL A   1      38.147  30.417  28.527  1.00  0.00     0.029 A 
ATOM     45  N   UNL A   1      39.587  30.009  30.187  1.00  0.00    -0.354 N 
ATOM     46  C   UNL A   1      39.330  32.132  33.941  1.00  0.00     0.074 A 
ATOM     47  C   UNL A   1      38.255  33.099  33.920  1.00  0.00     0.031 C 
ATOM     48  C   UNL A   1      38.998  29.470  28.098  1.00  0.00     0.029 A 
ATOM     49  C   UNL A   1      39.966  29.185  29.154  1.00  0.00     0.049 A 
ATOM     50  H   UNL A   1      40.060  30.042  31.050  1.00  0.00     0.167 HD
ATOM     51  C   UNL A   1      40.136  31.916  35.009  1.00  0.00     0.037 A 
ATOM     52  C   UNL A   1      40.979  28.301  29.069  1.00  0.00     0.037 A 
ATOM     53  C   UNL A   1      41.198  30.945  35.035  1.00  0.00     0.049 A 
ATOM     54  C   UNL A   1      41.880  28.102  30.259  1.00  0.00     0.074 A 
ATOM     55  C   UNL A   1      42.053  30.628  36.075  1.00  0.00     0.029 A 
ATOM     56  N   UNL A   1      41.550  30.134  33.967  1.00  0.00    -0.354 N 
ATOM     57  N   UNL A   1      41.837  28.674  31.438  1.00  0.00    -0.248 NA
ATOM     58  C   UNL A   1      42.966  27.122  30.109  1.00  0.00     0.031 C 
ATOM     59  C   UNL A   1      42.954  29.660  35.622  1.00  0.00     0.029 A 
ATOM     60  C   UNL A   1      42.620  29.328  34.319  1.00  0.00     0.049 A 
ATOM     61  H   UNL A   1      41.105  30.129  33.089  1.00  0.00     0.167 HD
ATOM     62  C   UNL A   1      42.858  28.095  32.181  1.00  0.00     0.074 A 
ATOM     63  C   UNL A   1      43.496  27.119  31.324  1.00  0.00     0.031 C 
ATOM     64  C   UNL A   1      43.232  28.345  33.461  1.00  0.00     0.037 A 
BRANCH  51  65
ATOM     65  C   UNL A   1      39.896  32.745  36.240  1.00  0.00     0.057 A 
ATOM     66  C   UNL A   1      40.659  33.886  36.522  1.00  0.00     0.134 A 
ATOM     67  C   UNL A   1      38.868  32.421  37.133  1.00  0.00     0.134 A 
ATOM     68  F   UNL A   1      41.666  34.248  35.713  1.00  0.00    -0.206 F 
ATOM     69  C   UNL A   1      40.428  34.657  37.663  1.00  0.00     0.040 A 
ATOM     70  C   UNL A   1      38.607  33.202  38.261  1.00  0.00     0.040 A 
ATOM     71  F   UNL A   1      38.091  31.347  36.922  1.00  0.00    -0.206 F 
ATOM     72  C   UNL A   1      39.393  34.321  38.532  1.00  0.00     0.006 A 
ENDBRANCH  51  65
BRANCH  52  73
ATOM     73  C   UNL A   1      41.189  27.515  27.825  1.00  0.00     0.057 A 
ATOM     74  C   UNL A   1      40.615  26.247  27.664  1.00  0.00     0.134 A 
ATOM     75  C   UNL A   1      41.993  27.992  26.783  1.00  0.00     0.134 A 
ATOM     76  F   UNL A   1      39.849  25.725  28.632  1.00  0.00    -0.206 F 
ATOM     77  C   UNL A   1      40.860  25.471  26.529  1.00  0.00     0.040 A 
ATOM     78  C   UNL A   1      42.222  27.239  25.630  1.00  0.00     0.040 A 
ATOM     79  F   UNL A   1      42.566  29.202  26.869  1.00  0.00    -0.206 F 
ATOM     80  C   UNL A   1      41.663  25.969  25.506  1.00  0.00     0.006 A 
ENDBRANCH  52  73
BRANCH  64  81
ATOM     81  C   UNL A   1      44.341  27.509  34.032  1.00  0.00     0.057 A 
ATOM     82  C   UNL A   1      45.682  27.910  33.981  1.00  0.00     0.134 A 
ATOM     83  C   UNL A   1      44.053  26.297  34.676  1.00  0.00     0.134 A 
ATOM     84  F   UNL A   1      46.027  29.052  33.370  1.00  0.00    -0.206 F 
ATOM     85  C   UNL A   1      46.699  27.121  34.521  1.00  0.00     0.040 A 
ATOM     86  C   UNL A   1      45.058  25.517  35.248  1.00  0.00     0.040 A 
ATOM     87  F   UNL A   1      42.788  25.859  34.771  1.00  0.00    -0.206 F 
ATOM     88  C   UNL A   1      46.387  25.925  35.164  1.00  0.00     0.006 A 
ENDBRANCH  64  81
ENDBRANCH  38  39
ENDBRANCH  30  33
ENDBRANCH  28  29
ENDBRANCH  27  28
ENDBRANCH  26  27
ENDBRANCH  25  26
ENDBRANCH   1  25
TORSDOF 18
ENDMDL
MODEL 2
REMARK VINA RESULT:     -11.9      1.451      6.025
REMARK SMILES O=CN[C@@H](CCS[C@@H]1CCO[C@]2(CCOC2)C1)C(=O)NCCCCCCNC(=O)c1ccc(-c2c3nc(c(-c4c(F)cccc4F)c4ccc([nH]4)c(-c4c(F)cccc4F)c4nc(c(-c5c(F)cccc5F)c5ccc2[nH]5)C=C4)C=C3)cc1
REMARK SMILES IDX 22 1 21 2 20 3 18 4 19 5 4 7 3 8 1 9 2 10 5 12 6 13 7 14
REMARK SMILES IDX 8 15 9 16 17 17 10 18 12 19 11 20 13 21 16 22 14 23 15 24
REMARK SMILES IDX 23 25 24 26 25 27 26 28 27 29 28 30 29 32 30 33 31 34 83 35
REMARK SMILES IDX 32 36 82 37 33 38 34 39 35 40 76 41 36 42 81 43 75 44 77 45
REMARK SMILES IDX 37 46 80 47 74 48 73 49 38 51 64 52 47 53 63 54 48 55 51 56
REMARK SMILES IDX 62 57 78 58 49 59 50 60 61 62 79 63 52 64 39 65 40 66 45 67
REMARK SMILES IDX 41 68 42 69 44 70 46 71 43 72 65 73 66 74 71 75 67 76 68 77
REMARK SMILES IDX 70 78 72 79 69 80 53 81 54 82 59 83 55 84 56 85 58 86 60 87
REMARK SMILES IDX 57 88
REMARK H PARENT 20 6 3 11 27 31 77 50 51 61
REMARK Flexibility Score: inf
ROOT
ATOM      1  C   UNL A   1      31.466  28.130  27.432  1.00  0.00     0.021 C 
ENDROOT
BRANCH   1   2
ATOM      2  C   UNL A   1      31.332  27.020  26.309  1.00  0.00     0.116 C 
BRANCH   2   3
ATOM      3  N   UNL A   1      31.259  25.576  26.769  1.00  0.00    -0.354 N 
ATOM      4  C   UNL A   1      31.806  24.297  26.568  1.00  0.00     0.242 C 
ATOM      5  O   UNL A   1      31.756  23.382  27.387  1.00  0.00    -0.273 OA
ATOM      6  H   UNL A   1      30.572  25.511  27.471  1.00  0.00     0.163 HD
BRANCH   4   7
ATOM      7  C   UNL A   1      32.636  23.883  25.428  1.00  0.00     0.171 C 
BRANCH   7   8
ATOM      8  N   UNL A   1      33.457  22.903  26.135  1.00  0.00    -0.347 N 
ATOM      9  O   UNL A   1      34.684  21.170  25.262  1.00  0.00    -0.279 OA
ATOM     10  C   UNL A   1      33.597  21.644  25.569  1.00  0.00     0.337 C 
ATOM     11  H   UNL A   1      33.896  23.128  26.987  1.00  0.00     0.164 HD
ENDBRANCH   7   8
BRANCH   7  12
ATOM     12  C   UNL A   1      31.490  23.906  24.462  1.00  0.00     0.046 C 
BRANCH  12  13
ATOM     13  C   UNL A   1      31.853  24.999  23.180  1.00  0.00     0.072 C 
BRANCH  13  14
ATOM     14  S   UNL A   1      31.102  26.924  22.426  1.00  0.00    -0.158 SA
BRANCH  14  15
ATOM     15  C   UNL A   1      29.614  28.193  23.411  1.00  0.00     0.052 C 
ATOM     16  C   UNL A   1      28.209  27.721  23.870  1.00  0.00     0.043 C 
ATOM     17  C   UNL A   1      29.492  29.784  23.246  1.00  0.00     0.052 C 
ATOM     18  C   UNL A   1      27.062  28.402  23.077  1.00  0.00     0.162 C 
ATOM     19  C   UNL A   1      28.173  30.471  22.702  1.00  0.00     0.095 C 
ATOM     20  O   UNL A   1      27.057  29.811  23.307  1.00  0.00    -0.372 OA
ATOM     21  C   UNL A   1      27.894  30.760  21.206  1.00  0.00     0.066 C 
ATOM     22  C   UNL A   1      28.151  31.950  23.153  1.00  0.00     0.195 C 
ATOM     23  C   UNL A   1      28.445  32.149  20.893  1.00  0.00     0.163 C 
ATOM     24  O   UNL A   1      28.846  32.705  22.145  1.00  0.00    -0.378 OA
ENDBRANCH  14  15
ENDBRANCH  13  14
ENDBRANCH  12  13
ENDBRANCH   7  12
ENDBRANCH   4   7
ENDBRANCH   2   3
ENDBRANCH   1   2
BRANCH   1  25
ATOM     25  C   UNL A   1      32.181  29.498  27.221  1.00  0.00     0.002 C 
BRANCH  25  26
ATOM     26  C   UNL A   1      31.429  30.566  26.385  1.00  0.00     0.002 C 
BRANCH  26  27
ATOM     27  C   UNL A   1      31.324  31.994  26.935  1.00  0.00     0.021 C 
BRANCH  27  28
ATOM     28  C   UNL A   1      32.601  32.832  26.877  1.00  0.00     0.116 C 
BRANCH  28  29
ATOM     29  N   UNL A   1      32.453  34.090  27.599  1.00  0.00    -0.352 N 
ATOM     30  C   UNL A   1      33.142  34.529  28.699  1.00  0.00     0.251 C 
ATOM     31  H   UNL A   1      31.768  34.705  27.251  1.00  0.00     0.163 HD
ATOM     32  O   UNL A   1      32.706  35.482  29.368  1.00  0.00    -0.269 OA
BRANCH  30  33
ATOM     33  C   UNL A   1      34.407  33.885  29.107  1.00  0.00     0.039 A 
ATOM     34  C   UNL A   1      34.398  32.928  30.126  1.00  0.00     0.014 A 
ATOM     35  C   UNL A   1      35.618  34.271  28.523  1.00  0.00     0.014 A 
ATOM     36  C   UNL A   1      35.598  32.346  30.544  1.00  0.00     0.010 A 
ATOM     37  C   UNL A   1      36.804  33.641  28.894  1.00  0.00     0.010 A 
ATOM     38  C   UNL A   1      36.812  32.693  29.928  1.00  0.00    -0.014 A 
BRANCH  38  39
ATOM     39  C   UNL A   1      38.100  32.123  30.409  1.00  0.00     0.031 A 
ATOM     40  C   UNL A   1      38.606  30.824  29.836  1.00  0.00     0.074 A 
ATOM     41  C   UNL A   1      38.811  32.762  31.358  1.00  0.00     0.049 A 
ATOM     42  N   UNL A   1      39.699  30.161  30.121  1.00  0.00    -0.248 NA
ATOM     43  C   UNL A   1      37.760  30.173  28.823  1.00  0.00     0.031 C 
ATOM     44  C   UNL A   1      38.419  34.010  32.013  1.00  0.00     0.029 A 
ATOM     45  N   UNL A   1      40.017  32.448  31.935  1.00  0.00    -0.354 N 
ATOM     46  C   UNL A   1      39.668  29.022  29.327  1.00  0.00     0.074 A 
ATOM     47  C   UNL A   1      38.419  29.047  28.599  1.00  0.00     0.031 C 
ATOM     48  C   UNL A   1      39.379  34.372  32.881  1.00  0.00     0.029 A 
ATOM     49  C   UNL A   1      40.438  33.366  32.868  1.00  0.00     0.049 A 
ATOM     50  H   UNL A   1      40.532  31.641  31.704  1.00  0.00     0.167 HD
ATOM     51  C   UNL A   1      40.607  28.054  29.190  1.00  0.00     0.037 A 
ATOM     52  C   UNL A   1      41.551  33.392  33.626  1.00  0.00     0.037 A 
ATOM     53  C   UNL A   1      41.856  28.036  29.905  1.00  0.00     0.049 A 
ATOM     54  C   UNL A   1      42.565  32.289  33.478  1.00  0.00     0.074 A 
ATOM     55  C   UNL A   1      42.887  27.118  29.818  1.00  0.00     0.029 A 
ATOM     56  N   UNL A   1      42.242  28.983  30.842  1.00  0.00    -0.354 N 
ATOM     57  N   UNL A   1      42.549  31.247  32.682  1.00  0.00    -0.248 NA
ATOM     58  C   UNL A   1      43.762  32.373  34.329  1.00  0.00     0.031 C 
ATOM     59  C   UNL A   1      43.876  27.481  30.737  1.00  0.00     0.029 A 
ATOM     60  C   UNL A   1      43.489  28.661  31.352  1.00  0.00     0.049 A 
ATOM     61  H   UNL A   1      41.709  29.768  31.105  1.00  0.00     0.167 HD
ATOM     62  C   UNL A   1      43.745  30.578  32.904  1.00  0.00     0.074 A 
ATOM     63  C   UNL A   1      44.469  31.337  33.901  1.00  0.00     0.031 C 
ATOM     64  C   UNL A   1      44.206  29.439  32.330  1.00  0.00     0.037 A 
BRANCH  51  65
ATOM     65  C   UNL A   1      40.319  26.937  28.227  1.00  0.00     0.057 A 
ATOM     66  C   UNL A   1      40.865  26.917  26.936  1.00  0.00     0.134 A 
ATOM     67  C   UNL A   1      39.518  25.853  28.604  1.00  0.00     0.134 A 
ATOM     68  F   UNL A   1      41.634  27.928  26.506  1.00  0.00    -0.206 F 
ATOM     69  C   UNL A   1      40.600  25.873  26.046  1.00  0.00     0.040 A 
ATOM     70  C   UNL A   1      39.271  24.789  27.734  1.00  0.00     0.040 A 
ATOM     71  F   UNL A   1      38.968  25.802  29.827  1.00  0.00    -0.206 F 
ATOM     72  C   UNL A   1      39.808  24.801  26.448  1.00  0.00     0.006 A 
ENDBRANCH  51  65
BRANCH  52  73
ATOM     73  C   UNL A   1      41.787  34.510  34.578  1.00  0.00     0.057 A 
ATOM     74  C   UNL A   1      41.386  34.417  35.917  1.00  0.00     0.134 A 
ATOM     75  C   UNL A   1      42.385  35.707  34.169  1.00  0.00     0.134 A 
ATOM     76  F   UNL A   1      40.791  33.304  36.369  1.00  0.00    -0.206 F 
ATOM     77  C   UNL A   1      41.542  35.484  36.804  1.00  0.00     0.040 A 
ATOM     78  C   UNL A   1      42.574  36.771  35.052  1.00  0.00     0.040 A 
ATOM     79  F   UNL A   1      42.801  35.859  32.902  1.00  0.00    -0.206 F 
ATOM     80  C   UNL A   1      42.142  36.666  36.372  1.00  0.00     0.006 A 
ENDBRANCH  52  73
BRANCH  64  81
ATOM     81  C   UNL A   1      45.583  28.978  32.719  1.00  0.00     0.057 A 
ATOM     82  C   UNL A   1      46.732  29.400  32.039  1.00  0.00     0.134 A 
ATOM     83  C   UNL A   1      45.758  28.124  33.817  1.00  0.00     0.134 A 
ATOM     84  F   UNL A   1      46.634  30.207  30.973  1.00  0.00    -0.206 F 
ATOM     85  C   UNL A   1      48.003  28.964  32.417  1.00  0.00     0.040 A 
ATOM     86  C   UNL A   1      47.027  27.709  34.224  1.00  0.00     0.040 A 
ATOM     87  F   UNL A   1      44.701  27.691  34.520  1.00  0.00    -0.206 F 
ATOM     88  C   UNL A   1      48.153  28.122  33.517  1.00  0.00     0.006 A 
ENDBRANCH  64  81
ENDBRANCH  38  39
ENDBRANCH  30  33
ENDBRANCH  28  29
ENDBRANCH  27  28
ENDBRANCH  26  27
ENDBRANCH  25  26
ENDBRANCH   1  25
TORSDOF 18
ENDMDL
MODEL 3
REMARK VINA RESULT:     -11.7      2.504      5.328
REMARK SMILES O=CN[C@@H](CCS[C@@H]1CCO[C@]2(CCOC2)C1)C(=O)NCCCCCCNC(=O)c1ccc(-c2c3nc(c(-c4c(F)cccc4F)c4ccc([nH]4)c(-c4c(F)cccc4F)c4nc(c(-c5c(F)cccc5F)c5ccc2[nH]5)C=C4)C=C3)cc1
REMARK SMILES IDX 22 1 21 2 20 3 18 4 19 5 4 7 3 8 1 9 2 10 5 12 6 13 7 14
REMARK SMILES IDX 8 15 9 16 17 17 10 18 12 19 11 20 13 21 16 22 14 23 15 24
REMARK SMILES IDX 23 25 24 26 25 27 26 28 27 29 28 30 29 32 30 33 31 34 83 35
REMARK SMILES IDX 32 36 82 37 33 38 34 39 35 40 76 41 36 42 81 43 75 44 77 45
REMARK SMILES IDX 37 46 80 47 74 48 73 49 38 51 64 52 47 53 63 54 48 55 51 56
REMARK SMILES IDX 62 57 78 58 49 59 50 60 61 62 79 63 52 64 39 65 40 66 45 67
REMARK SMILES IDX 41 68 42 69 44 70 46 71 43 72 65 73 66 74 71 75 67 76 68 77
REMARK SMILES IDX 70 78 72 79 69 80 53 81 54 82 59 83 55 84 56 85 58 86 60 87
REMARK SMILES IDX 57 88
REMARK H PARENT 20 6 3 11 27 31 77 50 51 61
REMARK Flexibility Score: inf
ROOT
ATOM      1  C   UNL A   1      34.658  29.342  27.177  1.00  0.00     0.021 C 
ENDROOT
BRANCH   1   2
ATOM      2  C   UNL A   1      34.009  28.314  26.161  1.00  0.00     0.116 C 
BRANCH   2   3
ATOM      3  N   UNL A   1      34.218  28.579  24.682  1.00  0.00    -0.354 N 
ATOM      4  C   UNL A   1      33.679  28.343  23.405  1.00  0.00     0.242 C 
ATOM      5  O   UNL A   1      33.923  29.023  22.410  1.00  0.00    -0.273 OA
ATOM      6  H   UNL A   1      35.036  29.116  24.577  1.00  0.00     0.163 HD
BRANCH   4   7
ATOM      7  C   UNL A   1      32.646  27.353  23.073  1.00  0.00     0.171 C 
BRANCH   7   8
ATOM      8  N   UNL A   1      31.556  28.291  22.814  1.00  0.00    -0.347 N 
ATOM      9  O   UNL A   1      30.543  29.744  24.275  1.00  0.00    -0.279 OA
ATOM     10  C   UNL A   1      30.703  28.602  23.863  1.00  0.00     0.337 C 
ATOM     11  H   UNL A   1      31.431  28.691  21.923  1.00  0.00     0.164 HD
ENDBRANCH   7   8
BRANCH   7  12
ATOM     12  C   UNL A   1      33.591  26.483  22.301  1.00  0.00     0.046 C 
BRANCH  12  13
ATOM     13  C   UNL A   1      33.650  24.923  23.030  1.00  0.00     0.072 C 
BRANCH  13  14
ATOM     14  S   UNL A   1      33.115  22.858  22.494  1.00  0.00    -0.158 SA
BRANCH  14  15
ATOM     15  C   UNL A   1      32.348  21.335  23.869  1.00  0.00     0.052 C 
ATOM     16  C   UNL A   1      32.317  21.470  25.415  1.00  0.00     0.043 C 
ATOM     17  C   UNL A   1      32.307  19.758  23.581  1.00  0.00     0.052 C 
ATOM     18  C   UNL A   1      33.259  20.458  26.120  1.00  0.00     0.162 C 
ATOM     19  C   UNL A   1      33.050  18.716  24.514  1.00  0.00     0.095 C 
ATOM     20  O   UNL A   1      32.835  19.117  25.871  1.00  0.00    -0.372 OA
ATOM     21  C   UNL A   1      34.511  18.247  24.305  1.00  0.00     0.066 C 
ATOM     22  C   UNL A   1      32.409  17.321  24.324  1.00  0.00     0.195 C 
ATOM     23  C   UNL A   1      34.477  17.023  23.393  1.00  0.00     0.163 C 
ATOM     24  O   UNL A   1      33.098  16.690  23.232  1.00  0.00    -0.378 OA
ENDBRANCH  14  15
ENDBRANCH  13  14
ENDBRANCH  12  13
ENDBRANCH   7  12
ENDBRANCH   4   7
ENDBRANCH   2   3
ENDBRANCH   1   2
BRANCH   1  25
ATOM     25  C   UNL A   1      33.986  30.682  27.605  1.00  0.00     0.002 C 
BRANCH  25  26
ATOM     26  C   UNL A   1      32.476  30.845  27.295  1.00  0.00     0.002 C 
BRANCH  26  27
ATOM     27  C   UNL A   1      31.900  32.259  27.158  1.00  0.00     0.021 C 
BRANCH  27  28
ATOM     28  C   UNL A   1      32.919  33.395  27.073  1.00  0.00     0.116 C 
BRANCH  28  29
ATOM     29  N   UNL A   1      32.600  34.476  27.999  1.00  0.00    -0.352 N 
ATOM     30  C   UNL A   1      33.170  34.756  29.213  1.00  0.00     0.251 C 
ATOM     31  H   UNL A   1      31.880  35.085  27.714  1.00  0.00     0.163 HD
ATOM     32  O   UNL A   1      32.598  35.524  30.006  1.00  0.00    -0.269 OA
BRANCH  30  33
ATOM     33  C   UNL A   1      34.463  34.158  29.598  1.00  0.00     0.039 A 
ATOM     34  C   UNL A   1      35.612  34.462  28.861  1.00  0.00     0.014 A 
ATOM     35  C   UNL A   1      34.534  33.245  30.656  1.00  0.00     0.014 A 
ATOM     36  C   UNL A   1      36.832  33.867  29.197  1.00  0.00     0.010 A 
ATOM     37  C   UNL A   1      35.762  32.705  31.030  1.00  0.00     0.010 A 
ATOM     38  C   UNL A   1      36.919  32.986  30.288  1.00  0.00    -0.014 A 
BRANCH  38  39
ATOM     39  C   UNL A   1      38.199  32.302  30.613  1.00  0.00     0.031 A 
ATOM     40  C   UNL A   1      39.132  32.901  31.634  1.00  0.00     0.074 A 
ATOM     41  C   UNL A   1      38.530  31.152  29.994  1.00  0.00     0.049 A 
ATOM     42  N   UNL A   1      40.292  32.464  32.056  1.00  0.00    -0.248 NA
ATOM     43  C   UNL A   1      38.714  34.172  32.248  1.00  0.00     0.031 C 
ATOM     44  C   UNL A   1      37.730  30.484  28.967  1.00  0.00     0.029 A 
ATOM     45  N   UNL A   1      39.628  30.340  30.140  1.00  0.00    -0.354 N 
ATOM     46  C   UNL A   1      40.739  33.403  32.978  1.00  0.00     0.074 A 
ATOM     47  C   UNL A   1      39.760  34.467  33.005  1.00  0.00     0.031 C 
ATOM     48  C   UNL A   1      38.347  29.349  28.597  1.00  0.00     0.029 A 
ATOM     49  C   UNL A   1      39.603  29.227  29.334  1.00  0.00     0.049 A 
ATOM     50  H   UNL A   1      40.365  30.537  30.762  1.00  0.00     0.167 HD
ATOM     51  C   UNL A   1      41.848  33.372  33.755  1.00  0.00     0.037 A 
ATOM     52  C   UNL A   1      40.490  28.222  29.205  1.00  0.00     0.037 A 
ATOM     53  C   UNL A   1      42.816  32.307  33.737  1.00  0.00     0.049 A 
ATOM     54  C   UNL A   1      41.731  28.226  30.058  1.00  0.00     0.074 A 
ATOM     55  C   UNL A   1      43.958  32.165  34.505  1.00  0.00     0.029 A 
ATOM     56  N   UNL A   1      42.754  31.199  32.904  1.00  0.00    -0.354 N 
ATOM     57  N   UNL A   1      42.112  29.093  30.966  1.00  0.00    -0.248 NA
ATOM     58  C   UNL A   1      42.662  27.103  29.877  1.00  0.00     0.031 C 
ATOM     59  C   UNL A   1      44.614  30.997  34.104  1.00  0.00     0.029 A 
ATOM     60  C   UNL A   1      43.847  30.378  33.129  1.00  0.00     0.049 A 
ATOM     61  H   UNL A   1      42.039  31.022  32.251  1.00  0.00     0.167 HD
ATOM     62  C   UNL A   1      43.299  28.599  31.492  1.00  0.00     0.074 A 
ATOM     63  C   UNL A   1      43.570  27.352  30.810  1.00  0.00     0.031 C 
ATOM     64  C   UNL A   1      44.092  29.128  32.456  1.00  0.00     0.037 A 
BRANCH  51  65
ATOM     65  C   UNL A   1      42.071  34.523  34.694  1.00  0.00     0.057 A 
ATOM     66  C   UNL A   1      42.690  35.709  34.275  1.00  0.00     0.134 A 
ATOM     67  C   UNL A   1      41.630  34.463  36.022  1.00  0.00     0.134 A 
ATOM     68  F   UNL A   1      43.145  35.831  33.019  1.00  0.00    -0.206 F 
ATOM     69  C   UNL A   1      42.888  36.780  35.149  1.00  0.00     0.040 A 
ATOM     70  C   UNL A   1      41.795  35.539  36.897  1.00  0.00     0.040 A 
ATOM     71  F   UNL A   1      41.021  33.362  36.490  1.00  0.00    -0.206 F 
ATOM     72  C   UNL A   1      42.432  36.699  36.462  1.00  0.00     0.006 A 
ENDBRANCH  51  65
BRANCH  52  73
ATOM     73  C   UNL A   1      40.237  27.111  28.250  1.00  0.00     0.057 A 
ATOM     74  C   UNL A   1      39.466  26.001  28.619  1.00  0.00     0.134 A 
ATOM     75  C   UNL A   1      40.784  27.112  26.962  1.00  0.00     0.134 A 
ATOM     76  F   UNL A   1      38.928  25.930  29.846  1.00  0.00    -0.206 F 
ATOM     77  C   UNL A   1      39.276  24.921  27.755  1.00  0.00     0.040 A 
ATOM     78  C   UNL A   1      40.577  26.053  26.077  1.00  0.00     0.040 A 
ATOM     79  F   UNL A   1      41.524  28.149  26.541  1.00  0.00    -0.206 F 
ATOM     80  C   UNL A   1      39.830  24.947  26.477  1.00  0.00     0.006 A 
ENDBRANCH  52  73
BRANCH  64  81
ATOM     81  C   UNL A   1      45.294  28.331  32.877  1.00  0.00     0.057 A 
ATOM     82  C   UNL A   1      45.232  27.360  33.885  1.00  0.00     0.134 A 
ATOM     83  C   UNL A   1      46.526  28.515  32.233  1.00  0.00     0.134 A 
ATOM     84  F   UNL A   1      44.087  27.142  34.549  1.00  0.00    -0.206 F 
ATOM     85  C   UNL A   1      46.358  26.626  34.260  1.00  0.00     0.040 A 
ATOM     86  C   UNL A   1      47.650  27.764  32.576  1.00  0.00     0.040 A 
ATOM     87  F   UNL A   1      46.652  29.420  31.250  1.00  0.00    -0.206 F 
ATOM     88  C   UNL A   1      47.569  26.822  33.599  1.00  0.00     0.006 A 
ENDBRANCH  64  81
ENDBRANCH  38  39
ENDBRANCH  30  33
ENDBRANCH  28  29
ENDBRANCH  27  28
ENDBRANCH  26  27
ENDBRANCH  25  26
ENDBRANCH   1  25
TORSDOF 18
ENDMDL
