MODEL 1
REMARK VINA RESULT:     -10.3      0.000      0.000
REMARK SMILES C[N@@H+](CC(=O)NCCCCCCNC(=O)c1ccc(-c2c3nc(c(-c4c(F)cccc4F)c4ccc([nH]4)c(-c4c(F)cccc4F)c4nc(c(-c5c(F)cccc5F)c5ccc2[nH]5)C=C4)C=C3)cc1)Cc1csc(-c2ccco2)n1
REMARK SMILES IDX 8 1 7 2 6 3 4 4 5 5 3 7 2 8 1 9 70 11 71 12 72 13 80 14
REMARK SMILES IDX 73 15 74 16 75 17 76 18 79 19 77 20 78 21 9 22 10 23 11 24
REMARK SMILES IDX 12 25 13 26 14 27 15 29 16 30 17 31 69 32 18 33 68 34 19 35
REMARK SMILES IDX 20 36 21 37 62 38 22 39 67 40 61 41 63 42 23 43 66 44 60 45
REMARK SMILES IDX 59 46 24 48 50 49 33 50 49 51 34 52 37 53 48 54 64 55 35 56
REMARK SMILES IDX 36 57 47 59 65 60 38 61 25 62 26 63 31 64 27 65 28 66 30 67
REMARK SMILES IDX 32 68 29 69 51 70 52 71 57 72 53 73 54 74 56 75 58 76 55 77
REMARK SMILES IDX 39 78 40 79 45 80 41 81 42 82 44 83 46 84 43 85
REMARK H PARENT 6 6 2 10 13 28 63 47 37 58
REMARK Flexibility Score: inf
ROOT
ATOM      1  C   UNL A   1      36.815  22.987  24.567  1.00  0.00     0.021 C 
ENDROOT
BRANCH   1   2
ATOM      2  C   UNL A   1      36.184  23.730  25.740  1.00  0.00     0.116 C 
BRANCH   2   3
ATOM      3  N   UNL A   1      35.552  22.825  26.678  1.00  0.00    -0.351 N 
ATOM      4  C   UNL A   1      34.251  22.760  27.082  1.00  0.00     0.275 C 
ATOM      5  O   UNL A   1      33.935  21.874  27.882  1.00  0.00    -0.269 OA
ATOM      6  H   UNL A   1      36.151  22.156  27.083  1.00  0.00     0.163 HD
BRANCH   4   7
ATOM      7  C   UNL A   1      33.199  23.709  26.505  1.00  0.00     0.363 C 
BRANCH   7   8
ATOM      8  N   UNL A   1      32.369  23.129  25.461  1.00  0.00    -0.325 N 
ATOM      9  C   UNL A   1      30.987  22.824  25.717  1.00  0.00     0.333 C 
ATOM     10  H   UNL A   1      32.471  24.134  25.318  1.00  0.00     0.348 HD
BRANCH   8  11
ATOM     11  C   UNL A   1      32.923  22.734  24.178  1.00  0.00     0.320 C 
BRANCH  11  12
ATOM     12  C   UNL A   1      32.749  21.277  23.853  1.00  0.00     0.106 A 
ATOM     13  C   UNL A   1      32.113  20.798  22.718  1.00  0.00     0.097 A 
ATOM     14  N   UNL A   1      33.226  20.279  24.705  1.00  0.00    -0.232 NA
ATOM     15  S   UNL A   1      32.237  19.096  22.636  1.00  0.00    -0.119 S 
ATOM     16  C   UNL A   1      33.099  19.103  24.118  1.00  0.00     0.159 A 
BRANCH  16  17
ATOM     17  C   UNL A   1      33.661  17.888  24.636  1.00  0.00     0.162 A 
ATOM     18  C   UNL A   1      34.912  17.331  24.415  1.00  0.00     0.053 A 
ATOM     19  O   UNL A   1      32.951  17.035  25.450  1.00  0.00    -0.462 OA
ATOM     20  C   UNL A   1      34.953  16.092  25.104  1.00  0.00     0.043 A 
ATOM     21  C   UNL A   1      33.727  15.954  25.708  1.00  0.00     0.196 A 
ENDBRANCH  16  17
ENDBRANCH  11  12
ENDBRANCH   8  11
ENDBRANCH   7   8
ENDBRANCH   4   7
ENDBRANCH   2   3
ENDBRANCH   1   2
BRANCH   1  22
ATOM     22  C   UNL A   1      37.740  21.846  24.986  1.00  0.00     0.002 C 
BRANCH  22  23
ATOM     23  C   UNL A   1      37.286  20.440  24.603  1.00  0.00     0.002 C 
BRANCH  23  24
ATOM     24  C   UNL A   1      38.284  19.336  24.938  1.00  0.00     0.021 C 
BRANCH  24  25
ATOM     25  C   UNL A   1      39.282  19.693  26.034  1.00  0.00     0.116 C 
BRANCH  25  26
ATOM     26  N   UNL A   1      40.509  18.916  25.938  1.00  0.00    -0.352 N 
ATOM     27  C   UNL A   1      41.810  19.347  26.015  1.00  0.00     0.251 C 
ATOM     28  H   UNL A   1      40.390  17.948  25.800  1.00  0.00     0.163 HD
ATOM     29  O   UNL A   1      42.736  18.603  25.716  1.00  0.00    -0.269 OA
BRANCH  27  30
ATOM     30  C   UNL A   1      42.081  20.732  26.453  1.00  0.00     0.039 A 
ATOM     31  C   UNL A   1      42.196  21.008  27.816  1.00  0.00     0.014 A 
ATOM     32  C   UNL A   1      42.234  21.751  25.508  1.00  0.00     0.014 A 
ATOM     33  C   UNL A   1      42.513  22.304  28.230  1.00  0.00     0.010 A 
ATOM     34  C   UNL A   1      42.637  23.015  25.917  1.00  0.00     0.010 A 
ATOM     35  C   UNL A   1      42.760  23.312  27.282  1.00  0.00    -0.014 A 
BRANCH  35  36
ATOM     36  C   UNL A   1      43.095  24.696  27.701  1.00  0.00     0.031 A 
ATOM     37  C   UNL A   1      44.535  25.132  27.744  1.00  0.00     0.074 A 
ATOM     38  C   UNL A   1      42.119  25.541  28.083  1.00  0.00     0.049 A 
ATOM     39  N   UNL A   1      45.044  26.275  28.129  1.00  0.00    -0.248 NA
ATOM     40  C   UNL A   1      45.541  24.140  27.328  1.00  0.00     0.031 C 
ATOM     41  C   UNL A   1      40.691  25.223  28.130  1.00  0.00     0.029 A 
ATOM     42  N   UNL A   1      42.182  26.843  28.511  1.00  0.00    -0.354 N 
ATOM     43  C   UNL A   1      46.421  26.132  28.014  1.00  0.00     0.074 A 
ATOM     44  C   UNL A   1      46.674  24.774  27.590  1.00  0.00     0.031 C 
ATOM     45  C   UNL A   1      40.011  26.310  28.531  1.00  0.00     0.029 A 
ATOM     46  C   UNL A   1      40.956  27.389  28.805  1.00  0.00     0.049 A 
ATOM     47  H   UNL A   1      43.027  27.340  28.598  1.00  0.00     0.167 HD
ATOM     48  C   UNL A   1      47.389  27.059  28.210  1.00  0.00     0.037 A 
ATOM     49  C   UNL A   1      40.634  28.619  29.244  1.00  0.00     0.037 A 
ATOM     50  C   UNL A   1      47.133  28.418  28.605  1.00  0.00     0.049 A 
ATOM     51  C   UNL A   1      41.728  29.630  29.460  1.00  0.00     0.074 A 
ATOM     52  C   UNL A   1      48.038  29.447  28.790  1.00  0.00     0.029 A 
ATOM     53  N   UNL A   1      45.875  28.937  28.871  1.00  0.00    -0.354 N 
ATOM     54  N   UNL A   1      43.022  29.500  29.287  1.00  0.00    -0.248 NA
ATOM     55  C   UNL A   1      41.316  30.964  29.918  1.00  0.00     0.031 C 
ATOM     56  C   UNL A   1      47.332  30.580  29.209  1.00  0.00     0.029 A 
ATOM     57  C   UNL A   1      45.981  30.270  29.230  1.00  0.00     0.049 A 
ATOM     58  H   UNL A   1      45.031  28.433  28.812  1.00  0.00     0.167 HD
ATOM     59  C   UNL A   1      43.571  30.743  29.576  1.00  0.00     0.074 A 
ATOM     60  C   UNL A   1      42.470  31.615  29.924  1.00  0.00     0.031 C 
ATOM     61  C   UNL A   1      44.871  31.129  29.552  1.00  0.00     0.037 A 
BRANCH  48  62
ATOM     62  C   UNL A   1      48.811  26.632  27.987  1.00  0.00     0.057 A 
ATOM     63  C   UNL A   1      49.601  26.125  29.029  1.00  0.00     0.134 A 
ATOM     64  C   UNL A   1      49.391  26.701  26.714  1.00  0.00     0.134 A 
ATOM     65  F   UNL A   1      49.113  26.046  30.276  1.00  0.00    -0.206 F 
ATOM     66  C   UNL A   1      50.923  25.730  28.819  1.00  0.00     0.040 A 
ATOM     67  C   UNL A   1      50.703  26.279  26.486  1.00  0.00     0.040 A 
ATOM     68  F   UNL A   1      48.692  27.171  25.671  1.00  0.00    -0.206 F 
ATOM     69  C   UNL A   1      51.474  25.799  27.541  1.00  0.00     0.006 A 
ENDBRANCH  48  62
BRANCH  49  70
ATOM     70  C   UNL A   1      39.213  28.984  29.480  1.00  0.00     0.057 A 
ATOM     71  C   UNL A   1      38.615  28.788  30.731  1.00  0.00     0.134 A 
ATOM     72  C   UNL A   1      38.410  29.508  28.459  1.00  0.00     0.134 A 
ATOM     73  F   UNL A   1      39.326  28.274  31.745  1.00  0.00    -0.206 F 
ATOM     74  C   UNL A   1      37.266  29.071  30.951  1.00  0.00     0.040 A 
ATOM     75  C   UNL A   1      37.066  29.821  28.673  1.00  0.00     0.040 A 
ATOM     76  F   UNL A   1      38.923  29.728  27.240  1.00  0.00    -0.206 F 
ATOM     77  C   UNL A   1      36.488  29.592  29.920  1.00  0.00     0.006 A 
ENDBRANCH  49  70
BRANCH  61  78
ATOM     78  C   UNL A   1      45.165  32.570  29.851  1.00  0.00     0.057 A 
ATOM     79  C   UNL A   1      45.463  33.018  31.144  1.00  0.00     0.134 A 
ATOM     80  C   UNL A   1      45.183  33.517  28.818  1.00  0.00     0.134 A 
ATOM     81  F   UNL A   1      45.453  32.165  32.179  1.00  0.00    -0.206 F 
ATOM     82  C   UNL A   1      45.740  34.362  31.403  1.00  0.00     0.040 A 
ATOM     83  C   UNL A   1      45.488  34.857  29.060  1.00  0.00     0.040 A 
ATOM     84  F   UNL A   1      44.918  33.153  27.555  1.00  0.00    -0.206 F 
ATOM     85  C   UNL A   1      45.759  35.283  30.358  1.00  0.00     0.006 A 
ENDBRANCH  61  78
ENDBRANCH  35  36
ENDBRANCH  27  30
ENDBRANCH  25  26
ENDBRANCH  24  25
ENDBRANCH  23  24
ENDBRANCH  22  23
ENDBRANCH   1  22
TORSDOF 17
ENDMDL
MODEL 2
REMARK VINA RESULT:     -10.2      1.146      6.297
REMARK SMILES C[N@@H+](CC(=O)NCCCCCCNC(=O)c1ccc(-c2c3nc(c(-c4c(F)cccc4F)c4ccc([nH]4)c(-c4c(F)cccc4F)c4nc(c(-c5c(F)cccc5F)c5ccc2[nH]5)C=C4)C=C3)cc1)Cc1csc(-c2ccco2)n1
REMARK SMILES IDX 8 1 7 2 6 3 4 4 5 5 3 7 2 8 1 9 70 11 71 12 72 13 80 14
REMARK SMILES IDX 73 15 74 16 75 17 76 18 79 19 77 20 78 21 9 22 10 23 11 24
REMARK SMILES IDX 12 25 13 26 14 27 15 29 16 30 17 31 69 32 18 33 68 34 19 35
REMARK SMILES IDX 20 36 21 37 62 38 22 39 67 40 61 41 63 42 23 43 66 44 60 45
REMARK SMILES IDX 59 46 24 48 50 49 33 50 49 51 34 52 37 53 48 54 64 55 35 56
REMARK SMILES IDX 36 57 47 59 65 60 38 61 25 62 26 63 31 64 27 65 28 66 30 67
REMARK SMILES IDX 32 68 29 69 51 70 52 71 57 72 53 73 54 74 56 75 58 76 55 77
REMARK SMILES IDX 39 78 40 79 45 80 41 81 42 82 44 83 46 84 43 85
REMARK H PARENT 6 6 2 10 13 28 63 47 37 58
REMARK Flexibility Score: inf
ROOT
ATOM      1  C   UNL A   1      36.293  22.980  23.665  1.00  0.00     0.021 C 
ENDROOT
BRANCH   1   2
ATOM      2  C   UNL A   1      35.134  23.385  24.569  1.00  0.00     0.116 C 
BRANCH   2   3
ATOM      3  N   UNL A   1      34.630  24.704  24.247  1.00  0.00    -0.351 N 
ATOM      4  C   UNL A   1      33.708  25.466  24.900  1.00  0.00     0.275 C 
ATOM      5  O   UNL A   1      33.453  26.586  24.447  1.00  0.00    -0.269 OA
ATOM      6  H   UNL A   1      35.011  25.111  23.435  1.00  0.00     0.163 HD
BRANCH   4   7
ATOM      7  C   UNL A   1      33.063  24.980  26.200  1.00  0.00     0.363 C 
BRANCH   7   8
ATOM      8  N   UNL A   1      31.666  24.593  26.074  1.00  0.00    -0.325 N 
ATOM      9  C   UNL A   1      30.647  25.594  25.904  1.00  0.00     0.333 C 
ATOM     10  H   UNL A   1      32.155  24.456  25.189  1.00  0.00     0.348 HD
BRANCH   8  11
ATOM     11  C   UNL A   1      31.240  23.213  26.227  1.00  0.00     0.320 C 
BRANCH  11  12
ATOM     12  C   UNL A   1      31.577  22.330  25.058  1.00  0.00     0.106 A 
ATOM     13  C   UNL A   1      31.563  22.742  23.735  1.00  0.00     0.097 A 
ATOM     14  N   UNL A   1      31.931  20.990  25.236  1.00  0.00    -0.232 NA
ATOM     15  S   UNL A   1      32.136  21.498  22.714  1.00  0.00    -0.119 S 
ATOM     16  C   UNL A   1      32.340  20.489  24.084  1.00  0.00     0.159 A 
BRANCH  16  17
ATOM     17  C   UNL A   1      32.951  19.197  23.949  1.00  0.00     0.162 A 
ATOM     18  C   UNL A   1      34.095  18.697  24.553  1.00  0.00     0.053 A 
ATOM     19  O   UNL A   1      32.457  18.232  23.101  1.00  0.00    -0.462 OA
ATOM     20  C   UNL A   1      34.310  17.392  24.039  1.00  0.00     0.043 A 
ATOM     21  C   UNL A   1      33.290  17.163  23.148  1.00  0.00     0.196 A 
ENDBRANCH  16  17
ENDBRANCH  11  12
ENDBRANCH   8  11
ENDBRANCH   7   8
ENDBRANCH   4   7
ENDBRANCH   2   3
ENDBRANCH   1   2
BRANCH   1  22
ATOM     22  C   UNL A   1      37.376  22.170  24.377  1.00  0.00     0.002 C 
BRANCH  22  23
ATOM     23  C   UNL A   1      36.974  20.770  24.833  1.00  0.00     0.002 C 
BRANCH  23  24
ATOM     24  C   UNL A   1      38.126  19.771  24.911  1.00  0.00     0.021 C 
BRANCH  24  25
ATOM     25  C   UNL A   1      39.210  20.131  25.920  1.00  0.00     0.116 C 
BRANCH  25  26
ATOM     26  N   UNL A   1      40.277  19.140  25.960  1.00  0.00    -0.352 N 
ATOM     27  C   UNL A   1      41.626  19.333  26.131  1.00  0.00     0.251 C 
ATOM     28  H   UNL A   1      39.992  18.205  25.849  1.00  0.00     0.163 HD
ATOM     29  O   UNL A   1      42.419  18.420  25.942  1.00  0.00    -0.269 OA
BRANCH  27  30
ATOM     30  C   UNL A   1      42.112  20.667  26.537  1.00  0.00     0.039 A 
ATOM     31  C   UNL A   1      42.470  21.593  25.556  1.00  0.00     0.014 A 
ATOM     32  C   UNL A   1      42.198  21.002  27.892  1.00  0.00     0.014 A 
ATOM     33  C   UNL A   1      42.871  22.876  25.934  1.00  0.00     0.010 A 
ATOM     34  C   UNL A   1      42.509  22.305  28.262  1.00  0.00     0.010 A 
ATOM     35  C   UNL A   1      42.870  23.250  27.289  1.00  0.00    -0.014 A 
BRANCH  35  36
ATOM     36  C   UNL A   1      43.295  24.607  27.714  1.00  0.00     0.031 A 
ATOM     37  C   UNL A   1      42.255  25.646  28.035  1.00  0.00     0.074 A 
ATOM     38  C   UNL A   1      44.604  24.919  27.767  1.00  0.00     0.049 A 
ATOM     39  N   UNL A   1      42.413  26.901  28.373  1.00  0.00    -0.248 NA
ATOM     40  C   UNL A   1      40.846  25.227  27.934  1.00  0.00     0.031 C 
ATOM     41  C   UNL A   1      45.706  24.015  27.435  1.00  0.00     0.029 A 
ATOM     42  N   UNL A   1      45.230  26.089  28.117  1.00  0.00    -0.354 N 
ATOM     43  C   UNL A   1      41.131  27.419  28.510  1.00  0.00     0.074 A 
ATOM     44  C   UNL A   1      40.207  26.367  28.154  1.00  0.00     0.031 C 
ATOM     45  C   UNL A   1      46.873  24.653  27.627  1.00  0.00     0.029 A 
ATOM     46  C   UNL A   1      46.600  26.021  28.060  1.00  0.00     0.049 A 
ATOM     47  H   UNL A   1      44.741  26.901  28.383  1.00  0.00     0.167 HD
ATOM     48  C   UNL A   1      40.754  28.650  28.928  1.00  0.00     0.037 A 
ATOM     49  C   UNL A   1      47.530  26.957  28.329  1.00  0.00     0.037 A 
ATOM     50  C   UNL A   1      41.675  29.687  29.309  1.00  0.00     0.049 A 
ATOM     51  C   UNL A   1      47.086  28.321  28.786  1.00  0.00     0.074 A 
ATOM     52  C   UNL A   1      41.398  30.955  29.786  1.00  0.00     0.029 A 
ATOM     53  N   UNL A   1      43.056  29.571  29.259  1.00  0.00    -0.354 N 
ATOM     54  N   UNL A   1      45.870  28.777  28.970  1.00  0.00    -0.248 NA
ATOM     55  C   UNL A   1      48.144  29.295  29.087  1.00  0.00     0.031 C 
ATOM     56  C   UNL A   1      42.611  31.623  29.985  1.00  0.00     0.029 A 
ATOM     57  C   UNL A   1      43.645  30.750  29.686  1.00  0.00     0.049 A 
ATOM     58  H   UNL A   1      43.546  28.769  28.964  1.00  0.00     0.167 HD
ATOM     59  C   UNL A   1      46.019  30.074  29.446  1.00  0.00     0.074 A 
ATOM     60  C   UNL A   1      47.441  30.326  29.532  1.00  0.00     0.031 C 
ATOM     61  C   UNL A   1      45.064  30.975  29.785  1.00  0.00     0.037 A 
BRANCH  48  62
ATOM     62  C   UNL A   1      39.282  28.935  29.005  1.00  0.00     0.057 A 
ATOM     63  C   UNL A   1      38.555  28.744  30.189  1.00  0.00     0.134 A 
ATOM     64  C   UNL A   1      38.587  29.432  27.896  1.00  0.00     0.134 A 
ATOM     65  F   UNL A   1      39.155  28.255  31.285  1.00  0.00    -0.206 F 
ATOM     66  C   UNL A   1      37.186  29.009  30.258  1.00  0.00     0.040 A 
ATOM     67  C   UNL A   1      37.224  29.731  27.962  1.00  0.00     0.040 A 
ATOM     68  F   UNL A   1      39.221  29.644  26.733  1.00  0.00    -0.206 F 
ATOM     69  C   UNL A   1      36.519  29.513  29.143  1.00  0.00     0.006 A 
ENDBRANCH  48  62
BRANCH  49  70
ATOM     70  C   UNL A   1      48.976  26.636  28.207  1.00  0.00     0.057 A 
ATOM     71  C   UNL A   1      49.711  26.186  29.311  1.00  0.00     0.134 A 
ATOM     72  C   UNL A   1      49.664  26.797  26.999  1.00  0.00     0.134 A 
ATOM     73  F   UNL A   1      49.113  26.027  30.500  1.00  0.00    -0.206 F 
ATOM     74  C   UNL A   1      51.081  25.936  29.226  1.00  0.00     0.040 A 
ATOM     75  C   UNL A   1      51.030  26.525  26.892  1.00  0.00     0.040 A 
ATOM     76  F   UNL A   1      49.018  27.217  25.901  1.00  0.00    -0.206 F 
ATOM     77  C   UNL A   1      51.744  26.103  28.011  1.00  0.00     0.006 A 
ENDBRANCH  49  70
BRANCH  61  78
ATOM     78  C   UNL A   1      45.526  32.292  30.337  1.00  0.00     0.057 A 
ATOM     79  C   UNL A   1      45.762  32.487  31.703  1.00  0.00     0.134 A 
ATOM     80  C   UNL A   1      45.770  33.371  29.477  1.00  0.00     0.134 A 
ATOM     81  F   UNL A   1      45.537  31.497  32.580  1.00  0.00    -0.206 F 
ATOM     82  C   UNL A   1      46.197  33.718  32.198  1.00  0.00     0.040 A 
ATOM     83  C   UNL A   1      46.234  34.597  29.957  1.00  0.00     0.040 A 
ATOM     84  F   UNL A   1      45.575  33.249  28.156  1.00  0.00    -0.206 F 
ATOM     85  C   UNL A   1      46.440  34.774  31.323  1.00  0.00     0.006 A 
ENDBRANCH  61  78
ENDBRANCH  35  36
ENDBRANCH  27  30
ENDBRANCH  25  26
ENDBRANCH  24  25
ENDBRANCH  23  24
ENDBRANCH  22  23
ENDBRANCH   1  22
TORSDOF 17
ENDMDL
MODEL 3
REMARK VINA RESULT:     -10.2      5.883     10.082
REMARK SMILES C[N@@H+](CC(=O)NCCCCCCNC(=O)c1ccc(-c2c3nc(c(-c4c(F)cccc4F)c4ccc([nH]4)c(-c4c(F)cccc4F)c4nc(c(-c5c(F)cccc5F)c5ccc2[nH]5)C=C4)C=C3)cc1)Cc1csc(-c2ccco2)n1
REMARK SMILES IDX 8 1 7 2 6 3 4 4 5 5 3 7 2 8 1 9 70 11 71 12 72 13 80 14
REMARK SMILES IDX 73 15 74 16 75 17 76 18 79 19 77 20 78 21 9 22 10 23 11 24
REMARK SMILES IDX 12 25 13 26 14 27 15 29 16 30 17 31 69 32 18 33 68 34 19 35
REMARK SMILES IDX 20 36 21 37 62 38 22 39 67 40 61 41 63 42 23 43 66 44 60 45
REMARK SMILES IDX 59 46 24 48 50 49 33 50 49 51 34 52 37 53 48 54 64 55 35 56
REMARK SMILES IDX 36 57 47 59 65 60 38 61 25 62 26 63 31 64 27 65 28 66 30 67
REMARK SMILES IDX 32 68 29 69 51 70 52 71 57 72 53 73 54 74 56 75 58 76 55 77
REMARK SMILES IDX 39 78 40 79 45 80 41 81 42 82 44 83 46 84 43 85
REMARK H PARENT 6 6 2 10 13 28 63 47 37 58
REMARK Flexibility Score: inf
ROOT
ATOM      1  C   UNL A   1      33.583  29.218  26.299  1.00  0.00     0.021 C 
ENDROOT
BRANCH   1   2
ATOM      2  C   UNL A   1      33.548  27.709  26.520  1.00  0.00     0.116 C 
BRANCH   2   3
ATOM      3  N   UNL A   1      32.196  27.218  26.693  1.00  0.00    -0.351 N 
ATOM      4  C   UNL A   1      31.609  26.093  26.194  1.00  0.00     0.275 C 
ATOM      5  O   UNL A   1      30.435  25.864  26.503  1.00  0.00    -0.269 OA
ATOM      6  H   UNL A   1      31.615  27.780  27.255  1.00  0.00     0.163 HD
BRANCH   4   7
ATOM      7  C   UNL A   1      32.403  25.104  25.338  1.00  0.00     0.363 C 
BRANCH   7   8
ATOM      8  N   UNL A   1      31.634  24.465  24.282  1.00  0.00    -0.325 N 
ATOM      9  C   UNL A   1      31.029  23.178  24.500  1.00  0.00     0.333 C 
ATOM     10  H   UNL A   1      31.076  25.182  24.746  1.00  0.00     0.348 HD
BRANCH   8  11
ATOM     11  C   UNL A   1      31.544  25.039  22.951  1.00  0.00     0.320 C 
BRANCH  11  12
ATOM     12  C   UNL A   1      31.594  26.541  22.922  1.00  0.00     0.106 A 
ATOM     13  C   UNL A   1      32.761  27.285  22.862  1.00  0.00     0.097 A 
ATOM     14  N   UNL A   1      30.427  27.309  22.963  1.00  0.00    -0.232 NA
ATOM     15  S   UNL A   1      32.404  28.948  22.707  1.00  0.00    -0.119 S 
ATOM     16  C   UNL A   1      30.730  28.577  22.756  1.00  0.00     0.159 A 
BRANCH  16  17
ATOM     17  C   UNL A   1      29.752  29.607  22.548  1.00  0.00     0.162 A 
ATOM     18  C   UNL A   1      29.127  30.427  23.475  1.00  0.00     0.053 A 
ATOM     19  O   UNL A   1      29.242  29.900  21.304  1.00  0.00    -0.462 OA
ATOM     20  C   UNL A   1      28.196  31.232  22.770  1.00  0.00     0.043 A 
ATOM     21  C   UNL A   1      28.297  30.861  21.452  1.00  0.00     0.196 A 
ENDBRANCH  16  17
ENDBRANCH  11  12
ENDBRANCH   8  11
ENDBRANCH   7   8
ENDBRANCH   4   7
ENDBRANCH   2   3
ENDBRANCH   1   2
BRANCH   1  22
ATOM     22  C   UNL A   1      32.437  29.967  26.979  1.00  0.00     0.002 C 
BRANCH  22  23
ATOM     23  C   UNL A   1      31.553  30.810  26.065  1.00  0.00     0.002 C 
BRANCH  23  24
ATOM     24  C   UNL A   1      31.383  32.261  26.506  1.00  0.00     0.021 C 
BRANCH  24  25
ATOM     25  C   UNL A   1      32.574  32.837  27.263  1.00  0.00     0.116 C 
BRANCH  25  26
ATOM     26  N   UNL A   1      32.383  34.239  27.608  1.00  0.00    -0.352 N 
ATOM     27  C   UNL A   1      32.978  34.969  28.608  1.00  0.00     0.251 C 
ATOM     28  H   UNL A   1      31.740  34.731  27.049  1.00  0.00     0.163 HD
ATOM     29  O   UNL A   1      32.567  36.085  28.899  1.00  0.00    -0.269 OA
BRANCH  27  30
ATOM     30  C   UNL A   1      34.120  34.383  29.340  1.00  0.00     0.039 A 
ATOM     31  C   UNL A   1      33.887  33.684  30.525  1.00  0.00     0.014 A 
ATOM     32  C   UNL A   1      35.419  34.516  28.840  1.00  0.00     0.014 A 
ATOM     33  C   UNL A   1      34.956  33.076  31.186  1.00  0.00     0.010 A 
ATOM     34  C   UNL A   1      36.465  33.836  29.449  1.00  0.00     0.010 A 
ATOM     35  C   UNL A   1      36.250  33.126  30.640  1.00  0.00    -0.014 A 
BRANCH  35  36
ATOM     36  C   UNL A   1      37.401  32.490  31.327  1.00  0.00     0.031 A 
ATOM     37  C   UNL A   1      38.118  31.341  30.670  1.00  0.00     0.074 A 
ATOM     38  C   UNL A   1      37.771  32.908  32.553  1.00  0.00     0.049 A 
ATOM     39  N   UNL A   1      39.109  30.615  31.121  1.00  0.00    -0.248 NA
ATOM     40  C   UNL A   1      37.637  30.935  29.338  1.00  0.00     0.031 C 
ATOM     41  C   UNL A   1      37.127  33.979  33.315  1.00  0.00     0.029 A 
ATOM     42  N   UNL A   1      38.781  32.477  33.376  1.00  0.00    -0.354 N 
ATOM     43  C   UNL A   1      39.358  29.664  30.139  1.00  0.00     0.074 A 
ATOM     44  C   UNL A   1      38.373  29.859  29.100  1.00  0.00     0.031 C 
ATOM     45  C   UNL A   1      37.777  34.142  34.480  1.00  0.00     0.029 A 
ATOM     46  C   UNL A   1      38.858  33.165  34.563  1.00  0.00     0.049 A 
ATOM     47  H   UNL A   1      39.392  31.743  33.139  1.00  0.00     0.167 HD
ATOM     48  C   UNL A   1      40.339  28.733  30.090  1.00  0.00     0.037 A 
ATOM     49  C   UNL A   1      39.707  33.022  35.598  1.00  0.00     0.037 A 
ATOM     50  C   UNL A   1      41.336  28.559  31.113  1.00  0.00     0.049 A 
ATOM     51  C   UNL A   1      40.786  31.975  35.521  1.00  0.00     0.074 A 
ATOM     52  C   UNL A   1      42.398  27.673  31.141  1.00  0.00     0.029 A 
ATOM     53  N   UNL A   1      41.393  29.291  32.288  1.00  0.00    -0.354 N 
ATOM     54  N   UNL A   1      41.047  31.124  34.559  1.00  0.00    -0.248 NA
ATOM     55  C   UNL A   1      41.697  31.880  36.670  1.00  0.00     0.031 C 
ATOM     56  C   UNL A   1      43.074  27.841  32.354  1.00  0.00     0.029 A 
ATOM     57  C   UNL A   1      42.466  28.870  33.055  1.00  0.00     0.049 A 
ATOM     58  H   UNL A   1      40.764  30.006  32.541  1.00  0.00     0.167 HD
ATOM     59  C   UNL A   1      42.174  30.422  34.967  1.00  0.00     0.074 A 
ATOM     60  C   UNL A   1      42.552  30.955  36.259  1.00  0.00     0.031 C 
ATOM     61  C   UNL A   1      42.840  29.427  34.330  1.00  0.00     0.037 A 
BRANCH  48  62
ATOM     62  C   UNL A   1      40.387  27.841  28.883  1.00  0.00     0.057 A 
ATOM     63  C   UNL A   1      41.169  28.157  27.762  1.00  0.00     0.134 A 
ATOM     64  C   UNL A   1      39.669  26.640  28.849  1.00  0.00     0.134 A 
ATOM     65  F   UNL A   1      41.871  29.300  27.723  1.00  0.00    -0.206 F 
ATOM     66  C   UNL A   1      41.211  27.326  26.642  1.00  0.00     0.040 A 
ATOM     67  C   UNL A   1      39.728  25.785  27.746  1.00  0.00     0.040 A 
ATOM     68  F   UNL A   1      38.904  26.273  29.887  1.00  0.00    -0.206 F 
ATOM     69  C   UNL A   1      40.495  26.130  26.636  1.00  0.00     0.006 A 
ENDBRANCH  48  62
BRANCH  49  70
ATOM     70  C   UNL A   1      39.599  33.909  36.785  1.00  0.00     0.057 A 
ATOM     71  C   UNL A   1      38.920  33.494  37.937  1.00  0.00     0.134 A 
ATOM     72  C   UNL A   1      40.143  35.199  36.789  1.00  0.00     0.134 A 
ATOM     73  F   UNL A   1      38.361  32.276  37.990  1.00  0.00    -0.206 F 
ATOM     74  C   UNL A   1      38.760  34.338  39.037  1.00  0.00     0.040 A 
ATOM     75  C   UNL A   1      40.014  36.045  37.893  1.00  0.00     0.040 A 
ATOM     76  F   UNL A   1      40.813  35.656  35.720  1.00  0.00    -0.206 F 
ATOM     77  C   UNL A   1      39.311  35.618  39.018  1.00  0.00     0.006 A 
ENDBRANCH  49  70
BRANCH  61  78
ATOM     78  C   UNL A   1      44.077  28.895  34.990  1.00  0.00     0.057 A 
ATOM     79  C   UNL A   1      45.345  29.438  34.748  1.00  0.00     0.134 A 
ATOM     80  C   UNL A   1      43.990  27.841  35.911  1.00  0.00     0.134 A 
ATOM     81  F   UNL A   1      45.499  30.440  33.870  1.00  0.00    -0.206 F 
ATOM     82  C   UNL A   1      46.486  28.933  35.375  1.00  0.00     0.040 A 
ATOM     83  C   UNL A   1      45.119  27.349  36.567  1.00  0.00     0.040 A 
ATOM     84  F   UNL A   1      42.805  27.283  36.197  1.00  0.00    -0.206 F 
ATOM     85  C   UNL A   1      46.372  27.890  36.292  1.00  0.00     0.006 A 
ENDBRANCH  61  78
ENDBRANCH  35  36
ENDBRANCH  27  30
ENDBRANCH  25  26
ENDBRANCH  24  25
ENDBRANCH  23  24
ENDBRANCH  22  23
ENDBRANCH   1  22
TORSDOF 17
ENDMDL
