MODEL 1
REMARK VINA RESULT:     -10.5      0.000      0.000
REMARK SMILES CC(C)[NH2+][C@]1(C(=O)NCCCCCCNC(=O)c2ccc(-c3c4nc(c(-c5c(F)cccc5F)c5ccc([nH]5)c(-c5c(F)cccc5F)c5nc(c(-c6c(F)cccc6F)c6ccc3[nH]6)C=C5)C=C4)cc2)CC[C@H]([N@H+](C)C2CCCC2)C1
REMARK SMILES IDX 11 1 10 2 9 3 8 4 6 5 7 6 5 8 72 9 82 10 73 11 74 12 4 13
REMARK SMILES IDX 2 16 1 17 3 18 75 19 76 20 77 22 78 23 81 24 79 25 80 26
REMARK SMILES IDX 12 27 13 28 14 29 15 30 16 31 17 33 18 34 19 35 71 36 20 37
REMARK SMILES IDX 70 38 21 39 22 40 23 41 64 42 24 43 69 44 63 45 65 46 25 47
REMARK SMILES IDX 68 48 62 49 61 50 26 52 52 53 35 54 51 55 36 56 39 57 50 58
REMARK SMILES IDX 66 59 37 60 38 61 49 63 67 64 40 65 27 66 28 67 33 68 29 69
REMARK SMILES IDX 30 70 32 71 34 72 31 73 53 74 54 75 59 76 55 77 56 78 58 79
REMARK SMILES IDX 60 80 57 81 41 82 42 83 47 84 43 85 44 86 46 87 48 88 45 89
REMARK H PARENT 8 7 4 14 4 15 75 21 15 32 65 51 39 62
REMARK Flexibility Score: inf
ROOT
ATOM      1  C   UNL A   1      37.465  21.809  25.047  1.00  0.00     0.002 C 
ENDROOT
BRANCH   1   2
ATOM      2  C   UNL A   1      36.750  22.859  24.201  1.00  0.00     0.021 C 
BRANCH   2   3
ATOM      3  C   UNL A   1      36.028  24.026  24.908  1.00  0.00     0.116 C 
BRANCH   3   4
ATOM      4  N   UNL A   1      35.059  23.553  25.893  1.00  0.00    -0.351 N 
ATOM      5  C   UNL A   1      33.814  23.925  26.302  1.00  0.00     0.281 C 
ATOM      6  O   UNL A   1      33.376  23.222  27.229  1.00  0.00    -0.268 OA
ATOM      7  H   UNL A   1      35.389  22.768  26.388  1.00  0.00     0.163 HD
BRANCH   5   8
ATOM      8  C   UNL A   1      32.890  25.045  25.697  1.00  0.00     0.181 C 
ATOM      9  C   UNL A   1      31.558  25.076  26.492  1.00  0.00     0.085 C 
ATOM     10  C   UNL A   1      33.395  26.465  26.098  1.00  0.00     0.144 C 
ATOM     11  C   UNL A   1      30.977  26.481  26.257  1.00  0.00     0.072 C 
ATOM     12  C   UNL A   1      32.192  27.437  26.099  1.00  0.00     0.191 C 
BRANCH   8  13
ATOM     13  N   UNL A   1      32.533  24.915  24.266  1.00  0.00    -0.331 N 
ATOM     14  H   UNL A   1      31.806  25.608  24.087  1.00  0.00     0.347 HD
ATOM     15  H   UNL A   1      33.436  25.022  23.805  1.00  0.00     0.347 HD
BRANCH  13  16
ATOM     16  C   UNL A   1      32.045  23.655  23.713  1.00  0.00     0.176 C 
ATOM     17  C   UNL A   1      30.597  23.776  23.210  1.00  0.00     0.075 C 
ATOM     18  C   UNL A   1      32.925  22.832  22.775  1.00  0.00     0.075 C 
ENDBRANCH  13  16
ENDBRANCH   8  13
BRANCH  12  19
ATOM     19  N   UNL A   1      32.087  28.534  25.097  1.00  0.00    -0.332 N 
ATOM     20  C   UNL A   1      32.797  29.750  25.481  1.00  0.00     0.333 C 
ATOM     21  H   UNL A   1      32.605  28.128  24.318  1.00  0.00     0.348 HD
BRANCH  19  22
ATOM     22  C   UNL A   1      30.802  28.760  24.434  1.00  0.00     0.184 C 
ATOM     23  C   UNL A   1      30.399  30.200  24.052  1.00  0.00     0.065 C 
ATOM     24  C   UNL A   1      30.646  28.088  23.061  1.00  0.00     0.065 C 
ATOM     25  C   UNL A   1      29.167  30.022  23.165  1.00  0.00     0.006 C 
ATOM     26  C   UNL A   1      29.319  28.643  22.531  1.00  0.00     0.006 C 
ENDBRANCH  19  22
ENDBRANCH  12  19
ENDBRANCH   5   8
ENDBRANCH   3   4
ENDBRANCH   2   3
ENDBRANCH   1   2
BRANCH   1  27
ATOM     27  C   UNL A   1      37.256  20.355  24.607  1.00  0.00     0.002 C 
BRANCH  27  28
ATOM     28  C   UNL A   1      38.350  19.337  24.974  1.00  0.00     0.021 C 
BRANCH  28  29
ATOM     29  C   UNL A   1      39.336  19.748  26.072  1.00  0.00     0.116 C 
BRANCH  29  30
ATOM     30  N   UNL A   1      40.584  19.004  26.005  1.00  0.00    -0.352 N 
ATOM     31  C   UNL A   1      41.879  19.450  26.021  1.00  0.00     0.251 C 
ATOM     32  H   UNL A   1      40.482  18.028  25.939  1.00  0.00     0.163 HD
ATOM     33  O   UNL A   1      42.795  18.675  25.728  1.00  0.00    -0.269 OA
BRANCH  31  34
ATOM     34  C   UNL A   1      42.208  20.847  26.372  1.00  0.00     0.039 A 
ATOM     35  C   UNL A   1      42.376  21.183  27.720  1.00  0.00     0.014 A 
ATOM     36  C   UNL A   1      42.276  21.843  25.393  1.00  0.00     0.014 A 
ATOM     37  C   UNL A   1      42.675  22.500  28.081  1.00  0.00     0.010 A 
ATOM     38  C   UNL A   1      42.615  23.150  25.751  1.00  0.00     0.010 A 
ATOM     39  C   UNL A   1      42.824  23.491  27.097  1.00  0.00    -0.014 A 
BRANCH  39  40
ATOM     40  C   UNL A   1      43.235  24.873  27.456  1.00  0.00     0.031 A 
ATOM     41  C   UNL A   1      42.240  25.855  28.009  1.00  0.00     0.074 A 
ATOM     42  C   UNL A   1      44.500  25.268  27.218  1.00  0.00     0.049 A 
ATOM     43  N   UNL A   1      42.405  27.118  28.313  1.00  0.00    -0.248 NA
ATOM     44  C   UNL A   1      40.874  25.356  28.233  1.00  0.00     0.031 C 
ATOM     45  C   UNL A   1      45.555  24.424  26.653  1.00  0.00     0.029 A 
ATOM     46  N   UNL A   1      45.112  26.482  27.408  1.00  0.00    -0.354 N 
ATOM     47  C   UNL A   1      41.166  27.570  28.747  1.00  0.00     0.074 A 
ATOM     48  C   UNL A   1      40.249  26.454  28.635  1.00  0.00     0.031 C 
ATOM     49  C   UNL A   1      46.686  25.142  26.555  1.00  0.00     0.029 A 
ATOM     50  C   UNL A   1      46.429  26.501  27.018  1.00  0.00     0.049 A 
ATOM     51  H   UNL A   1      44.651  27.265  27.788  1.00  0.00     0.167 HD
ATOM     52  C   UNL A   1      40.826  28.798  29.209  1.00  0.00     0.037 A 
ATOM     53  C   UNL A   1      47.327  27.505  27.022  1.00  0.00     0.037 A 
ATOM     54  C   UNL A   1      41.743  29.900  29.345  1.00  0.00     0.049 A 
ATOM     55  C   UNL A   1      46.919  28.862  27.516  1.00  0.00     0.074 A 
ATOM     56  C   UNL A   1      41.513  31.153  29.890  1.00  0.00     0.029 A 
ATOM     57  N   UNL A   1      43.064  29.885  28.924  1.00  0.00    -0.354 N 
ATOM     58  N   UNL A   1      45.763  29.255  27.991  1.00  0.00    -0.248 NA
ATOM     59  C   UNL A   1      47.941  29.919  27.469  1.00  0.00     0.031 C 
ATOM     60  C   UNL A   1      42.683  31.910  29.757  1.00  0.00     0.029 A 
ATOM     61  C   UNL A   1      43.652  31.118  29.164  1.00  0.00     0.049 A 
ATOM     62  H   UNL A   1      43.518  29.113  28.516  1.00  0.00     0.167 HD
ATOM     63  C   UNL A   1      45.920  30.595  28.314  1.00  0.00     0.074 A 
ATOM     64  C   UNL A   1      47.289  30.947  27.995  1.00  0.00     0.031 C 
ATOM     65  C   UNL A   1      45.010  31.458  28.829  1.00  0.00     0.037 A 
BRANCH  52  66
ATOM     66  C   UNL A   1      39.394  29.019  29.599  1.00  0.00     0.057 A 
ATOM     67  C   UNL A   1      38.435  29.455  28.676  1.00  0.00     0.134 A 
ATOM     68  C   UNL A   1      38.960  28.752  30.904  1.00  0.00     0.134 A 
ATOM     69  F   UNL A   1      38.787  29.735  27.411  1.00  0.00    -0.206 F 
ATOM     70  C   UNL A   1      37.102  29.645  29.043  1.00  0.00     0.040 A 
ATOM     71  C   UNL A   1      37.625  28.916  31.277  1.00  0.00     0.040 A 
ATOM     72  F   UNL A   1      39.825  28.322  31.836  1.00  0.00    -0.206 F 
ATOM     73  C   UNL A   1      36.693  29.369  30.347  1.00  0.00     0.006 A 
ENDBRANCH  52  66
BRANCH  53  74
ATOM     74  C   UNL A   1      48.712  27.256  26.553  1.00  0.00     0.057 A 
ATOM     75  C   UNL A   1      49.044  27.380  25.200  1.00  0.00     0.134 A 
ATOM     76  C   UNL A   1      49.734  26.897  27.440  1.00  0.00     0.134 A 
ATOM     77  F   UNL A   1      48.101  27.700  24.301  1.00  0.00    -0.206 F 
ATOM     78  C   UNL A   1      50.342  27.148  24.741  1.00  0.00     0.040 A 
ATOM     79  C   UNL A   1      51.041  26.683  26.999  1.00  0.00     0.040 A 
ATOM     80  F   UNL A   1      49.479  26.766  28.750  1.00  0.00    -0.206 F 
ATOM     81  C   UNL A   1      51.346  26.805  25.644  1.00  0.00     0.006 A 
ENDBRANCH  53  74
BRANCH  65  82
ATOM     82  C   UNL A   1      45.469  32.864  29.082  1.00  0.00     0.057 A 
ATOM     83  C   UNL A   1      45.265  33.881  28.141  1.00  0.00     0.134 A 
ATOM     84  C   UNL A   1      46.090  33.210  30.288  1.00  0.00     0.134 A 
ATOM     85  F   UNL A   1      44.690  33.609  26.959  1.00  0.00    -0.206 F 
ATOM     86  C   UNL A   1      45.678  35.191  28.384  1.00  0.00     0.040 A 
ATOM     87  C   UNL A   1      46.487  34.522  30.552  1.00  0.00     0.040 A 
ATOM     88  F   UNL A   1      46.310  32.283  31.231  1.00  0.00    -0.206 F 
ATOM     89  C   UNL A   1      46.285  35.516  29.596  1.00  0.00     0.006 A 
ENDBRANCH  65  82
ENDBRANCH  39  40
ENDBRANCH  31  34
ENDBRANCH  29  30
ENDBRANCH  28  29
ENDBRANCH  27  28
ENDBRANCH   1  27
TORSDOF 17
ENDMDL
MODEL 2
REMARK VINA RESULT:     -10.5      1.580      6.221
REMARK SMILES CC(C)[NH2+][C@]1(C(=O)NCCCCCCNC(=O)c2ccc(-c3c4nc(c(-c5c(F)cccc5F)c5ccc([nH]5)c(-c5c(F)cccc5F)c5nc(c(-c6c(F)cccc6F)c6ccc3[nH]6)C=C5)C=C4)cc2)CC[C@H]([N@H+](C)C2CCCC2)C1
REMARK SMILES IDX 11 1 10 2 9 3 8 4 6 5 7 6 5 8 72 9 82 10 73 11 74 12 4 13
REMARK SMILES IDX 2 16 1 17 3 18 75 19 76 20 77 22 78 23 81 24 79 25 80 26
REMARK SMILES IDX 12 27 13 28 14 29 15 30 16 31 17 33 18 34 19 35 71 36 20 37
REMARK SMILES IDX 70 38 21 39 22 40 23 41 64 42 24 43 69 44 63 45 65 46 25 47
REMARK SMILES IDX 68 48 62 49 61 50 26 52 52 53 35 54 51 55 36 56 39 57 50 58
REMARK SMILES IDX 66 59 37 60 38 61 49 63 67 64 40 65 27 66 28 67 33 68 29 69
REMARK SMILES IDX 30 70 32 71 34 72 31 73 53 74 54 75 59 76 55 77 56 78 58 79
REMARK SMILES IDX 60 80 57 81 41 82 42 83 47 84 43 85 44 86 46 87 48 88 45 89
REMARK H PARENT 8 7 4 14 4 15 75 21 15 32 65 51 39 62
REMARK Flexibility Score: inf
ROOT
ATOM      1  C   UNL A   1      37.575  21.663  25.037  1.00  0.00     0.002 C 
ENDROOT
BRANCH   1   2
ATOM      2  C   UNL A   1      36.851  22.691  24.171  1.00  0.00     0.021 C 
BRANCH   2   3
ATOM      3  C   UNL A   1      36.118  23.864  24.856  1.00  0.00     0.116 C 
BRANCH   3   4
ATOM      4  N   UNL A   1      35.152  23.401  25.849  1.00  0.00    -0.351 N 
ATOM      5  C   UNL A   1      33.924  23.800  26.282  1.00  0.00     0.281 C 
ATOM      6  O   UNL A   1      33.481  23.093  27.205  1.00  0.00    -0.268 OA
ATOM      7  H   UNL A   1      35.468  22.600  26.325  1.00  0.00     0.163 HD
BRANCH   5   8
ATOM      8  C   UNL A   1      33.021  24.954  25.710  1.00  0.00     0.181 C 
ATOM      9  C   UNL A   1      31.721  25.034  26.553  1.00  0.00     0.085 C 
ATOM     10  C   UNL A   1      33.594  26.354  26.092  1.00  0.00     0.144 C 
ATOM     11  C   UNL A   1      31.186  26.461  26.337  1.00  0.00     0.072 C 
ATOM     12  C   UNL A   1      32.429  27.371  26.135  1.00  0.00     0.191 C 
BRANCH   8  13
ATOM     13  N   UNL A   1      32.609  24.838  24.294  1.00  0.00    -0.331 N 
ATOM     14  H   UNL A   1      31.928  25.579  24.130  1.00  0.00     0.347 HD
ATOM     15  H   UNL A   1      33.501  24.877  23.802  1.00  0.00     0.347 HD
BRANCH  13  16
ATOM     16  C   UNL A   1      32.014  23.611  23.770  1.00  0.00     0.176 C 
ATOM     17  C   UNL A   1      30.591  23.850  23.239  1.00  0.00     0.075 C 
ATOM     18  C   UNL A   1      32.828  22.683  22.872  1.00  0.00     0.075 C 
ENDBRANCH  13  16
ENDBRANCH   8  13
BRANCH  12  19
ATOM     19  N   UNL A   1      32.329  28.471  25.136  1.00  0.00    -0.332 N 
ATOM     20  C   UNL A   1      32.969  29.711  25.563  1.00  0.00     0.333 C 
ATOM     21  H   UNL A   1      32.902  28.094  24.381  1.00  0.00     0.348 HD
BRANCH  19  22
ATOM     22  C   UNL A   1      31.071  28.651  24.411  1.00  0.00     0.184 C 
ATOM     23  C   UNL A   1      30.523  30.078  24.204  1.00  0.00     0.065 C 
ATOM     24  C   UNL A   1      31.084  28.176  22.949  1.00  0.00     0.065 C 
ATOM     25  C   UNL A   1      29.379  29.899  23.205  1.00  0.00     0.006 C 
ATOM     26  C   UNL A   1      29.736  28.654  22.398  1.00  0.00     0.006 C 
ENDBRANCH  19  22
ENDBRANCH  12  19
ENDBRANCH   5   8
ENDBRANCH   3   4
ENDBRANCH   2   3
ENDBRANCH   1   2
BRANCH   1  27
ATOM     27  C   UNL A   1      37.364  20.199  24.636  1.00  0.00     0.002 C 
BRANCH  27  28
ATOM     28  C   UNL A   1      38.472  19.195  25.000  1.00  0.00     0.021 C 
BRANCH  28  29
ATOM     29  C   UNL A   1      39.443  19.610  26.110  1.00  0.00     0.116 C 
BRANCH  29  30
ATOM     30  N   UNL A   1      40.752  18.995  25.962  1.00  0.00    -0.352 N 
ATOM     31  C   UNL A   1      42.002  19.554  26.023  1.00  0.00     0.251 C 
ATOM     32  H   UNL A   1      40.739  18.026  25.792  1.00  0.00     0.163 HD
ATOM     33  O   UNL A   1      42.981  18.901  25.647  1.00  0.00    -0.269 OA
BRANCH  31  34
ATOM     34  C   UNL A   1      42.207  20.929  26.521  1.00  0.00     0.039 A 
ATOM     35  C   UNL A   1      42.142  21.166  27.898  1.00  0.00     0.014 A 
ATOM     36  C   UNL A   1      42.385  22.000  25.639  1.00  0.00     0.014 A 
ATOM     37  C   UNL A   1      42.319  22.460  28.396  1.00  0.00     0.010 A 
ATOM     38  C   UNL A   1      42.602  23.286  26.139  1.00  0.00     0.010 A 
ATOM     39  C   UNL A   1      42.578  23.529  27.521  1.00  0.00    -0.014 A 
BRANCH  39  40
ATOM     40  C   UNL A   1      42.863  24.892  28.040  1.00  0.00     0.031 A 
ATOM     41  C   UNL A   1      44.253  25.284  28.458  1.00  0.00     0.074 A 
ATOM     42  C   UNL A   1      41.847  25.761  28.201  1.00  0.00     0.049 A 
ATOM     43  N   UNL A   1      44.670  26.403  28.995  1.00  0.00    -0.248 NA
ATOM     44  C   UNL A   1      45.309  24.279  28.263  1.00  0.00     0.031 C 
ATOM     45  C   UNL A   1      40.446  25.494  27.867  1.00  0.00     0.029 A 
ATOM     46  N   UNL A   1      41.831  27.041  28.698  1.00  0.00    -0.354 N 
ATOM     47  C   UNL A   1      46.030  26.233  29.218  1.00  0.00     0.074 A 
ATOM     48  C   UNL A   1      46.362  24.891  28.788  1.00  0.00     0.031 C 
ATOM     49  C   UNL A   1      39.712  26.580  28.156  1.00  0.00     0.029 A 
ATOM     50  C   UNL A   1      40.580  27.605  28.724  1.00  0.00     0.049 A 
ATOM     51  H   UNL A   1      42.641  27.509  29.006  1.00  0.00     0.167 HD
ATOM     52  C   UNL A   1      46.923  27.121  29.721  1.00  0.00     0.037 A 
ATOM     53  C   UNL A   1      40.173  28.811  29.167  1.00  0.00     0.037 A 
ATOM     54  C   UNL A   1      46.599  28.465  30.123  1.00  0.00     0.049 A 
ATOM     55  C   UNL A   1      41.179  29.766  29.742  1.00  0.00     0.074 A 
ATOM     56  C   UNL A   1      47.452  29.466  30.557  1.00  0.00     0.029 A 
ATOM     57  N   UNL A   1      45.317  28.994  30.149  1.00  0.00    -0.354 N 
ATOM     58  N   UNL A   1      42.473  29.619  29.879  1.00  0.00    -0.248 NA
ATOM     59  C   UNL A   1      40.664  31.054  30.229  1.00  0.00     0.031 C 
ATOM     60  C   UNL A   1      46.681  30.586  30.888  1.00  0.00     0.029 A 
ATOM     61  C   UNL A   1      45.352  30.295  30.626  1.00  0.00     0.049 A 
ATOM     62  H   UNL A   1      44.503  28.517  29.870  1.00  0.00     0.167 HD
ATOM     63  C   UNL A   1      42.931  30.797  30.452  1.00  0.00     0.074 A 
ATOM     64  C   UNL A   1      41.778  31.656  30.624  1.00  0.00     0.031 C 
ATOM     65  C   UNL A   1      44.195  31.135  30.806  1.00  0.00     0.037 A 
BRANCH  52  66
ATOM     66  C   UNL A   1      48.344  26.662  29.871  1.00  0.00     0.057 A 
ATOM     67  C   UNL A   1      49.306  26.900  28.882  1.00  0.00     0.134 A 
ATOM     68  C   UNL A   1      48.764  26.010  31.039  1.00  0.00     0.134 A 
ATOM     69  F   UNL A   1      48.967  27.513  27.737  1.00  0.00    -0.206 F 
ATOM     70  C   UNL A   1      50.629  26.481  29.036  1.00  0.00     0.040 A 
ATOM     71  C   UNL A   1      50.089  25.609  31.213  1.00  0.00     0.040 A 
ATOM     72  F   UNL A   1      47.895  25.760  32.030  1.00  0.00    -0.206 F 
ATOM     73  C   UNL A   1      51.025  25.839  30.207  1.00  0.00     0.006 A 
ENDBRANCH  52  66
BRANCH  53  74
ATOM     74  C   UNL A   1      38.743  29.188  29.067  1.00  0.00     0.057 A 
ATOM     75  C   UNL A   1      37.897  29.094  30.177  1.00  0.00     0.134 A 
ATOM     76  C   UNL A   1      38.189  29.658  27.870  1.00  0.00     0.134 A 
ATOM     77  F   UNL A   1      38.368  28.630  31.345  1.00  0.00    -0.206 F 
ATOM     78  C   UNL A   1      36.548  29.444  30.101  1.00  0.00     0.040 A 
ATOM     79  C   UNL A   1      36.846  30.032  27.785  1.00  0.00     0.040 A 
ATOM     80  F   UNL A   1      38.949  29.775  26.772  1.00  0.00    -0.206 F 
ATOM     81  C   UNL A   1      36.021  29.921  28.903  1.00  0.00     0.006 A 
ENDBRANCH  53  74
BRANCH  65  82
ATOM     82  C   UNL A   1      44.396  32.493  31.409  1.00  0.00     0.057 A 
ATOM     83  C   UNL A   1      44.371  32.689  32.795  1.00  0.00     0.134 A 
ATOM     84  C   UNL A   1      44.647  33.608  30.600  1.00  0.00     0.134 A 
ATOM     85  F   UNL A   1      44.119  31.664  33.622  1.00  0.00    -0.206 F 
ATOM     86  C   UNL A   1      44.573  33.951  33.356  1.00  0.00     0.040 A 
ATOM     87  C   UNL A   1      44.873  34.871  31.150  1.00  0.00     0.040 A 
ATOM     88  F   UNL A   1      44.688  33.486  29.265  1.00  0.00    -0.206 F 
ATOM     89  C   UNL A   1      44.832  35.045  32.532  1.00  0.00     0.006 A 
ENDBRANCH  65  82
ENDBRANCH  39  40
ENDBRANCH  31  34
ENDBRANCH  29  30
ENDBRANCH  28  29
ENDBRANCH  27  28
ENDBRANCH   1  27
TORSDOF 17
ENDMDL
MODEL 3
REMARK VINA RESULT:     -10.5      5.500     10.175
REMARK SMILES CC(C)[NH2+][C@]1(C(=O)NCCCCCCNC(=O)c2ccc(-c3c4nc(c(-c5c(F)cccc5F)c5ccc([nH]5)c(-c5c(F)cccc5F)c5nc(c(-c6c(F)cccc6F)c6ccc3[nH]6)C=C5)C=C4)cc2)CC[C@H]([N@H+](C)C2CCCC2)C1
REMARK SMILES IDX 11 1 10 2 9 3 8 4 6 5 7 6 5 8 72 9 82 10 73 11 74 12 4 13
REMARK SMILES IDX 2 16 1 17 3 18 75 19 76 20 77 22 78 23 81 24 79 25 80 26
REMARK SMILES IDX 12 27 13 28 14 29 15 30 16 31 17 33 18 34 19 35 71 36 20 37
REMARK SMILES IDX 70 38 21 39 22 40 23 41 64 42 24 43 69 44 63 45 65 46 25 47
REMARK SMILES IDX 68 48 62 49 61 50 26 52 52 53 35 54 51 55 36 56 39 57 50 58
REMARK SMILES IDX 66 59 37 60 38 61 49 63 67 64 40 65 27 66 28 67 33 68 29 69
REMARK SMILES IDX 30 70 32 71 34 72 31 73 53 74 54 75 59 76 55 77 56 78 58 79
REMARK SMILES IDX 60 80 57 81 41 82 42 83 47 84 43 85 44 86 46 87 48 88 45 89
REMARK H PARENT 8 7 4 14 4 15 75 21 15 32 65 51 39 62
REMARK Flexibility Score: inf
ROOT
ATOM      1  C   UNL A   1      34.521  31.802  28.690  1.00  0.00     0.002 C 
ENDROOT
BRANCH   1   2
ATOM      2  C   UNL A   1      34.589  30.684  27.654  1.00  0.00     0.021 C 
BRANCH   2   3
ATOM      3  C   UNL A   1      33.341  30.379  26.799  1.00  0.00     0.116 C 
BRANCH   3   4
ATOM      4  N   UNL A   1      32.439  29.442  27.463  1.00  0.00    -0.351 N 
ATOM      5  C   UNL A   1      31.960  28.192  27.206  1.00  0.00     0.281 C 
ATOM      6  O   UNL A   1      31.160  27.791  28.070  1.00  0.00    -0.268 OA
ATOM      7  H   UNL A   1      32.088  29.803  28.308  1.00  0.00     0.163 HD
BRANCH   5   8
ATOM      8  C   UNL A   1      32.356  27.224  26.033  1.00  0.00     0.181 C 
ATOM      9  C   UNL A   1      33.901  27.088  25.998  1.00  0.00     0.085 C 
ATOM     10  C   UNL A   1      32.033  25.741  26.397  1.00  0.00     0.144 C 
ATOM     11  C   UNL A   1      34.176  25.762  25.266  1.00  0.00     0.072 C 
ATOM     12  C   UNL A   1      32.991  24.817  25.609  1.00  0.00     0.191 C 
BRANCH   8  13
ATOM     13  N   UNL A   1      31.928  27.615  24.671  1.00  0.00    -0.331 N 
ATOM     14  H   UNL A   1      32.562  28.357  24.372  1.00  0.00     0.347 HD
ATOM     15  H   UNL A   1      31.947  26.726  24.171  1.00  0.00     0.347 HD
BRANCH  13  16
ATOM     16  C   UNL A   1      30.576  28.097  24.405  1.00  0.00     0.176 C 
ATOM     17  C   UNL A   1      30.581  29.531  23.849  1.00  0.00     0.075 C 
ATOM     18  C   UNL A   1      29.561  27.199  23.702  1.00  0.00     0.075 C 
ENDBRANCH  13  16
ENDBRANCH   8  13
BRANCH  12  19
ATOM     19  N   UNL A   1      32.485  23.919  24.535  1.00  0.00    -0.332 N 
ATOM     20  C   UNL A   1      31.031  23.931  24.397  1.00  0.00     0.333 C 
ATOM     21  H   UNL A   1      32.858  24.385  23.708  1.00  0.00     0.348 HD
BRANCH  19  22
ATOM     22  C   UNL A   1      33.104  22.604  24.366  1.00  0.00     0.184 C 
ATOM     23  C   UNL A   1      34.265  22.197  25.298  1.00  0.00     0.065 C 
ATOM     24  C   UNL A   1      32.169  21.406  24.597  1.00  0.00     0.065 C 
ATOM     25  C   UNL A   1      34.466  20.708  25.017  1.00  0.00     0.006 C 
ATOM     26  C   UNL A   1      33.108  20.196  24.547  1.00  0.00     0.006 C 
ENDBRANCH  19  22
ENDBRANCH  12  19
ENDBRANCH   5   8
ENDBRANCH   3   4
ENDBRANCH   2   3
ENDBRANCH   1   2
BRANCH   1  27
ATOM     27  C   UNL A   1      34.489  33.226  28.121  1.00  0.00     0.002 C 
BRANCH  27  28
ATOM     28  C   UNL A   1      33.256  34.091  28.438  1.00  0.00     0.021 C 
BRANCH  28  29
ATOM     29  C   UNL A   1      33.521  35.515  28.937  1.00  0.00     0.116 C 
BRANCH  29  30
ATOM     30  N   UNL A   1      32.739  35.844  30.118  1.00  0.00    -0.352 N 
ATOM     31  C   UNL A   1      32.879  35.426  31.415  1.00  0.00     0.251 C 
ATOM     32  H   UNL A   1      31.992  36.466  29.961  1.00  0.00     0.163 HD
ATOM     33  O   UNL A   1      31.975  35.645  32.228  1.00  0.00    -0.269 OA
BRANCH  31  34
ATOM     34  C   UNL A   1      34.088  34.706  31.865  1.00  0.00     0.039 A 
ATOM     35  C   UNL A   1      33.953  33.410  32.373  1.00  0.00     0.014 A 
ATOM     36  C   UNL A   1      35.341  35.325  31.863  1.00  0.00     0.014 A 
ATOM     37  C   UNL A   1      35.079  32.711  32.818  1.00  0.00     0.010 A 
ATOM     38  C   UNL A   1      36.472  34.613  32.270  1.00  0.00     0.010 A 
ATOM     39  C   UNL A   1      36.354  33.297  32.745  1.00  0.00    -0.014 A 
BRANCH  39  40
ATOM     40  C   UNL A   1      37.571  32.533  33.124  1.00  0.00     0.031 A 
ATOM     41  C   UNL A   1      38.309  32.840  34.397  1.00  0.00     0.074 A 
ATOM     42  C   UNL A   1      38.054  31.602  32.279  1.00  0.00     0.049 A 
ATOM     43  N   UNL A   1      39.423  32.323  34.852  1.00  0.00    -0.248 NA
ATOM     44  C   UNL A   1      37.728  33.876  35.264  1.00  0.00     0.031 C 
ATOM     45  C   UNL A   1      37.454  31.232  30.997  1.00  0.00     0.029 A 
ATOM     46  N   UNL A   1      39.169  30.805  32.365  1.00  0.00    -0.354 N 
ATOM     47  C   UNL A   1      39.686  32.981  36.047  1.00  0.00     0.074 A 
ATOM     48  C   UNL A   1      38.633  33.957  36.230  1.00  0.00     0.031 C 
ATOM     49  C   UNL A   1      38.198  30.273  30.423  1.00  0.00     0.029 A 
ATOM     50  C   UNL A   1      39.343  29.984  31.279  1.00  0.00     0.049 A 
ATOM     51  H   UNL A   1      39.785  30.821  33.134  1.00  0.00     0.167 HD
ATOM     52  C   UNL A   1      40.705  32.778  36.918  1.00  0.00     0.037 A 
ATOM     53  C   UNL A   1      40.322  29.102  30.997  1.00  0.00     0.037 A 
ATOM     54  C   UNL A   1      41.738  31.789  36.750  1.00  0.00     0.049 A 
ATOM     55  C   UNL A   1      41.452  28.915  31.968  1.00  0.00     0.074 A 
ATOM     56  C   UNL A   1      42.757  31.448  37.623  1.00  0.00     0.029 A 
ATOM     57  N   UNL A   1      41.889  30.988  35.628  1.00  0.00    -0.354 N 
ATOM     58  N   UNL A   1      41.648  29.491  33.127  1.00  0.00    -0.248 NA
ATOM     59  C   UNL A   1      42.500  27.957  31.586  1.00  0.00     0.031 C 
ATOM     60  C   UNL A   1      43.551  30.472  37.010  1.00  0.00     0.029 A 
ATOM     61  C   UNL A   1      43.005  30.178  35.771  1.00  0.00     0.049 A 
ATOM     62  H   UNL A   1      41.291  30.992  34.847  1.00  0.00     0.167 HD
ATOM     63  C   UNL A   1      42.830  28.958  33.622  1.00  0.00     0.074 A 
ATOM     64  C   UNL A   1      43.300  27.999  32.643  1.00  0.00     0.031 C 
ATOM     65  C   UNL A   1      43.470  29.239  34.784  1.00  0.00     0.037 A 
BRANCH  52  66
ATOM     66  C   UNL A   1      40.756  33.653  38.137  1.00  0.00     0.057 A 
ATOM     67  C   UNL A   1      39.970  33.394  39.267  1.00  0.00     0.134 A 
ATOM     68  C   UNL A   1      41.634  34.744  38.196  1.00  0.00     0.134 A 
ATOM     69  F   UNL A   1      39.104  32.368  39.271  1.00  0.00    -0.206 F 
ATOM     70  C   UNL A   1      40.034  34.204  40.401  1.00  0.00     0.040 A 
ATOM     71  C   UNL A   1      41.723  35.547  39.334  1.00  0.00     0.040 A 
ATOM     72  F   UNL A   1      42.423  35.042  37.153  1.00  0.00    -0.206 F 
ATOM     73  C   UNL A   1      40.917  35.281  40.439  1.00  0.00     0.006 A 
ENDBRANCH  52  66
BRANCH  53  74
ATOM     74  C   UNL A   1      40.267  28.317  29.740  1.00  0.00     0.057 A 
ATOM     75  C   UNL A   1      39.494  27.154  29.655  1.00  0.00     0.134 A 
ATOM     76  C   UNL A   1      40.974  28.709  28.597  1.00  0.00     0.134 A 
ATOM     77  F   UNL A   1      38.812  26.718  30.725  1.00  0.00    -0.206 F 
ATOM     78  C   UNL A   1      39.430  26.403  28.481  1.00  0.00     0.040 A 
ATOM     79  C   UNL A   1      40.903  27.979  27.410  1.00  0.00     0.040 A 
ATOM     80  F   UNL A   1      41.729  29.817  28.615  1.00  0.00    -0.206 F 
ATOM     81  C   UNL A   1      40.132  26.819  27.351  1.00  0.00     0.006 A 
ENDBRANCH  53  74
BRANCH  65  82
ATOM     82  C   UNL A   1      44.743  28.496  35.060  1.00  0.00     0.057 A 
ATOM     83  C   UNL A   1      44.739  27.250  35.698  1.00  0.00     0.134 A 
ATOM     84  C   UNL A   1      45.979  29.014  34.655  1.00  0.00     0.134 A 
ATOM     85  F   UNL A   1      43.588  26.707  36.125  1.00  0.00    -0.206 F 
ATOM     86  C   UNL A   1      45.923  26.552  35.941  1.00  0.00     0.040 A 
ATOM     87  C   UNL A   1      47.167  28.316  34.871  1.00  0.00     0.040 A 
ATOM     88  F   UNL A   1      46.049  30.200  34.034  1.00  0.00    -0.206 F 
ATOM     89  C   UNL A   1      47.142  27.082  35.521  1.00  0.00     0.006 A 
ENDBRANCH  65  82
ENDBRANCH  39  40
ENDBRANCH  31  34
ENDBRANCH  29  30
ENDBRANCH  28  29
ENDBRANCH  27  28
ENDBRANCH   1  27
TORSDOF 17
ENDMDL
