MODEL 1
REMARK VINA RESULT:     -10.3      0.000      0.000
REMARK SMILES Cn1nc(C2CC2)cc1CSCCC(=O)NCCCCCCNC(=O)c1ccc(-c2c3nc(c(-c4c(F)cccc4F)c4ccc([nH]4)c(-c4c(F)cccc4F)c4nc(c(-c5c(F)cccc5F)c5ccc2[nH]5)C=C4)C=C3)cc1
REMARK SMILES IDX 18 1 17 2 16 3 14 4 15 5 13 7 12 8 11 9 10 10 9 11 1 12 2 13
REMARK SMILES IDX 3 14 4 15 8 16 5 17 6 18 7 19 19 20 20 21 21 22 22 23 23 24
REMARK SMILES IDX 24 25 25 27 26 28 27 29 79 30 28 31 78 32 29 33 30 34 31 35
REMARK SMILES IDX 72 36 32 37 77 38 71 39 73 40 33 41 76 42 70 43 69 44 34 46
REMARK SMILES IDX 60 47 43 48 59 49 44 50 47 51 58 52 74 53 45 54 46 55 57 57
REMARK SMILES IDX 75 58 48 59 35 60 36 61 41 62 37 63 38 64 40 65 42 66 39 67
REMARK SMILES IDX 61 68 62 69 67 70 63 71 64 72 66 73 68 74 65 75 49 76 50 77
REMARK SMILES IDX 55 78 51 79 52 80 54 81 56 82 53 83
REMARK H PARENT 16 6 23 26 73 45 47 56
REMARK Flexibility Score: inf
ROOT
ATOM      1  C   UNL A   1      32.050  28.581  27.376  1.00  0.00     0.021 C 
ENDROOT
BRANCH   1   2
ATOM      2  C   UNL A   1      32.193  27.164  26.812  1.00  0.00     0.116 C 
BRANCH   2   3
ATOM      3  N   UNL A   1      30.984  26.363  26.921  1.00  0.00    -0.356 N 
ATOM      4  C   UNL A   1      30.650  25.144  26.415  1.00  0.00     0.220 C 
ATOM      5  O   UNL A   1      29.504  24.734  26.614  1.00  0.00    -0.275 OA
ATOM      6  H   UNL A   1      30.275  26.780  27.463  1.00  0.00     0.163 HD
BRANCH   4   7
ATOM      7  C   UNL A   1      31.625  24.343  25.587  1.00  0.00     0.111 C 
BRANCH   7   8
ATOM      8  C   UNL A   1      31.013  23.834  24.282  1.00  0.00     0.080 C 
BRANCH   8   9
ATOM      9  S   UNL A   1      31.687  24.609  22.778  1.00  0.00    -0.155 SA
BRANCH   9  10
ATOM     10  C   UNL A   1      32.359  26.143  23.468  1.00  0.00     0.125 C 
BRANCH  10  11
ATOM     11  C   UNL A   1      31.484  27.314  23.319  1.00  0.00     0.048 A 
ATOM     12  C   UNL A   1      33.222  28.987  22.537  1.00  0.00     0.174 C 
ATOM     13  N   UNL A   1      31.880  28.533  22.825  1.00  0.00    -0.272 N 
ATOM     14  N   UNL A   1      30.834  29.334  22.522  1.00  0.00    -0.178 NA
ATOM     15  C   UNL A   1      29.769  28.612  22.870  1.00  0.00     0.066 A 
ATOM     16  C   UNL A   1      30.117  27.378  23.435  1.00  0.00     0.050 A 
BRANCH  15  17
ATOM     17  C   UNL A   1      28.345  29.056  22.607  1.00  0.00     0.040 C 
ATOM     18  C   UNL A   1      27.879  30.375  23.202  1.00  0.00     0.011 C 
ATOM     19  C   UNL A   1      28.105  30.271  21.733  1.00  0.00     0.011 C 
ENDBRANCH  15  17
ENDBRANCH  10  11
ENDBRANCH   9  10
ENDBRANCH   8   9
ENDBRANCH   7   8
ENDBRANCH   4   7
ENDBRANCH   2   3
ENDBRANCH   1   2
BRANCH   1  20
ATOM     20  C   UNL A   1      32.607  29.712  26.492  1.00  0.00     0.002 C 
BRANCH  20  21
ATOM     21  C   UNL A   1      31.550  30.618  25.861  1.00  0.00     0.002 C 
BRANCH  21  22
ATOM     22  C   UNL A   1      31.373  31.971  26.553  1.00  0.00     0.021 C 
BRANCH  22  23
ATOM     23  C   UNL A   1      32.652  32.546  27.157  1.00  0.00     0.116 C 
BRANCH  23  24
ATOM     24  N   UNL A   1      32.497  33.950  27.507  1.00  0.00    -0.352 N 
ATOM     25  C   UNL A   1      33.117  34.634  28.524  1.00  0.00     0.251 C 
ATOM     26  H   UNL A   1      31.875  34.471  26.949  1.00  0.00     0.163 HD
ATOM     27  O   UNL A   1      32.719  35.740  28.880  1.00  0.00    -0.269 OA
BRANCH  25  28
ATOM     28  C   UNL A   1      34.270  34.006  29.200  1.00  0.00     0.039 A 
ATOM     29  C   UNL A   1      34.047  33.071  30.211  1.00  0.00     0.014 A 
ATOM     30  C   UNL A   1      35.571  34.320  28.794  1.00  0.00     0.014 A 
ATOM     31  C   UNL A   1      35.135  32.406  30.781  1.00  0.00     0.010 A 
ATOM     32  C   UNL A   1      36.646  33.605  29.312  1.00  0.00     0.010 A 
ATOM     33  C   UNL A   1      36.440  32.645  30.316  1.00  0.00    -0.014 A 
BRANCH  33  34
ATOM     34  C   UNL A   1      37.601  31.904  30.871  1.00  0.00     0.031 A 
ATOM     35  C   UNL A   1      38.108  32.220  32.251  1.00  0.00     0.074 A 
ATOM     36  C   UNL A   1      38.233  30.986  30.115  1.00  0.00     0.049 A 
ATOM     37  N   UNL A   1      39.132  31.716  32.892  1.00  0.00    -0.248 NA
ATOM     38  C   UNL A   1      37.385  33.260  33.001  1.00  0.00     0.031 C 
ATOM     39  C   UNL A   1      37.869  30.624  28.743  1.00  0.00     0.029 A 
ATOM     40  N   UNL A   1      39.321  30.194  30.388  1.00  0.00    -0.354 N 
ATOM     41  C   UNL A   1      39.180  32.382  34.110  1.00  0.00     0.074 A 
ATOM     42  C   UNL A   1      38.121  33.366  34.096  1.00  0.00     0.031 C 
ATOM     43  C   UNL A   1      38.701  29.665  28.306  1.00  0.00     0.029 A 
ATOM     44  C   UNL A   1      39.681  29.373  29.348  1.00  0.00     0.049 A 
ATOM     45  H   UNL A   1      39.798  30.215  31.249  1.00  0.00     0.167 HD
ATOM     46  C   UNL A   1      40.015  32.174  35.157  1.00  0.00     0.037 A 
ATOM     47  C   UNL A   1      40.690  28.487  29.244  1.00  0.00     0.037 A 
ATOM     48  C   UNL A   1      41.057  31.182  35.174  1.00  0.00     0.049 A 
ATOM     49  C   UNL A   1      41.614  28.286  30.415  1.00  0.00     0.074 A 
ATOM     50  C   UNL A   1      41.917  30.854  36.206  1.00  0.00     0.029 A 
ATOM     51  N   UNL A   1      41.385  30.362  34.104  1.00  0.00    -0.354 N 
ATOM     52  N   UNL A   1      41.601  28.869  31.589  1.00  0.00    -0.248 NA
ATOM     53  C   UNL A   1      42.690  27.299  30.248  1.00  0.00     0.031 C 
ATOM     54  C   UNL A   1      42.802  29.874  35.744  1.00  0.00     0.029 A 
ATOM     55  C   UNL A   1      42.454  29.548  34.443  1.00  0.00     0.049 A 
ATOM     56  H   UNL A   1      40.926  30.359  33.233  1.00  0.00     0.167 HD
ATOM     57  C   UNL A   1      42.643  28.299  32.310  1.00  0.00     0.074 A 
ATOM     58  C   UNL A   1      43.258  27.314  31.445  1.00  0.00     0.031 C 
ATOM     59  C   UNL A   1      43.053  28.567  33.573  1.00  0.00     0.037 A 
BRANCH  46  60
ATOM     60  C   UNL A   1      39.834  33.041  36.370  1.00  0.00     0.057 A 
ATOM     61  C   UNL A   1      38.942  32.701  37.398  1.00  0.00     0.134 A 
ATOM     62  C   UNL A   1      40.585  34.212  36.532  1.00  0.00     0.134 A 
ATOM     63  F   UNL A   1      38.184  31.598  37.302  1.00  0.00    -0.206 F 
ATOM     64  C   UNL A   1      38.783  33.509  38.525  1.00  0.00     0.040 A 
ATOM     65  C   UNL A   1      40.457  35.013  37.669  1.00  0.00     0.040 A 
ATOM     66  F   UNL A   1      41.462  34.595  35.591  1.00  0.00    -0.206 F 
ATOM     67  C   UNL A   1      39.547  34.665  38.666  1.00  0.00     0.006 A 
ENDBRANCH  46  60
BRANCH  47  68
ATOM     68  C   UNL A   1      40.872  27.708  27.992  1.00  0.00     0.057 A 
ATOM     69  C   UNL A   1      40.279  26.450  27.830  1.00  0.00     0.134 A 
ATOM     70  C   UNL A   1      41.651  28.193  26.934  1.00  0.00     0.134 A 
ATOM     71  F   UNL A   1      39.537  25.922  28.814  1.00  0.00    -0.206 F 
ATOM     72  C   UNL A   1      40.470  25.694  26.672  1.00  0.00     0.040 A 
ATOM     73  C   UNL A   1      41.828  27.460  25.760  1.00  0.00     0.040 A 
ATOM     74  F   UNL A   1      42.239  29.395  27.022  1.00  0.00    -0.206 F 
ATOM     75  C   UNL A   1      41.244  26.201  25.631  1.00  0.00     0.006 A 
ENDBRANCH  47  68
BRANCH  59  76
ATOM     76  C   UNL A   1      44.198  27.758  34.113  1.00  0.00     0.057 A 
ATOM     77  C   UNL A   1      44.004  26.509  34.715  1.00  0.00     0.134 A 
ATOM     78  C   UNL A   1      45.515  28.220  33.991  1.00  0.00     0.134 A 
ATOM     79  F   UNL A   1      42.767  26.014  34.875  1.00  0.00    -0.206 F 
ATOM     80  C   UNL A   1      45.078  25.760  35.200  1.00  0.00     0.040 A 
ATOM     81  C   UNL A   1      46.597  27.467  34.443  1.00  0.00     0.040 A 
ATOM     82  F   UNL A   1      45.771  29.404  33.414  1.00  0.00    -0.206 F 
ATOM     83  C   UNL A   1      46.380  26.235  35.057  1.00  0.00     0.006 A 
ENDBRANCH  59  76
ENDBRANCH  33  34
ENDBRANCH  25  28
ENDBRANCH  23  24
ENDBRANCH  22  23
ENDBRANCH  21  22
ENDBRANCH  20  21
ENDBRANCH   1  20
TORSDOF 18
ENDMDL
MODEL 2
REMARK VINA RESULT:     -10.0      0.949      6.344
REMARK SMILES Cn1nc(C2CC2)cc1CSCCC(=O)NCCCCCCNC(=O)c1ccc(-c2c3nc(c(-c4c(F)cccc4F)c4ccc([nH]4)c(-c4c(F)cccc4F)c4nc(c(-c5c(F)cccc5F)c5ccc2[nH]5)C=C4)C=C3)cc1
REMARK SMILES IDX 18 1 17 2 16 3 14 4 15 5 13 7 12 8 11 9 10 10 9 11 1 12 2 13
REMARK SMILES IDX 3 14 4 15 8 16 5 17 6 18 7 19 19 20 20 21 21 22 22 23 23 24
REMARK SMILES IDX 24 25 25 27 26 28 27 29 79 30 28 31 78 32 29 33 30 34 31 35
REMARK SMILES IDX 72 36 32 37 77 38 71 39 73 40 33 41 76 42 70 43 69 44 34 46
REMARK SMILES IDX 60 47 43 48 59 49 44 50 47 51 58 52 74 53 45 54 46 55 57 57
REMARK SMILES IDX 75 58 48 59 35 60 36 61 41 62 37 63 38 64 40 65 42 66 39 67
REMARK SMILES IDX 61 68 62 69 67 70 63 71 64 72 66 73 68 74 65 75 49 76 50 77
REMARK SMILES IDX 55 78 51 79 52 80 54 81 56 82 53 83
REMARK H PARENT 16 6 23 26 73 45 47 56
REMARK Flexibility Score: inf
ROOT
ATOM      1  C   UNL A   1      33.817  29.047  26.682  1.00  0.00     0.021 C 
ENDROOT
BRANCH   1   2
ATOM      2  C   UNL A   1      33.104  27.822  26.101  1.00  0.00     0.116 C 
BRANCH   2   3
ATOM      3  N   UNL A   1      33.999  26.729  25.755  1.00  0.00    -0.356 N 
ATOM      4  C   UNL A   1      33.796  25.388  25.639  1.00  0.00     0.220 C 
ATOM      5  O   UNL A   1      34.775  24.678  25.397  1.00  0.00    -0.275 OA
ATOM      6  H   UNL A   1      34.924  27.012  25.569  1.00  0.00     0.163 HD
BRANCH   4   7
ATOM      7  C   UNL A   1      32.433  24.778  25.855  1.00  0.00     0.111 C 
BRANCH   7   8
ATOM      8  C   UNL A   1      31.958  23.954  24.657  1.00  0.00     0.080 C 
BRANCH   8   9
ATOM      9  S   UNL A   1      30.529  24.658  23.774  1.00  0.00    -0.155 SA
BRANCH   9  10
ATOM     10  C   UNL A   1      31.327  26.021  22.888  1.00  0.00     0.125 C 
BRANCH  10  11
ATOM     11  C   UNL A   1      30.669  27.325  23.053  1.00  0.00     0.048 A 
ATOM     12  C   UNL A   1      32.674  28.818  22.626  1.00  0.00     0.174 C 
ATOM     13  N   UNL A   1      31.272  28.541  22.848  1.00  0.00    -0.272 N 
ATOM     14  N   UNL A   1      30.383  29.557  22.782  1.00  0.00    -0.178 NA
ATOM     15  C   UNL A   1      29.206  28.964  22.989  1.00  0.00     0.066 A 
ATOM     16  C   UNL A   1      29.333  27.590  23.232  1.00  0.00     0.050 A 
BRANCH  15  17
ATOM     17  C   UNL A   1      27.882  29.693  22.891  1.00  0.00     0.040 C 
ATOM     18  C   UNL A   1      27.753  31.047  23.569  1.00  0.00     0.011 C 
ATOM     19  C   UNL A   1      27.807  30.972  22.082  1.00  0.00     0.011 C 
ENDBRANCH  15  17
ENDBRANCH  10  11
ENDBRANCH   9  10
ENDBRANCH   8   9
ENDBRANCH   7   8
ENDBRANCH   4   7
ENDBRANCH   2   3
ENDBRANCH   1   2
BRANCH   1  20
ATOM     20  C   UNL A   1      32.923  30.048  27.435  1.00  0.00     0.002 C 
BRANCH  20  21
ATOM     21  C   UNL A   1      31.726  30.569  26.640  1.00  0.00     0.002 C 
BRANCH  21  22
ATOM     22  C   UNL A   1      31.485  32.075  26.763  1.00  0.00     0.021 C 
BRANCH  22  23
ATOM     23  C   UNL A   1      32.756  32.917  26.836  1.00  0.00     0.116 C 
BRANCH  23  24
ATOM     24  N   UNL A   1      32.534  34.163  27.553  1.00  0.00    -0.352 N 
ATOM     25  C   UNL A   1      33.131  34.577  28.719  1.00  0.00     0.251 C 
ATOM     26  H   UNL A   1      31.880  34.783  27.156  1.00  0.00     0.163 HD
ATOM     27  O   UNL A   1      32.682  35.523  29.361  1.00  0.00    -0.269 OA
BRANCH  25  28
ATOM     28  C   UNL A   1      34.322  33.850  29.202  1.00  0.00     0.039 A 
ATOM     29  C   UNL A   1      35.594  34.338  28.900  1.00  0.00     0.014 A 
ATOM     30  C   UNL A   1      34.167  32.707  29.993  1.00  0.00     0.014 A 
ATOM     31  C   UNL A   1      36.716  33.705  29.440  1.00  0.00     0.010 A 
ATOM     32  C   UNL A   1      35.281  32.124  30.587  1.00  0.00     0.010 A 
ATOM     33  C   UNL A   1      36.568  32.613  30.312  1.00  0.00    -0.014 A 
BRANCH  33  34
ATOM     34  C   UNL A   1      37.748  31.966  30.940  1.00  0.00     0.031 A 
ATOM     35  C   UNL A   1      38.481  30.870  30.218  1.00  0.00     0.074 A 
ATOM     36  C   UNL A   1      38.128  32.327  32.181  1.00  0.00     0.049 A 
ATOM     37  N   UNL A   1      39.504  30.155  30.617  1.00  0.00    -0.248 NA
ATOM     38  C   UNL A   1      37.985  30.510  28.880  1.00  0.00     0.031 C 
ATOM     39  C   UNL A   1      37.469  33.342  33.006  1.00  0.00     0.029 A 
ATOM     40  N   UNL A   1      39.155  31.875  32.971  1.00  0.00    -0.354 N 
ATOM     41  C   UNL A   1      39.763  29.260  29.587  1.00  0.00     0.074 A 
ATOM     42  C   UNL A   1      38.757  29.480  28.572  1.00  0.00     0.031 C 
ATOM     43  C   UNL A   1      38.123  33.453  34.173  1.00  0.00     0.029 A 
ATOM     44  C   UNL A   1      39.221  32.491  34.197  1.00  0.00     0.049 A 
ATOM     45  H   UNL A   1      39.784  31.173  32.686  1.00  0.00     0.167 HD
ATOM     46  C   UNL A   1      40.765  28.353  29.486  1.00  0.00     0.037 A 
ATOM     47  C   UNL A   1      40.068  32.299  35.226  1.00  0.00     0.037 A 
ATOM     48  C   UNL A   1      41.774  28.149  30.491  1.00  0.00     0.049 A 
ATOM     49  C   UNL A   1      41.163  31.276  35.095  1.00  0.00     0.074 A 
ATOM     50  C   UNL A   1      42.864  27.298  30.457  1.00  0.00     0.029 A 
ATOM     51  N   UNL A   1      41.813  28.800  31.715  1.00  0.00    -0.354 N 
ATOM     52  N   UNL A   1      41.443  30.489  34.085  1.00  0.00    -0.248 NA
ATOM     53  C   UNL A   1      42.064  31.118  36.245  1.00  0.00     0.031 C 
ATOM     54  C   UNL A   1      43.531  27.393  31.682  1.00  0.00     0.029 A 
ATOM     55  C   UNL A   1      42.893  28.348  32.457  1.00  0.00     0.049 A 
ATOM     56  H   UNL A   1      41.169  29.483  32.013  1.00  0.00     0.167 HD
ATOM     57  C   UNL A   1      42.567  29.766  34.464  1.00  0.00     0.074 A 
ATOM     58  C   UNL A   1      42.926  30.219  35.791  1.00  0.00     0.031 C 
ATOM     59  C   UNL A   1      43.241  28.813  33.775  1.00  0.00     0.037 A 
BRANCH  46  60
ATOM     60  C   UNL A   1      40.815  27.513  28.242  1.00  0.00     0.057 A 
ATOM     61  C   UNL A   1      40.125  26.297  28.139  1.00  0.00     0.134 A 
ATOM     62  C   UNL A   1      41.535  27.940  27.119  1.00  0.00     0.134 A 
ATOM     63  F   UNL A   1      39.424  25.824  29.181  1.00  0.00    -0.206 F 
ATOM     64  C   UNL A   1      40.172  25.524  26.978  1.00  0.00     0.040 A 
ATOM     65  C   UNL A   1      41.566  27.191  25.940  1.00  0.00     0.040 A 
ATOM     66  F   UNL A   1      42.214  29.097  27.143  1.00  0.00    -0.206 F 
ATOM     67  C   UNL A   1      40.889  25.975  25.871  1.00  0.00     0.006 A 
ENDBRANCH  46  60
BRANCH  47  68
ATOM     68  C   UNL A   1      39.929  33.106  36.466  1.00  0.00     0.057 A 
ATOM     69  C   UNL A   1      40.693  34.262  36.667  1.00  0.00     0.134 A 
ATOM     70  C   UNL A   1      39.041  32.737  37.484  1.00  0.00     0.134 A 
ATOM     71  F   UNL A   1      41.575  34.658  35.738  1.00  0.00    -0.206 F 
ATOM     72  C   UNL A   1      40.596  35.009  37.843  1.00  0.00     0.040 A 
ATOM     73  C   UNL A   1      38.914  33.490  38.652  1.00  0.00     0.040 A 
ATOM     74  F   UNL A   1      38.274  31.645  37.351  1.00  0.00    -0.206 F 
ATOM     75  C   UNL A   1      39.700  34.625  38.838  1.00  0.00     0.006 A 
ENDBRANCH  47  68
BRANCH  59  76
ATOM     76  C   UNL A   1      44.459  28.223  34.427  1.00  0.00     0.057 A 
ATOM     77  C   UNL A   1      44.396  27.054  35.195  1.00  0.00     0.134 A 
ATOM     78  C   UNL A   1      45.718  28.813  34.249  1.00  0.00     0.134 A 
ATOM     79  F   UNL A   1      43.221  26.445  35.415  1.00  0.00    -0.206 F 
ATOM     80  C   UNL A   1      45.538  26.507  35.784  1.00  0.00     0.040 A 
ATOM     81  C   UNL A   1      46.869  28.258  34.807  1.00  0.00     0.040 A 
ATOM     82  F   UNL A   1      45.849  29.928  33.516  1.00  0.00    -0.206 F 
ATOM     83  C   UNL A   1      46.780  27.105  35.583  1.00  0.00     0.006 A 
ENDBRANCH  59  76
ENDBRANCH  33  34
ENDBRANCH  25  28
ENDBRANCH  23  24
ENDBRANCH  22  23
ENDBRANCH  21  22
ENDBRANCH  20  21
ENDBRANCH   1  20
TORSDOF 18
ENDMDL
MODEL 3
REMARK VINA RESULT:      -9.9      2.858      7.413
REMARK SMILES Cn1nc(C2CC2)cc1CSCCC(=O)NCCCCCCNC(=O)c1ccc(-c2c3nc(c(-c4c(F)cccc4F)c4ccc([nH]4)c(-c4c(F)cccc4F)c4nc(c(-c5c(F)cccc5F)c5ccc2[nH]5)C=C4)C=C3)cc1
REMARK SMILES IDX 18 1 17 2 16 3 14 4 15 5 13 7 12 8 11 9 10 10 9 11 1 12 2 13
REMARK SMILES IDX 3 14 4 15 8 16 5 17 6 18 7 19 19 20 20 21 21 22 22 23 23 24
REMARK SMILES IDX 24 25 25 27 26 28 27 29 79 30 28 31 78 32 29 33 30 34 31 35
REMARK SMILES IDX 72 36 32 37 77 38 71 39 73 40 33 41 76 42 70 43 69 44 34 46
REMARK SMILES IDX 60 47 43 48 59 49 44 50 47 51 58 52 74 53 45 54 46 55 57 57
REMARK SMILES IDX 75 58 48 59 35 60 36 61 41 62 37 63 38 64 40 65 42 66 39 67
REMARK SMILES IDX 61 68 62 69 67 70 63 71 64 72 66 73 68 74 65 75 49 76 50 77
REMARK SMILES IDX 55 78 51 79 52 80 54 81 56 82 53 83
REMARK H PARENT 16 6 23 26 73 45 47 56
REMARK Flexibility Score: inf
ROOT
ATOM      1  C   UNL A   1      30.969  28.798  23.200  1.00  0.00     0.021 C 
ENDROOT
BRANCH   1   2
ATOM      2  C   UNL A   1      30.721  27.342  22.792  1.00  0.00     0.116 C 
BRANCH   2   3
ATOM      3  N   UNL A   1      31.528  26.902  21.665  1.00  0.00    -0.356 N 
ATOM      4  C   UNL A   1      32.589  26.054  21.582  1.00  0.00     0.220 C 
ATOM      5  O   UNL A   1      33.133  25.920  20.483  1.00  0.00    -0.275 OA
ATOM      6  H   UNL A   1      31.256  27.289  20.802  1.00  0.00     0.163 HD
BRANCH   4   7
ATOM      7  C   UNL A   1      33.124  25.342  22.801  1.00  0.00     0.111 C 
BRANCH   7   8
ATOM      8  C   UNL A   1      32.827  23.842  22.787  1.00  0.00     0.080 C 
BRANCH   8   9
ATOM      9  S   UNL A   1      31.355  23.355  23.742  1.00  0.00    -0.155 SA
BRANCH   9  10
ATOM     10  C   UNL A   1      32.136  22.557  25.168  1.00  0.00     0.125 C 
BRANCH  10  11
ATOM     11  C   UNL A   1      32.895  21.340  24.848  1.00  0.00     0.048 A 
ATOM     12  C   UNL A   1      35.208  22.155  25.494  1.00  0.00     0.174 C 
ATOM     13  N   UNL A   1      34.236  21.165  25.083  1.00  0.00    -0.272 N 
ATOM     14  N   UNL A   1      34.619  19.874  24.970  1.00  0.00    -0.178 NA
ATOM     15  C   UNL A   1      33.499  19.240  24.621  1.00  0.00     0.066 A 
ATOM     16  C   UNL A   1      32.415  20.112  24.464  1.00  0.00     0.050 A 
BRANCH  15  17
ATOM     17  C   UNL A   1      33.407  17.733  24.490  1.00  0.00     0.040 C 
ATOM     18  C   UNL A   1      33.664  17.112  23.127  1.00  0.00     0.011 C 
ATOM     19  C   UNL A   1      34.670  16.943  24.213  1.00  0.00     0.011 C 
ENDBRANCH  15  17
ENDBRANCH  10  11
ENDBRANCH   9  10
ENDBRANCH   8   9
ENDBRANCH   7   8
ENDBRANCH   4   7
ENDBRANCH   2   3
ENDBRANCH   1   2
BRANCH   1  20
ATOM     20  C   UNL A   1      31.423  29.018  24.655  1.00  0.00     0.002 C 
BRANCH  20  21
ATOM     21  C   UNL A   1      31.282  30.452  25.165  1.00  0.00     0.002 C 
BRANCH  21  22
ATOM     22  C   UNL A   1      31.497  30.618  26.671  1.00  0.00     0.021 C 
BRANCH  22  23
ATOM     23  C   UNL A   1      32.726  31.439  27.049  1.00  0.00     0.116 C 
BRANCH  23  24
ATOM     24  N   UNL A   1      32.387  32.832  27.295  1.00  0.00    -0.352 N 
ATOM     25  C   UNL A   1      33.029  33.717  28.127  1.00  0.00     0.251 C 
ATOM     26  H   UNL A   1      31.607  33.182  26.806  1.00  0.00     0.163 HD
ATOM     27  O   UNL A   1      32.505  34.781  28.446  1.00  0.00    -0.269 OA
BRANCH  25  28
ATOM     28  C   UNL A   1      34.362  33.359  28.650  1.00  0.00     0.039 A 
ATOM     29  C   UNL A   1      34.462  32.671  29.859  1.00  0.00     0.014 A 
ATOM     30  C   UNL A   1      35.507  33.672  27.911  1.00  0.00     0.014 A 
ATOM     31  C   UNL A   1      35.717  32.247  30.304  1.00  0.00     0.010 A 
ATOM     32  C   UNL A   1      36.745  33.186  28.320  1.00  0.00     0.010 A 
ATOM     33  C   UNL A   1      36.864  32.473  29.524  1.00  0.00    -0.014 A 
BRANCH  33  34
ATOM     34  C   UNL A   1      38.196  31.978  29.954  1.00  0.00     0.031 A 
ATOM     35  C   UNL A   1      38.710  30.659  29.447  1.00  0.00     0.074 A 
ATOM     36  C   UNL A   1      38.919  32.687  30.842  1.00  0.00     0.049 A 
ATOM     37  N   UNL A   1      39.825  30.038  29.740  1.00  0.00    -0.248 NA
ATOM     38  C   UNL A   1      37.846  29.928  28.506  1.00  0.00     0.031 C 
ATOM     39  C   UNL A   1      38.508  33.957  31.446  1.00  0.00     0.029 A 
ATOM     40  N   UNL A   1      40.148  32.438  31.400  1.00  0.00    -0.354 N 
ATOM     41  C   UNL A   1      39.790  28.845  29.029  1.00  0.00     0.074 A 
ATOM     42  C   UNL A   1      38.520  28.801  28.340  1.00  0.00     0.031 C 
ATOM     43  C   UNL A   1      39.479  34.387  32.268  1.00  0.00     0.029 A 
ATOM     44  C   UNL A   1      40.561  33.407  32.282  1.00  0.00     0.049 A 
ATOM     45  H   UNL A   1      40.683  31.639  31.187  1.00  0.00     0.167 HD
ATOM     46  C   UNL A   1      40.741  27.884  28.941  1.00  0.00     0.037 A 
ATOM     47  C   UNL A   1      41.682  33.493  33.022  1.00  0.00     0.037 A 
ATOM     48  C   UNL A   1      42.010  27.939  29.616  1.00  0.00     0.049 A 
ATOM     49  C   UNL A   1      42.717  32.405  32.918  1.00  0.00     0.074 A 
ATOM     50  C   UNL A   1      43.064  27.045  29.543  1.00  0.00     0.029 A 
ATOM     51  N   UNL A   1      42.395  28.942  30.494  1.00  0.00    -0.354 N 
ATOM     52  N   UNL A   1      42.704  31.319  32.183  1.00  0.00    -0.248 NA
ATOM     53  C   UNL A   1      43.925  32.558  33.740  1.00  0.00     0.031 C 
ATOM     54  C   UNL A   1      44.064  27.478  30.420  1.00  0.00     0.029 A 
ATOM     55  C   UNL A   1      43.660  28.673  30.992  1.00  0.00     0.049 A 
ATOM     56  H   UNL A   1      41.851  29.728  30.728  1.00  0.00     0.167 HD
ATOM     57  C   UNL A   1      43.910  30.676  32.431  1.00  0.00     0.074 A 
ATOM     58  C   UNL A   1      44.637  31.503  33.372  1.00  0.00     0.031 C 
ATOM     59  C   UNL A   1      44.374  29.508  31.925  1.00  0.00     0.037 A 
BRANCH  46  60
ATOM     60  C   UNL A   1      40.440  26.689  28.081  1.00  0.00     0.057 A 
ATOM     61  C   UNL A   1      41.047  26.503  26.831  1.00  0.00     0.134 A 
ATOM     62  C   UNL A   1      39.560  25.693  28.522  1.00  0.00     0.134 A 
ATOM     63  F   UNL A   1      41.892  27.424  26.342  1.00  0.00    -0.206 F 
ATOM     64  C   UNL A   1      40.766  25.389  26.040  1.00  0.00     0.040 A 
ATOM     65  C   UNL A   1      39.294  24.558  27.754  1.00  0.00     0.040 A 
ATOM     66  F   UNL A   1      38.948  25.802  29.712  1.00  0.00    -0.206 F 
ATOM     67  C   UNL A   1      39.892  24.408  26.504  1.00  0.00     0.006 A 
ENDBRANCH  46  60
BRANCH  47  68
ATOM     68  C   UNL A   1      41.898  34.661  33.915  1.00  0.00     0.057 A 
ATOM     69  C   UNL A   1      41.487  34.635  35.253  1.00  0.00     0.134 A 
ATOM     70  C   UNL A   1      42.508  35.833  33.451  1.00  0.00     0.134 A 
ATOM     71  F   UNL A   1      40.880  33.549  35.751  1.00  0.00    -0.206 F 
ATOM     72  C   UNL A   1      41.653  35.739  36.091  1.00  0.00     0.040 A 
ATOM     73  C   UNL A   1      42.705  36.934  34.287  1.00  0.00     0.040 A 
ATOM     74  F   UNL A   1      42.933  35.920  32.182  1.00  0.00    -0.206 F 
ATOM     75  C   UNL A   1      42.269  36.892  35.609  1.00  0.00     0.006 A 
ENDBRANCH  47  68
BRANCH  59  76
ATOM     76  C   UNL A   1      45.748  29.071  32.347  1.00  0.00     0.057 A 
ATOM     77  C   UNL A   1      45.955  28.255  33.466  1.00  0.00     0.134 A 
ATOM     78  C   UNL A   1      46.873  29.440  31.598  1.00  0.00     0.134 A 
ATOM     79  F   UNL A   1      44.922  27.876  34.234  1.00  0.00    -0.206 F 
ATOM     80  C   UNL A   1      47.236  27.844  33.840  1.00  0.00     0.040 A 
ATOM     81  C   UNL A   1      48.154  29.009  31.945  1.00  0.00     0.040 A 
ATOM     82  F   UNL A   1      46.744  30.212  30.509  1.00  0.00    -0.206 F 
ATOM     83  C   UNL A   1      48.339  28.214  33.073  1.00  0.00     0.006 A 
ENDBRANCH  59  76
ENDBRANCH  33  34
ENDBRANCH  25  28
ENDBRANCH  23  24
ENDBRANCH  22  23
ENDBRANCH  21  22
ENDBRANCH  20  21
ENDBRANCH   1  20
TORSDOF 18
ENDMDL
