MODEL 1
REMARK VINA RESULT:     -12.4      0.000      0.000
REMARK SMILES CN1C(=O)C[C@@H](C(=O)NCCCCCCNC(=O)c2ccc(-c3c4nc(c(-c5c(F)cccc5F)c5ccc([nH]5)c(-c5c(F)cccc5F)c5nc(c(-c6c(F)cccc6F)c6ccc3[nH]6)C=C5)C=C4)cc2)C12CCN(C(=O)c1ccccc1-n1cccn1)CC2
REMARK SMILES IDX 12 1 11 2 10 3 9 4 7 5 8 6 6 8 1 9 2 10 3 11 73 12 4 13 5 14
REMARK SMILES IDX 74 15 91 16 75 17 90 18 76 19 77 20 78 21 79 22 80 23 84 24
REMARK SMILES IDX 81 25 83 26 82 27 85 28 86 29 89 30 87 31 88 32 13 33 14 34
REMARK SMILES IDX 15 35 16 36 17 37 18 39 19 40 20 41 72 42 21 43 71 44 22 45
REMARK SMILES IDX 23 46 24 47 65 48 25 49 70 50 64 51 66 52 26 53 69 54 63 55
REMARK SMILES IDX 62 56 27 58 53 59 36 60 52 61 37 62 40 63 51 64 67 65 38 66
REMARK SMILES IDX 39 67 50 69 68 70 41 71 28 72 29 73 34 74 30 75 31 76 33 77
REMARK SMILES IDX 35 78 32 79 54 80 55 81 60 82 56 83 57 84 59 85 61 86 58 87
REMARK SMILES IDX 42 88 43 89 48 90 44 91 45 92 47 93 49 94 46 95
REMARK H PARENT 9 7 16 38 66 57 40 68
REMARK Flexibility Score: inf
ROOT
ATOM      1  C   UNL A   1      37.767  22.700  25.355  1.00  0.00     0.002 C 
ENDROOT
BRANCH   1   2
ATOM      2  C   UNL A   1      37.013  21.835  24.349  1.00  0.00     0.021 C 
BRANCH   2   3
ATOM      3  C   UNL A   1      35.883  20.990  24.951  1.00  0.00     0.116 C 
BRANCH   3   4
ATOM      4  N   UNL A   1      35.504  21.394  26.295  1.00  0.00    -0.356 N 
ATOM      5  C   UNL A   1      34.313  21.510  26.938  1.00  0.00     0.226 C 
ATOM      6  O   UNL A   1      34.367  21.886  28.115  1.00  0.00    -0.275 OA
ATOM      7  H   UNL A   1      36.275  21.634  26.860  1.00  0.00     0.163 HD
BRANCH   5   8
ATOM      8  C   UNL A   1      32.932  21.231  26.324  1.00  0.00     0.113 C 
ATOM      9  C   UNL A   1      32.571  21.726  22.621  1.00  0.00     0.147 C 
ATOM     10  N   UNL A   1      32.694  21.304  24.002  1.00  0.00    -0.339 N 
ATOM     11  C   UNL A   1      32.832  19.957  24.309  1.00  0.00     0.223 C 
ATOM     12  C   UNL A   1      32.433  22.150  25.182  1.00  0.00     0.058 C 
ATOM     13  O   UNL A   1      32.947  19.039  23.509  1.00  0.00    -0.275 OA
ATOM     14  C   UNL A   1      32.834  19.800  25.799  1.00  0.00     0.116 C 
ATOM     15  C   UNL A   1      33.161  23.505  25.170  1.00  0.00     0.051 C 
ATOM     16  C   UNL A   1      30.901  22.434  25.251  1.00  0.00     0.051 C 
ATOM     17  C   UNL A   1      32.753  24.416  26.319  1.00  0.00     0.122 C 
ATOM     18  C   UNL A   1      30.494  23.498  26.281  1.00  0.00     0.122 C 
ATOM     19  N   UNL A   1      31.335  24.691  26.189  1.00  0.00    -0.338 N 
ATOM     20  C   UNL A   1      30.764  25.950  26.006  1.00  0.00     0.256 C 
ATOM     21  O   UNL A   1      29.552  26.131  25.901  1.00  0.00    -0.269 OA
BRANCH  20  22
ATOM     22  C   UNL A   1      31.626  27.163  25.985  1.00  0.00     0.065 A 
ATOM     23  C   UNL A   1      31.646  27.910  27.175  1.00  0.00     0.016 A 
ATOM     24  C   UNL A   1      32.443  27.561  24.914  1.00  0.00     0.077 A 
ATOM     25  C   UNL A   1      32.489  29.016  27.310  1.00  0.00     0.001 A 
ATOM     26  C   UNL A   1      33.334  28.639  25.083  1.00  0.00     0.029 A 
ATOM     27  C   UNL A   1      33.343  29.371  26.270  1.00  0.00     0.002 A 
BRANCH  24  28
ATOM     28  N   UNL A   1      32.405  26.947  23.640  1.00  0.00    -0.240 N 
ATOM     29  C   UNL A   1      31.344  26.838  22.769  1.00  0.00     0.115 A 
ATOM     30  N   UNL A   1      33.531  26.389  23.117  1.00  0.00    -0.177 NA
ATOM     31  C   UNL A   1      31.802  26.169  21.658  1.00  0.00     0.042 A 
ATOM     32  C   UNL A   1      33.147  25.890  21.942  1.00  0.00     0.135 A 
ENDBRANCH  24  28
ENDBRANCH  20  22
ENDBRANCH   5   8
ENDBRANCH   3   4
ENDBRANCH   2   3
ENDBRANCH   1   2
BRANCH   1  33
ATOM     33  C   UNL A   1      38.932  21.987  26.043  1.00  0.00     0.002 C 
BRANCH  33  34
ATOM     34  C   UNL A   1      39.298  20.630  25.436  1.00  0.00     0.021 C 
BRANCH  34  35
ATOM     35  C   UNL A   1      39.926  19.645  26.417  1.00  0.00     0.116 C 
BRANCH  35  36
ATOM     36  N   UNL A   1      41.204  19.153  25.938  1.00  0.00    -0.352 N 
ATOM     37  C   UNL A   1      42.383  19.829  25.764  1.00  0.00     0.251 C 
ATOM     38  H   UNL A   1      41.228  18.197  25.706  1.00  0.00     0.163 HD
ATOM     39  O   UNL A   1      43.296  19.320  25.121  1.00  0.00    -0.269 OA
BRANCH  37  40
ATOM     40  C   UNL A   1      42.552  21.175  26.347  1.00  0.00     0.039 A 
ATOM     41  C   UNL A   1      42.478  21.321  27.733  1.00  0.00     0.014 A 
ATOM     42  C   UNL A   1      42.751  22.293  25.531  1.00  0.00     0.014 A 
ATOM     43  C   UNL A   1      42.631  22.585  28.302  1.00  0.00     0.010 A 
ATOM     44  C   UNL A   1      42.984  23.539  26.104  1.00  0.00     0.010 A 
ATOM     45  C   UNL A   1      42.907  23.701  27.494  1.00  0.00    -0.014 A 
BRANCH  45  46
ATOM     46  C   UNL A   1      43.091  25.046  28.095  1.00  0.00     0.031 A 
ATOM     47  C   UNL A   1      44.453  25.490  28.552  1.00  0.00     0.074 A 
ATOM     48  C   UNL A   1      42.026  25.853  28.257  1.00  0.00     0.049 A 
ATOM     49  N   UNL A   1      44.810  26.617  29.115  1.00  0.00    -0.248 NA
ATOM     50  C   UNL A   1      45.558  24.532  28.380  1.00  0.00     0.031 C 
ATOM     51  C   UNL A   1      40.647  25.516  27.895  1.00  0.00     0.029 A 
ATOM     52  N   UNL A   1      41.934  27.122  28.768  1.00  0.00    -0.354 N 
ATOM     53  C   UNL A   1      46.171  26.500  29.368  1.00  0.00     0.074 A 
ATOM     54  C   UNL A   1      46.565  25.170  28.959  1.00  0.00     0.031 C 
ATOM     55  C   UNL A   1      39.854  26.566  28.166  1.00  0.00     0.029 A 
ATOM     56  C   UNL A   1      40.658  27.631  28.755  1.00  0.00     0.049 A 
ATOM     57  H   UNL A   1      42.710  27.622  29.112  1.00  0.00     0.167 HD
ATOM     58  C   UNL A   1      47.021  27.426  29.873  1.00  0.00     0.037 A 
ATOM     59  C   UNL A   1      40.190  28.821  29.174  1.00  0.00     0.037 A 
ATOM     60  C   UNL A   1      46.626  28.754  30.264  1.00  0.00     0.049 A 
ATOM     61  C   UNL A   1      41.153  29.828  29.740  1.00  0.00     0.074 A 
ATOM     62  C   UNL A   1      47.420  29.783  30.740  1.00  0.00     0.029 A 
ATOM     63  N   UNL A   1      45.326  29.235  30.227  1.00  0.00    -0.354 N 
ATOM     64  N   UNL A   1      42.449  29.729  29.912  1.00  0.00    -0.248 NA
ATOM     65  C   UNL A   1      40.589  31.118  30.162  1.00  0.00     0.031 C 
ATOM     66  C   UNL A   1      46.591  30.868  31.043  1.00  0.00     0.029 A 
ATOM     67  C   UNL A   1      45.291  30.539  30.693  1.00  0.00     0.049 A 
ATOM     68  H   UNL A   1      44.543  28.725  29.915  1.00  0.00     0.167 HD
ATOM     69  C   UNL A   1      42.860  30.952  30.424  1.00  0.00     0.074 A 
ATOM     70  C   UNL A   1      41.677  31.781  30.525  1.00  0.00     0.031 C 
ATOM     71  C   UNL A   1      44.106  31.355  30.776  1.00  0.00     0.037 A 
BRANCH  58  72
ATOM     72  C   UNL A   1      48.463  27.032  30.031  1.00  0.00     0.057 A 
ATOM     73  C   UNL A   1      48.934  26.391  31.185  1.00  0.00     0.134 A 
ATOM     74  C   UNL A   1      49.385  27.264  29.002  1.00  0.00     0.134 A 
ATOM     75  F   UNL A   1      48.109  26.149  32.214  1.00  0.00    -0.206 F 
ATOM     76  C   UNL A   1      50.274  26.023  31.323  1.00  0.00     0.040 A 
ATOM     77  C   UNL A   1      50.720  26.872  29.114  1.00  0.00     0.040 A 
ATOM     78  F   UNL A   1      49.002  27.866  27.866  1.00  0.00    -0.206 F 
ATOM     79  C   UNL A   1      51.170  26.257  30.280  1.00  0.00     0.006 A 
ENDBRANCH  58  72
BRANCH  59  80
ATOM     80  C   UNL A   1      38.744  29.138  29.047  1.00  0.00     0.057 A 
ATOM     81  C   UNL A   1      38.197  29.552  27.827  1.00  0.00     0.134 A 
ATOM     82  C   UNL A   1      37.877  29.045  30.142  1.00  0.00     0.134 A 
ATOM     83  F   UNL A   1      38.979  29.678  26.745  1.00  0.00    -0.206 F 
ATOM     84  C   UNL A   1      36.847  29.886  27.705  1.00  0.00     0.040 A 
ATOM     85  C   UNL A   1      36.519  29.347  30.028  1.00  0.00     0.040 A 
ATOM     86  F   UNL A   1      38.335  28.644  31.338  1.00  0.00    -0.206 F 
ATOM     87  C   UNL A   1      36.003  29.779  28.809  1.00  0.00     0.006 A 
ENDBRANCH  59  80
BRANCH  71  88
ATOM     88  C   UNL A   1      44.263  32.771  31.252  1.00  0.00     0.057 A 
ATOM     89  C   UNL A   1      44.487  33.836  30.370  1.00  0.00     0.134 A 
ATOM     90  C   UNL A   1      44.154  33.075  32.615  1.00  0.00     0.134 A 
ATOM     91  F   UNL A   1      44.613  33.612  29.053  1.00  0.00    -0.206 F 
ATOM     92  C   UNL A   1      44.627  35.146  30.829  1.00  0.00     0.040 A 
ATOM     93  C   UNL A   1      44.260  34.385  33.083  1.00  0.00     0.040 A 
ATOM     94  F   UNL A   1      43.929  32.105  33.515  1.00  0.00    -0.206 F 
ATOM     95  C   UNL A   1      44.506  35.424  32.190  1.00  0.00     0.006 A 
ENDBRANCH  71  88
ENDBRANCH  45  46
ENDBRANCH  37  40
ENDBRANCH  35  36
ENDBRANCH  34  35
ENDBRANCH  33  34
ENDBRANCH   1  33
TORSDOF 15
ENDMDL
MODEL 2
REMARK VINA RESULT:     -12.3      3.099      8.815
REMARK SMILES CN1C(=O)C[C@@H](C(=O)NCCCCCCNC(=O)c2ccc(-c3c4nc(c(-c5c(F)cccc5F)c5ccc([nH]5)c(-c5c(F)cccc5F)c5nc(c(-c6c(F)cccc6F)c6ccc3[nH]6)C=C5)C=C4)cc2)C12CCN(C(=O)c1ccccc1-n1cccn1)CC2
REMARK SMILES IDX 12 1 11 2 10 3 9 4 7 5 8 6 6 8 1 9 2 10 3 11 73 12 4 13 5 14
REMARK SMILES IDX 74 15 91 16 75 17 90 18 76 19 77 20 78 21 79 22 80 23 84 24
REMARK SMILES IDX 81 25 83 26 82 27 85 28 86 29 89 30 87 31 88 32 13 33 14 34
REMARK SMILES IDX 15 35 16 36 17 37 18 39 19 40 20 41 72 42 21 43 71 44 22 45
REMARK SMILES IDX 23 46 24 47 65 48 25 49 70 50 64 51 66 52 26 53 69 54 63 55
REMARK SMILES IDX 62 56 27 58 53 59 36 60 52 61 37 62 40 63 51 64 67 65 38 66
REMARK SMILES IDX 39 67 50 69 68 70 41 71 28 72 29 73 34 74 30 75 31 76 33 77
REMARK SMILES IDX 35 78 32 79 54 80 55 81 60 82 56 83 57 84 59 85 61 86 58 87
REMARK SMILES IDX 42 88 43 89 48 90 44 91 45 92 47 93 49 94 46 95
REMARK H PARENT 9 7 16 38 66 57 40 68
REMARK Flexibility Score: inf
ROOT
ATOM      1  C   UNL A   1      33.669  29.749  27.232  1.00  0.00     0.002 C 
ENDROOT
BRANCH   1   2
ATOM      2  C   UNL A   1      32.179  29.632  26.928  1.00  0.00     0.021 C 
BRANCH   2   3
ATOM      3  C   UNL A   1      31.814  29.777  25.445  1.00  0.00     0.116 C 
BRANCH   3   4
ATOM      4  N   UNL A   1      32.957  29.687  24.551  1.00  0.00    -0.356 N 
ATOM      5  C   UNL A   1      33.149  29.123  23.330  1.00  0.00     0.226 C 
ATOM      6  O   UNL A   1      34.281  29.249  22.848  1.00  0.00    -0.275 OA
ATOM      7  H   UNL A   1      33.763  30.129  24.905  1.00  0.00     0.163 HD
BRANCH   5   8
ATOM      8  C   UNL A   1      32.096  28.345  22.526  1.00  0.00     0.113 C 
ATOM      9  C   UNL A   1      29.401  26.599  24.470  1.00  0.00     0.147 C 
ATOM     10  N   UNL A   1      30.271  27.423  23.654  1.00  0.00    -0.339 N 
ATOM     11  C   UNL A   1      29.800  28.615  23.119  1.00  0.00     0.223 C 
ATOM     12  C   UNL A   1      31.572  27.005  23.099  1.00  0.00     0.058 C 
ATOM     13  O   UNL A   1      28.707  29.122  23.328  1.00  0.00    -0.275 OA
ATOM     14  C   UNL A   1      30.864  29.203  22.243  1.00  0.00     0.116 C 
ATOM     15  C   UNL A   1      32.541  26.399  24.129  1.00  0.00     0.051 C 
ATOM     16  C   UNL A   1      31.313  25.930  22.000  1.00  0.00     0.051 C 
ATOM     17  C   UNL A   1      33.810  25.838  23.503  1.00  0.00     0.122 C 
ATOM     18  C   UNL A   1      32.575  25.217  21.493  1.00  0.00     0.122 C 
ATOM     19  N   UNL A   1      33.426  24.773  22.597  1.00  0.00    -0.338 N 
ATOM     20  C   UNL A   1      33.810  23.436  22.704  1.00  0.00     0.256 C 
ATOM     21  O   UNL A   1      33.458  22.568  21.907  1.00  0.00    -0.269 OA
BRANCH  20  22
ATOM     22  C   UNL A   1      34.733  23.011  23.791  1.00  0.00     0.065 A 
ATOM     23  C   UNL A   1      36.077  22.848  23.412  1.00  0.00     0.016 A 
ATOM     24  C   UNL A   1      34.376  22.832  25.137  1.00  0.00     0.077 A 
ATOM     25  C   UNL A   1      37.055  22.544  24.363  1.00  0.00     0.001 A 
ATOM     26  C   UNL A   1      35.379  22.588  26.096  1.00  0.00     0.029 A 
ATOM     27  C   UNL A   1      36.708  22.428  25.705  1.00  0.00     0.002 A 
BRANCH  24  28
ATOM     28  N   UNL A   1      33.037  22.857  25.594  1.00  0.00    -0.240 N 
ATOM     29  C   UNL A   1      32.003  22.006  25.274  1.00  0.00     0.115 A 
ATOM     30  N   UNL A   1      32.640  23.799  26.494  1.00  0.00    -0.177 NA
ATOM     31  C   UNL A   1      30.900  22.431  25.977  1.00  0.00     0.042 A 
ATOM     32  C   UNL A   1      31.343  23.556  26.687  1.00  0.00     0.135 A 
ENDBRANCH  24  28
ENDBRANCH  20  22
ENDBRANCH   5   8
ENDBRANCH   3   4
ENDBRANCH   2   3
ENDBRANCH   1   2
BRANCH   1  33
ATOM     33  C   UNL A   1      34.115  31.151  27.647  1.00  0.00     0.002 C 
BRANCH  33  34
ATOM     34  C   UNL A   1      32.975  32.087  28.058  1.00  0.00     0.021 C 
BRANCH  34  35
ATOM     35  C   UNL A   1      32.949  33.419  27.315  1.00  0.00     0.116 C 
BRANCH  35  36
ATOM     36  N   UNL A   1      32.740  34.534  28.220  1.00  0.00    -0.352 N 
ATOM     37  C   UNL A   1      33.413  34.856  29.368  1.00  0.00     0.251 C 
ATOM     38  H   UNL A   1      32.011  35.147  27.973  1.00  0.00     0.163 HD
ATOM     39  O   UNL A   1      32.951  35.690  30.140  1.00  0.00    -0.269 OA
BRANCH  37  40
ATOM     40  C   UNL A   1      34.696  34.193  29.679  1.00  0.00     0.039 A 
ATOM     41  C   UNL A   1      34.774  33.373  30.805  1.00  0.00     0.014 A 
ATOM     42  C   UNL A   1      35.827  34.405  28.883  1.00  0.00     0.014 A 
ATOM     43  C   UNL A   1      35.978  32.742  31.117  1.00  0.00     0.010 A 
ATOM     44  C   UNL A   1      37.004  33.713  29.149  1.00  0.00     0.010 A 
ATOM     45  C   UNL A   1      37.097  32.890  30.280  1.00  0.00    -0.014 A 
BRANCH  45  46
ATOM     46  C   UNL A   1      38.376  32.206  30.595  1.00  0.00     0.031 A 
ATOM     47  C   UNL A   1      39.349  32.828  31.559  1.00  0.00     0.074 A 
ATOM     48  C   UNL A   1      38.675  31.043  29.988  1.00  0.00     0.049 A 
ATOM     49  N   UNL A   1      40.521  32.394  31.948  1.00  0.00    -0.248 NA
ATOM     50  C   UNL A   1      38.967  34.123  32.148  1.00  0.00     0.031 C 
ATOM     51  C   UNL A   1      37.834  30.365  29.000  1.00  0.00     0.029 A 
ATOM     52  N   UNL A   1      39.768  30.224  30.111  1.00  0.00    -0.354 N 
ATOM     53  C   UNL A   1      41.016  33.361  32.814  1.00  0.00     0.074 A 
ATOM     54  C   UNL A   1      40.049  34.435  32.846  1.00  0.00     0.031 C 
ATOM     55  C   UNL A   1      38.427  29.217  28.632  1.00  0.00     0.029 A 
ATOM     56  C   UNL A   1      39.705  29.098  29.326  1.00  0.00     0.049 A 
ATOM     57  H   UNL A   1      40.527  30.424  30.707  1.00  0.00     0.167 HD
ATOM     58  C   UNL A   1      42.162  33.343  33.537  1.00  0.00     0.037 A 
ATOM     59  C   UNL A   1      40.581  28.087  29.180  1.00  0.00     0.037 A 
ATOM     60  C   UNL A   1      43.113  32.263  33.512  1.00  0.00     0.049 A 
ATOM     61  C   UNL A   1      41.850  28.096  29.987  1.00  0.00     0.074 A 
ATOM     62  C   UNL A   1      44.280  32.126  34.245  1.00  0.00     0.029 A 
ATOM     63  N   UNL A   1      43.009  31.136  32.711  1.00  0.00    -0.354 N 
ATOM     64  N   UNL A   1      42.274  28.984  30.853  1.00  0.00    -0.248 NA
ATOM     65  C   UNL A   1      42.759  26.956  29.803  1.00  0.00     0.031 C 
ATOM     66  C   UNL A   1      44.909  30.943  33.846  1.00  0.00     0.029 A 
ATOM     67  C   UNL A   1      44.102  30.309  32.914  1.00  0.00     0.049 A 
ATOM     68  H   UNL A   1      42.268  30.950  32.090  1.00  0.00     0.167 HD
ATOM     69  C   UNL A   1      43.477  28.493  31.345  1.00  0.00     0.074 A 
ATOM     70  C   UNL A   1      43.709  27.224  30.687  1.00  0.00     0.031 C 
ATOM     71  C   UNL A   1      44.312  29.042  32.260  1.00  0.00     0.037 A 
BRANCH  58  72
ATOM     72  C   UNL A   1      42.447  34.529  34.414  1.00  0.00     0.057 A 
ATOM     73  C   UNL A   1      43.097  35.672  33.927  1.00  0.00     0.134 A 
ATOM     74  C   UNL A   1      42.037  34.544  35.754  1.00  0.00     0.134 A 
ATOM     75  F   UNL A   1      43.527  35.722  32.658  1.00  0.00    -0.206 F 
ATOM     76  C   UNL A   1      43.354  36.773  34.747  1.00  0.00     0.040 A 
ATOM     77  C   UNL A   1      42.259  35.651  36.574  1.00  0.00     0.040 A 
ATOM     78  F   UNL A   1      41.403  33.487  36.284  1.00  0.00    -0.206 F 
ATOM     79  C   UNL A   1      42.927  36.766  36.074  1.00  0.00     0.006 A 
ENDBRANCH  58  72
BRANCH  59  80
ATOM     80  C   UNL A   1      40.275  26.965  28.255  1.00  0.00     0.057 A 
ATOM     81  C   UNL A   1      39.432  25.917  28.641  1.00  0.00     0.134 A 
ATOM     82  C   UNL A   1      40.824  26.910  26.969  1.00  0.00     0.134 A 
ATOM     83  F   UNL A   1      38.888  25.904  29.867  1.00  0.00    -0.206 F 
ATOM     84  C   UNL A   1      39.166  24.841  27.793  1.00  0.00     0.040 A 
ATOM     85  C   UNL A   1      40.543  25.854  26.099  1.00  0.00     0.040 A 
ATOM     86  F   UNL A   1      41.632  27.888  26.533  1.00  0.00    -0.206 F 
ATOM     87  C   UNL A   1      39.719  24.811  26.514  1.00  0.00     0.006 A 
ENDBRANCH  59  80
BRANCH  71  88
ATOM     88  C   UNL A   1      45.528  28.248  32.646  1.00  0.00     0.057 A 
ATOM     89  C   UNL A   1      45.507  27.307  33.683  1.00  0.00     0.134 A 
ATOM     90  C   UNL A   1      46.729  28.408  31.943  1.00  0.00     0.134 A 
ATOM     91  F   UNL A   1      44.393  27.114  34.404  1.00  0.00    -0.206 F 
ATOM     92  C   UNL A   1      46.645  26.576  34.026  1.00  0.00     0.040 A 
ATOM     93  C   UNL A   1      47.864  27.659  32.256  1.00  0.00     0.040 A 
ATOM     94  F   UNL A   1      46.816  29.284  30.931  1.00  0.00    -0.206 F 
ATOM     95  C   UNL A   1      47.827  26.745  33.306  1.00  0.00     0.006 A 
ENDBRANCH  71  88
ENDBRANCH  45  46
ENDBRANCH  37  40
ENDBRANCH  35  36
ENDBRANCH  34  35
ENDBRANCH  33  34
ENDBRANCH   1  33
TORSDOF 15
ENDMDL
MODEL 3
REMARK VINA RESULT:     -12.1      2.298      3.389
REMARK SMILES CN1C(=O)C[C@@H](C(=O)NCCCCCCNC(=O)c2ccc(-c3c4nc(c(-c5c(F)cccc5F)c5ccc([nH]5)c(-c5c(F)cccc5F)c5nc(c(-c6c(F)cccc6F)c6ccc3[nH]6)C=C5)C=C4)cc2)C12CCN(C(=O)c1ccccc1-n1cccn1)CC2
REMARK SMILES IDX 12 1 11 2 10 3 9 4 7 5 8 6 6 8 1 9 2 10 3 11 73 12 4 13 5 14
REMARK SMILES IDX 74 15 91 16 75 17 90 18 76 19 77 20 78 21 79 22 80 23 84 24
REMARK SMILES IDX 81 25 83 26 82 27 85 28 86 29 89 30 87 31 88 32 13 33 14 34
REMARK SMILES IDX 15 35 16 36 17 37 18 39 19 40 20 41 72 42 21 43 71 44 22 45
REMARK SMILES IDX 23 46 24 47 65 48 25 49 70 50 64 51 66 52 26 53 69 54 63 55
REMARK SMILES IDX 62 56 27 58 53 59 36 60 52 61 37 62 40 63 51 64 67 65 38 66
REMARK SMILES IDX 39 67 50 69 68 70 41 71 28 72 29 73 34 74 30 75 31 76 33 77
REMARK SMILES IDX 35 78 32 79 54 80 55 81 60 82 56 83 57 84 59 85 61 86 58 87
REMARK SMILES IDX 42 88 43 89 48 90 44 91 45 92 47 93 49 94 46 95
REMARK H PARENT 9 7 16 38 66 57 40 68
REMARK Flexibility Score: inf
ROOT
ATOM      1  C   UNL A   1      40.516  22.220  26.161  1.00  0.00     0.002 C 
ENDROOT
BRANCH   1   2
ATOM      2  C   UNL A   1      38.995  22.100  26.173  1.00  0.00     0.021 C 
BRANCH   2   3
ATOM      3  C   UNL A   1      38.247  23.406  25.875  1.00  0.00     0.116 C 
BRANCH   3   4
ATOM      4  N   UNL A   1      37.495  23.377  24.631  1.00  0.00    -0.356 N 
ATOM      5  C   UNL A   1      36.249  22.949  24.298  1.00  0.00     0.226 C 
ATOM      6  O   UNL A   1      35.928  23.088  23.113  1.00  0.00    -0.275 OA
ATOM      7  H   UNL A   1      37.995  23.746  23.867  1.00  0.00     0.163 HD
BRANCH   5   8
ATOM      8  C   UNL A   1      35.237  22.306  25.259  1.00  0.00     0.113 C 
ATOM      9  C   UNL A   1      32.250  20.624  23.729  1.00  0.00     0.147 C 
ATOM     10  N   UNL A   1      33.476  21.054  24.371  1.00  0.00    -0.339 N 
ATOM     11  C   UNL A   1      34.431  20.119  24.749  1.00  0.00     0.223 C 
ATOM     12  C   UNL A   1      33.730  22.402  24.916  1.00  0.00     0.058 C 
ATOM     13  O   UNL A   1      34.398  18.918  24.522  1.00  0.00    -0.275 OA
ATOM     14  C   UNL A   1      35.536  20.823  25.474  1.00  0.00     0.116 C 
ATOM     15  C   UNL A   1      33.432  23.552  23.939  1.00  0.00     0.051 C 
ATOM     16  C   UNL A   1      32.828  22.599  26.172  1.00  0.00     0.051 C 
ATOM     17  C   UNL A   1      33.554  24.929  24.577  1.00  0.00     0.122 C 
ATOM     18  C   UNL A   1      32.793  24.036  26.715  1.00  0.00     0.122 C 
ATOM     19  N   UNL A   1      32.580  25.012  25.647  1.00  0.00    -0.338 N 
ATOM     20  C   UNL A   1      31.525  25.923  25.718  1.00  0.00     0.256 C 
ATOM     21  O   UNL A   1      30.723  25.954  26.650  1.00  0.00    -0.269 OA
BRANCH  20  22
ATOM     22  C   UNL A   1      31.362  26.957  24.661  1.00  0.00     0.065 A 
ATOM     23  C   UNL A   1      30.604  26.564  23.544  1.00  0.00     0.016 A 
ATOM     24  C   UNL A   1      31.843  28.275  24.731  1.00  0.00     0.077 A 
ATOM     25  C   UNL A   1      30.302  27.476  22.529  1.00  0.00     0.001 A 
ATOM     26  C   UNL A   1      31.479  29.202  23.734  1.00  0.00     0.029 A 
ATOM     27  C   UNL A   1      30.727  28.797  22.632  1.00  0.00     0.002 A 
BRANCH  24  28
ATOM     28  N   UNL A   1      32.710  28.730  25.752  1.00  0.00    -0.240 N 
ATOM     29  C   UNL A   1      34.004  28.342  26.017  1.00  0.00     0.115 A 
ATOM     30  N   UNL A   1      32.300  29.701  26.614  1.00  0.00    -0.177 NA
ATOM     31  C   UNL A   1      34.431  29.075  27.100  1.00  0.00     0.042 A 
ATOM     32  C   UNL A   1      33.329  29.872  27.445  1.00  0.00     0.135 A 
ENDBRANCH  24  28
ENDBRANCH  20  22
ENDBRANCH   5   8
ENDBRANCH   3   4
ENDBRANCH   2   3
ENDBRANCH   1   2
BRANCH   1  33
ATOM     33  C   UNL A   1      41.240  21.081  26.879  1.00  0.00     0.002 C 
BRANCH  33  34
ATOM     34  C   UNL A   1      41.438  19.819  26.035  1.00  0.00     0.021 C 
BRANCH  34  35
ATOM     35  C   UNL A   1      42.686  19.014  26.380  1.00  0.00     0.116 C 
BRANCH  35  36
ATOM     36  N   UNL A   1      43.520  18.791  25.213  1.00  0.00    -0.352 N 
ATOM     37  C   UNL A   1      44.190  19.701  24.440  1.00  0.00     0.251 C 
ATOM     38  H   UNL A   1      43.619  17.851  24.939  1.00  0.00     0.163 HD
ATOM     39  O   UNL A   1      44.647  19.368  23.351  1.00  0.00    -0.269 OA
BRANCH  37  40
ATOM     40  C   UNL A   1      44.359  21.089  24.918  1.00  0.00     0.039 A 
ATOM     41  C   UNL A   1      45.059  21.311  26.104  1.00  0.00     0.014 A 
ATOM     42  C   UNL A   1      43.802  22.163  24.216  1.00  0.00     0.014 A 
ATOM     43  C   UNL A   1      45.225  22.614  26.572  1.00  0.00     0.010 A 
ATOM     44  C   UNL A   1      44.037  23.467  24.641  1.00  0.00     0.010 A 
ATOM     45  C   UNL A   1      44.734  23.704  25.834  1.00  0.00    -0.014 A 
BRANCH  45  46
ATOM     46  C   UNL A   1      44.924  25.096  26.317  1.00  0.00     0.031 A 
ATOM     47  C   UNL A   1      46.286  25.733  26.269  1.00  0.00     0.074 A 
ATOM     48  C   UNL A   1      43.878  25.771  26.827  1.00  0.00     0.049 A 
ATOM     49  N   UNL A   1      46.654  26.928  26.658  1.00  0.00    -0.248 NA
ATOM     50  C   UNL A   1      47.387  24.912  25.736  1.00  0.00     0.031 C 
ATOM     51  C   UNL A   1      42.519  25.243  26.969  1.00  0.00     0.029 A 
ATOM     52  N   UNL A   1      43.792  27.047  27.322  1.00  0.00    -0.354 N 
ATOM     53  C   UNL A   1      48.022  26.997  26.427  1.00  0.00     0.074 A 
ATOM     54  C   UNL A   1      48.432  25.705  25.923  1.00  0.00     0.031 C 
ATOM     55  C   UNL A   1      41.729  26.199  27.484  1.00  0.00     0.029 A 
ATOM     56  C   UNL A   1      42.530  27.390  27.745  1.00  0.00     0.049 A 
ATOM     57  H   UNL A   1      44.562  27.660  27.370  1.00  0.00     0.167 HD
ATOM     58  C   UNL A   1      48.857  28.051  26.594  1.00  0.00     0.037 A 
ATOM     59  C   UNL A   1      42.073  28.535  28.285  1.00  0.00     0.037 A 
ATOM     60  C   UNL A   1      48.439  29.340  27.081  1.00  0.00     0.049 A 
ATOM     61  C   UNL A   1      43.023  29.687  28.470  1.00  0.00     0.074 A 
ATOM     62  C   UNL A   1      49.197  30.487  27.240  1.00  0.00     0.029 A 
ATOM     63  N   UNL A   1      47.151  29.651  27.490  1.00  0.00    -0.354 N 
ATOM     64  N   UNL A   1      44.300  29.761  28.184  1.00  0.00    -0.248 NA
ATOM     65  C   UNL A   1      42.464  30.919  29.044  1.00  0.00     0.031 C 
ATOM     66  C   UNL A   1      48.380  31.476  27.797  1.00  0.00     0.029 A 
ATOM     67  C   UNL A   1      47.097  30.966  27.923  1.00  0.00     0.049 A 
ATOM     68  H   UNL A   1      46.388  29.029  27.475  1.00  0.00     0.167 HD
ATOM     69  C   UNL A   1      44.689  31.055  28.506  1.00  0.00     0.074 A 
ATOM     70  C   UNL A   1      43.509  31.733  29.000  1.00  0.00     0.031 C 
ATOM     71  C   UNL A   1      45.911  31.630  28.400  1.00  0.00     0.037 A 
BRANCH  58  72
ATOM     72  C   UNL A   1      50.305  27.850  26.248  1.00  0.00     0.057 A 
ATOM     73  C   UNL A   1      50.768  27.917  24.926  1.00  0.00     0.134 A 
ATOM     74  C   UNL A   1      51.256  27.623  27.252  1.00  0.00     0.134 A 
ATOM     75  F   UNL A   1      49.911  28.120  23.915  1.00  0.00    -0.206 F 
ATOM     76  C   UNL A   1      52.117  27.735  24.612  1.00  0.00     0.040 A 
ATOM     77  C   UNL A   1      52.612  27.471  26.954  1.00  0.00     0.040 A 
ATOM     78  F   UNL A   1      50.885  27.554  28.539  1.00  0.00    -0.206 F 
ATOM     79  C   UNL A   1      53.044  27.519  25.630  1.00  0.00     0.006 A 
ENDBRANCH  58  72
BRANCH  59  80
ATOM     80  C   UNL A   1      40.642  28.660  28.662  1.00  0.00     0.057 A 
ATOM     81  C   UNL A   1      39.676  29.040  27.724  1.00  0.00     0.134 A 
ATOM     82  C   UNL A   1      40.208  28.414  29.970  1.00  0.00     0.134 A 
ATOM     83  F   UNL A   1      40.032  29.306  26.459  1.00  0.00    -0.206 F 
ATOM     84  C   UNL A   1      38.334  29.194  28.076  1.00  0.00     0.040 A 
ATOM     85  C   UNL A   1      38.864  28.536  30.330  1.00  0.00     0.040 A 
ATOM     86  F   UNL A   1      41.081  28.037  30.916  1.00  0.00    -0.206 F 
ATOM     87  C   UNL A   1      37.925  28.937  29.383  1.00  0.00     0.006 A 
ENDBRANCH  59  80
BRANCH  71  88
ATOM     88  C   UNL A   1      46.024  33.081  28.774  1.00  0.00     0.057 A 
ATOM     89  C   UNL A   1      46.356  33.495  30.070  1.00  0.00     0.134 A 
ATOM     90  C   UNL A   1      45.830  34.077  27.808  1.00  0.00     0.134 A 
ATOM     91  F   UNL A   1      46.545  32.592  31.045  1.00  0.00    -0.206 F 
ATOM     92  C   UNL A   1      46.461  34.847  30.399  1.00  0.00     0.040 A 
ATOM     93  C   UNL A   1      45.963  35.431  28.118  1.00  0.00     0.040 A 
ATOM     94  F   UNL A   1      45.520  33.751  26.544  1.00  0.00    -0.206 F 
ATOM     95  C   UNL A   1      46.271  35.820  29.419  1.00  0.00     0.006 A 
ENDBRANCH  71  88
ENDBRANCH  45  46
ENDBRANCH  37  40
ENDBRANCH  35  36
ENDBRANCH  34  35
ENDBRANCH  33  34
ENDBRANCH   1  33
TORSDOF 15
ENDMDL
