MODEL 1
REMARK VINA RESULT:     -10.6      0.000      0.000
REMARK SMILES C[C@H]1C[N@H+]2CCCC[C@@H]2CN1C(=O)[C@H]([NH3+])CC(=O)NCCCCCCNC(=O)c1ccc(-c2c3nc(c(-c4c(F)cccc4F)c4ccc([nH]4)c(-c4c(F)cccc4F)c4nc(c(-c5c(F)cccc5F)c5ccc2[nH]5)C=C4)C=C3)cc1
REMARK SMILES IDX 22 1 21 2 20 3 19 4 17 5 18 6 16 8 14 9 12 10 13 11 11 12
REMARK SMILES IDX 1 13 2 14 3 15 4 16 10 17 5 18 9 19 6 21 8 22 7 23 15 24
REMARK SMILES IDX 23 28 24 29 25 30 26 31 27 32 28 34 29 35 30 36 82 37 31 38
REMARK SMILES IDX 81 39 32 40 33 41 34 42 75 43 35 44 80 45 74 46 76 47 36 48
REMARK SMILES IDX 79 49 73 50 72 51 37 53 63 54 46 55 62 56 47 57 50 58 61 59
REMARK SMILES IDX 77 60 48 61 49 62 60 64 78 65 51 66 38 67 39 68 44 69 40 70
REMARK SMILES IDX 41 71 43 72 45 73 42 74 64 75 65 76 70 77 66 78 67 79 69 80
REMARK SMILES IDX 71 81 68 82 52 83 53 84 58 85 54 86 55 87 57 88 59 89 56 90
REMARK H PARENT 19 7 4 20 15 25 15 26 15 27 26 33 76 52 50 63
REMARK Flexibility Score: inf
ROOT
ATOM      1  C   UNL A   1      31.426  28.834  24.583  1.00  0.00     0.002 C 
ENDROOT
BRANCH   1   2
ATOM      2  C   UNL A   1      31.162  28.771  23.075  1.00  0.00     0.021 C 
BRANCH   2   3
ATOM      3  C   UNL A   1      30.776  27.372  22.589  1.00  0.00     0.116 C 
BRANCH   3   4
ATOM      4  N   UNL A   1      31.959  26.534  22.494  1.00  0.00    -0.356 N 
ATOM      5  C   UNL A   1      32.372  25.546  23.341  1.00  0.00     0.226 C 
ATOM      6  O   UNL A   1      33.521  25.118  23.241  1.00  0.00    -0.275 OA
ATOM      7  H   UNL A   1      32.539  26.700  21.716  1.00  0.00     0.163 HD
BRANCH   5   8
ATOM      8  C   UNL A   1      31.382  24.935  24.304  1.00  0.00     0.175 C 
BRANCH   8   9
ATOM      9  C   UNL A   1      31.630  25.248  25.782  1.00  0.00     0.280 C 
BRANCH   9  10
ATOM     10  C   UNL A   1      32.071  23.990  26.589  1.00  0.00     0.281 C 
ATOM     11  O   UNL A   1      31.352  23.579  27.502  1.00  0.00    -0.268 OA
BRANCH  10  12
ATOM     12  N   UNL A   1      33.232  23.302  26.173  1.00  0.00    -0.323 N 
ATOM     13  C   UNL A   1      32.057  21.351  25.142  1.00  0.00     0.037 C 
ATOM     14  C   UNL A   1      33.171  21.822  26.098  1.00  0.00     0.137 C 
ATOM     15  C   UNL A   1      34.485  21.140  25.596  1.00  0.00     0.287 C 
ATOM     16  N   UNL A   1      35.759  21.741  26.035  1.00  0.00    -0.329 N 
ATOM     17  C   UNL A   1      34.555  23.878  26.421  1.00  0.00     0.185 C 
ATOM     18  C   UNL A   1      36.882  21.090  25.332  1.00  0.00     0.262 C 
ATOM     19  C   UNL A   1      35.737  23.180  25.735  1.00  0.00     0.203 C 
ATOM     20  H   UNL A   1      35.879  21.606  27.039  1.00  0.00     0.348 HD
ATOM     21  C   UNL A   1      38.233  21.695  25.722  1.00  0.00     0.062 C 
ATOM     22  C   UNL A   1      37.043  23.843  26.204  1.00  0.00     0.067 C 
ATOM     23  C   UNL A   1      38.252  23.208  25.530  1.00  0.00     0.012 C 
ENDBRANCH  10  12
ENDBRANCH   9  10
BRANCH   9  24
ATOM     24  N   UNL A   1      30.533  25.908  26.536  1.00  0.00    -0.347 N 
ATOM     25  H   UNL A   1      29.657  25.418  26.361  1.00  0.00     0.345 HD
ATOM     26  H   UNL A   1      30.447  26.878  26.232  1.00  0.00     0.345 HD
ATOM     27  H   UNL A   1      30.744  25.883  27.534  1.00  0.00     0.345 HD
ENDBRANCH   9  24
ENDBRANCH   8   9
ENDBRANCH   5   8
ENDBRANCH   3   4
ENDBRANCH   2   3
ENDBRANCH   1   2
BRANCH   1  28
ATOM     28  C   UNL A   1      32.831  29.312  24.963  1.00  0.00     0.002 C 
BRANCH  28  29
ATOM     29  C   UNL A   1      33.680  28.289  25.723  1.00  0.00     0.021 C 
BRANCH  29  30
ATOM     30  C   UNL A   1      33.715  28.492  27.235  1.00  0.00     0.116 C 
BRANCH  30  31
ATOM     31  N   UNL A   1      33.654  29.899  27.595  1.00  0.00    -0.352 N 
ATOM     32  C   UNL A   1      34.579  30.675  28.245  1.00  0.00     0.251 C 
ATOM     33  H   UNL A   1      32.825  30.364  27.333  1.00  0.00     0.163 HD
ATOM     34  O   UNL A   1      34.275  31.787  28.661  1.00  0.00    -0.269 OA
BRANCH  32  35
ATOM     35  C   UNL A   1      35.949  30.161  28.455  1.00  0.00     0.039 A 
ATOM     36  C   UNL A   1      36.847  30.175  27.386  1.00  0.00     0.014 A 
ATOM     37  C   UNL A   1      36.338  29.648  29.696  1.00  0.00     0.014 A 
ATOM     38  C   UNL A   1      38.155  29.723  27.575  1.00  0.00     0.010 A 
ATOM     39  C   UNL A   1      37.658  29.259  29.901  1.00  0.00     0.010 A 
ATOM     40  C   UNL A   1      38.577  29.288  28.841  1.00  0.00    -0.014 A 
BRANCH  40  41
ATOM     41  C   UNL A   1      39.976  28.853  29.076  1.00  0.00     0.031 A 
ATOM     42  C   UNL A   1      40.971  29.803  29.679  1.00  0.00     0.074 A 
ATOM     43  C   UNL A   1      40.366  27.626  28.680  1.00  0.00     0.049 A 
ATOM     44  N   UNL A   1      42.251  29.635  29.893  1.00  0.00    -0.248 NA
ATOM     45  C   UNL A   1      40.465  31.128  30.070  1.00  0.00     0.031 C 
ATOM     46  C   UNL A   1      39.507  26.632  28.034  1.00  0.00     0.029 A 
ATOM     47  N   UNL A   1      41.591  27.013  28.749  1.00  0.00    -0.354 N 
ATOM     48  C   UNL A   1      42.705  30.834  30.428  1.00  0.00     0.074 A 
ATOM     49  C   UNL A   1      41.575  31.738  30.457  1.00  0.00     0.031 C 
ATOM     50  C   UNL A   1      40.229  25.529  27.779  1.00  0.00     0.029 A 
ATOM     51  C   UNL A   1      41.606  25.750  28.211  1.00  0.00     0.049 A 
ATOM     52  H   UNL A   1      42.386  27.439  29.147  1.00  0.00     0.167 HD
ATOM     53  C   UNL A   1      43.944  31.146  30.876  1.00  0.00     0.037 A 
ATOM     54  C   UNL A   1      42.616  24.872  28.073  1.00  0.00     0.037 A 
ATOM     55  C   UNL A   1      45.061  30.237  30.864  1.00  0.00     0.049 A 
ATOM     56  C   UNL A   1      43.981  25.237  28.585  1.00  0.00     0.074 A 
ATOM     57  C   UNL A   1      46.341  30.438  31.347  1.00  0.00     0.029 A 
ATOM     58  N   UNL A   1      45.027  28.954  30.339  1.00  0.00    -0.354 N 
ATOM     59  N   UNL A   1      44.381  26.350  29.148  1.00  0.00    -0.248 NA
ATOM     60  C   UNL A   1      45.034  24.220  28.448  1.00  0.00     0.031 C 
ATOM     61  C   UNL A   1      47.095  29.290  31.079  1.00  0.00     0.029 A 
ATOM     62  C   UNL A   1      46.270  28.358  30.470  1.00  0.00     0.049 A 
ATOM     63  H   UNL A   1      44.236  28.530  29.934  1.00  0.00     0.167 HD
ATOM     64  C   UNL A   1      45.723  26.162  29.455  1.00  0.00     0.074 A 
ATOM     65  C   UNL A   1      46.064  24.820  29.027  1.00  0.00     0.031 C 
ATOM     66  C   UNL A   1      46.593  27.022  30.038  1.00  0.00     0.037 A 
BRANCH  53  67
ATOM     67  C   UNL A   1      44.151  32.529  31.420  1.00  0.00     0.057 A 
ATOM     68  C   UNL A   1      43.933  32.831  32.771  1.00  0.00     0.134 A 
ATOM     69  C   UNL A   1      44.588  33.570  30.590  1.00  0.00     0.134 A 
ATOM     70  F   UNL A   1      43.502  31.883  33.618  1.00  0.00    -0.206 F 
ATOM     71  C   UNL A   1      44.113  34.122  33.271  1.00  0.00     0.040 A 
ATOM     72  C   UNL A   1      44.798  34.858  31.084  1.00  0.00     0.040 A 
ATOM     73  F   UNL A   1      44.822  33.350  29.287  1.00  0.00    -0.206 F 
ATOM     74  C   UNL A   1      44.551  35.139  32.426  1.00  0.00     0.006 A 
ENDBRANCH  53  67
BRANCH  54  75
ATOM     75  C   UNL A   1      42.366  23.553  27.442  1.00  0.00     0.057 A 
ATOM     76  C   UNL A   1      42.460  23.386  26.056  1.00  0.00     0.134 A 
ATOM     77  C   UNL A   1      42.037  22.428  28.208  1.00  0.00     0.134 A 
ATOM     78  F   UNL A   1      42.755  24.430  25.269  1.00  0.00    -0.206 F 
ATOM     79  C   UNL A   1      42.220  22.151  25.451  1.00  0.00     0.040 A 
ATOM     80  C   UNL A   1      41.817  21.182  27.619  1.00  0.00     0.040 A 
ATOM     81  F   UNL A   1      41.940  22.522  29.542  1.00  0.00    -0.206 F 
ATOM     82  C   UNL A   1      41.903  21.043  26.235  1.00  0.00     0.006 A 
ENDBRANCH  54  75
BRANCH  66  83
ATOM     83  C   UNL A   1      47.991  26.529  30.269  1.00  0.00     0.057 A 
ATOM     84  C   UNL A   1      49.008  26.725  29.327  1.00  0.00     0.134 A 
ATOM     85  C   UNL A   1      48.331  25.884  31.464  1.00  0.00     0.134 A 
ATOM     86  F   UNL A   1      48.743  27.324  28.156  1.00  0.00    -0.206 F 
ATOM     87  C   UNL A   1      50.310  26.280  29.557  1.00  0.00     0.040 A 
ATOM     88  C   UNL A   1      49.634  25.455  31.717  1.00  0.00     0.040 A 
ATOM     89  F   UNL A   1      47.404  25.671  32.411  1.00  0.00    -0.206 F 
ATOM     90  C   UNL A   1      50.628  25.647  30.758  1.00  0.00     0.006 A 
ENDBRANCH  66  83
ENDBRANCH  40  41
ENDBRANCH  32  35
ENDBRANCH  30  31
ENDBRANCH  29  30
ENDBRANCH  28  29
ENDBRANCH   1  28
TORSDOF 17
ENDMDL
MODEL 2
REMARK VINA RESULT:     -10.3      2.664      8.043
REMARK SMILES C[C@H]1C[N@H+]2CCCC[C@@H]2CN1C(=O)[C@H]([NH3+])CC(=O)NCCCCCCNC(=O)c1ccc(-c2c3nc(c(-c4c(F)cccc4F)c4ccc([nH]4)c(-c4c(F)cccc4F)c4nc(c(-c5c(F)cccc5F)c5ccc2[nH]5)C=C4)C=C3)cc1
REMARK SMILES IDX 22 1 21 2 20 3 19 4 17 5 18 6 16 8 14 9 12 10 13 11 11 12
REMARK SMILES IDX 1 13 2 14 3 15 4 16 10 17 5 18 9 19 6 21 8 22 7 23 15 24
REMARK SMILES IDX 23 28 24 29 25 30 26 31 27 32 28 34 29 35 30 36 82 37 31 38
REMARK SMILES IDX 81 39 32 40 33 41 34 42 75 43 35 44 80 45 74 46 76 47 36 48
REMARK SMILES IDX 79 49 73 50 72 51 37 53 63 54 46 55 62 56 47 57 50 58 61 59
REMARK SMILES IDX 77 60 48 61 49 62 60 64 78 65 51 66 38 67 39 68 44 69 40 70
REMARK SMILES IDX 41 71 43 72 45 73 42 74 64 75 65 76 70 77 66 78 67 79 69 80
REMARK SMILES IDX 71 81 68 82 52 83 53 84 58 85 54 86 55 87 57 88 59 89 56 90
REMARK H PARENT 19 7 4 20 15 25 15 26 15 27 26 33 76 52 50 63
REMARK Flexibility Score: inf
ROOT
ATOM      1  C   UNL A   1      34.146  22.031  27.060  1.00  0.00     0.002 C 
ENDROOT
BRANCH   1   2
ATOM      2  C   UNL A   1      32.867  22.584  27.697  1.00  0.00     0.021 C 
BRANCH   2   3
ATOM      3  C   UNL A   1      31.935  23.259  26.688  1.00  0.00     0.116 C 
BRANCH   3   4
ATOM      4  N   UNL A   1      31.925  22.512  25.442  1.00  0.00    -0.356 N 
ATOM      5  C   UNL A   1      31.861  22.989  24.164  1.00  0.00     0.226 C 
ATOM      6  O   UNL A   1      31.608  22.206  23.249  1.00  0.00    -0.275 OA
ATOM      7  H   UNL A   1      31.970  21.532  25.531  1.00  0.00     0.163 HD
BRANCH   5   8
ATOM      8  C   UNL A   1      32.204  24.435  23.896  1.00  0.00     0.175 C 
BRANCH   8   9
ATOM      9  C   UNL A   1      33.166  24.672  22.728  1.00  0.00     0.280 C 
BRANCH   9  10
ATOM     10  C   UNL A   1      33.303  26.183  22.371  1.00  0.00     0.281 C 
ATOM     11  O   UNL A   1      33.651  26.501  21.232  1.00  0.00    -0.268 OA
BRANCH  10  12
ATOM     12  N   UNL A   1      32.919  27.137  23.338  1.00  0.00    -0.323 N 
ATOM     13  C   UNL A   1      30.573  27.440  22.528  1.00  0.00     0.037 C 
ATOM     14  C   UNL A   1      31.882  28.129  22.960  1.00  0.00     0.137 C 
ATOM     15  C   UNL A   1      31.489  29.126  24.098  1.00  0.00     0.287 C 
ATOM     16  N   UNL A   1      32.573  29.589  24.985  1.00  0.00    -0.329 N 
ATOM     17  C   UNL A   1      33.869  27.562  24.368  1.00  0.00     0.185 C 
ATOM     18  C   UNL A   1      32.003  30.372  26.098  1.00  0.00     0.262 C 
ATOM     19  C   UNL A   1      33.297  28.418  25.505  1.00  0.00     0.203 C 
ATOM     20  H   UNL A   1      33.219  30.182  24.465  1.00  0.00     0.348 HD
ATOM     21  C   UNL A   1      33.078  30.852  27.075  1.00  0.00     0.062 C 
ATOM     22  C   UNL A   1      34.452  28.867  26.416  1.00  0.00     0.067 C 
ATOM     23  C   UNL A   1      33.937  29.699  27.583  1.00  0.00     0.012 C 
ENDBRANCH  10  12
ENDBRANCH   9  10
BRANCH   9  24
ATOM     24  N   UNL A   1      32.911  23.929  21.467  1.00  0.00    -0.347 N 
ATOM     25  H   UNL A   1      32.496  23.024  21.684  1.00  0.00     0.345 HD
ATOM     26  H   UNL A   1      33.791  23.790  20.971  1.00  0.00     0.345 HD
ATOM     27  H   UNL A   1      32.272  24.466  20.880  1.00  0.00     0.345 HD
ENDBRANCH   9  24
ENDBRANCH   8   9
ENDBRANCH   5   8
ENDBRANCH   3   4
ENDBRANCH   2   3
ENDBRANCH   1   2
BRANCH   1  28
ATOM     28  C   UNL A   1      35.215  23.087  26.762  1.00  0.00     0.002 C 
BRANCH  28  29
ATOM     29  C   UNL A   1      35.642  23.179  25.295  1.00  0.00     0.021 C 
BRANCH  29  30
ATOM     30  C   UNL A   1      37.048  23.733  25.077  1.00  0.00     0.116 C 
BRANCH  30  31
ATOM     31  N   UNL A   1      38.072  22.756  25.407  1.00  0.00    -0.352 N 
ATOM     32  C   UNL A   1      39.261  22.928  26.072  1.00  0.00     0.251 C 
ATOM     33  H   UNL A   1      37.887  21.835  25.111  1.00  0.00     0.163 HD
ATOM     34  O   UNL A   1      40.105  22.040  26.073  1.00  0.00    -0.269 OA
BRANCH  32  35
ATOM     35  C   UNL A   1      39.527  24.197  26.782  1.00  0.00     0.039 A 
ATOM     36  C   UNL A   1      39.028  24.364  28.076  1.00  0.00     0.014 A 
ATOM     37  C   UNL A   1      40.246  25.224  26.165  1.00  0.00     0.014 A 
ATOM     38  C   UNL A   1      39.296  25.545  28.773  1.00  0.00     0.010 A 
ATOM     39  C   UNL A   1      40.568  26.371  26.883  1.00  0.00     0.010 A 
ATOM     40  C   UNL A   1      40.092  26.544  28.191  1.00  0.00    -0.014 A 
BRANCH  40  41
ATOM     41  C   UNL A   1      40.433  27.783  28.934  1.00  0.00     0.031 A 
ATOM     42  C   UNL A   1      41.753  27.899  29.642  1.00  0.00     0.074 A 
ATOM     43  C   UNL A   1      39.524  28.772  29.030  1.00  0.00     0.049 A 
ATOM     44  N   UNL A   1      42.202  28.865  30.402  1.00  0.00    -0.248 NA
ATOM     45  C   UNL A   1      42.681  26.766  29.498  1.00  0.00     0.031 C 
ATOM     46  C   UNL A   1      38.188  28.755  28.432  1.00  0.00     0.029 A 
ATOM     47  N   UNL A   1      39.583  29.978  29.680  1.00  0.00    -0.354 N 
ATOM     48  C   UNL A   1      43.455  28.452  30.837  1.00  0.00     0.074 A 
ATOM     49  C   UNL A   1      43.673  27.127  30.299  1.00  0.00     0.031 C 
ATOM     50  C   UNL A   1      37.560  29.903  28.733  1.00  0.00     0.029 A 
ATOM     51  C   UNL A   1      38.432  30.720  29.570  1.00  0.00     0.049 A 
ATOM     52  H   UNL A   1      40.376  30.284  30.179  1.00  0.00     0.167 HD
ATOM     53  C   UNL A   1      44.352  29.126  31.595  1.00  0.00     0.037 A 
ATOM     54  C   UNL A   1      38.113  31.918  30.092  1.00  0.00     0.037 A 
ATOM     55  C   UNL A   1      44.141  30.453  32.111  1.00  0.00     0.049 A 
ATOM     56  C   UNL A   1      39.128  32.651  30.924  1.00  0.00     0.074 A 
ATOM     57  C   UNL A   1      45.010  31.243  32.841  1.00  0.00     0.029 A 
ATOM     58  N   UNL A   1      42.973  31.184  31.950  1.00  0.00    -0.354 N 
ATOM     59  N   UNL A   1      40.334  32.277  31.273  1.00  0.00    -0.248 NA
ATOM     60  C   UNL A   1      38.740  33.975  31.428  1.00  0.00     0.031 C 
ATOM     61  C   UNL A   1      44.354  32.439  33.157  1.00  0.00     0.029 A 
ATOM     62  C   UNL A   1      43.093  32.410  32.584  1.00  0.00     0.049 A 
ATOM     63  H   UNL A   1      42.177  30.877  31.459  1.00  0.00     0.167 HD
ATOM     64  C   UNL A   1      40.859  33.326  32.016  1.00  0.00     0.074 A 
ATOM     65  C   UNL A   1      39.842  34.358  32.056  1.00  0.00     0.031 C 
ATOM     66  C   UNL A   1      42.072  33.426  32.614  1.00  0.00     0.037 A 
BRANCH  53  67
ATOM     67  C   UNL A   1      45.647  28.433  31.906  1.00  0.00     0.057 A 
ATOM     68  C   UNL A   1      46.766  28.552  31.072  1.00  0.00     0.134 A 
ATOM     69  C   UNL A   1      45.784  27.652  33.061  1.00  0.00     0.134 A 
ATOM     70  F   UNL A   1      46.699  29.276  29.943  1.00  0.00    -0.206 F 
ATOM     71  C   UNL A   1      47.965  27.895  31.357  1.00  0.00     0.040 A 
ATOM     72  C   UNL A   1      46.985  27.013  33.371  1.00  0.00     0.040 A 
ATOM     73  F   UNL A   1      44.754  27.500  33.907  1.00  0.00    -0.206 F 
ATOM     74  C   UNL A   1      48.077  27.126  32.512  1.00  0.00     0.006 A 
ENDBRANCH  53  67
BRANCH  54  75
ATOM     75  C   UNL A   1      36.779  32.509  29.821  1.00  0.00     0.057 A 
ATOM     76  C   UNL A   1      36.594  33.428  28.783  1.00  0.00     0.134 A 
ATOM     77  C   UNL A   1      35.660  32.162  30.586  1.00  0.00     0.134 A 
ATOM     78  F   UNL A   1      37.633  33.812  28.028  1.00  0.00    -0.206 F 
ATOM     79  C   UNL A   1      35.345  33.994  28.524  1.00  0.00     0.040 A 
ATOM     80  C   UNL A   1      34.400  32.703  30.323  1.00  0.00     0.040 A 
ATOM     81  F   UNL A   1      35.771  31.279  31.589  1.00  0.00    -0.206 F 
ATOM     82  C   UNL A   1      34.242  33.627  29.292  1.00  0.00     0.006 A 
ENDBRANCH  54  75
BRANCH  66  83
ATOM     83  C   UNL A   1      42.374  34.703  33.338  1.00  0.00     0.057 A 
ATOM     84  C   UNL A   1      42.056  34.879  34.690  1.00  0.00     0.134 A 
ATOM     85  C   UNL A   1      43.026  35.756  32.684  1.00  0.00     0.134 A 
ATOM     86  F   UNL A   1      41.419  33.913  35.369  1.00  0.00    -0.206 F 
ATOM     87  C   UNL A   1      42.358  36.064  35.362  1.00  0.00     0.040 A 
ATOM     88  C   UNL A   1      43.355  36.937  33.351  1.00  0.00     0.040 A 
ATOM     89  F   UNL A   1      43.365  35.649  31.390  1.00  0.00    -0.206 F 
ATOM     90  C   UNL A   1      43.015  37.096  34.693  1.00  0.00     0.006 A 
ENDBRANCH  66  83
ENDBRANCH  40  41
ENDBRANCH  32  35
ENDBRANCH  30  31
ENDBRANCH  29  30
ENDBRANCH  28  29
ENDBRANCH   1  28
TORSDOF 17
ENDMDL
MODEL 3
REMARK VINA RESULT:     -10.2      1.983      7.387
REMARK SMILES C[C@H]1C[N@H+]2CCCC[C@@H]2CN1C(=O)[C@H]([NH3+])CC(=O)NCCCCCCNC(=O)c1ccc(-c2c3nc(c(-c4c(F)cccc4F)c4ccc([nH]4)c(-c4c(F)cccc4F)c4nc(c(-c5c(F)cccc5F)c5ccc2[nH]5)C=C4)C=C3)cc1
REMARK SMILES IDX 22 1 21 2 20 3 19 4 17 5 18 6 16 8 14 9 12 10 13 11 11 12
REMARK SMILES IDX 1 13 2 14 3 15 4 16 10 17 5 18 9 19 6 21 8 22 7 23 15 24
REMARK SMILES IDX 23 28 24 29 25 30 26 31 27 32 28 34 29 35 30 36 82 37 31 38
REMARK SMILES IDX 81 39 32 40 33 41 34 42 75 43 35 44 80 45 74 46 76 47 36 48
REMARK SMILES IDX 79 49 73 50 72 51 37 53 63 54 46 55 62 56 47 57 50 58 61 59
REMARK SMILES IDX 77 60 48 61 49 62 60 64 78 65 51 66 38 67 39 68 44 69 40 70
REMARK SMILES IDX 41 71 43 72 45 73 42 74 64 75 65 76 70 77 66 78 67 79 69 80
REMARK SMILES IDX 71 81 68 82 52 83 53 84 58 85 54 86 55 87 57 88 59 89 56 90
REMARK H PARENT 19 7 4 20 15 25 15 26 15 27 26 33 76 52 50 63
REMARK Flexibility Score: inf
ROOT
ATOM      1  C   UNL A   1      36.122  22.327  25.731  1.00  0.00     0.002 C 
ENDROOT
BRANCH   1   2
ATOM      2  C   UNL A   1      35.206  22.719  26.895  1.00  0.00     0.021 C 
BRANCH   2   3
ATOM      3  C   UNL A   1      34.169  21.645  27.233  1.00  0.00     0.116 C 
BRANCH   3   4
ATOM      4  N   UNL A   1      32.923  22.268  27.645  1.00  0.00    -0.356 N 
ATOM      5  C   UNL A   1      31.880  22.682  26.867  1.00  0.00     0.226 C 
ATOM      6  O   UNL A   1      31.023  23.414  27.361  1.00  0.00    -0.275 OA
ATOM      7  H   UNL A   1      32.817  22.410  28.614  1.00  0.00     0.163 HD
BRANCH   5   8
ATOM      8  C   UNL A   1      31.750  22.152  25.460  1.00  0.00     0.175 C 
BRANCH   8   9
ATOM      9  C   UNL A   1      32.422  23.000  24.376  1.00  0.00     0.280 C 
BRANCH   9  10
ATOM     10  C   UNL A   1      31.499  24.144  23.862  1.00  0.00     0.281 C 
ATOM     11  O   UNL A   1      30.412  23.858  23.356  1.00  0.00    -0.268 OA
BRANCH  10  12
ATOM     12  N   UNL A   1      31.897  25.480  24.091  1.00  0.00    -0.323 N 
ATOM     13  C   UNL A   1      32.971  25.849  21.864  1.00  0.00     0.037 C 
ATOM     14  C   UNL A   1      33.110  25.972  23.394  1.00  0.00     0.137 C 
ATOM     15  C   UNL A   1      33.461  27.469  23.676  1.00  0.00     0.287 C 
ATOM     16  N   UNL A   1      33.221  27.966  25.044  1.00  0.00    -0.329 N 
ATOM     17  C   UNL A   1      31.579  26.131  25.363  1.00  0.00     0.185 C 
ATOM     18  C   UNL A   1      33.434  29.426  25.086  1.00  0.00     0.262 C 
ATOM     19  C   UNL A   1      31.841  27.641  25.435  1.00  0.00     0.203 C 
ATOM     20  H   UNL A   1      33.870  27.522  25.694  1.00  0.00     0.348 HD
ATOM     21  C   UNL A   1      33.166  30.007  26.476  1.00  0.00     0.062 C 
ATOM     22  C   UNL A   1      31.565  28.124  26.869  1.00  0.00     0.067 C 
ATOM     23  C   UNL A   1      31.783  29.626  26.992  1.00  0.00     0.012 C 
ENDBRANCH  10  12
ENDBRANCH   9  10
BRANCH   9  24
ATOM     24  N   UNL A   1      32.969  22.290  23.191  1.00  0.00    -0.347 N 
ATOM     25  H   UNL A   1      32.237  21.720  22.768  1.00  0.00     0.345 HD
ATOM     26  H   UNL A   1      33.743  21.692  23.479  1.00  0.00     0.345 HD
ATOM     27  H   UNL A   1      33.303  22.973  22.510  1.00  0.00     0.345 HD
ENDBRANCH   9  24
ENDBRANCH   8   9
ENDBRANCH   5   8
ENDBRANCH   3   4
ENDBRANCH   2   3
ENDBRANCH   1   2
BRANCH   1  28
ATOM     28  C   UNL A   1      35.829  20.949  25.129  1.00  0.00     0.002 C 
BRANCH  28  29
ATOM     29  C   UNL A   1      37.060  20.065  24.908  1.00  0.00     0.021 C 
BRANCH  29  30
ATOM     30  C   UNL A   1      38.345  20.598  25.536  1.00  0.00     0.116 C 
BRANCH  30  31
ATOM     31  N   UNL A   1      39.374  19.574  25.616  1.00  0.00    -0.352 N 
ATOM     32  C   UNL A   1      40.700  19.692  25.949  1.00  0.00     0.251 C 
ATOM     33  H   UNL A   1      39.075  18.660  25.399  1.00  0.00     0.163 HD
ATOM     34  O   UNL A   1      41.474  18.761  25.755  1.00  0.00    -0.269 OA
BRANCH  32  35
ATOM     35  C   UNL A   1      41.198  20.953  26.536  1.00  0.00     0.039 A 
ATOM     36  C   UNL A   1      41.793  21.899  25.698  1.00  0.00     0.014 A 
ATOM     37  C   UNL A   1      41.098  21.191  27.910  1.00  0.00     0.014 A 
ATOM     38  C   UNL A   1      42.241  23.110  26.231  1.00  0.00     0.010 A 
ATOM     39  C   UNL A   1      41.484  22.423  28.428  1.00  0.00     0.010 A 
ATOM     40  C   UNL A   1      42.065  23.391  27.595  1.00  0.00    -0.014 A 
BRANCH  40  41
ATOM     41  C   UNL A   1      42.486  24.692  28.171  1.00  0.00     0.031 A 
ATOM     42  C   UNL A   1      41.476  25.783  28.389  1.00  0.00     0.074 A 
ATOM     43  C   UNL A   1      43.788  24.914  28.431  1.00  0.00     0.049 A 
ATOM     44  N   UNL A   1      41.660  27.009  28.809  1.00  0.00    -0.248 NA
ATOM     45  C   UNL A   1      40.077  25.462  28.065  1.00  0.00     0.031 C 
ATOM     46  C   UNL A   1      44.870  23.953  28.212  1.00  0.00     0.029 A 
ATOM     47  N   UNL A   1      44.424  26.026  28.921  1.00  0.00    -0.354 N 
ATOM     48  C   UNL A   1      40.407  27.608  28.788  1.00  0.00     0.074 A 
ATOM     49  C   UNL A   1      39.480  26.628  28.263  1.00  0.00     0.031 C 
ATOM     50  C   UNL A   1      46.034  24.513  28.579  1.00  0.00     0.029 A 
ATOM     51  C   UNL A   1      45.785  25.880  29.026  1.00  0.00     0.049 A 
ATOM     52  H   UNL A   1      43.949  26.852  29.174  1.00  0.00     0.167 HD
ATOM     53  C   UNL A   1      40.056  28.852  29.191  1.00  0.00     0.037 A 
ATOM     54  C   UNL A   1      46.728  26.752  29.429  1.00  0.00     0.037 A 
ATOM     55  C   UNL A   1      40.977  29.817  29.732  1.00  0.00     0.049 A 
ATOM     56  C   UNL A   1      46.314  28.125  29.879  1.00  0.00     0.074 A 
ATOM     57  C   UNL A   1      40.712  31.083  30.220  1.00  0.00     0.029 A 
ATOM     58  N   UNL A   1      42.345  29.619  29.852  1.00  0.00    -0.354 N 
ATOM     59  N   UNL A   1      45.117  28.656  29.915  1.00  0.00    -0.248 NA
ATOM     60  C   UNL A   1      47.382  29.017  30.352  1.00  0.00     0.031 C 
ATOM     61  C   UNL A   1      41.924  31.668  30.601  1.00  0.00     0.029 A 
ATOM     62  C   UNL A   1      42.939  30.748  30.391  1.00  0.00     0.049 A 
ATOM     63  H   UNL A   1      42.822  28.798  29.592  1.00  0.00     0.167 HD
ATOM     64  C   UNL A   1      45.282  29.933  30.434  1.00  0.00     0.074 A 
ATOM     65  C   UNL A   1      46.695  30.092  30.712  1.00  0.00     0.031 C 
ATOM     66  C   UNL A   1      44.348  30.890  30.660  1.00  0.00     0.037 A 
BRANCH  53  67
ATOM     67  C   UNL A   1      38.610  29.234  29.062  1.00  0.00     0.057 A 
ATOM     68  C   UNL A   1      38.064  29.651  27.841  1.00  0.00     0.134 A 
ATOM     69  C   UNL A   1      37.749  29.170  30.165  1.00  0.00     0.134 A 
ATOM     70  F   UNL A   1      38.837  29.747  26.748  1.00  0.00    -0.206 F 
ATOM     71  C   UNL A   1      36.722  30.020  27.727  1.00  0.00     0.040 A 
ATOM     72  C   UNL A   1      36.399  29.509  30.057  1.00  0.00     0.040 A 
ATOM     73  F   UNL A   1      38.204  28.772  31.362  1.00  0.00    -0.206 F 
ATOM     74  C   UNL A   1      35.885  29.945  28.838  1.00  0.00     0.006 A 
ENDBRANCH  53  67
BRANCH  54  75
ATOM     75  C   UNL A   1      48.153  26.341  29.446  1.00  0.00     0.057 A 
ATOM     76  C   UNL A   1      48.975  26.536  28.330  1.00  0.00     0.134 A 
ATOM     77  C   UNL A   1      48.730  25.754  30.579  1.00  0.00     0.134 A 
ATOM     78  F   UNL A   1      48.473  27.078  27.211  1.00  0.00    -0.206 F 
ATOM     79  C   UNL A   1      50.315  26.148  28.333  1.00  0.00     0.040 A 
ATOM     80  C   UNL A   1      50.075  25.382  30.603  1.00  0.00     0.040 A 
ATOM     81  F   UNL A   1      47.998  25.550  31.683  1.00  0.00    -0.206 F 
ATOM     82  C   UNL A   1      50.870  25.574  29.475  1.00  0.00     0.006 A 
ENDBRANCH  54  75
BRANCH  66  83
ATOM     83  C   UNL A   1      44.821  32.180  31.259  1.00  0.00     0.057 A 
ATOM     84  C   UNL A   1      44.913  32.362  32.644  1.00  0.00     0.134 A 
ATOM     85  C   UNL A   1      45.225  33.241  30.438  1.00  0.00     0.134 A 
ATOM     86  F   UNL A   1      44.527  31.390  33.484  1.00  0.00    -0.206 F 
ATOM     87  C   UNL A   1      45.372  33.560  33.193  1.00  0.00     0.040 A 
ATOM     88  C   UNL A   1      45.709  34.435  30.974  1.00  0.00     0.040 A 
ATOM     89  F   UNL A   1      45.169  33.129  29.102  1.00  0.00    -0.206 F 
ATOM     90  C   UNL A   1      45.777  34.599  32.357  1.00  0.00     0.006 A 
ENDBRANCH  66  83
ENDBRANCH  40  41
ENDBRANCH  32  35
ENDBRANCH  30  31
ENDBRANCH  29  30
ENDBRANCH  28  29
ENDBRANCH   1  28
TORSDOF 17
ENDMDL
