MODEL 1
REMARK VINA RESULT:      -8.6      0.000      0.000
REMARK SMILES CC[N@@H+](C[C@H]1CCCO1)[C@@H](C)c1ccc(C(=O)NCCCCCCNC(=O)c2ccc(-c3c4nc(c(-c5c(F)cccc5F)c5ccc([nH]5)c(-c5c(F)cccc5F)c5nc(c(-c6c(F)cccc6F)c6ccc3[nH]6)C=C5)C=C4)cc2)o1
REMARK SMILES IDX 20 1 19 2 18 3 16 4 17 5 15 7 12 8 13 9 82 10 14 11 10 12
REMARK SMILES IDX 11 13 3 14 2 16 1 17 4 18 5 19 6 20 9 21 7 22 8 23 21 24
REMARK SMILES IDX 22 25 23 26 24 27 25 28 26 29 27 31 28 32 29 33 81 34 30 35
REMARK SMILES IDX 80 36 31 37 32 38 33 39 74 40 34 41 79 42 73 43 75 44 35 45
REMARK SMILES IDX 78 46 72 47 71 48 36 50 62 51 45 52 61 53 46 54 49 55 60 56
REMARK SMILES IDX 76 57 47 58 48 59 59 61 77 62 50 63 37 64 38 65 43 66 39 67
REMARK SMILES IDX 40 68 42 69 44 70 41 71 63 72 64 73 69 74 65 75 66 76 68 77
REMARK SMILES IDX 70 78 67 79 51 80 52 81 57 82 53 83 54 84 56 85 58 86 55 87
REMARK H PARENT 18 6 3 15 25 30 75 49 49 60
REMARK Flexibility Score: inf
ROOT
ATOM      1  C   UNL A   1      36.176  34.223  33.508  1.00  0.00     0.021 C 
ENDROOT
BRANCH   1   2
ATOM      2  C   UNL A   1      36.630  33.121  34.460  1.00  0.00     0.116 C 
BRANCH   2   3
ATOM      3  N   UNL A   1      36.570  31.849  33.790  1.00  0.00    -0.349 N 
ATOM      4  C   UNL A   1      37.537  30.915  33.530  1.00  0.00     0.287 C 
ATOM      5  O   UNL A   1      37.180  30.004  32.776  1.00  0.00    -0.266 OA
ATOM      6  H   UNL A   1      35.675  31.608  33.460  1.00  0.00     0.163 HD
BRANCH   4   7
ATOM      7  C   UNL A   1      38.849  30.955  34.151  1.00  0.00     0.191 A 
ATOM      8  C   UNL A   1      40.787  29.953  34.545  1.00  0.00     0.161 A 
ATOM      9  C   UNL A   1      40.744  31.039  35.385  1.00  0.00     0.053 A 
ATOM     10  O   UNL A   1      39.690  29.952  33.747  1.00  0.00    -0.450 OA
ATOM     11  C   UNL A   1      39.521  31.702  35.105  1.00  0.00     0.057 A 
BRANCH   8  12
ATOM     12  C   UNL A   1      41.774  28.851  34.312  1.00  0.00     0.248 C 
ATOM     13  C   UNL A   1      41.136  27.802  33.394  1.00  0.00     0.084 C 
BRANCH  12  14
ATOM     14  N   UNL A   1      42.448  28.396  35.554  1.00  0.00    -0.324 N 
ATOM     15  H   UNL A   1      43.182  27.807  35.162  1.00  0.00     0.348 HD
BRANCH  14  16
ATOM     16  C   UNL A   1      43.220  29.367  36.335  1.00  0.00     0.259 C 
ATOM     17  C   UNL A   1      44.730  29.414  36.112  1.00  0.00     0.071 C 
ENDBRANCH  14  16
BRANCH  14  18
ATOM     18  C   UNL A   1      41.564  27.579  36.419  1.00  0.00     0.295 C 
BRANCH  18  19
ATOM     19  C   UNL A   1      41.932  26.139  36.913  1.00  0.00     0.173 C 
ATOM     20  C   UNL A   1      41.281  24.998  36.138  1.00  0.00     0.040 C 
ATOM     21  O   UNL A   1      43.339  25.863  36.910  1.00  0.00    -0.372 OA
ATOM     22  C   UNL A   1      42.386  24.470  35.261  1.00  0.00     0.031 C 
ATOM     23  C   UNL A   1      43.618  24.725  36.094  1.00  0.00     0.161 C 
ENDBRANCH  18  19
ENDBRANCH  14  18
ENDBRANCH  12  14
ENDBRANCH   8  12
ENDBRANCH   4   7
ENDBRANCH   2   3
ENDBRANCH   1   2
BRANCH   1  24
ATOM     24  C   UNL A   1      34.660  34.451  33.554  1.00  0.00     0.002 C 
BRANCH  24  25
ATOM     25  C   UNL A   1      34.210  35.843  33.089  1.00  0.00     0.002 C 
BRANCH  25  26
ATOM     26  C   UNL A   1      33.020  35.840  32.125  1.00  0.00     0.021 C 
BRANCH  26  27
ATOM     27  C   UNL A   1      33.357  36.346  30.728  1.00  0.00     0.116 C 
BRANCH  27  28
ATOM     28  N   UNL A   1      32.698  35.553  29.704  1.00  0.00    -0.352 N 
ATOM     29  C   UNL A   1      33.212  34.548  28.927  1.00  0.00     0.251 C 
ATOM     30  H   UNL A   1      31.750  35.768  29.546  1.00  0.00     0.163 HD
ATOM     31  O   UNL A   1      32.598  34.148  27.944  1.00  0.00    -0.269 OA
BRANCH  29  32
ATOM     32  C   UNL A   1      34.516  33.951  29.278  1.00  0.00     0.039 A 
ATOM     33  C   UNL A   1      34.556  32.918  30.216  1.00  0.00     0.014 A 
ATOM     34  C   UNL A   1      35.695  34.424  28.695  1.00  0.00     0.014 A 
ATOM     35  C   UNL A   1      35.779  32.328  30.540  1.00  0.00     0.010 A 
ATOM     36  C   UNL A   1      36.902  33.789  28.964  1.00  0.00     0.010 A 
ATOM     37  C   UNL A   1      36.957  32.744  29.899  1.00  0.00    -0.014 A 
BRANCH  37  38
ATOM     38  C   UNL A   1      38.264  32.113  30.207  1.00  0.00     0.031 A 
ATOM     39  C   UNL A   1      39.267  32.842  31.057  1.00  0.00     0.074 A 
ATOM     40  C   UNL A   1      38.568  30.915  29.673  1.00  0.00     0.049 A 
ATOM     41  N   UNL A   1      40.488  32.496  31.374  1.00  0.00    -0.248 NA
ATOM     42  C   UNL A   1      38.852  34.146  31.597  1.00  0.00     0.031 C 
ATOM     43  C   UNL A   1      37.693  30.130  28.800  1.00  0.00     0.029 A 
ATOM     44  N   UNL A   1      39.704  30.154  29.777  1.00  0.00    -0.354 N 
ATOM     45  C   UNL A   1      40.991  33.543  32.135  1.00  0.00     0.074 A 
ATOM     46  C   UNL A   1      39.963  34.559  32.189  1.00  0.00     0.031 C 
ATOM     47  C   UNL A   1      38.317  28.990  28.465  1.00  0.00     0.029 A 
ATOM     48  C   UNL A   1      39.648  28.981  29.066  1.00  0.00     0.049 A 
ATOM     49  H   UNL A   1      40.486  30.423  30.311  1.00  0.00     0.167 HD
ATOM     50  C   UNL A   1      42.191  33.638  32.755  1.00  0.00     0.037 A 
ATOM     51  C   UNL A   1      40.569  28.012  28.909  1.00  0.00     0.037 A 
ATOM     52  C   UNL A   1      43.201  32.613  32.719  1.00  0.00     0.049 A 
ATOM     53  C   UNL A   1      41.898  28.145  29.599  1.00  0.00     0.074 A 
ATOM     54  C   UNL A   1      44.427  32.587  33.362  1.00  0.00     0.029 A 
ATOM     55  N   UNL A   1      43.100  31.430  32.001  1.00  0.00    -0.354 N 
ATOM     56  N   UNL A   1      42.337  29.111  30.369  1.00  0.00    -0.248 NA
ATOM     57  C   UNL A   1      42.859  27.051  29.403  1.00  0.00     0.031 C 
ATOM     58  C   UNL A   1      45.086  31.410  32.995  1.00  0.00     0.029 A 
ATOM     59  C   UNL A   1      44.252  30.678  32.166  1.00  0.00     0.049 A 
ATOM     60  H   UNL A   1      42.325  31.165  31.455  1.00  0.00     0.167 HD
ATOM     61  C   UNL A   1      43.610  28.730  30.772  1.00  0.00     0.074 A 
ATOM     62  C   UNL A   1      43.867  27.437  30.171  1.00  0.00     0.031 C 
ATOM     63  C   UNL A   1      44.487  29.389  31.566  1.00  0.00     0.037 A 
BRANCH  50  64
ATOM     64  C   UNL A   1      42.477  34.896  33.524  1.00  0.00     0.057 A 
ATOM     65  C   UNL A   1      42.173  35.013  34.887  1.00  0.00     0.134 A 
ATOM     66  C   UNL A   1      43.087  35.992  32.902  1.00  0.00     0.134 A 
ATOM     67  F   UNL A   1      41.575  34.005  35.540  1.00  0.00    -0.206 F 
ATOM     68  C   UNL A   1      42.442  36.184  35.598  1.00  0.00     0.040 A 
ATOM     69  C   UNL A   1      43.387  37.159  33.609  1.00  0.00     0.040 A 
ATOM     70  F   UNL A   1      43.410  35.945  31.601  1.00  0.00    -0.206 F 
ATOM     71  C   UNL A   1      43.057  37.259  34.959  1.00  0.00     0.006 A 
ENDBRANCH  50  64
BRANCH  51  72
ATOM     72  C   UNL A   1      40.261  26.821  28.079  1.00  0.00     0.057 A 
ATOM     73  C   UNL A   1      39.457  25.787  28.571  1.00  0.00     0.134 A 
ATOM     74  C   UNL A   1      40.767  26.681  26.780  1.00  0.00     0.134 A 
ATOM     75  F   UNL A   1      38.957  25.855  29.814  1.00  0.00    -0.206 F 
ATOM     76  C   UNL A   1      39.182  24.648  27.813  1.00  0.00     0.040 A 
ATOM     77  C   UNL A   1      40.481  25.560  26.001  1.00  0.00     0.040 A 
ATOM     78  F   UNL A   1      41.538  27.641  26.247  1.00  0.00    -0.206 F 
ATOM     79  C   UNL A   1      39.693  24.535  26.520  1.00  0.00     0.006 A 
ENDBRANCH  51  72
BRANCH  63  80
ATOM     80  C   UNL A   1      45.792  28.709  31.860  1.00  0.00     0.057 A 
ATOM     81  C   UNL A   1      45.906  27.723  32.847  1.00  0.00     0.134 A 
ATOM     82  C   UNL A   1      46.940  29.019  31.119  1.00  0.00     0.134 A 
ATOM     83  F   UNL A   1      44.847  27.390  33.601  1.00  0.00    -0.206 F 
ATOM     84  C   UNL A   1      47.121  27.086  33.103  1.00  0.00     0.040 A 
ATOM     85  C   UNL A   1      48.152  28.370  31.346  1.00  0.00     0.040 A 
ATOM     86  F   UNL A   1      46.896  29.950  30.152  1.00  0.00    -0.206 F 
ATOM     87  C   UNL A   1      48.248  27.404  32.346  1.00  0.00     0.006 A 
ENDBRANCH  63  80
ENDBRANCH  37  38
ENDBRANCH  29  32
ENDBRANCH  27  28
ENDBRANCH  26  27
ENDBRANCH  25  26
ENDBRANCH  24  25
ENDBRANCH   1  24
TORSDOF 18
ENDMDL
MODEL 2
REMARK VINA RESULT:      -8.6      5.301     11.735
REMARK SMILES CC[N@@H+](C[C@H]1CCCO1)[C@@H](C)c1ccc(C(=O)NCCCCCCNC(=O)c2ccc(-c3c4nc(c(-c5c(F)cccc5F)c5ccc([nH]5)c(-c5c(F)cccc5F)c5nc(c(-c6c(F)cccc6F)c6ccc3[nH]6)C=C5)C=C4)cc2)o1
REMARK SMILES IDX 20 1 19 2 18 3 16 4 17 5 15 7 12 8 13 9 82 10 14 11 10 12
REMARK SMILES IDX 11 13 3 14 2 16 1 17 4 18 5 19 6 20 9 21 7 22 8 23 21 24
REMARK SMILES IDX 22 25 23 26 24 27 25 28 26 29 27 31 28 32 29 33 81 34 30 35
REMARK SMILES IDX 80 36 31 37 32 38 33 39 74 40 34 41 79 42 73 43 75 44 35 45
REMARK SMILES IDX 78 46 72 47 71 48 36 50 62 51 45 52 61 53 46 54 49 55 60 56
REMARK SMILES IDX 76 57 47 58 48 59 59 61 77 62 50 63 37 64 38 65 43 66 39 67
REMARK SMILES IDX 40 68 42 69 44 70 41 71 63 72 64 73 69 74 65 75 66 76 68 77
REMARK SMILES IDX 70 78 67 79 51 80 52 81 57 82 53 83 54 84 56 85 58 86 55 87
REMARK H PARENT 18 6 3 15 25 30 75 49 49 60
REMARK Flexibility Score: inf
ROOT
ATOM      1  C   UNL A   1      35.254  22.844  25.794  1.00  0.00     0.021 C 
ENDROOT
BRANCH   1   2
ATOM      2  C   UNL A   1      34.021  21.953  25.683  1.00  0.00     0.116 C 
BRANCH   2   3
ATOM      3  N   UNL A   1      33.011  22.408  26.601  1.00  0.00    -0.349 N 
ATOM      4  C   UNL A   1      32.059  23.386  26.490  1.00  0.00     0.287 C 
ATOM      5  O   UNL A   1      31.459  23.638  27.540  1.00  0.00    -0.266 OA
ATOM      6  H   UNL A   1      33.003  21.930  27.462  1.00  0.00     0.163 HD
BRANCH   4   7
ATOM      7  C   UNL A   1      31.735  24.021  25.225  1.00  0.00     0.191 A 
ATOM      8  C   UNL A   1      31.728  25.853  23.975  1.00  0.00     0.161 A 
ATOM      9  C   UNL A   1      30.939  24.940  23.316  1.00  0.00     0.053 A 
ATOM     10  O   UNL A   1      32.272  25.273  25.074  1.00  0.00    -0.450 OA
ATOM     11  C   UNL A   1      30.975  23.755  24.098  1.00  0.00     0.057 A 
BRANCH   8  12
ATOM     12  C   UNL A   1      32.126  27.272  23.712  1.00  0.00     0.248 C 
ATOM     13  C   UNL A   1      33.638  27.409  23.927  1.00  0.00     0.084 C 
BRANCH  12  14
ATOM     14  N   UNL A   1      31.222  28.261  24.351  1.00  0.00    -0.324 N 
ATOM     15  H   UNL A   1      30.442  27.657  24.611  1.00  0.00     0.348 HD
BRANCH  14  16
ATOM     16  C   UNL A   1      31.606  28.836  25.645  1.00  0.00     0.259 C 
ATOM     17  C   UNL A   1      31.712  30.356  25.740  1.00  0.00     0.071 C 
ENDBRANCH  14  16
BRANCH  14  18
ATOM     18  C   UNL A   1      30.752  29.302  23.409  1.00  0.00     0.295 C 
BRANCH  18  19
ATOM     19  C   UNL A   1      29.239  29.580  23.114  1.00  0.00     0.173 C 
ATOM     20  C   UNL A   1      28.741  30.965  23.514  1.00  0.00     0.040 C 
ATOM     21  O   UNL A   1      28.872  29.413  21.738  1.00  0.00    -0.372 OA
ATOM     22  C   UNL A   1      28.647  31.714  22.210  1.00  0.00     0.031 C 
ATOM     23  C   UNL A   1      28.309  30.621  21.226  1.00  0.00     0.161 C 
ENDBRANCH  18  19
ENDBRANCH  14  18
ENDBRANCH  12  14
ENDBRANCH   8  12
ENDBRANCH   4   7
ENDBRANCH   2   3
ENDBRANCH   1   2
BRANCH   1  24
ATOM     24  C   UNL A   1      36.530  22.145  25.310  1.00  0.00     0.002 C 
BRANCH  24  25
ATOM     25  C   UNL A   1      36.358  20.655  24.988  1.00  0.00     0.002 C 
BRANCH  25  26
ATOM     26  C   UNL A   1      37.668  19.884  24.808  1.00  0.00     0.021 C 
BRANCH  26  27
ATOM     27  C   UNL A   1      38.806  20.387  25.688  1.00  0.00     0.116 C 
BRANCH  27  28
ATOM     28  N   UNL A   1      39.875  19.407  25.784  1.00  0.00    -0.352 N 
ATOM     29  C   UNL A   1      41.203  19.604  26.063  1.00  0.00     0.251 C 
ATOM     30  H   UNL A   1      39.609  18.473  25.628  1.00  0.00     0.163 HD
ATOM     31  O   UNL A   1      42.017  18.709  25.866  1.00  0.00    -0.269 OA
BRANCH  29  32
ATOM     32  C   UNL A   1      41.649  20.905  26.597  1.00  0.00     0.039 A 
ATOM     33  C   UNL A   1      42.145  21.865  25.713  1.00  0.00     0.014 A 
ATOM     34  C   UNL A   1      41.595  21.168  27.969  1.00  0.00     0.014 A 
ATOM     35  C   UNL A   1      42.549  23.109  26.201  1.00  0.00     0.010 A 
ATOM     36  C   UNL A   1      41.929  22.430  28.445  1.00  0.00     0.010 A 
ATOM     37  C   UNL A   1      42.422  23.408  27.568  1.00  0.00    -0.014 A 
BRANCH  37  38
ATOM     38  C   UNL A   1      42.818  24.733  28.104  1.00  0.00     0.031 A 
ATOM     39  C   UNL A   1      41.775  25.788  28.343  1.00  0.00     0.074 A 
ATOM     40  C   UNL A   1      44.120  25.004  28.315  1.00  0.00     0.049 A 
ATOM     41  N   UNL A   1      41.927  27.028  28.732  1.00  0.00    -0.248 NA
ATOM     42  C   UNL A   1      40.378  25.407  28.083  1.00  0.00     0.031 C 
ATOM     43  C   UNL A   1      45.227  24.075  28.082  1.00  0.00     0.029 A 
ATOM     44  N   UNL A   1      44.733  26.146  28.765  1.00  0.00    -0.354 N 
ATOM     45  C   UNL A   1      40.652  27.578  28.747  1.00  0.00     0.074 A 
ATOM     46  C   UNL A   1      39.744  26.554  28.280  1.00  0.00     0.031 C 
ATOM     47  C   UNL A   1      46.382  24.679  28.408  1.00  0.00     0.029 A 
ATOM     48  C   UNL A   1      46.101  26.046  28.836  1.00  0.00     0.049 A 
ATOM     49  H   UNL A   1      44.239  26.961  29.013  1.00  0.00     0.167 HD
ATOM     50  C   UNL A   1      40.269  28.816  29.140  1.00  0.00     0.037 A 
ATOM     51  C   UNL A   1      47.023  26.956  29.198  1.00  0.00     0.037 A 
ATOM     52  C   UNL A   1      41.174  29.823  29.629  1.00  0.00     0.049 A 
ATOM     53  C   UNL A   1      46.573  28.327  29.621  1.00  0.00     0.074 A 
ATOM     54  C   UNL A   1      40.879  31.088  30.107  1.00  0.00     0.029 A 
ATOM     55  N   UNL A   1      42.551  29.677  29.703  1.00  0.00    -0.354 N 
ATOM     56  N   UNL A   1      45.358  28.814  29.692  1.00  0.00    -0.248 NA
ATOM     57  C   UNL A   1      47.623  29.275  30.018  1.00  0.00     0.031 C 
ATOM     58  C   UNL A   1      42.083  31.724  30.426  1.00  0.00     0.029 A 
ATOM     59  C   UNL A   1      43.123  30.839  30.196  1.00  0.00     0.049 A 
ATOM     60  H   UNL A   1      43.049  28.869  29.442  1.00  0.00     0.167 HD
ATOM     61  C   UNL A   1      45.494  30.111  30.169  1.00  0.00     0.074 A 
ATOM     62  C   UNL A   1      46.910  30.331  30.381  1.00  0.00     0.031 C 
ATOM     63  C   UNL A   1      44.535  31.037  30.408  1.00  0.00     0.037 A 
BRANCH  50  64
ATOM     64  C   UNL A   1      38.807  29.148  29.057  1.00  0.00     0.057 A 
ATOM     65  C   UNL A   1      37.961  29.045  30.169  1.00  0.00     0.134 A 
ATOM     66  C   UNL A   1      38.244  29.603  27.858  1.00  0.00     0.134 A 
ATOM     67  F   UNL A   1      38.434  28.603  31.345  1.00  0.00    -0.206 F 
ATOM     68  C   UNL A   1      36.603  29.357  30.087  1.00  0.00     0.040 A 
ATOM     69  C   UNL A   1      36.893  29.945  27.770  1.00  0.00     0.040 A 
ATOM     70  F   UNL A   1      38.998  29.730  26.756  1.00  0.00    -0.206 F 
ATOM     71  C   UNL A   1      36.067  29.815  28.885  1.00  0.00     0.006 A 
ENDBRANCH  50  64
BRANCH  51  72
ATOM     72  C   UNL A   1      48.463  26.597  29.195  1.00  0.00     0.057 A 
ATOM     73  C   UNL A   1      49.064  26.018  30.318  1.00  0.00     0.134 A 
ATOM     74  C   UNL A   1      49.275  26.830  28.078  1.00  0.00     0.134 A 
ATOM     75  F   UNL A   1      48.343  25.787  31.425  1.00  0.00    -0.206 F 
ATOM     76  C   UNL A   1      50.423  25.702  30.340  1.00  0.00     0.040 A 
ATOM     77  C   UNL A   1      50.629  26.495  28.076  1.00  0.00     0.040 A 
ATOM     78  F   UNL A   1      48.757  27.374  26.967  1.00  0.00    -0.206 F 
ATOM     79  C   UNL A   1      51.209  25.937  29.213  1.00  0.00     0.006 A 
ENDBRANCH  51  72
BRANCH  63  80
ATOM     80  C   UNL A   1      44.979  32.359  30.960  1.00  0.00     0.057 A 
ATOM     81  C   UNL A   1      45.108  32.582  32.337  1.00  0.00     0.134 A 
ATOM     82  C   UNL A   1      45.321  33.412  30.099  1.00  0.00     0.134 A 
ATOM     83  F   UNL A   1      44.784  31.619  33.213  1.00  0.00    -0.206 F 
ATOM     84  C   UNL A   1      45.537  33.811  32.838  1.00  0.00     0.040 A 
ATOM     85  C   UNL A   1      45.777  34.635  30.589  1.00  0.00     0.040 A 
ATOM     86  F   UNL A   1      45.228  33.261  28.769  1.00  0.00    -0.206 F 
ATOM     87  C   UNL A   1      45.880  34.840  31.963  1.00  0.00     0.006 A 
ENDBRANCH  63  80
ENDBRANCH  37  38
ENDBRANCH  29  32
ENDBRANCH  27  28
ENDBRANCH  26  27
ENDBRANCH  25  26
ENDBRANCH  24  25
ENDBRANCH   1  24
TORSDOF 18
ENDMDL
MODEL 3
REMARK VINA RESULT:      -8.6      5.263     11.611
REMARK SMILES CC[N@@H+](C[C@H]1CCCO1)[C@@H](C)c1ccc(C(=O)NCCCCCCNC(=O)c2ccc(-c3c4nc(c(-c5c(F)cccc5F)c5ccc([nH]5)c(-c5c(F)cccc5F)c5nc(c(-c6c(F)cccc6F)c6ccc3[nH]6)C=C5)C=C4)cc2)o1
REMARK SMILES IDX 20 1 19 2 18 3 16 4 17 5 15 7 12 8 13 9 82 10 14 11 10 12
REMARK SMILES IDX 11 13 3 14 2 16 1 17 4 18 5 19 6 20 9 21 7 22 8 23 21 24
REMARK SMILES IDX 22 25 23 26 24 27 25 28 26 29 27 31 28 32 29 33 81 34 30 35
REMARK SMILES IDX 80 36 31 37 32 38 33 39 74 40 34 41 79 42 73 43 75 44 35 45
REMARK SMILES IDX 78 46 72 47 71 48 36 50 62 51 45 52 61 53 46 54 49 55 60 56
REMARK SMILES IDX 76 57 47 58 48 59 59 61 77 62 50 63 37 64 38 65 43 66 39 67
REMARK SMILES IDX 40 68 42 69 44 70 41 71 63 72 64 73 69 74 65 75 66 76 68 77
REMARK SMILES IDX 70 78 67 79 51 80 52 81 57 82 53 83 54 84 56 85 58 86 55 87
REMARK H PARENT 18 6 3 15 25 30 75 49 49 60
REMARK Flexibility Score: inf
ROOT
ATOM      1  C   UNL A   1      36.087  22.815  25.734  1.00  0.00     0.021 C 
ENDROOT
BRANCH   1   2
ATOM      2  C   UNL A   1      34.832  21.986  25.479  1.00  0.00     0.116 C 
BRANCH   2   3
ATOM      3  N   UNL A   1      33.957  22.072  26.618  1.00  0.00    -0.349 N 
ATOM      4  C   UNL A   1      32.828  22.814  26.840  1.00  0.00     0.287 C 
ATOM      5  O   UNL A   1      32.412  22.779  28.003  1.00  0.00    -0.266 OA
ATOM      6  H   UNL A   1      34.215  21.492  27.371  1.00  0.00     0.163 HD
BRANCH   4   7
ATOM      7  C   UNL A   1      32.139  23.525  25.778  1.00  0.00     0.191 A 
ATOM      8  C   UNL A   1      31.909  25.377  24.581  1.00  0.00     0.161 A 
ATOM      9  C   UNL A   1      30.812  24.600  24.293  1.00  0.00     0.053 A 
ATOM     10  O   UNL A   1      32.744  24.696  25.404  1.00  0.00    -0.450 OA
ATOM     11  C   UNL A   1      30.979  23.398  25.030  1.00  0.00     0.057 A 
BRANCH   8  12
ATOM     12  C   UNL A   1      32.367  26.737  24.152  1.00  0.00     0.248 C 
ATOM     13  C   UNL A   1      33.854  26.887  24.494  1.00  0.00     0.084 C 
BRANCH  12  14
ATOM     14  N   UNL A   1      31.432  27.821  24.547  1.00  0.00    -0.324 N 
ATOM     15  H   UNL A   1      30.616  27.271  24.818  1.00  0.00     0.348 HD
BRANCH  14  16
ATOM     16  C   UNL A   1      31.708  28.580  25.772  1.00  0.00     0.259 C 
ATOM     17  C   UNL A   1      31.464  27.882  27.108  1.00  0.00     0.071 C 
ENDBRANCH  14  16
BRANCH  14  18
ATOM     18  C   UNL A   1      31.079  28.713  23.419  1.00  0.00     0.295 C 
BRANCH  18  19
ATOM     19  C   UNL A   1      29.865  28.457  22.464  1.00  0.00     0.173 C 
ATOM     20  C   UNL A   1      28.550  28.118  23.159  1.00  0.00     0.040 C 
ATOM     21  O   UNL A   1      29.573  29.551  21.584  1.00  0.00    -0.372 OA
ATOM     22  C   UNL A   1      27.747  29.390  23.071  1.00  0.00     0.031 C 
ATOM     23  C   UNL A   1      28.229  29.994  21.775  1.00  0.00     0.161 C 
ENDBRANCH  18  19
ENDBRANCH  14  18
ENDBRANCH  12  14
ENDBRANCH   8  12
ENDBRANCH   4   7
ENDBRANCH   2   3
ENDBRANCH   1   2
BRANCH   1  24
ATOM     24  C   UNL A   1      37.372  22.071  25.348  1.00  0.00     0.002 C 
BRANCH  24  25
ATOM     25  C   UNL A   1      37.145  20.774  24.561  1.00  0.00     0.002 C 
BRANCH  25  26
ATOM     26  C   UNL A   1      38.129  19.648  24.888  1.00  0.00     0.021 C 
BRANCH  26  27
ATOM     27  C   UNL A   1      39.126  19.999  25.985  1.00  0.00     0.116 C 
BRANCH  27  28
ATOM     28  N   UNL A   1      40.330  19.192  25.885  1.00  0.00    -0.352 N 
ATOM     29  C   UNL A   1      41.641  19.580  25.986  1.00  0.00     0.251 C 
ATOM     30  H   UNL A   1      40.185  18.232  25.723  1.00  0.00     0.163 HD
ATOM     31  O   UNL A   1      42.541  18.825  25.636  1.00  0.00    -0.269 OA
BRANCH  29  32
ATOM     32  C   UNL A   1      41.964  20.920  26.515  1.00  0.00     0.039 A 
ATOM     33  C   UNL A   1      42.314  21.934  25.620  1.00  0.00     0.014 A 
ATOM     34  C   UNL A   1      41.939  21.168  27.891  1.00  0.00     0.014 A 
ATOM     35  C   UNL A   1      42.599  23.211  26.104  1.00  0.00     0.010 A 
ATOM     36  C   UNL A   1      42.152  22.456  28.365  1.00  0.00     0.010 A 
ATOM     37  C   UNL A   1      42.497  23.488  27.478  1.00  0.00    -0.014 A 
BRANCH  37  38
ATOM     38  C   UNL A   1      42.768  24.845  28.011  1.00  0.00     0.031 A 
ATOM     39  C   UNL A   1      44.160  25.219  28.437  1.00  0.00     0.074 A 
ATOM     40  C   UNL A   1      41.752  25.715  28.166  1.00  0.00     0.049 A 
ATOM     41  N   UNL A   1      44.584  26.323  28.997  1.00  0.00    -0.248 NA
ATOM     42  C   UNL A   1      45.208  24.207  28.233  1.00  0.00     0.031 C 
ATOM     43  C   UNL A   1      40.353  25.453  27.827  1.00  0.00     0.029 A 
ATOM     44  N   UNL A   1      41.741  26.994  28.662  1.00  0.00    -0.354 N 
ATOM     45  C   UNL A   1      45.941  26.132  29.226  1.00  0.00     0.074 A 
ATOM     46  C   UNL A   1      46.259  24.789  28.793  1.00  0.00     0.031 C 
ATOM     47  C   UNL A   1      39.622  26.544  28.107  1.00  0.00     0.029 A 
ATOM     48  C   UNL A   1      40.492  27.566  28.679  1.00  0.00     0.049 A 
ATOM     49  H   UNL A   1      42.550  27.458  28.977  1.00  0.00     0.167 HD
ATOM     50  C   UNL A   1      46.845  27.006  29.728  1.00  0.00     0.037 A 
ATOM     51  C   UNL A   1      40.094  28.776  29.115  1.00  0.00     0.037 A 
ATOM     52  C   UNL A   1      46.529  28.350  30.134  1.00  0.00     0.049 A 
ATOM     53  C   UNL A   1      41.117  29.725  29.678  1.00  0.00     0.074 A 
ATOM     54  C   UNL A   1      47.384  29.334  30.601  1.00  0.00     0.029 A 
ATOM     55  N   UNL A   1      45.255  28.900  30.120  1.00  0.00    -0.354 N 
ATOM     56  N   UNL A   1      42.407  29.555  29.830  1.00  0.00    -0.248 NA
ATOM     57  C   UNL A   1      40.627  31.036  30.126  1.00  0.00     0.031 C 
ATOM     58  C   UNL A   1      46.620  30.463  30.912  1.00  0.00     0.029 A 
ATOM     59  C   UNL A   1      45.297  30.201  30.592  1.00  0.00     0.049 A 
ATOM     60  H   UNL A   1      44.442  28.433  29.820  1.00  0.00     0.167 HD
ATOM     61  C   UNL A   1      42.888  30.744  30.362  1.00  0.00     0.074 A 
ATOM     62  C   UNL A   1      41.751  31.632  30.495  1.00  0.00     0.031 C 
ATOM     63  C   UNL A   1      44.156  31.073  30.710  1.00  0.00     0.037 A 
BRANCH  50  64
ATOM     64  C   UNL A   1      48.264  26.533  29.866  1.00  0.00     0.057 A 
ATOM     65  C   UNL A   1      48.702  25.830  30.997  1.00  0.00     0.134 A 
ATOM     66  C   UNL A   1      49.196  26.757  28.845  1.00  0.00     0.134 A 
ATOM     67  F   UNL A   1      47.863  25.594  32.018  1.00  0.00    -0.206 F 
ATOM     68  C   UNL A   1      50.021  25.391  31.119  1.00  0.00     0.040 A 
ATOM     69  C   UNL A   1      50.511  26.298  28.943  1.00  0.00     0.040 A 
ATOM     70  F   UNL A   1      48.841  27.418  27.733  1.00  0.00    -0.206 F 
ATOM     71  C   UNL A   1      50.928  25.620  30.086  1.00  0.00     0.006 A 
ENDBRANCH  50  64
BRANCH  51  72
ATOM     72  C   UNL A   1      38.666  29.168  29.021  1.00  0.00     0.057 A 
ATOM     73  C   UNL A   1      37.823  29.091  30.135  1.00  0.00     0.134 A 
ATOM     74  C   UNL A   1      38.108  29.620  27.819  1.00  0.00     0.134 A 
ATOM     75  F   UNL A   1      38.295  28.649  31.310  1.00  0.00    -0.206 F 
ATOM     76  C   UNL A   1      36.471  29.430  30.054  1.00  0.00     0.040 A 
ATOM     77  C   UNL A   1      36.765  29.986  27.730  1.00  0.00     0.040 A 
ATOM     78  F   UNL A   1      38.866  29.725  26.718  1.00  0.00    -0.206 F 
ATOM     79  C   UNL A   1      35.940  29.884  28.848  1.00  0.00     0.006 A 
ENDBRANCH  51  72
BRANCH  63  80
ATOM     80  C   UNL A   1      44.386  32.459  31.235  1.00  0.00     0.057 A 
ATOM     81  C   UNL A   1      44.292  32.760  32.599  1.00  0.00     0.134 A 
ATOM     82  C   UNL A   1      44.745  33.498  30.366  1.00  0.00     0.134 A 
ATOM     83  F   UNL A   1      43.939  31.812  33.481  1.00  0.00    -0.206 F 
ATOM     84  C   UNL A   1      44.523  34.050  33.078  1.00  0.00     0.040 A 
ATOM     85  C   UNL A   1      45.006  34.785  30.837  1.00  0.00     0.040 A 
ATOM     86  F   UNL A   1      44.862  33.275  29.048  1.00  0.00    -0.206 F 
ATOM     87  C   UNL A   1      44.888  35.066  32.197  1.00  0.00     0.006 A 
ENDBRANCH  63  80
ENDBRANCH  37  38
ENDBRANCH  29  32
ENDBRANCH  27  28
ENDBRANCH  26  27
ENDBRANCH  25  26
ENDBRANCH  24  25
ENDBRANCH   1  24
TORSDOF 18
ENDMDL
