MODEL 1
REMARK VINA RESULT:     -11.8      0.000      0.000
REMARK SMILES Cc1cc(Br)cc2c1O[C@H](C(F)(F)F)C(C(=O)NCCCCCCNC(=O)c1ccc(-c3c4nc(c(-c5c(F)cccc5F)c5ccc([nH]5)c(-c5c(F)cccc5F)c5nc(c(-c6c(F)cccc6F)c6ccc3[nH]6)C=C5)C=C4)cc1)=C2
REMARK SMILES IDX 22 1 21 2 20 3 19 4 18 5 16 6 17 7 15 9 1 10 2 11 3 12 8 13
REMARK SMILES IDX 4 14 7 15 9 16 5 17 6 18 82 19 10 20 11 21 12 22 13 23 14 24
REMARK SMILES IDX 23 25 24 26 25 27 26 28 27 30 28 31 29 32 81 33 30 34 80 35
REMARK SMILES IDX 31 36 32 37 33 38 74 39 34 40 79 41 73 42 75 43 35 44 78 45
REMARK SMILES IDX 72 46 71 47 36 49 62 50 45 51 61 52 46 53 49 54 60 55 76 56
REMARK SMILES IDX 47 57 48 58 59 60 77 61 50 62 37 63 38 64 43 65 39 66 40 67
REMARK SMILES IDX 42 68 44 69 41 70 63 71 64 72 69 73 65 74 66 75 68 76 70 77
REMARK SMILES IDX 67 78 51 79 52 80 57 81 53 82 54 83 56 84 58 85 55 86
REMARK H PARENT 18 8 25 29 75 48 49 59
REMARK Flexibility Score: inf
ROOT
ATOM      1  C   UNL A   1      31.577  28.256  26.273  1.00  0.00     0.002 C 
ENDROOT
BRANCH   1   2
ATOM      2  C   UNL A   1      30.861  27.115  25.539  1.00  0.00     0.002 C 
BRANCH   2   3
ATOM      3  C   UNL A   1      30.734  27.293  24.023  1.00  0.00     0.021 C 
BRANCH   3   4
ATOM      4  C   UNL A   1      30.639  25.978  23.255  1.00  0.00     0.116 C 
BRANCH   4   5
ATOM      5  N   UNL A   1      31.573  25.931  22.145  1.00  0.00    -0.352 N 
ATOM      6  C   UNL A   1      32.681  25.231  21.808  1.00  0.00     0.251 C 
ATOM      7  O   UNL A   1      33.156  25.502  20.699  1.00  0.00    -0.270 OA
ATOM      8  H   UNL A   1      31.336  26.585  21.448  1.00  0.00     0.163 HD
BRANCH   6   9
ATOM      9  C   UNL A   1      33.342  24.196  22.659  1.00  0.00     0.067 C 
ATOM     10  C   UNL A   1      36.578  21.270  25.418  1.00  0.00     0.048 C 
ATOM     11  C   UNL A   1      35.213  21.097  24.812  1.00  0.00    -0.007 A 
ATOM     12  C   UNL A   1      34.549  19.872  24.955  1.00  0.00     0.023 A 
ATOM     13  C   UNL A   1      34.600  22.112  24.063  1.00  0.00     0.130 A 
ATOM     14  C   UNL A   1      33.297  19.680  24.368  1.00  0.00     0.019 A 
ATOM     15  C   UNL A   1      33.349  21.918  23.469  1.00  0.00     0.019 A 
ATOM     16  O   UNL A   1      35.302  23.271  23.898  1.00  0.00    -0.475 OA
ATOM     17  Br  UNL A   1      32.419  18.017  24.570  1.00  0.00    -0.051 Br
ATOM     18  C   UNL A   1      32.693  20.694  23.626  1.00  0.00     0.027 A 
ATOM     19  C   UNL A   1      32.768  22.978  22.652  1.00  0.00     0.025 C 
ATOM     20  C   UNL A   1      34.550  24.448  23.512  1.00  0.00     0.314 C 
BRANCH  20  21
ATOM     21  C   UNL A   1      34.228  25.281  24.766  1.00  0.00     0.429 C 
ATOM     22  F   UNL A   1      34.094  26.592  24.441  1.00  0.00    -0.167 F 
ATOM     23  F   UNL A   1      33.065  24.915  25.351  1.00  0.00    -0.167 F 
ATOM     24  F   UNL A   1      35.191  25.194  25.711  1.00  0.00    -0.167 F 
ENDBRANCH  20  21
ENDBRANCH   6   9
ENDBRANCH   4   5
ENDBRANCH   3   4
ENDBRANCH   2   3
ENDBRANCH   1   2
BRANCH   1  25
ATOM     25  C   UNL A   1      32.685  27.826  27.240  1.00  0.00     0.021 C 
BRANCH  25  26
ATOM     26  C   UNL A   1      33.996  28.591  27.088  1.00  0.00     0.116 C 
BRANCH  26  27
ATOM     27  N   UNL A   1      33.887  29.954  27.581  1.00  0.00    -0.352 N 
ATOM     28  C   UNL A   1      34.771  30.681  28.331  1.00  0.00     0.251 C 
ATOM     29  H   UNL A   1      33.056  30.423  27.338  1.00  0.00     0.163 HD
ATOM     30  O   UNL A   1      34.422  31.747  28.834  1.00  0.00    -0.269 OA
BRANCH  28  31
ATOM     31  C   UNL A   1      36.144  30.185  28.545  1.00  0.00     0.039 A 
ATOM     32  C   UNL A   1      37.060  30.253  27.492  1.00  0.00     0.014 A 
ATOM     33  C   UNL A   1      36.517  29.618  29.769  1.00  0.00     0.014 A 
ATOM     34  C   UNL A   1      38.366  29.798  27.679  1.00  0.00     0.010 A 
ATOM     35  C   UNL A   1      37.833  29.216  29.972  1.00  0.00     0.010 A 
ATOM     36  C   UNL A   1      38.767  29.297  28.927  1.00  0.00    -0.014 A 
BRANCH  36  37
ATOM     37  C   UNL A   1      40.157  28.840  29.167  1.00  0.00     0.031 A 
ATOM     38  C   UNL A   1      41.153  29.772  29.796  1.00  0.00     0.074 A 
ATOM     39  C   UNL A   1      40.534  27.614  28.758  1.00  0.00     0.049 A 
ATOM     40  N   UNL A   1      42.438  29.610  29.974  1.00  0.00    -0.248 NA
ATOM     41  C   UNL A   1      40.637  31.067  30.269  1.00  0.00     0.031 C 
ATOM     42  C   UNL A   1      39.660  26.628  28.124  1.00  0.00     0.029 A 
ATOM     43  N   UNL A   1      41.758  26.997  28.801  1.00  0.00    -0.354 N 
ATOM     44  C   UNL A   1      42.887  30.782  30.568  1.00  0.00     0.074 A 
ATOM     45  C   UNL A   1      41.746  31.664  30.683  1.00  0.00     0.031 C 
ATOM     46  C   UNL A   1      40.372  25.524  27.848  1.00  0.00     0.029 A 
ATOM     47  C   UNL A   1      41.760  25.741  28.245  1.00  0.00     0.049 A 
ATOM     48  H   UNL A   1      42.559  27.414  29.194  1.00  0.00     0.167 HD
ATOM     49  C   UNL A   1      44.135  31.085  30.995  1.00  0.00     0.037 A 
ATOM     50  C   UNL A   1      42.770  24.870  28.062  1.00  0.00     0.037 A 
ATOM     51  C   UNL A   1      45.263  30.197  30.893  1.00  0.00     0.049 A 
ATOM     52  C   UNL A   1      44.152  25.243  28.521  1.00  0.00     0.074 A 
ATOM     53  C   UNL A   1      46.564  30.403  31.318  1.00  0.00     0.029 A 
ATOM     54  N   UNL A   1      45.222  28.929  30.330  1.00  0.00    -0.354 N 
ATOM     55  N   UNL A   1      44.561  26.347  29.097  1.00  0.00    -0.248 NA
ATOM     56  C   UNL A   1      45.212  24.248  28.308  1.00  0.00     0.031 C 
ATOM     57  C   UNL A   1      47.319  29.277  30.980  1.00  0.00     0.029 A 
ATOM     58  C   UNL A   1      46.478  28.348  30.388  1.00  0.00     0.049 A 
ATOM     59  H   UNL A   1      44.421  28.506  29.948  1.00  0.00     0.167 HD
ATOM     60  C   UNL A   1      45.916  26.171  29.342  1.00  0.00     0.074 A 
ATOM     61  C   UNL A   1      46.257  24.847  28.861  1.00  0.00     0.031 C 
ATOM     62  C   UNL A   1      46.799  27.026  29.913  1.00  0.00     0.037 A 
BRANCH  49  63
ATOM     63  C   UNL A   1      44.351  32.432  31.622  1.00  0.00     0.057 A 
ATOM     64  C   UNL A   1      44.236  32.626  33.005  1.00  0.00     0.134 A 
ATOM     65  C   UNL A   1      44.742  33.530  30.844  1.00  0.00     0.134 A 
ATOM     66  F   UNL A   1      43.853  31.619  33.802  1.00  0.00    -0.206 F 
ATOM     67  C   UNL A   1      44.492  33.867  33.590  1.00  0.00     0.040 A 
ATOM     68  C   UNL A   1      45.024  34.769  31.422  1.00  0.00     0.040 A 
ATOM     69  F   UNL A   1      44.874  33.412  29.515  1.00  0.00    -0.206 F 
ATOM     70  C   UNL A   1      44.898  34.940  32.799  1.00  0.00     0.006 A 
ENDBRANCH  49  63
BRANCH  50  71
ATOM     71  C   UNL A   1      42.505  23.553  27.434  1.00  0.00     0.057 A 
ATOM     72  C   UNL A   1      42.624  23.378  26.051  1.00  0.00     0.134 A 
ATOM     73  C   UNL A   1      42.140  22.436  28.196  1.00  0.00     0.134 A 
ATOM     74  F   UNL A   1      42.953  24.414  25.266  1.00  0.00    -0.206 F 
ATOM     75  C   UNL A   1      42.379  22.144  25.445  1.00  0.00     0.040 A 
ATOM     76  C   UNL A   1      41.916  21.191  27.607  1.00  0.00     0.040 A 
ATOM     77  F   UNL A   1      42.015  22.537  29.528  1.00  0.00    -0.206 F 
ATOM     78  C   UNL A   1      42.030  21.045  26.226  1.00  0.00     0.006 A 
ENDBRANCH  50  71
BRANCH  62  79
ATOM     79  C   UNL A   1      48.210  26.546  30.086  1.00  0.00     0.057 A 
ATOM     80  C   UNL A   1      48.623  25.861  31.235  1.00  0.00     0.134 A 
ATOM     81  C   UNL A   1      49.153  26.732  29.067  1.00  0.00     0.134 A 
ATOM     82  F   UNL A   1      47.771  25.661  32.250  1.00  0.00    -0.206 F 
ATOM     83  C   UNL A   1      49.932  25.396  31.374  1.00  0.00     0.040 A 
ATOM     84  C   UNL A   1      50.457  26.248  29.183  1.00  0.00     0.040 A 
ATOM     85  F   UNL A   1      48.819  27.371  27.936  1.00  0.00    -0.206 F 
ATOM     86  C   UNL A   1      50.851  25.582  30.342  1.00  0.00     0.006 A 
ENDBRANCH  62  79
ENDBRANCH  36  37
ENDBRANCH  28  31
ENDBRANCH  26  27
ENDBRANCH  25  26
ENDBRANCH   1  25
TORSDOF 14
ENDMDL
MODEL 2
REMARK VINA RESULT:     -11.7      3.251      8.038
REMARK SMILES Cc1cc(Br)cc2c1O[C@H](C(F)(F)F)C(C(=O)NCCCCCCNC(=O)c1ccc(-c3c4nc(c(-c5c(F)cccc5F)c5ccc([nH]5)c(-c5c(F)cccc5F)c5nc(c(-c6c(F)cccc6F)c6ccc3[nH]6)C=C5)C=C4)cc1)=C2
REMARK SMILES IDX 22 1 21 2 20 3 19 4 18 5 16 6 17 7 15 9 1 10 2 11 3 12 8 13
REMARK SMILES IDX 4 14 7 15 9 16 5 17 6 18 82 19 10 20 11 21 12 22 13 23 14 24
REMARK SMILES IDX 23 25 24 26 25 27 26 28 27 30 28 31 29 32 81 33 30 34 80 35
REMARK SMILES IDX 31 36 32 37 33 38 74 39 34 40 79 41 73 42 75 43 35 44 78 45
REMARK SMILES IDX 72 46 71 47 36 49 62 50 45 51 61 52 46 53 49 54 60 55 76 56
REMARK SMILES IDX 47 57 48 58 59 60 77 61 50 62 37 63 38 64 43 65 39 66 40 67
REMARK SMILES IDX 42 68 44 69 41 70 63 71 64 72 69 73 65 74 66 75 68 76 70 77
REMARK SMILES IDX 67 78 51 79 52 80 57 81 53 82 54 83 56 84 58 85 55 86
REMARK H PARENT 18 8 25 29 75 48 49 59
REMARK Flexibility Score: inf
ROOT
ATOM      1  C   UNL A   1      35.348  22.222  26.207  1.00  0.00     0.002 C 
ENDROOT
BRANCH   1   2
ATOM      2  C   UNL A   1      34.706  21.507  25.011  1.00  0.00     0.002 C 
BRANCH   2   3
ATOM      3  C   UNL A   1      33.504  20.620  25.352  1.00  0.00     0.021 C 
BRANCH   3   4
ATOM      4  C   UNL A   1      32.169  21.187  24.880  1.00  0.00     0.116 C 
BRANCH   4   5
ATOM      5  N   UNL A   1      31.464  21.874  25.947  1.00  0.00    -0.352 N 
ATOM      6  C   UNL A   1      31.259  23.152  26.341  1.00  0.00     0.251 C 
ATOM      7  O   UNL A   1      30.529  23.286  27.329  1.00  0.00    -0.270 OA
ATOM      8  H   UNL A   1      31.013  21.237  26.548  1.00  0.00     0.163 HD
BRANCH   6   9
ATOM      9  C   UNL A   1      31.840  24.362  25.685  1.00  0.00     0.067 C 
ATOM     10  C   UNL A   1      34.125  27.789  22.574  1.00  0.00     0.048 C 
ATOM     11  C   UNL A   1      33.720  27.744  24.020  1.00  0.00    -0.007 A 
ATOM     12  C   UNL A   1      33.982  28.848  24.841  1.00  0.00     0.023 A 
ATOM     13  C   UNL A   1      33.126  26.608  24.589  1.00  0.00     0.130 A 
ATOM     14  C   UNL A   1      33.647  28.811  26.195  1.00  0.00     0.019 A 
ATOM     15  C   UNL A   1      32.796  26.567  25.948  1.00  0.00     0.019 A 
ATOM     16  O   UNL A   1      32.938  25.531  23.772  1.00  0.00    -0.475 OA
ATOM     17  Br  UNL A   1      34.014  30.311  27.287  1.00  0.00    -0.051 Br
ATOM     18  C   UNL A   1      33.056  27.678  26.754  1.00  0.00     0.027 A 
ATOM     19  C   UNL A   1      32.230  25.347  26.515  1.00  0.00     0.025 C 
ATOM     20  C   UNL A   1      31.974  24.537  24.202  1.00  0.00     0.314 C 
BRANCH  20  21
ATOM     21  C   UNL A   1      30.625  24.804  23.509  1.00  0.00     0.429 C 
ATOM     22  F   UNL A   1      30.060  23.637  23.108  1.00  0.00    -0.167 F 
ATOM     23  F   UNL A   1      29.726  25.396  24.329  1.00  0.00    -0.167 F 
ATOM     24  F   UNL A   1      30.744  25.594  22.419  1.00  0.00    -0.167 F 
ENDBRANCH  20  21
ENDBRANCH   6   9
ENDBRANCH   4   5
ENDBRANCH   3   4
ENDBRANCH   2   3
ENDBRANCH   1   2
BRANCH   1  25
ATOM     25  C   UNL A   1      35.785  23.669  25.953  1.00  0.00     0.021 C 
BRANCH  25  26
ATOM     26  C   UNL A   1      37.043  23.814  25.103  1.00  0.00     0.116 C 
BRANCH  26  27
ATOM     27  N   UNL A   1      38.042  22.814  25.439  1.00  0.00    -0.352 N 
ATOM     28  C   UNL A   1      39.229  22.959  26.104  1.00  0.00     0.251 C 
ATOM     29  H   UNL A   1      37.833  21.898  25.145  1.00  0.00     0.163 HD
ATOM     30  O   UNL A   1      40.047  22.041  26.114  1.00  0.00    -0.269 OA
BRANCH  28  31
ATOM     31  C   UNL A   1      39.535  24.220  26.806  1.00  0.00     0.039 A 
ATOM     32  C   UNL A   1      39.037  24.413  28.098  1.00  0.00     0.014 A 
ATOM     33  C   UNL A   1      40.279  25.226  26.180  1.00  0.00     0.014 A 
ATOM     34  C   UNL A   1      39.325  25.595  28.782  1.00  0.00     0.010 A 
ATOM     35  C   UNL A   1      40.612  26.379  26.882  1.00  0.00     0.010 A 
ATOM     36  C   UNL A   1      40.133  26.576  28.187  1.00  0.00    -0.014 A 
BRANCH  36  37
ATOM     37  C   UNL A   1      40.486  27.826  28.902  1.00  0.00     0.031 A 
ATOM     38  C   UNL A   1      41.828  27.954  29.566  1.00  0.00     0.074 A 
ATOM     39  C   UNL A   1      39.576  28.812  29.008  1.00  0.00     0.049 A 
ATOM     40  N   UNL A   1      42.278  28.906  30.341  1.00  0.00    -0.248 NA
ATOM     41  C   UNL A   1      42.782  26.856  29.344  1.00  0.00     0.031 C 
ATOM     42  C   UNL A   1      38.238  28.795  28.417  1.00  0.00     0.029 A 
ATOM     43  N   UNL A   1      39.635  30.014  29.665  1.00  0.00    -0.354 N 
ATOM     44  C   UNL A   1      43.559  28.519  30.709  1.00  0.00     0.074 A 
ATOM     45  C   UNL A   1      43.801  27.225  30.106  1.00  0.00     0.031 C 
ATOM     46  C   UNL A   1      37.607  29.938  28.728  1.00  0.00     0.029 A 
ATOM     47  C   UNL A   1      38.478  30.747  29.576  1.00  0.00     0.049 A 
ATOM     48  H   UNL A   1      40.432  30.323  30.154  1.00  0.00     0.167 HD
ATOM     49  C   UNL A   1      44.459  29.191  31.465  1.00  0.00     0.037 A 
ATOM     50  C   UNL A   1      38.150  31.930  30.127  1.00  0.00     0.037 A 
ATOM     51  C   UNL A   1      44.218  30.485  32.048  1.00  0.00     0.049 A 
ATOM     52  C   UNL A   1      39.157  32.644  30.985  1.00  0.00     0.074 A 
ATOM     53  C   UNL A   1      45.075  31.258  32.811  1.00  0.00     0.029 A 
ATOM     54  N   UNL A   1      43.034  31.199  31.927  1.00  0.00    -0.354 N 
ATOM     55  N   UNL A   1      40.372  32.275  31.312  1.00  0.00    -0.248 NA
ATOM     56  C   UNL A   1      38.750  33.938  31.549  1.00  0.00     0.031 C 
ATOM     57  C   UNL A   1      44.398  32.423  33.184  1.00  0.00     0.029 A 
ATOM     58  C   UNL A   1      43.137  32.398  32.611  1.00  0.00     0.049 A 
ATOM     59  H   UNL A   1      42.241  30.898  31.429  1.00  0.00     0.167 HD
ATOM     60  C   UNL A   1      40.885  33.302  32.093  1.00  0.00     0.074 A 
ATOM     61  C   UNL A   1      39.852  34.314  32.182  1.00  0.00     0.031 C 
ATOM     62  C   UNL A   1      42.102  33.398  32.683  1.00  0.00     0.037 A 
BRANCH  49  63
ATOM     63  C   UNL A   1      45.793  28.546  31.702  1.00  0.00     0.057 A 
ATOM     64  C   UNL A   1      46.009  27.682  32.783  1.00  0.00     0.134 A 
ATOM     65  C   UNL A   1      46.851  28.738  30.804  1.00  0.00     0.134 A 
ATOM     66  F   UNL A   1      45.041  27.467  33.685  1.00  0.00    -0.206 F 
ATOM     67  C   UNL A   1      47.235  27.040  32.969  1.00  0.00     0.040 A 
ATOM     68  C   UNL A   1      48.073  28.082  30.967  1.00  0.00     0.040 A 
ATOM     69  F   UNL A   1      46.710  29.549  29.746  1.00  0.00    -0.206 F 
ATOM     70  C   UNL A   1      48.267  27.231  32.053  1.00  0.00     0.006 A 
ENDBRANCH  49  63
BRANCH  50  71
ATOM     71  C   UNL A   1      36.816  32.524  29.865  1.00  0.00     0.057 A 
ATOM     72  C   UNL A   1      35.711  32.189  30.655  1.00  0.00     0.134 A 
ATOM     73  C   UNL A   1      36.614  33.447  28.831  1.00  0.00     0.134 A 
ATOM     74  F   UNL A   1      35.838  31.296  31.648  1.00  0.00    -0.206 F 
ATOM     75  C   UNL A   1      34.450  32.739  30.421  1.00  0.00     0.040 A 
ATOM     76  C   UNL A   1      35.364  34.025  28.602  1.00  0.00     0.040 A 
ATOM     77  F   UNL A   1      37.634  33.816  28.043  1.00  0.00    -0.206 F 
ATOM     78  C   UNL A   1      34.276  33.665  29.395  1.00  0.00     0.006 A 
ENDBRANCH  50  71
BRANCH  62  79
ATOM     79  C   UNL A   1      42.399  34.656  33.446  1.00  0.00     0.057 A 
ATOM     80  C   UNL A   1      42.976  35.775  32.833  1.00  0.00     0.134 A 
ATOM     81  C   UNL A   1      42.058  34.762  34.800  1.00  0.00     0.134 A 
ATOM     82  F   UNL A   1      43.335  35.733  31.542  1.00  0.00    -0.206 F 
ATOM     83  C   UNL A   1      43.224  36.948  33.546  1.00  0.00     0.040 A 
ATOM     84  C   UNL A   1      42.276  35.940  35.518  1.00  0.00     0.040 A 
ATOM     85  F   UNL A   1      41.492  33.731  35.445  1.00  0.00    -0.206 F 
ATOM     86  C   UNL A   1      42.866  37.036  34.891  1.00  0.00     0.006 A 
ENDBRANCH  62  79
ENDBRANCH  36  37
ENDBRANCH  28  31
ENDBRANCH  26  27
ENDBRANCH  25  26
ENDBRANCH   1  25
TORSDOF 14
ENDMDL
MODEL 3
REMARK VINA RESULT:     -11.7      1.586      2.287
REMARK SMILES Cc1cc(Br)cc2c1O[C@H](C(F)(F)F)C(C(=O)NCCCCCCNC(=O)c1ccc(-c3c4nc(c(-c5c(F)cccc5F)c5ccc([nH]5)c(-c5c(F)cccc5F)c5nc(c(-c6c(F)cccc6F)c6ccc3[nH]6)C=C5)C=C4)cc1)=C2
REMARK SMILES IDX 22 1 21 2 20 3 19 4 18 5 16 6 17 7 15 9 1 10 2 11 3 12 8 13
REMARK SMILES IDX 4 14 7 15 9 16 5 17 6 18 82 19 10 20 11 21 12 22 13 23 14 24
REMARK SMILES IDX 23 25 24 26 25 27 26 28 27 30 28 31 29 32 81 33 30 34 80 35
REMARK SMILES IDX 31 36 32 37 33 38 74 39 34 40 79 41 73 42 75 43 35 44 78 45
REMARK SMILES IDX 72 46 71 47 36 49 62 50 45 51 61 52 46 53 49 54 60 55 76 56
REMARK SMILES IDX 47 57 48 58 59 60 77 61 50 62 37 63 38 64 43 65 39 66 40 67
REMARK SMILES IDX 42 68 44 69 41 70 63 71 64 72 69 73 65 74 66 75 68 76 70 77
REMARK SMILES IDX 67 78 51 79 52 80 57 81 53 82 54 83 56 84 58 85 55 86
REMARK H PARENT 18 8 25 29 75 48 49 59
REMARK Flexibility Score: inf
ROOT
ATOM      1  C   UNL A   1      32.998  29.234  24.776  1.00  0.00     0.002 C 
ENDROOT
BRANCH   1   2
ATOM      2  C   UNL A   1      31.473  29.206  24.609  1.00  0.00     0.002 C 
BRANCH   2   3
ATOM      3  C   UNL A   1      30.979  28.983  23.176  1.00  0.00     0.021 C 
BRANCH   3   4
ATOM      4  C   UNL A   1      30.718  27.518  22.837  1.00  0.00     0.116 C 
BRANCH   4   5
ATOM      5  N   UNL A   1      31.709  26.991  21.917  1.00  0.00    -0.352 N 
ATOM      6  C   UNL A   1      32.666  26.034  21.929  1.00  0.00     0.251 C 
ATOM      7  O   UNL A   1      33.279  25.891  20.864  1.00  0.00    -0.270 OA
ATOM      8  H   UNL A   1      31.676  27.455  21.049  1.00  0.00     0.163 HD
BRANCH   6   9
ATOM      9  C   UNL A   1      33.018  25.177  23.101  1.00  0.00     0.067 C 
ATOM     10  C   UNL A   1      33.358  22.792  27.666  1.00  0.00     0.048 C 
ATOM     11  C   UNL A   1      34.242  22.953  26.462  1.00  0.00    -0.007 A 
ATOM     12  C   UNL A   1      35.511  22.359  26.457  1.00  0.00     0.023 A 
ATOM     13  C   UNL A   1      33.855  23.722  25.355  1.00  0.00     0.130 A 
ATOM     14  C   UNL A   1      36.361  22.527  25.363  1.00  0.00     0.019 A 
ATOM     15  C   UNL A   1      34.709  23.897  24.261  1.00  0.00     0.019 A 
ATOM     16  O   UNL A   1      32.636  24.332  25.419  1.00  0.00    -0.475 OA
ATOM     17  Br  UNL A   1      38.071  21.720  25.380  1.00  0.00    -0.051 Br
ATOM     18  C   UNL A   1      35.969  23.292  24.266  1.00  0.00     0.027 A 
ATOM     19  C   UNL A   1      34.293  24.749  23.152  1.00  0.00     0.025 C 
ATOM     20  C   UNL A   1      32.047  24.762  24.166  1.00  0.00     0.314 C 
BRANCH  20  21
ATOM     21  C   UNL A   1      31.050  23.694  23.679  1.00  0.00     0.429 C 
ATOM     22  F   UNL A   1      31.623  22.908  22.733  1.00  0.00    -0.167 F 
ATOM     23  F   UNL A   1      30.651  22.864  24.669  1.00  0.00    -0.167 F 
ATOM     24  F   UNL A   1      29.933  24.231  23.139  1.00  0.00    -0.167 F 
ENDBRANCH  20  21
ENDBRANCH   6   9
ENDBRANCH   4   5
ENDBRANCH   3   4
ENDBRANCH   2   3
ENDBRANCH   1   2
BRANCH   1  25
ATOM     25  C   UNL A   1      33.613  27.994  25.433  1.00  0.00     0.021 C 
BRANCH  25  26
ATOM     26  C   UNL A   1      34.079  28.200  26.870  1.00  0.00     0.116 C 
BRANCH  26  27
ATOM     27  N   UNL A   1      33.886  29.571  27.311  1.00  0.00    -0.352 N 
ATOM     28  C   UNL A   1      34.725  30.382  28.026  1.00  0.00     0.251 C 
ATOM     29  H   UNL A   1      33.026  29.977  27.055  1.00  0.00     0.163 HD
ATOM     30  O   UNL A   1      34.310  31.443  28.491  1.00  0.00    -0.269 OA
BRANCH  28  31
ATOM     31  C   UNL A   1      36.128  29.983  28.251  1.00  0.00     0.039 A 
ATOM     32  C   UNL A   1      36.494  29.469  29.498  1.00  0.00     0.014 A 
ATOM     33  C   UNL A   1      37.088  30.151  27.247  1.00  0.00     0.014 A 
ATOM     34  C   UNL A   1      37.814  29.077  29.725  1.00  0.00     0.010 A 
ATOM     35  C   UNL A   1      38.390  29.709  27.456  1.00  0.00     0.010 A 
ATOM     36  C   UNL A   1      38.766  29.174  28.698  1.00  0.00    -0.014 A 
BRANCH  36  37
ATOM     37  C   UNL A   1      40.166  28.733  28.898  1.00  0.00     0.031 A 
ATOM     38  C   UNL A   1      41.183  29.694  29.445  1.00  0.00     0.074 A 
ATOM     39  C   UNL A   1      40.533  27.492  28.526  1.00  0.00     0.049 A 
ATOM     40  N   UNL A   1      42.476  29.544  29.575  1.00  0.00    -0.248 NA
ATOM     41  C   UNL A   1      40.681  31.006  29.885  1.00  0.00     0.031 C 
ATOM     42  C   UNL A   1      39.638  26.477  27.971  1.00  0.00     0.029 A 
ATOM     43  N   UNL A   1      41.761  26.881  28.543  1.00  0.00    -0.354 N 
ATOM     44  C   UNL A   1      42.943  30.741  30.100  1.00  0.00     0.074 A 
ATOM     45  C   UNL A   1      41.803  31.624  30.226  1.00  0.00     0.031 C 
ATOM     46  C   UNL A   1      40.344  25.365  27.712  1.00  0.00     0.029 A 
ATOM     47  C   UNL A   1      41.746  25.603  28.041  1.00  0.00     0.049 A 
ATOM     48  H   UNL A   1      42.575  27.317  28.884  1.00  0.00     0.167 HD
ATOM     49  C   UNL A   1      44.206  31.067  30.462  1.00  0.00     0.037 A 
ATOM     50  C   UNL A   1      42.751  24.729  27.852  1.00  0.00     0.037 A 
ATOM     51  C   UNL A   1      45.334  30.179  30.349  1.00  0.00     0.049 A 
ATOM     52  C   UNL A   1      44.150  25.125  28.237  1.00  0.00     0.074 A 
ATOM     53  C   UNL A   1      46.650  30.407  30.711  1.00  0.00     0.029 A 
ATOM     54  N   UNL A   1      45.276  28.888  29.843  1.00  0.00    -0.354 N 
ATOM     55  N   UNL A   1      44.577  26.254  28.748  1.00  0.00    -0.248 NA
ATOM     56  C   UNL A   1      45.205  24.126  28.022  1.00  0.00     0.031 C 
ATOM     57  C   UNL A   1      47.396  29.270  30.388  1.00  0.00     0.029 A 
ATOM     58  C   UNL A   1      46.536  28.314  29.872  1.00  0.00     0.049 A 
ATOM     59  H   UNL A   1      44.461  28.447  29.512  1.00  0.00     0.167 HD
ATOM     60  C   UNL A   1      45.942  26.093  28.943  1.00  0.00     0.074 A 
ATOM     61  C   UNL A   1      46.270  24.751  28.504  1.00  0.00     0.031 C 
ATOM     62  C   UNL A   1      46.843  26.975  29.440  1.00  0.00     0.037 A 
BRANCH  49  63
ATOM     63  C   UNL A   1      44.441  32.439  31.021  1.00  0.00     0.057 A 
ATOM     64  C   UNL A   1      44.395  32.689  32.399  1.00  0.00     0.134 A 
ATOM     65  C   UNL A   1      44.782  33.507  30.181  1.00  0.00     0.134 A 
ATOM     66  F   UNL A   1      44.061  31.713  33.256  1.00  0.00    -0.206 F 
ATOM     67  C   UNL A   1      44.669  33.955  32.920  1.00  0.00     0.040 A 
ATOM     68  C   UNL A   1      45.082  34.771  30.693  1.00  0.00     0.040 A 
ATOM     69  F   UNL A   1      44.848  33.336  28.853  1.00  0.00    -0.206 F 
ATOM     70  C   UNL A   1      45.024  34.997  32.067  1.00  0.00     0.006 A 
ENDBRANCH  49  63
BRANCH  50  71
ATOM     71  C   UNL A   1      42.467  23.385  27.292  1.00  0.00     0.057 A 
ATOM     72  C   UNL A   1      42.042  22.337  28.116  1.00  0.00     0.134 A 
ATOM     73  C   UNL A   1      42.600  23.117  25.924  1.00  0.00     0.134 A 
ATOM     74  F   UNL A   1      41.914  22.528  29.437  1.00  0.00    -0.206 F 
ATOM     75  C   UNL A   1      41.771  21.068  27.604  1.00  0.00     0.040 A 
ATOM     76  C   UNL A   1      42.308  21.859  25.394  1.00  0.00     0.040 A 
ATOM     77  F   UNL A   1      42.997  24.081  25.080  1.00  0.00    -0.206 F 
ATOM     78  C   UNL A   1      41.897  20.828  26.237  1.00  0.00     0.006 A 
ENDBRANCH  50  71
BRANCH  62  79
ATOM     79  C   UNL A   1      48.262  26.507  29.573  1.00  0.00     0.057 A 
ATOM     80  C   UNL A   1      49.209  26.712  28.562  1.00  0.00     0.134 A 
ATOM     81  C   UNL A   1      48.698  25.886  30.751  1.00  0.00     0.134 A 
ATOM     82  F   UNL A   1      48.852  27.292  27.406  1.00  0.00    -0.206 F 
ATOM     83  C   UNL A   1      50.532  26.297  28.707  1.00  0.00     0.040 A 
ATOM     84  C   UNL A   1      50.026  25.490  30.920  1.00  0.00     0.040 A 
ATOM     85  F   UNL A   1      47.845  25.669  31.764  1.00  0.00    -0.206 F 
ATOM     86  C   UNL A   1      50.946  25.690  29.893  1.00  0.00     0.006 A 
ENDBRANCH  62  79
ENDBRANCH  36  37
ENDBRANCH  28  31
ENDBRANCH  26  27
ENDBRANCH  25  26
ENDBRANCH   1  25
TORSDOF 14
ENDMDL
