MODEL 1
REMARK VINA RESULT:     -11.0      0.000      0.000
REMARK SMILES COCc1nc2ccccc2n1CC(=O)NCCCCCCNC(=O)c1ccc(-c2c3nc(c(-c4c(F)cccc4F)c4ccc([nH]4)c(-c4c(F)cccc4F)c4nc(c(-c5c(F)cccc5F)c5ccc2[nH]5)C=C4)C=C3)cc1
REMARK SMILES IDX 19 1 18 2 17 3 16 4 14 5 15 6 13 8 12 9 4 10 5 11 6 12 11 13
REMARK SMILES IDX 7 14 10 15 8 16 9 17 3 18 2 19 1 20 20 21 21 22 22 23 23 24
REMARK SMILES IDX 24 25 25 27 26 28 27 29 79 30 28 31 78 32 29 33 30 34 31 35
REMARK SMILES IDX 72 36 32 37 77 38 71 39 73 40 33 41 76 42 70 43 69 44 34 46
REMARK SMILES IDX 60 47 43 48 59 49 44 50 47 51 58 52 74 53 45 54 46 55 57 57
REMARK SMILES IDX 75 58 48 59 35 60 36 61 41 62 37 63 38 64 40 65 42 66 39 67
REMARK SMILES IDX 61 68 62 69 67 70 63 71 64 72 66 73 68 74 65 75 49 76 50 77
REMARK SMILES IDX 55 78 51 79 52 80 54 81 56 82 53 83
REMARK H PARENT 16 7 23 26 73 45 47 56
REMARK Flexibility Score: inf
ROOT
ATOM      1  C   UNL A   1      35.036  33.315  28.002  1.00  0.00     0.002 C 
ENDROOT
BRANCH   1   2
ATOM      2  C   UNL A   1      33.989  32.235  28.300  1.00  0.00     0.021 C 
BRANCH   2   3
ATOM      3  C   UNL A   1      34.070  31.052  27.343  1.00  0.00     0.116 C 
BRANCH   3   4
ATOM      4  N   UNL A   1      33.026  30.092  27.618  1.00  0.00    -0.355 N 
ATOM      5  C   UNL A   1      32.182  29.463  26.749  1.00  0.00     0.240 C 
ATOM      6  O   UNL A   1      31.401  28.636  27.223  1.00  0.00    -0.273 OA
ATOM      7  H   UNL A   1      32.906  29.858  28.567  1.00  0.00     0.163 HD
BRANCH   5   8
ATOM      8  C   UNL A   1      32.309  29.687  25.255  1.00  0.00     0.223 C 
BRANCH   8   9
ATOM      9  N   UNL A   1      31.283  29.053  24.437  1.00  0.00    -0.316 N 
ATOM     10  C   UNL A   1      31.238  27.746  23.985  1.00  0.00     0.136 A 
ATOM     11  N   UNL A   1      30.087  27.511  23.377  1.00  0.00    -0.231 NA
ATOM     12  C   UNL A   1      29.409  28.697  23.356  1.00  0.00     0.089 A 
ATOM     13  C   UNL A   1      30.158  29.703  23.954  1.00  0.00     0.069 A 
ATOM     14  C   UNL A   1      28.139  28.991  22.837  1.00  0.00     0.030 A 
ATOM     15  C   UNL A   1      29.706  31.031  24.018  1.00  0.00     0.028 A 
ATOM     16  C   UNL A   1      27.659  30.303  22.922  1.00  0.00     0.002 A 
ATOM     17  C   UNL A   1      28.437  31.307  23.497  1.00  0.00     0.002 A 
BRANCH  10  18
ATOM     18  C   UNL A   1      32.291  26.695  24.168  1.00  0.00     0.235 C 
BRANCH  18  19
ATOM     19  O   UNL A   1      33.429  26.961  23.361  1.00  0.00    -0.377 OA
ATOM     20  C   UNL A   1      33.288  26.548  22.010  1.00  0.00     0.195 C 
ENDBRANCH  18  19
ENDBRANCH  10  18
ENDBRANCH   8   9
ENDBRANCH   5   8
ENDBRANCH   3   4
ENDBRANCH   2   3
ENDBRANCH   1   2
BRANCH   1  21
ATOM     21  C   UNL A   1      34.776  34.659  28.695  1.00  0.00     0.002 C 
BRANCH  21  22
ATOM     22  C   UNL A   1      33.300  35.077  28.748  1.00  0.00     0.021 C 
BRANCH  22  23
ATOM     23  C   UNL A   1      33.046  36.300  29.632  1.00  0.00     0.116 C 
BRANCH  23  24
ATOM     24  N   UNL A   1      32.357  35.963  30.859  1.00  0.00    -0.352 N 
ATOM     25  C   UNL A   1      32.704  35.324  32.012  1.00  0.00     0.251 C 
ATOM     26  H   UNL A   1      31.421  36.268  30.864  1.00  0.00     0.163 HD
ATOM     27  O   UNL A   1      31.824  35.247  32.878  1.00  0.00    -0.269 OA
BRANCH  25  28
ATOM     28  C   UNL A   1      34.011  34.665  32.265  1.00  0.00     0.039 A 
ATOM     29  C   UNL A   1      35.210  35.320  32.548  1.00  0.00     0.014 A 
ATOM     30  C   UNL A   1      34.027  33.266  32.118  1.00  0.00     0.014 A 
ATOM     31  C   UNL A   1      36.409  34.623  32.533  1.00  0.00     0.010 A 
ATOM     32  C   UNL A   1      35.219  32.558  32.135  1.00  0.00     0.010 A 
ATOM     33  C   UNL A   1      36.413  33.257  32.259  1.00  0.00    -0.014 A 
BRANCH  33  34
ATOM     34  C   UNL A   1      37.708  32.609  32.105  1.00  0.00     0.031 A 
ATOM     35  C   UNL A   1      38.560  32.579  33.327  1.00  0.00     0.074 A 
ATOM     36  C   UNL A   1      38.081  32.034  30.944  1.00  0.00     0.049 A 
ATOM     37  N   UNL A   1      39.719  33.126  33.512  1.00  0.00    -0.248 NA
ATOM     38  C   UNL A   1      37.994  31.956  34.533  1.00  0.00     0.031 C 
ATOM     39  C   UNL A   1      37.274  31.769  29.748  1.00  0.00     0.029 A 
ATOM     40  N   UNL A   1      39.279  31.476  30.625  1.00  0.00    -0.354 N 
ATOM     41  C   UNL A   1      40.110  32.774  34.804  1.00  0.00     0.074 A 
ATOM     42  C   UNL A   1      38.963  32.164  35.426  1.00  0.00     0.031 C 
ATOM     43  C   UNL A   1      37.926  30.892  28.954  1.00  0.00     0.029 A 
ATOM     44  C   UNL A   1      39.248  30.659  29.506  1.00  0.00     0.049 A 
ATOM     45  H   UNL A   1      40.099  31.637  31.145  1.00  0.00     0.167 HD
ATOM     46  C   UNL A   1      41.409  32.839  35.209  1.00  0.00     0.037 A 
ATOM     47  C   UNL A   1      40.217  29.797  29.116  1.00  0.00     0.037 A 
ATOM     48  C   UNL A   1      42.196  33.678  34.349  1.00  0.00     0.049 A 
ATOM     49  C   UNL A   1      41.479  30.207  29.781  1.00  0.00     0.074 A 
ATOM     50  C   UNL A   1      42.197  35.020  34.028  1.00  0.00     0.029 A 
ATOM     51  N   UNL A   1      42.981  33.070  33.402  1.00  0.00    -0.354 N 
ATOM     52  N   UNL A   1      42.117  31.309  29.500  1.00  0.00    -0.248 NA
ATOM     53  C   UNL A   1      41.769  29.634  31.088  1.00  0.00     0.031 C 
ATOM     54  C   UNL A   1      42.550  35.065  32.647  1.00  0.00     0.029 A 
ATOM     55  C   UNL A   1      42.788  33.755  32.231  1.00  0.00     0.049 A 
ATOM     56  H   UNL A   1      43.570  32.293  33.536  1.00  0.00     0.167 HD
ATOM     57  C   UNL A   1      42.556  31.790  30.725  1.00  0.00     0.074 A 
ATOM     58  C   UNL A   1      42.376  30.680  31.658  1.00  0.00     0.031 C 
ATOM     59  C   UNL A   1      42.757  33.125  30.933  1.00  0.00     0.037 A 
BRANCH  46  60
ATOM     60  C   UNL A   1      42.051  31.863  36.164  1.00  0.00     0.057 A 
ATOM     61  C   UNL A   1      42.263  30.503  35.860  1.00  0.00     0.134 A 
ATOM     62  C   UNL A   1      42.772  32.351  37.270  1.00  0.00     0.134 A 
ATOM     63  F   UNL A   1      41.697  29.911  34.801  1.00  0.00    -0.206 F 
ATOM     64  C   UNL A   1      43.160  29.702  36.570  1.00  0.00     0.040 A 
ATOM     65  C   UNL A   1      43.708  31.569  37.957  1.00  0.00     0.040 A 
ATOM     66  F   UNL A   1      42.654  33.630  37.659  1.00  0.00    -0.206 F 
ATOM     67  C   UNL A   1      43.915  30.243  37.598  1.00  0.00     0.006 A 
ENDBRANCH  46  60
BRANCH  47  68
ATOM     68  C   UNL A   1      40.017  28.460  28.515  1.00  0.00     0.057 A 
ATOM     69  C   UNL A   1      39.529  27.386  29.282  1.00  0.00     0.134 A 
ATOM     70  C   UNL A   1      40.526  28.135  27.253  1.00  0.00     0.134 A 
ATOM     71  F   UNL A   1      39.106  27.573  30.541  1.00  0.00    -0.206 F 
ATOM     72  C   UNL A   1      39.535  26.068  28.820  1.00  0.00     0.040 A 
ATOM     73  C   UNL A   1      40.545  26.814  26.778  1.00  0.00     0.040 A 
ATOM     74  F   UNL A   1      41.064  29.082  26.472  1.00  0.00    -0.206 F 
ATOM     75  C   UNL A   1      40.052  25.776  27.565  1.00  0.00     0.006 A 
ENDBRANCH  47  68
BRANCH  59  76
ATOM     76  C   UNL A   1      42.683  34.038  29.743  1.00  0.00     0.057 A 
ATOM     77  C   UNL A   1      43.860  34.369  29.066  1.00  0.00     0.134 A 
ATOM     78  C   UNL A   1      41.516  34.715  29.358  1.00  0.00     0.134 A 
ATOM     79  F   UNL A   1      45.027  33.812  29.427  1.00  0.00    -0.206 F 
ATOM     80  C   UNL A   1      43.877  35.320  28.043  1.00  0.00     0.040 A 
ATOM     81  C   UNL A   1      41.513  35.645  28.314  1.00  0.00     0.040 A 
ATOM     82  F   UNL A   1      40.366  34.543  30.021  1.00  0.00    -0.206 F 
ATOM     83  C   UNL A   1      42.699  35.953  27.656  1.00  0.00     0.006 A 
ENDBRANCH  59  76
ENDBRANCH  33  34
ENDBRANCH  25  28
ENDBRANCH  23  24
ENDBRANCH  22  23
ENDBRANCH  21  22
ENDBRANCH   1  21
TORSDOF 16
ENDMDL
MODEL 2
REMARK VINA RESULT:     -10.9      5.764     10.932
REMARK SMILES COCc1nc2ccccc2n1CC(=O)NCCCCCCNC(=O)c1ccc(-c2c3nc(c(-c4c(F)cccc4F)c4ccc([nH]4)c(-c4c(F)cccc4F)c4nc(c(-c5c(F)cccc5F)c5ccc2[nH]5)C=C4)C=C3)cc1
REMARK SMILES IDX 19 1 18 2 17 3 16 4 14 5 15 6 13 8 12 9 4 10 5 11 6 12 11 13
REMARK SMILES IDX 7 14 10 15 8 16 9 17 3 18 2 19 1 20 20 21 21 22 22 23 23 24
REMARK SMILES IDX 24 25 25 27 26 28 27 29 79 30 28 31 78 32 29 33 30 34 31 35
REMARK SMILES IDX 72 36 32 37 77 38 71 39 73 40 33 41 76 42 70 43 69 44 34 46
REMARK SMILES IDX 60 47 43 48 59 49 44 50 47 51 58 52 74 53 45 54 46 55 57 57
REMARK SMILES IDX 75 58 48 59 35 60 36 61 41 62 37 63 38 64 40 65 42 66 39 67
REMARK SMILES IDX 61 68 62 69 67 70 63 71 64 72 66 73 68 74 65 75 49 76 50 77
REMARK SMILES IDX 55 78 51 79 52 80 54 81 56 82 53 83
REMARK H PARENT 16 7 23 26 73 45 47 56
REMARK Flexibility Score: inf
ROOT
ATOM      1  C   UNL A   1      40.967  21.314  25.938  1.00  0.00     0.002 C 
ENDROOT
BRANCH   1   2
ATOM      2  C   UNL A   1      39.701  21.856  26.611  1.00  0.00     0.021 C 
BRANCH   2   3
ATOM      3  C   UNL A   1      38.476  21.789  25.707  1.00  0.00     0.116 C 
BRANCH   3   4
ATOM      4  N   UNL A   1      37.375  22.537  26.272  1.00  0.00    -0.355 N 
ATOM      5  C   UNL A   1      36.092  22.653  25.824  1.00  0.00     0.240 C 
ATOM      6  O   UNL A   1      35.312  23.313  26.513  1.00  0.00    -0.273 OA
ATOM      7  H   UNL A   1      37.581  23.033  27.097  1.00  0.00     0.163 HD
BRANCH   5   8
ATOM      8  C   UNL A   1      35.632  21.883  24.601  1.00  0.00     0.223 C 
BRANCH   8   9
ATOM      9  N   UNL A   1      34.198  21.924  24.339  1.00  0.00    -0.316 N 
ATOM     10  C   UNL A   1      33.248  20.963  24.640  1.00  0.00     0.136 A 
ATOM     11  N   UNL A   1      32.037  21.414  24.361  1.00  0.00    -0.231 NA
ATOM     12  C   UNL A   1      32.202  22.646  23.793  1.00  0.00     0.089 A 
ATOM     13  C   UNL A   1      33.550  22.970  23.702  1.00  0.00     0.069 A 
ATOM     14  C   UNL A   1      31.237  23.550  23.326  1.00  0.00     0.030 A 
ATOM     15  C   UNL A   1      33.991  24.164  23.110  1.00  0.00     0.028 A 
ATOM     16  C   UNL A   1      31.658  24.760  22.762  1.00  0.00     0.002 A 
ATOM     17  C   UNL A   1      33.016  25.055  22.650  1.00  0.00     0.002 A 
BRANCH  10  18
ATOM     18  C   UNL A   1      33.495  19.611  25.239  1.00  0.00     0.235 C 
BRANCH  18  19
ATOM     19  O   UNL A   1      32.287  18.872  25.354  1.00  0.00    -0.377 OA
ATOM     20  C   UNL A   1      32.431  17.486  25.080  1.00  0.00     0.195 C 
ENDBRANCH  18  19
ENDBRANCH  10  18
ENDBRANCH   8   9
ENDBRANCH   5   8
ENDBRANCH   3   4
ENDBRANCH   2   3
ENDBRANCH   1   2
BRANCH   1  21
ATOM     21  C   UNL A   1      41.761  20.315  26.790  1.00  0.00     0.002 C 
BRANCH  21  22
ATOM     22  C   UNL A   1      41.972  18.942  26.136  1.00  0.00     0.021 C 
BRANCH  22  23
ATOM     23  C   UNL A   1      43.445  18.553  26.000  1.00  0.00     0.116 C 
BRANCH  23  24
ATOM     24  N   UNL A   1      43.964  18.803  24.673  1.00  0.00    -0.352 N 
ATOM     25  C   UNL A   1      44.551  19.866  24.055  1.00  0.00     0.251 C 
ATOM     26  H   UNL A   1      43.873  18.024  24.078  1.00  0.00     0.163 HD
ATOM     27  O   UNL A   1      44.898  19.691  22.881  1.00  0.00    -0.269 OA
BRANCH  25  28
ATOM     28  C   UNL A   1      44.734  21.212  24.658  1.00  0.00     0.039 A 
ATOM     29  C   UNL A   1      45.579  21.517  25.726  1.00  0.00     0.014 A 
ATOM     30  C   UNL A   1      43.910  22.228  24.141  1.00  0.00     0.014 A 
ATOM     31  C   UNL A   1      45.494  22.748  26.356  1.00  0.00     0.010 A 
ATOM     32  C   UNL A   1      43.845  23.474  24.746  1.00  0.00     0.010 A 
ATOM     33  C   UNL A   1      44.578  23.697  25.904  1.00  0.00    -0.014 A 
BRANCH  33  34
ATOM     34  C   UNL A   1      44.425  24.909  26.696  1.00  0.00     0.031 A 
ATOM     35  C   UNL A   1      45.531  25.900  26.573  1.00  0.00     0.074 A 
ATOM     36  C   UNL A   1      43.328  25.134  27.447  1.00  0.00     0.049 A 
ATOM     37  N   UNL A   1      46.337  26.323  27.494  1.00  0.00    -0.248 NA
ATOM     38  C   UNL A   1      45.852  26.394  25.225  1.00  0.00     0.031 C 
ATOM     39  C   UNL A   1      42.068  24.384  27.480  1.00  0.00     0.029 A 
ATOM     40  N   UNL A   1      43.084  26.165  28.298  1.00  0.00    -0.354 N 
ATOM     41  C   UNL A   1      47.161  27.268  26.882  1.00  0.00     0.074 A 
ATOM     42  C   UNL A   1      46.903  27.180  25.467  1.00  0.00     0.031 C 
ATOM     43  C   UNL A   1      41.125  25.122  28.107  1.00  0.00     0.029 A 
ATOM     44  C   UNL A   1      41.751  26.315  28.647  1.00  0.00     0.049 A 
ATOM     45  H   UNL A   1      43.794  26.757  28.638  1.00  0.00     0.167 HD
ATOM     46  C   UNL A   1      47.862  28.189  27.600  1.00  0.00     0.037 A 
ATOM     47  C   UNL A   1      41.201  27.385  29.267  1.00  0.00     0.037 A 
ATOM     48  C   UNL A   1      47.990  27.807  28.979  1.00  0.00     0.049 A 
ATOM     49  C   UNL A   1      42.296  28.137  29.928  1.00  0.00     0.074 A 
ATOM     50  C   UNL A   1      48.603  26.770  29.652  1.00  0.00     0.029 A 
ATOM     51  N   UNL A   1      47.144  28.390  29.888  1.00  0.00    -0.354 N 
ATOM     52  N   UNL A   1      42.967  27.683  30.950  1.00  0.00    -0.248 NA
ATOM     53  C   UNL A   1      42.964  29.175  29.155  1.00  0.00     0.031 C 
ATOM     54  C   UNL A   1      47.732  26.477  30.742  1.00  0.00     0.029 A 
ATOM     55  C   UNL A   1      46.673  27.384  30.690  1.00  0.00     0.049 A 
ATOM     56  H   UNL A   1      46.918  29.346  29.953  1.00  0.00     0.167 HD
ATOM     57  C   UNL A   1      44.281  28.060  30.711  1.00  0.00     0.074 A 
ATOM     58  C   UNL A   1      44.206  29.040  29.628  1.00  0.00     0.031 C 
ATOM     59  C   UNL A   1      45.329  27.342  31.212  1.00  0.00     0.037 A 
BRANCH  46  60
ATOM     60  C   UNL A   1      48.120  29.604  27.144  1.00  0.00     0.057 A 
ATOM     61  C   UNL A   1      47.100  30.558  26.956  1.00  0.00     0.134 A 
ATOM     62  C   UNL A   1      49.425  30.126  27.216  1.00  0.00     0.134 A 
ATOM     63  F   UNL A   1      45.804  30.223  26.930  1.00  0.00    -0.206 F 
ATOM     64  C   UNL A   1      47.352  31.930  26.893  1.00  0.00     0.040 A 
ATOM     65  C   UNL A   1      49.683  31.502  27.202  1.00  0.00     0.040 A 
ATOM     66  F   UNL A   1      50.481  29.318  27.394  1.00  0.00    -0.206 F 
ATOM     67  C   UNL A   1      48.642  32.410  27.055  1.00  0.00     0.006 A 
ENDBRANCH  46  60
BRANCH  47  68
ATOM     68  C   UNL A   1      39.867  27.968  29.000  1.00  0.00     0.057 A 
ATOM     69  C   UNL A   1      39.615  28.689  27.817  1.00  0.00     0.134 A 
ATOM     70  C   UNL A   1      38.885  28.049  29.992  1.00  0.00     0.134 A 
ATOM     71  F   UNL A   1      40.532  28.757  26.841  1.00  0.00    -0.206 F 
ATOM     72  C   UNL A   1      38.452  29.438  27.627  1.00  0.00     0.040 A 
ATOM     73  C   UNL A   1      37.714  28.802  29.818  1.00  0.00     0.040 A 
ATOM     74  F   UNL A   1      39.061  27.442  31.174  1.00  0.00    -0.206 F 
ATOM     75  C   UNL A   1      37.498  29.503  28.634  1.00  0.00     0.006 A 
ENDBRANCH  47  68
BRANCH  59  76
ATOM     76  C   UNL A   1      45.021  26.247  32.193  1.00  0.00     0.057 A 
ATOM     77  C   UNL A   1      45.207  26.485  33.558  1.00  0.00     0.134 A 
ATOM     78  C   UNL A   1      44.708  24.933  31.814  1.00  0.00     0.134 A 
ATOM     79  F   UNL A   1      45.575  27.703  33.987  1.00  0.00    -0.206 F 
ATOM     80  C   UNL A   1      45.074  25.469  34.506  1.00  0.00     0.040 A 
ATOM     81  C   UNL A   1      44.540  23.914  32.756  1.00  0.00     0.040 A 
ATOM     82  F   UNL A   1      44.620  24.587  30.524  1.00  0.00    -0.206 F 
ATOM     83  C   UNL A   1      44.729  24.181  34.108  1.00  0.00     0.006 A 
ENDBRANCH  59  76
ENDBRANCH  33  34
ENDBRANCH  25  28
ENDBRANCH  23  24
ENDBRANCH  22  23
ENDBRANCH  21  22
ENDBRANCH   1  21
TORSDOF 16
ENDMDL
MODEL 3
REMARK VINA RESULT:     -10.8      5.947     11.152
REMARK SMILES COCc1nc2ccccc2n1CC(=O)NCCCCCCNC(=O)c1ccc(-c2c3nc(c(-c4c(F)cccc4F)c4ccc([nH]4)c(-c4c(F)cccc4F)c4nc(c(-c5c(F)cccc5F)c5ccc2[nH]5)C=C4)C=C3)cc1
REMARK SMILES IDX 19 1 18 2 17 3 16 4 14 5 15 6 13 8 12 9 4 10 5 11 6 12 11 13
REMARK SMILES IDX 7 14 10 15 8 16 9 17 3 18 2 19 1 20 20 21 21 22 22 23 23 24
REMARK SMILES IDX 24 25 25 27 26 28 27 29 79 30 28 31 78 32 29 33 30 34 31 35
REMARK SMILES IDX 72 36 32 37 77 38 71 39 73 40 33 41 76 42 70 43 69 44 34 46
REMARK SMILES IDX 60 47 43 48 59 49 44 50 47 51 58 52 74 53 45 54 46 55 57 57
REMARK SMILES IDX 75 58 48 59 35 60 36 61 41 62 37 63 38 64 40 65 42 66 39 67
REMARK SMILES IDX 61 68 62 69 67 70 63 71 64 72 66 73 68 74 65 75 49 76 50 77
REMARK SMILES IDX 55 78 51 79 52 80 54 81 56 82 53 83
REMARK H PARENT 16 7 23 26 73 45 47 56
REMARK Flexibility Score: inf
ROOT
ATOM      1  C   UNL A   1      40.708  21.465  25.855  1.00  0.00     0.002 C 
ENDROOT
BRANCH   1   2
ATOM      2  C   UNL A   1      39.450  22.052  26.506  1.00  0.00     0.021 C 
BRANCH   2   3
ATOM      3  C   UNL A   1      38.211  21.913  25.630  1.00  0.00     0.116 C 
BRANCH   3   4
ATOM      4  N   UNL A   1      37.021  22.303  26.353  1.00  0.00    -0.355 N 
ATOM      5  C   UNL A   1      35.715  22.232  25.965  1.00  0.00     0.240 C 
ATOM      6  O   UNL A   1      34.864  22.579  26.785  1.00  0.00    -0.273 OA
ATOM      7  H   UNL A   1      37.175  22.672  27.252  1.00  0.00     0.163 HD
BRANCH   5   8
ATOM      8  C   UNL A   1      35.342  21.619  24.629  1.00  0.00     0.223 C 
BRANCH   8   9
ATOM      9  N   UNL A   1      34.144  20.789  24.634  1.00  0.00    -0.316 N 
ATOM     10  C   UNL A   1      32.822  21.198  24.675  1.00  0.00     0.136 A 
ATOM     11  N   UNL A   1      32.017  20.158  24.537  1.00  0.00    -0.231 NA
ATOM     12  C   UNL A   1      32.815  19.051  24.492  1.00  0.00     0.089 A 
ATOM     13  C   UNL A   1      34.153  19.403  24.617  1.00  0.00     0.069 A 
ATOM     14  C   UNL A   1      32.462  17.701  24.346  1.00  0.00     0.030 A 
ATOM     15  C   UNL A   1      35.177  18.442  24.651  1.00  0.00     0.028 A 
ATOM     16  C   UNL A   1      33.473  16.733  24.345  1.00  0.00     0.002 A 
ATOM     17  C   UNL A   1      34.808  17.101  24.503  1.00  0.00     0.002 A 
BRANCH  10  18
ATOM     18  C   UNL A   1      32.320  22.604  24.808  1.00  0.00     0.235 C 
BRANCH  18  19
ATOM     19  O   UNL A   1      31.125  22.654  25.575  1.00  0.00    -0.377 OA
ATOM     20  C   UNL A   1      31.311  23.122  26.902  1.00  0.00     0.195 C 
ENDBRANCH  18  19
ENDBRANCH  10  18
ENDBRANCH   8   9
ENDBRANCH   5   8
ENDBRANCH   3   4
ENDBRANCH   2   3
ENDBRANCH   1   2
BRANCH   1  21
ATOM     21  C   UNL A   1      41.495  20.500  26.750  1.00  0.00     0.002 C 
BRANCH  21  22
ATOM     22  C   UNL A   1      41.741  19.114  26.137  1.00  0.00     0.021 C 
BRANCH  22  23
ATOM     23  C   UNL A   1      43.221  18.733  26.070  1.00  0.00     0.116 C 
BRANCH  23  24
ATOM     24  N   UNL A   1      43.794  18.960  24.761  1.00  0.00    -0.352 N 
ATOM     25  C   UNL A   1      44.420  20.008  24.155  1.00  0.00     0.251 C 
ATOM     26  H   UNL A   1      43.715  18.176  24.172  1.00  0.00     0.163 HD
ATOM     27  O   UNL A   1      44.808  19.815  22.997  1.00  0.00    -0.269 OA
BRANCH  25  28
ATOM     28  C   UNL A   1      44.599  21.358  24.749  1.00  0.00     0.039 A 
ATOM     29  C   UNL A   1      45.436  21.670  25.821  1.00  0.00     0.014 A 
ATOM     30  C   UNL A   1      43.779  22.371  24.219  1.00  0.00     0.014 A 
ATOM     31  C   UNL A   1      45.347  22.906  26.442  1.00  0.00     0.010 A 
ATOM     32  C   UNL A   1      43.709  23.621  24.815  1.00  0.00     0.010 A 
ATOM     33  C   UNL A   1      44.435  23.852  25.977  1.00  0.00    -0.014 A 
BRANCH  33  34
ATOM     34  C   UNL A   1      44.276  25.070  26.759  1.00  0.00     0.031 A 
ATOM     35  C   UNL A   1      45.371  26.071  26.617  1.00  0.00     0.074 A 
ATOM     36  C   UNL A   1      43.184  25.290  27.518  1.00  0.00     0.049 A 
ATOM     37  N   UNL A   1      46.182  26.510  27.526  1.00  0.00    -0.248 NA
ATOM     38  C   UNL A   1      45.675  26.556  25.262  1.00  0.00     0.031 C 
ATOM     39  C   UNL A   1      41.932  24.528  27.570  1.00  0.00     0.029 A 
ATOM     40  N   UNL A   1      42.938  26.327  28.362  1.00  0.00    -0.354 N 
ATOM     41  C   UNL A   1      46.990  27.457  26.898  1.00  0.00     0.074 A 
ATOM     42  C   UNL A   1      46.720  27.354  25.487  1.00  0.00     0.031 C 
ATOM     43  C   UNL A   1      40.988  25.262  28.198  1.00  0.00     0.029 A 
ATOM     44  C   UNL A   1      41.607  26.466  28.722  1.00  0.00     0.049 A 
ATOM     45  H   UNL A   1      43.645  26.929  28.690  1.00  0.00     0.167 HD
ATOM     46  C   UNL A   1      47.688  28.392  27.601  1.00  0.00     0.037 A 
ATOM     47  C   UNL A   1      41.051  27.537  29.337  1.00  0.00     0.037 A 
ATOM     48  C   UNL A   1      47.833  28.025  28.982  1.00  0.00     0.049 A 
ATOM     49  C   UNL A   1      42.145  28.305  29.981  1.00  0.00     0.074 A 
ATOM     50  C   UNL A   1      48.463  27.000  29.659  1.00  0.00     0.029 A 
ATOM     51  N   UNL A   1      46.989  28.607  29.894  1.00  0.00    -0.354 N 
ATOM     52  N   UNL A   1      42.830  27.868  31.001  1.00  0.00    -0.248 NA
ATOM     53  C   UNL A   1      42.795  29.343  29.193  1.00  0.00     0.031 C 
ATOM     54  C   UNL A   1      47.605  26.708  30.760  1.00  0.00     0.029 A 
ATOM     55  C   UNL A   1      46.536  27.604  30.709  1.00  0.00     0.049 A 
ATOM     56  H   UNL A   1      46.754  29.561  29.953  1.00  0.00     0.167 HD
ATOM     57  C   UNL A   1      44.138  28.256  30.746  1.00  0.00     0.074 A 
ATOM     58  C   UNL A   1      44.043  29.225  29.656  1.00  0.00     0.031 C 
ATOM     59  C   UNL A   1      45.197  27.553  31.244  1.00  0.00     0.037 A 
BRANCH  46  60
ATOM     60  C   UNL A   1      47.927  29.806  27.131  1.00  0.00     0.057 A 
ATOM     61  C   UNL A   1      46.895  30.743  26.928  1.00  0.00     0.134 A 
ATOM     62  C   UNL A   1      49.225  30.347  27.201  1.00  0.00     0.134 A 
ATOM     63  F   UNL A   1      45.604  30.389  26.902  1.00  0.00    -0.206 F 
ATOM     64  C   UNL A   1      47.128  32.118  26.850  1.00  0.00     0.040 A 
ATOM     65  C   UNL A   1      49.463  31.726  27.172  1.00  0.00     0.040 A 
ATOM     66  F   UNL A   1      50.292  29.555  27.390  1.00  0.00    -0.206 F 
ATOM     67  C   UNL A   1      48.410  32.617  27.011  1.00  0.00     0.006 A 
ENDBRANCH  46  60
BRANCH  47  68
ATOM     68  C   UNL A   1      39.709  28.104  29.077  1.00  0.00     0.057 A 
ATOM     69  C   UNL A   1      39.451  28.849  27.911  1.00  0.00     0.134 A 
ATOM     70  C   UNL A   1      38.721  28.144  30.066  1.00  0.00     0.134 A 
ATOM     71  F   UNL A   1      40.371  28.955  26.941  1.00  0.00    -0.206 F 
ATOM     72  C   UNL A   1      38.276  29.583  27.733  1.00  0.00     0.040 A 
ATOM     73  C   UNL A   1      37.538  28.882  29.903  1.00  0.00     0.040 A 
ATOM     74  F   UNL A   1      38.901  27.511  31.234  1.00  0.00    -0.206 F 
ATOM     75  C   UNL A   1      37.316  29.608  28.736  1.00  0.00     0.006 A 
ENDBRANCH  47  68
BRANCH  59  76
ATOM     76  C   UNL A   1      44.909  26.464  32.238  1.00  0.00     0.057 A 
ATOM     77  C   UNL A   1      45.095  26.720  33.599  1.00  0.00     0.134 A 
ATOM     78  C   UNL A   1      44.617  25.141  31.874  1.00  0.00     0.134 A 
ATOM     79  F   UNL A   1      45.444  27.948  34.015  1.00  0.00    -0.206 F 
ATOM     80  C   UNL A   1      44.980  25.713  34.559  1.00  0.00     0.040 A 
ATOM     81  C   UNL A   1      44.468  24.129  32.828  1.00  0.00     0.040 A 
ATOM     82  F   UNL A   1      44.531  24.780  30.589  1.00  0.00    -0.206 F 
ATOM     83  C   UNL A   1      44.655  24.414  34.176  1.00  0.00     0.006 A 
ENDBRANCH  59  76
ENDBRANCH  33  34
ENDBRANCH  25  28
ENDBRANCH  23  24
ENDBRANCH  22  23
ENDBRANCH  21  22
ENDBRANCH   1  21
TORSDOF 16
ENDMDL
