MODEL 1
REMARK VINA RESULT:     -11.2      0.000      0.000
REMARK SMILES C[C@H](C[N@H+]1[C@@H]2CC[C@H]1C[C@H](CC(=O)NCCCCCCNC(=O)c1ccc(-c3c4nc(c(-c5c(F)cccc5F)c5ccc([nH]5)c(-c5c(F)cccc5F)c5nc(c(-c6c(F)cccc6F)c6ccc3[nH]6)C=C5)C=C4)cc1)C2)c1ccccc1
REMARK SMILES IDX 16 1 15 2 14 3 12 4 13 5 11 7 10 8 4 9 5 10 8 11 6 13 78 14
REMARK SMILES IDX 7 15 9 16 3 17 2 18 1 19 79 20 80 21 84 22 81 23 83 24 82 25
REMARK SMILES IDX 17 26 18 27 19 28 20 29 21 30 22 31 23 33 24 34 25 35 77 36
REMARK SMILES IDX 26 37 76 38 27 39 28 40 29 41 70 42 30 43 75 44 69 45 71 46
REMARK SMILES IDX 31 47 74 48 68 49 67 50 32 52 58 53 41 54 57 55 42 56 45 57
REMARK SMILES IDX 56 58 72 59 43 60 44 61 55 63 73 64 46 65 33 66 34 67 39 68
REMARK SMILES IDX 35 69 36 70 38 71 40 72 37 73 59 74 60 75 65 76 61 77 62 78
REMARK SMILES IDX 64 79 66 80 63 81 47 82 48 83 53 84 49 85 50 86 52 87 54 88
REMARK SMILES IDX 51 89
REMARK H PARENT 14 6 4 12 21 32 71 51 45 62
REMARK Flexibility Score: inf
ROOT
ATOM      1  C   UNL A   1      34.282  21.075  26.308  1.00  0.00     0.021 C 
ENDROOT
BRANCH   1   2
ATOM      2  C   UNL A   1      33.969  21.816  27.617  1.00  0.00     0.116 C 
BRANCH   2   3
ATOM      3  N   UNL A   1      32.542  22.074  27.757  1.00  0.00    -0.356 N 
ATOM      4  C   UNL A   1      31.754  23.086  27.300  1.00  0.00     0.220 C 
ATOM      5  O   UNL A   1      30.552  23.049  27.580  1.00  0.00    -0.275 OA
ATOM      6  H   UNL A   1      32.060  21.390  28.279  1.00  0.00     0.163 HD
BRANCH   4   7
ATOM      7  C   UNL A   1      32.310  24.230  26.467  1.00  0.00     0.104 C 
BRANCH   7   8
ATOM      8  C   UNL A   1      32.892  23.790  25.109  1.00  0.00     0.010 C 
ATOM      9  N   UNL A   1      33.200  25.084  22.427  1.00  0.00    -0.330 N 
ATOM     10  C   UNL A   1      34.397  24.680  23.190  1.00  0.00     0.184 C 
ATOM     11  C   UNL A   1      32.311  23.946  22.592  1.00  0.00     0.184 C 
ATOM     12  H   UNL A   1      33.311  25.227  21.422  1.00  0.00     0.348 HD
ATOM     13  C   UNL A   1      34.635  23.274  22.630  1.00  0.00     0.071 C 
ATOM     14  C   UNL A   1      34.126  24.636  24.715  1.00  0.00     0.069 C 
ATOM     15  C   UNL A   1      33.244  22.780  22.239  1.00  0.00     0.071 C 
ATOM     16  C   UNL A   1      31.809  23.818  24.023  1.00  0.00     0.069 C 
BRANCH   9  17
ATOM     17  C   UNL A   1      32.777  26.469  22.672  1.00  0.00     0.270 C 
BRANCH  17  18
ATOM     18  C   UNL A   1      33.549  27.508  23.564  1.00  0.00     0.071 C 
ATOM     19  C   UNL A   1      33.898  28.789  22.794  1.00  0.00     0.019 C 
BRANCH  18  20
ATOM     20  C   UNL A   1      33.040  27.732  25.000  1.00  0.00    -0.040 A 
ATOM     21  C   UNL A   1      31.680  27.591  25.327  1.00  0.00     0.004 A 
ATOM     22  C   UNL A   1      33.884  28.210  26.020  1.00  0.00     0.004 A 
ATOM     23  C   UNL A   1      31.201  27.847  26.620  1.00  0.00     0.000 A 
ATOM     24  C   UNL A   1      33.411  28.450  27.318  1.00  0.00     0.000 A 
ATOM     25  C   UNL A   1      32.071  28.258  27.622  1.00  0.00     0.000 A 
ENDBRANCH  18  20
ENDBRANCH  17  18
ENDBRANCH   9  17
ENDBRANCH   7   8
ENDBRANCH   4   7
ENDBRANCH   2   3
ENDBRANCH   1   2
BRANCH   1  26
ATOM     26  C   UNL A   1      35.701  21.278  25.771  1.00  0.00     0.002 C 
BRANCH  26  27
ATOM     27  C   UNL A   1      36.126  20.309  24.665  1.00  0.00     0.002 C 
BRANCH  27  28
ATOM     28  C   UNL A   1      37.364  19.459  24.962  1.00  0.00     0.021 C 
BRANCH  28  29
ATOM     29  C   UNL A   1      38.581  20.202  25.506  1.00  0.00     0.116 C 
BRANCH  29  30
ATOM     30  N   UNL A   1      39.721  19.324  25.699  1.00  0.00    -0.352 N 
ATOM     31  C   UNL A   1      41.013  19.603  26.068  1.00  0.00     0.251 C 
ATOM     32  H   UNL A   1      39.537  18.371  25.538  1.00  0.00     0.163 HD
ATOM     33  O   UNL A   1      41.868  18.726  25.972  1.00  0.00    -0.269 OA
BRANCH  31  34
ATOM     34  C   UNL A   1      41.401  20.942  26.574  1.00  0.00     0.039 A 
ATOM     35  C   UNL A   1      41.161  21.240  27.921  1.00  0.00     0.014 A 
ATOM     36  C   UNL A   1      41.923  21.927  25.732  1.00  0.00     0.014 A 
ATOM     37  C   UNL A   1      41.477  22.505  28.426  1.00  0.00     0.010 A 
ATOM     38  C   UNL A   1      42.303  23.165  26.254  1.00  0.00     0.010 A 
ATOM     39  C   UNL A   1      42.070  23.473  27.602  1.00  0.00    -0.014 A 
BRANCH  39  40
ATOM     40  C   UNL A   1      42.421  24.817  28.132  1.00  0.00     0.031 A 
ATOM     41  C   UNL A   1      43.845  25.140  28.503  1.00  0.00     0.074 A 
ATOM     42  C   UNL A   1      41.455  25.736  28.319  1.00  0.00     0.049 A 
ATOM     43  N   UNL A   1      44.336  26.239  29.019  1.00  0.00    -0.248 NA
ATOM     44  C   UNL A   1      44.842  24.080  28.288  1.00  0.00     0.031 C 
ATOM     45  C   UNL A   1      40.032  25.538  28.040  1.00  0.00     0.029 A 
ATOM     46  N   UNL A   1      41.524  27.022  28.793  1.00  0.00    -0.354 N 
ATOM     47  C   UNL A   1      45.692  25.996  29.205  1.00  0.00     0.074 A 
ATOM     48  C   UNL A   1      45.936  24.631  28.792  1.00  0.00     0.031 C 
ATOM     49  C   UNL A   1      39.366  26.667  28.328  1.00  0.00     0.029 A 
ATOM     50  C   UNL A   1      40.307  27.659  28.839  1.00  0.00     0.049 A 
ATOM     51  H   UNL A   1      42.366  27.449  29.076  1.00  0.00     0.167 HD
ATOM     52  C   UNL A   1      46.652  26.839  29.656  1.00  0.00     0.037 A 
ATOM     53  C   UNL A   1      39.986  28.900  29.248  1.00  0.00     0.037 A 
ATOM     54  C   UNL A   1      46.416  28.207  30.036  1.00  0.00     0.049 A 
ATOM     55  C   UNL A   1      41.070  29.821  29.737  1.00  0.00     0.074 A 
ATOM     56  C   UNL A   1      47.334  29.159  30.447  1.00  0.00     0.029 A 
ATOM     57  N   UNL A   1      45.172  28.820  30.050  1.00  0.00    -0.354 N 
ATOM     58  N   UNL A   1      42.356  29.597  29.848  1.00  0.00    -0.248 NA
ATOM     59  C   UNL A   1      40.656  31.169  30.151  1.00  0.00     0.031 C 
ATOM     60  C   UNL A   1      46.639  30.336  30.745  1.00  0.00     0.029 A 
ATOM     61  C   UNL A   1      45.295  30.130  30.480  1.00  0.00     0.049 A 
ATOM     62  H   UNL A   1      44.326  28.386  29.793  1.00  0.00     0.167 HD
ATOM     63  C   UNL A   1      42.909  30.780  30.318  1.00  0.00     0.074 A 
ATOM     64  C   UNL A   1      41.820  31.725  30.458  1.00  0.00     0.031 C 
ATOM     65  C   UNL A   1      44.203  31.060  30.610  1.00  0.00     0.037 A 
BRANCH  52  66
ATOM     66  C   UNL A   1      48.051  26.304  29.757  1.00  0.00     0.057 A 
ATOM     67  C   UNL A   1      48.960  26.411  28.697  1.00  0.00     0.134 A 
ATOM     68  C   UNL A   1      48.505  25.705  30.939  1.00  0.00     0.134 A 
ATOM     69  F   UNL A   1      48.586  26.964  27.533  1.00  0.00    -0.206 F 
ATOM     70  C   UNL A   1      50.263  25.918  28.798  1.00  0.00     0.040 A 
ATOM     71  C   UNL A   1      49.813  25.232  31.063  1.00  0.00     0.040 A 
ATOM     72  F   UNL A   1      47.688  25.578  31.996  1.00  0.00    -0.206 F 
ATOM     73  C   UNL A   1      50.693  25.332  29.987  1.00  0.00     0.006 A 
ENDBRANCH  52  66
BRANCH  53  74
ATOM     74  C   UNL A   1      38.575  29.359  29.188  1.00  0.00     0.057 A 
ATOM     75  C   UNL A   1      38.020  29.824  27.990  1.00  0.00     0.134 A 
ATOM     76  C   UNL A   1      37.752  29.347  30.319  1.00  0.00     0.134 A 
ATOM     77  F   UNL A   1      38.765  29.878  26.876  1.00  0.00    -0.206 F 
ATOM     78  C   UNL A   1      36.702  30.278  27.923  1.00  0.00     0.040 A 
ATOM     79  C   UNL A   1      36.425  29.777  30.262  1.00  0.00     0.040 A 
ATOM     80  F   UNL A   1      38.224  28.906  31.495  1.00  0.00    -0.206 F 
ATOM     81  C   UNL A   1      35.899  30.250  29.062  1.00  0.00     0.006 A 
ENDBRANCH  53  74
BRANCH  65  82
ATOM     82  C   UNL A   1      44.514  32.450  31.080  1.00  0.00     0.057 A 
ATOM     83  C   UNL A   1      44.508  32.788  32.438  1.00  0.00     0.134 A 
ATOM     84  C   UNL A   1      44.856  33.453  30.164  1.00  0.00     0.134 A 
ATOM     85  F   UNL A   1      44.176  31.875  33.365  1.00  0.00    -0.206 F 
ATOM     86  C   UNL A   1      44.809  34.081  32.869  1.00  0.00     0.040 A 
ATOM     87  C   UNL A   1      45.182  34.743  30.583  1.00  0.00     0.040 A 
ATOM     88  F   UNL A   1      44.888  33.192  28.848  1.00  0.00    -0.206 F 
ATOM     89  C   UNL A   1      45.153  35.061  31.939  1.00  0.00     0.006 A 
ENDBRANCH  65  82
ENDBRANCH  39  40
ENDBRANCH  31  34
ENDBRANCH  29  30
ENDBRANCH  28  29
ENDBRANCH  27  28
ENDBRANCH  26  27
ENDBRANCH   1  26
TORSDOF 17
ENDMDL
MODEL 2
REMARK VINA RESULT:     -11.2      0.484      6.079
REMARK SMILES C[C@H](C[N@H+]1[C@@H]2CC[C@H]1C[C@H](CC(=O)NCCCCCCNC(=O)c1ccc(-c3c4nc(c(-c5c(F)cccc5F)c5ccc([nH]5)c(-c5c(F)cccc5F)c5nc(c(-c6c(F)cccc6F)c6ccc3[nH]6)C=C5)C=C4)cc1)C2)c1ccccc1
REMARK SMILES IDX 16 1 15 2 14 3 12 4 13 5 11 7 10 8 4 9 5 10 8 11 6 13 78 14
REMARK SMILES IDX 7 15 9 16 3 17 2 18 1 19 79 20 80 21 84 22 81 23 83 24 82 25
REMARK SMILES IDX 17 26 18 27 19 28 20 29 21 30 22 31 23 33 24 34 25 35 77 36
REMARK SMILES IDX 26 37 76 38 27 39 28 40 29 41 70 42 30 43 75 44 69 45 71 46
REMARK SMILES IDX 31 47 74 48 68 49 67 50 32 52 58 53 41 54 57 55 42 56 45 57
REMARK SMILES IDX 56 58 72 59 43 60 44 61 55 63 73 64 46 65 33 66 34 67 39 68
REMARK SMILES IDX 35 69 36 70 38 71 40 72 37 73 59 74 60 75 65 76 61 77 62 78
REMARK SMILES IDX 64 79 66 80 63 81 47 82 48 83 53 84 49 85 50 86 52 87 54 88
REMARK SMILES IDX 51 89
REMARK H PARENT 14 6 4 12 21 32 71 51 45 62
REMARK Flexibility Score: inf
ROOT
ATOM      1  C   UNL A   1      34.330  21.181  26.287  1.00  0.00     0.021 C 
ENDROOT
BRANCH   1   2
ATOM      2  C   UNL A   1      34.008  21.888  27.612  1.00  0.00     0.116 C 
BRANCH   2   3
ATOM      3  N   UNL A   1      32.575  22.104  27.768  1.00  0.00    -0.356 N 
ATOM      4  C   UNL A   1      31.752  23.089  27.314  1.00  0.00     0.220 C 
ATOM      5  O   UNL A   1      30.556  23.018  27.609  1.00  0.00    -0.275 OA
ATOM      6  H   UNL A   1      32.120  21.410  28.300  1.00  0.00     0.163 HD
BRANCH   4   7
ATOM      7  C   UNL A   1      32.263  24.243  26.466  1.00  0.00     0.104 C 
BRANCH   7   8
ATOM      8  C   UNL A   1      32.857  23.810  25.111  1.00  0.00     0.010 C 
ATOM      9  N   UNL A   1      33.183  25.115  22.436  1.00  0.00    -0.330 N 
ATOM     10  C   UNL A   1      34.375  24.709  23.207  1.00  0.00     0.184 C 
ATOM     11  C   UNL A   1      32.295  23.974  22.591  1.00  0.00     0.184 C 
ATOM     12  H   UNL A   1      33.303  25.262  21.433  1.00  0.00     0.348 HD
ATOM     13  C   UNL A   1      34.620  23.305  22.644  1.00  0.00     0.071 C 
ATOM     14  C   UNL A   1      34.092  24.659  24.730  1.00  0.00     0.069 C 
ATOM     15  C   UNL A   1      33.232  22.811  22.240  1.00  0.00     0.071 C 
ATOM     16  C   UNL A   1      31.783  23.840  24.017  1.00  0.00     0.069 C 
BRANCH   9  17
ATOM     17  C   UNL A   1      32.757  26.497  22.684  1.00  0.00     0.270 C 
BRANCH  17  18
ATOM     18  C   UNL A   1      33.540  27.546  23.554  1.00  0.00     0.071 C 
ATOM     19  C   UNL A   1      33.864  28.826  22.771  1.00  0.00     0.019 C 
BRANCH  18  20
ATOM     20  C   UNL A   1      33.060  27.774  24.999  1.00  0.00    -0.040 A 
ATOM     21  C   UNL A   1      31.700  27.679  25.345  1.00  0.00     0.004 A 
ATOM     22  C   UNL A   1      33.935  28.211  26.011  1.00  0.00     0.004 A 
ATOM     23  C   UNL A   1      31.250  27.940  26.647  1.00  0.00     0.000 A 
ATOM     24  C   UNL A   1      33.490  28.456  27.318  1.00  0.00     0.000 A 
ATOM     25  C   UNL A   1      32.148  28.309  27.640  1.00  0.00     0.000 A 
ENDBRANCH  18  20
ENDBRANCH  17  18
ENDBRANCH   9  17
ENDBRANCH   7   8
ENDBRANCH   4   7
ENDBRANCH   2   3
ENDBRANCH   1   2
BRANCH   1  26
ATOM     26  C   UNL A   1      35.755  21.390  25.770  1.00  0.00     0.002 C 
BRANCH  26  27
ATOM     27  C   UNL A   1      36.183  20.456  24.636  1.00  0.00     0.002 C 
BRANCH  27  28
ATOM     28  C   UNL A   1      37.391  19.561  24.928  1.00  0.00     0.021 C 
BRANCH  28  29
ATOM     29  C   UNL A   1      38.567  20.224  25.640  1.00  0.00     0.116 C 
BRANCH  29  30
ATOM     30  N   UNL A   1      39.717  19.343  25.742  1.00  0.00    -0.352 N 
ATOM     31  C   UNL A   1      41.025  19.612  26.055  1.00  0.00     0.251 C 
ATOM     32  H   UNL A   1      39.526  18.396  25.555  1.00  0.00     0.163 HD
ATOM     33  O   UNL A   1      41.875  18.742  25.883  1.00  0.00    -0.269 OA
BRANCH  31  34
ATOM     34  C   UNL A   1      41.437  20.932  26.591  1.00  0.00     0.039 A 
ATOM     35  C   UNL A   1      41.840  21.921  25.686  1.00  0.00     0.014 A 
ATOM     36  C   UNL A   1      41.508  21.183  27.964  1.00  0.00     0.014 A 
ATOM     37  C   UNL A   1      42.272  23.166  26.154  1.00  0.00     0.010 A 
ATOM     38  C   UNL A   1      41.873  22.448  28.427  1.00  0.00     0.010 A 
ATOM     39  C   UNL A   1      42.274  23.448  27.528  1.00  0.00    -0.014 A 
BRANCH  39  40
ATOM     40  C   UNL A   1      42.720  24.772  28.037  1.00  0.00     0.031 A 
ATOM     41  C   UNL A   1      41.713  25.850  28.339  1.00  0.00     0.074 A 
ATOM     42  C   UNL A   1      44.034  25.022  28.190  1.00  0.00     0.049 A 
ATOM     43  N   UNL A   1      41.912  27.078  28.748  1.00  0.00    -0.248 NA
ATOM     44  C   UNL A   1      40.296  25.510  28.131  1.00  0.00     0.031 C 
ATOM     45  C   UNL A   1      45.115  24.080  27.893  1.00  0.00     0.029 A 
ATOM     46  N   UNL A   1      44.686  26.147  28.628  1.00  0.00    -0.354 N 
ATOM     47  C   UNL A   1      40.653  27.659  28.829  1.00  0.00     0.074 A 
ATOM     48  C   UNL A   1      39.701  26.666  28.382  1.00  0.00     0.031 C 
ATOM     49  C   UNL A   1      46.293  24.658  28.179  1.00  0.00     0.029 A 
ATOM     50  C   UNL A   1      46.054  26.020  28.648  1.00  0.00     0.049 A 
ATOM     51  H   UNL A   1      44.218  26.970  28.901  1.00  0.00     0.167 HD
ATOM     52  C   UNL A   1      40.315  28.900  29.259  1.00  0.00     0.037 A 
ATOM     53  C   UNL A   1      47.008  26.901  29.003  1.00  0.00     0.037 A 
ATOM     54  C   UNL A   1      41.259  29.877  29.735  1.00  0.00     0.049 A 
ATOM     55  C   UNL A   1      46.609  28.268  29.485  1.00  0.00     0.074 A 
ATOM     56  C   UNL A   1      41.009  31.138  30.250  1.00  0.00     0.029 A 
ATOM     57  N   UNL A   1      42.635  29.702  29.757  1.00  0.00    -0.354 N 
ATOM     58  N   UNL A   1      45.410  28.781  29.615  1.00  0.00    -0.248 NA
ATOM     59  C   UNL A   1      47.698  29.175  29.876  1.00  0.00     0.031 C 
ATOM     60  C   UNL A   1      42.237  31.739  30.548  1.00  0.00     0.029 A 
ATOM     61  C   UNL A   1      43.248  30.838  30.259  1.00  0.00     0.049 A 
ATOM     62  H   UNL A   1      43.105  28.889  29.459  1.00  0.00     0.167 HD
ATOM     63  C   UNL A   1      45.597  30.058  30.126  1.00  0.00     0.074 A 
ATOM     64  C   UNL A   1      47.024  30.238  30.296  1.00  0.00     0.031 C 
ATOM     65  C   UNL A   1      44.669  30.999  30.426  1.00  0.00     0.037 A 
BRANCH  52  66
ATOM     66  C   UNL A   1      38.860  29.267  29.240  1.00  0.00     0.057 A 
ATOM     67  C   UNL A   1      38.221  29.687  28.066  1.00  0.00     0.134 A 
ATOM     68  C   UNL A   1      38.081  29.167  30.400  1.00  0.00     0.134 A 
ATOM     69  F   UNL A   1      38.913  29.814  26.923  1.00  0.00    -0.206 F 
ATOM     70  C   UNL A   1      36.865  30.021  28.052  1.00  0.00     0.040 A 
ATOM     71  C   UNL A   1      36.718  29.473  30.392  1.00  0.00     0.040 A 
ATOM     72  F   UNL A   1      38.628  28.764  31.556  1.00  0.00    -0.206 F 
ATOM     73  C   UNL A   1      36.109  29.908  29.217  1.00  0.00     0.006 A 
ENDBRANCH  52  66
BRANCH  53  74
ATOM     74  C   UNL A   1      48.439  26.508  28.943  1.00  0.00     0.057 A 
ATOM     75  C   UNL A   1      49.056  25.867  30.023  1.00  0.00     0.134 A 
ATOM     76  C   UNL A   1      49.222  26.766  27.812  1.00  0.00     0.134 A 
ATOM     77  F   UNL A   1      48.361  25.611  31.142  1.00  0.00    -0.206 F 
ATOM     78  C   UNL A   1      50.404  25.511  29.989  1.00  0.00     0.040 A 
ATOM     79  C   UNL A   1      50.566  26.395  27.755  1.00  0.00     0.040 A 
ATOM     80  F   UNL A   1      48.687  27.371  26.742  1.00  0.00    -0.206 F 
ATOM     81  C   UNL A   1      51.163  25.771  28.848  1.00  0.00     0.006 A 
ENDBRANCH  53  74
BRANCH  65  82
ATOM     82  C   UNL A   1      45.167  32.294  30.996  1.00  0.00     0.057 A 
ATOM     83  C   UNL A   1      45.348  32.474  32.373  1.00  0.00     0.134 A 
ATOM     84  C   UNL A   1      45.504  33.362  30.154  1.00  0.00     0.134 A 
ATOM     85  F   UNL A   1      45.032  31.493  33.233  1.00  0.00    -0.206 F 
ATOM     86  C   UNL A   1      45.823  33.678  32.895  1.00  0.00     0.040 A 
ATOM     87  C   UNL A   1      46.002  34.562  30.662  1.00  0.00     0.040 A 
ATOM     88  F   UNL A   1      45.361  33.252  28.824  1.00  0.00    -0.206 F 
ATOM     89  C   UNL A   1      46.157  34.724  32.037  1.00  0.00     0.006 A 
ENDBRANCH  65  82
ENDBRANCH  39  40
ENDBRANCH  31  34
ENDBRANCH  29  30
ENDBRANCH  28  29
ENDBRANCH  27  28
ENDBRANCH  26  27
ENDBRANCH   1  26
TORSDOF 17
ENDMDL
MODEL 3
REMARK VINA RESULT:     -11.1      1.625      2.216
REMARK SMILES C[C@H](C[N@H+]1[C@@H]2CC[C@H]1C[C@H](CC(=O)NCCCCCCNC(=O)c1ccc(-c3c4nc(c(-c5c(F)cccc5F)c5ccc([nH]5)c(-c5c(F)cccc5F)c5nc(c(-c6c(F)cccc6F)c6ccc3[nH]6)C=C5)C=C4)cc1)C2)c1ccccc1
REMARK SMILES IDX 16 1 15 2 14 3 12 4 13 5 11 7 10 8 4 9 5 10 8 11 6 13 78 14
REMARK SMILES IDX 7 15 9 16 3 17 2 18 1 19 79 20 80 21 84 22 81 23 83 24 82 25
REMARK SMILES IDX 17 26 18 27 19 28 20 29 21 30 22 31 23 33 24 34 25 35 77 36
REMARK SMILES IDX 26 37 76 38 27 39 28 40 29 41 70 42 30 43 75 44 69 45 71 46
REMARK SMILES IDX 31 47 74 48 68 49 67 50 32 52 58 53 41 54 57 55 42 56 45 57
REMARK SMILES IDX 56 58 72 59 43 60 44 61 55 63 73 64 46 65 33 66 34 67 39 68
REMARK SMILES IDX 35 69 36 70 38 71 40 72 37 73 59 74 60 75 65 76 61 77 62 78
REMARK SMILES IDX 64 79 66 80 63 81 47 82 48 83 53 84 49 85 50 86 52 87 54 88
REMARK SMILES IDX 51 89
REMARK H PARENT 14 6 4 12 21 32 71 51 45 62
REMARK Flexibility Score: inf
ROOT
ATOM      1  C   UNL A   1      35.119  21.692  26.314  1.00  0.00     0.021 C 
ENDROOT
BRANCH   1   2
ATOM      2  C   UNL A   1      34.565  23.125  26.305  1.00  0.00     0.116 C 
BRANCH   2   3
ATOM      3  N   UNL A   1      33.181  23.165  26.759  1.00  0.00    -0.356 N 
ATOM      4  C   UNL A   1      32.243  24.152  26.723  1.00  0.00     0.220 C 
ATOM      5  O   UNL A   1      31.130  23.903  27.196  1.00  0.00    -0.275 OA
ATOM      6  H   UNL A   1      32.867  22.324  27.168  1.00  0.00     0.163 HD
BRANCH   4   7
ATOM      7  C   UNL A   1      32.531  25.519  26.124  1.00  0.00     0.104 C 
BRANCH   7   8
ATOM      8  C   UNL A   1      32.517  25.542  24.582  1.00  0.00     0.010 C 
ATOM      9  N   UNL A   1      32.183  27.673  22.506  1.00  0.00    -0.330 N 
ATOM     10  C   UNL A   1      33.449  26.918  22.589  1.00  0.00     0.184 C 
ATOM     11  C   UNL A   1      31.177  26.635  22.657  1.00  0.00     0.184 C 
ATOM     12  H   UNL A   1      31.982  28.154  21.629  1.00  0.00     0.348 HD
ATOM     13  C   UNL A   1      33.177  25.788  21.590  1.00  0.00     0.071 C 
ATOM     14  C   UNL A   1      33.700  26.358  24.012  1.00  0.00     0.069 C 
ATOM     15  C   UNL A   1      31.663  25.593  21.641  1.00  0.00     0.071 C 
ATOM     16  C   UNL A   1      31.167  26.051  24.062  1.00  0.00     0.069 C 
BRANCH   9  17
ATOM     17  C   UNL A   1      32.177  28.911  23.295  1.00  0.00     0.270 C 
BRANCH  17  18
ATOM     18  C   UNL A   1      30.956  29.450  24.126  1.00  0.00     0.071 C 
ATOM     19  C   UNL A   1      31.393  30.115  25.439  1.00  0.00     0.019 C 
BRANCH  18  20
ATOM     20  C   UNL A   1      29.845  30.194  23.361  1.00  0.00    -0.040 A 
ATOM     21  C   UNL A   1      29.107  31.230  23.961  1.00  0.00     0.004 A 
ATOM     22  C   UNL A   1      29.430  29.790  22.078  1.00  0.00     0.004 A 
ATOM     23  C   UNL A   1      28.059  31.873  23.289  1.00  0.00     0.000 A 
ATOM     24  C   UNL A   1      28.393  30.444  21.397  1.00  0.00     0.000 A 
ATOM     25  C   UNL A   1      27.714  31.494  21.998  1.00  0.00     0.000 A 
ENDBRANCH  18  20
ENDBRANCH  17  18
ENDBRANCH   9  17
ENDBRANCH   7   8
ENDBRANCH   4   7
ENDBRANCH   2   3
ENDBRANCH   1   2
BRANCH   1  26
ATOM     26  C   UNL A   1      36.347  21.466  25.428  1.00  0.00     0.002 C 
BRANCH  26  27
ATOM     27  C   UNL A   1      36.410  20.103  24.733  1.00  0.00     0.002 C 
BRANCH  27  28
ATOM     28  C   UNL A   1      37.675  19.281  24.991  1.00  0.00     0.021 C 
BRANCH  28  29
ATOM     29  C   UNL A   1      38.820  20.003  25.694  1.00  0.00     0.116 C 
BRANCH  29  30
ATOM     30  N   UNL A   1      40.025  19.195  25.757  1.00  0.00    -0.352 N 
ATOM     31  C   UNL A   1      41.325  19.546  26.024  1.00  0.00     0.251 C 
ATOM     32  H   UNL A   1      39.887  18.238  25.579  1.00  0.00     0.163 HD
ATOM     33  O   UNL A   1      42.220  18.730  25.824  1.00  0.00    -0.269 OA
BRANCH  31  34
ATOM     34  C   UNL A   1      41.673  20.891  26.543  1.00  0.00     0.039 A 
ATOM     35  C   UNL A   1      41.453  21.159  27.899  1.00  0.00     0.014 A 
ATOM     36  C   UNL A   1      42.136  21.909  25.705  1.00  0.00     0.014 A 
ATOM     37  C   UNL A   1      41.731  22.427  28.418  1.00  0.00     0.010 A 
ATOM     38  C   UNL A   1      42.479  23.153  26.238  1.00  0.00     0.010 A 
ATOM     39  C   UNL A   1      42.267  23.430  27.596  1.00  0.00    -0.014 A 
BRANCH  39  40
ATOM     40  C   UNL A   1      42.578  24.778  28.139  1.00  0.00     0.031 A 
ATOM     41  C   UNL A   1      43.983  25.125  28.557  1.00  0.00     0.074 A 
ATOM     42  C   UNL A   1      41.592  25.681  28.297  1.00  0.00     0.049 A 
ATOM     43  N   UNL A   1      44.440  26.230  29.090  1.00  0.00    -0.248 NA
ATOM     44  C   UNL A   1      45.005  24.082  28.372  1.00  0.00     0.031 C 
ATOM     45  C   UNL A   1      40.182  25.460  27.971  1.00  0.00     0.029 A 
ATOM     46  N   UNL A   1      41.623  26.967  28.776  1.00  0.00    -0.354 N 
ATOM     47  C   UNL A   1      45.792  26.010  29.320  1.00  0.00     0.074 A 
ATOM     48  C   UNL A   1      46.073  24.650  28.913  1.00  0.00     0.031 C 
ATOM     49  C   UNL A   1      39.488  26.577  28.239  1.00  0.00     0.029 A 
ATOM     50  C   UNL A   1      40.395  27.583  28.783  1.00  0.00     0.049 A 
ATOM     51  H   UNL A   1      42.448  27.407  29.086  1.00  0.00     0.167 HD
ATOM     52  C   UNL A   1      46.723  26.868  29.803  1.00  0.00     0.037 A 
ATOM     53  C   UNL A   1      40.040  28.818  29.183  1.00  0.00     0.037 A 
ATOM     54  C   UNL A   1      46.452  28.231  30.179  1.00  0.00     0.049 A 
ATOM     55  C   UNL A   1      41.092  29.756  29.709  1.00  0.00     0.074 A 
ATOM     56  C   UNL A   1      47.340  29.197  30.620  1.00  0.00     0.029 A 
ATOM     57  N   UNL A   1      45.198  28.822  30.153  1.00  0.00    -0.354 N 
ATOM     58  N   UNL A   1      42.378  29.553  29.861  1.00  0.00    -0.248 NA
ATOM     59  C   UNL A   1      40.642  31.096  30.111  1.00  0.00     0.031 C 
ATOM     60  C   UNL A   1      46.616  30.361  30.898  1.00  0.00     0.029 A 
ATOM     61  C   UNL A   1      45.285  30.134  30.589  1.00  0.00     0.049 A 
ATOM     62  H   UNL A   1      44.368  28.375  29.868  1.00  0.00     0.167 HD
ATOM     63  C   UNL A   1      42.895  30.744  30.351  1.00  0.00     0.074 A 
ATOM     64  C   UNL A   1      41.786  31.670  30.458  1.00  0.00     0.031 C 
ATOM     65  C   UNL A   1      44.174  31.044  30.685  1.00  0.00     0.037 A 
BRANCH  52  66
ATOM     66  C   UNL A   1      48.127  26.356  29.949  1.00  0.00     0.057 A 
ATOM     67  C   UNL A   1      49.065  26.471  28.915  1.00  0.00     0.134 A 
ATOM     68  C   UNL A   1      48.555  25.771  31.148  1.00  0.00     0.134 A 
ATOM     69  F   UNL A   1      48.716  27.011  27.738  1.00  0.00    -0.206 F 
ATOM     70  C   UNL A   1      50.372  26.000  29.058  1.00  0.00     0.040 A 
ATOM     71  C   UNL A   1      49.866  25.319  31.312  1.00  0.00     0.040 A 
ATOM     72  F   UNL A   1      47.709  25.636  32.181  1.00  0.00    -0.206 F 
ATOM     73  C   UNL A   1      50.776  25.427  30.263  1.00  0.00     0.006 A 
ENDBRANCH  52  66
BRANCH  53  74
ATOM     74  C   UNL A   1      38.624  29.253  29.078  1.00  0.00     0.057 A 
ATOM     75  C   UNL A   1      37.776  29.219  30.191  1.00  0.00     0.134 A 
ATOM     76  C   UNL A   1      38.086  29.707  27.868  1.00  0.00     0.134 A 
ATOM     77  F   UNL A   1      38.229  28.775  31.372  1.00  0.00    -0.206 F 
ATOM     78  C   UNL A   1      36.438  29.605  30.101  1.00  0.00     0.040 A 
ATOM     79  C   UNL A   1      36.756  30.118  27.770  1.00  0.00     0.040 A 
ATOM     80  F   UNL A   1      38.850  29.769  26.768  1.00  0.00    -0.206 F 
ATOM     81  C   UNL A   1      35.926  30.061  28.888  1.00  0.00     0.006 A 
ENDBRANCH  53  74
BRANCH  65  82
ATOM     82  C   UNL A   1      44.446  32.438  31.167  1.00  0.00     0.057 A 
ATOM     83  C   UNL A   1      44.423  32.767  32.528  1.00  0.00     0.134 A 
ATOM     84  C   UNL A   1      44.769  33.457  30.261  1.00  0.00     0.134 A 
ATOM     85  F   UNL A   1      44.108  31.838  33.446  1.00  0.00    -0.206 F 
ATOM     86  C   UNL A   1      44.688  34.063  32.971  1.00  0.00     0.040 A 
ATOM     87  C   UNL A   1      45.059  34.751  30.692  1.00  0.00     0.040 A 
ATOM     88  F   UNL A   1      44.815  33.207  28.944  1.00  0.00    -0.206 F 
ATOM     89  C   UNL A   1      45.013  35.059  32.050  1.00  0.00     0.006 A 
ENDBRANCH  65  82
ENDBRANCH  39  40
ENDBRANCH  31  34
ENDBRANCH  29  30
ENDBRANCH  28  29
ENDBRANCH  27  28
ENDBRANCH  26  27
ENDBRANCH   1  26
TORSDOF 17
ENDMDL
