MODEL 1
REMARK VINA RESULT:     -11.0      0.000      0.000
REMARK SMILES CC(C)N1C(=O)C[C@@H](C(=O)NCCCCCCNC(=O)c2ccc(-c3c4nc(c(-c5c(F)cccc5F)c5ccc([nH]5)c(-c5c(F)cccc5F)c5nc(c(-c6c(F)cccc6F)c6ccc3[nH]6)C=C5)C=C4)cc2)[C@H]1c1ccccc1
REMARK SMILES IDX 15 1 14 2 13 3 12 4 11 5 9 6 10 7 8 9 4 10 5 11 75 12 6 13
REMARK SMILES IDX 7 14 2 15 1 16 3 17 76 18 77 19 81 20 78 21 80 22 79 23
REMARK SMILES IDX 16 24 17 25 18 26 19 27 20 29 21 30 22 31 74 32 23 33 73 34
REMARK SMILES IDX 24 35 25 36 26 37 67 38 27 39 72 40 66 41 68 42 28 43 71 44
REMARK SMILES IDX 65 45 64 46 29 48 55 49 38 50 54 51 39 52 42 53 53 54 69 55
REMARK SMILES IDX 40 56 41 57 52 59 70 60 43 61 30 62 31 63 36 64 32 65 33 66
REMARK SMILES IDX 35 67 37 68 34 69 56 70 57 71 62 72 58 73 59 74 61 75 63 76
REMARK SMILES IDX 60 77 44 78 45 79 50 80 46 81 47 82 49 83 51 84 48 85
REMARK H PARENT 11 8 18 28 68 47 42 58
REMARK Flexibility Score: inf
ROOT
ATOM      1  C   UNL A   1      36.491  19.217  24.972  1.00  0.00     0.002 C 
ENDROOT
BRANCH   1   2
ATOM      2  C   UNL A   1      35.304  20.185  24.959  1.00  0.00     0.002 C 
BRANCH   2   3
ATOM      3  C   UNL A   1      33.923  19.513  24.923  1.00  0.00     0.021 C 
BRANCH   3   4
ATOM      4  C   UNL A   1      32.776  20.413  25.395  1.00  0.00     0.116 C 
BRANCH   4   5
ATOM      5  N   UNL A   1      32.604  21.513  24.468  1.00  0.00    -0.356 N 
ATOM      6  C   UNL A   1      32.018  22.710  24.755  1.00  0.00     0.226 C 
ATOM      7  O   UNL A   1      31.222  23.171  23.942  1.00  0.00    -0.275 OA
ATOM      8  H   UNL A   1      32.941  21.387  23.552  1.00  0.00     0.163 HD
BRANCH   6   9
ATOM      9  C   UNL A   1      32.348  23.362  26.085  1.00  0.00     0.115 C 
ATOM     10  N   UNL A   1      32.896  25.646  25.816  1.00  0.00    -0.332 N 
ATOM     11  C   UNL A   1      31.527  25.598  26.063  1.00  0.00     0.224 C 
ATOM     12  C   UNL A   1      33.518  24.357  26.071  1.00  0.00     0.128 C 
ATOM     13  O   UNL A   1      30.746  26.542  26.038  1.00  0.00    -0.275 OA
ATOM     14  C   UNL A   1      31.151  24.206  26.504  1.00  0.00     0.116 C 
BRANCH  10  15
ATOM     15  C   UNL A   1      33.583  26.929  25.629  1.00  0.00     0.079 C 
ATOM     16  C   UNL A   1      33.317  27.617  24.292  1.00  0.00     0.031 C 
ATOM     17  C   UNL A   1      33.334  27.873  26.804  1.00  0.00     0.031 C 
ENDBRANCH  10  15
BRANCH  12  18
ATOM     18  C   UNL A   1      34.730  23.964  25.249  1.00  0.00    -0.025 A 
ATOM     19  C   UNL A   1      34.684  23.803  23.857  1.00  0.00     0.006 A 
ATOM     20  C   UNL A   1      35.963  23.748  25.889  1.00  0.00     0.006 A 
ATOM     21  C   UNL A   1      35.813  23.423  23.128  1.00  0.00     0.000 A 
ATOM     22  C   UNL A   1      37.102  23.394  25.159  1.00  0.00     0.000 A 
ATOM     23  C   UNL A   1      37.025  23.224  23.780  1.00  0.00     0.000 A 
ENDBRANCH  12  18
ENDBRANCH   6   9
ENDBRANCH   4   5
ENDBRANCH   3   4
ENDBRANCH   2   3
ENDBRANCH   1   2
BRANCH   1  24
ATOM     24  C   UNL A   1      37.825  19.840  24.559  1.00  0.00     0.021 C 
BRANCH  24  25
ATOM     25  C   UNL A   1      38.763  20.135  25.721  1.00  0.00     0.116 C 
BRANCH  25  26
ATOM     26  N   UNL A   1      39.900  19.230  25.750  1.00  0.00    -0.352 N 
ATOM     27  C   UNL A   1      41.212  19.505  26.038  1.00  0.00     0.251 C 
ATOM     28  H   UNL A   1      39.700  18.291  25.533  1.00  0.00     0.163 HD
ATOM     29  O   UNL A   1      42.082  18.665  25.832  1.00  0.00    -0.269 OA
BRANCH  27  30
ATOM     30  C   UNL A   1      41.577  20.830  26.583  1.00  0.00     0.039 A 
ATOM     31  C   UNL A   1      42.059  21.809  25.712  1.00  0.00     0.014 A 
ATOM     32  C   UNL A   1      41.446  21.103  27.948  1.00  0.00     0.014 A 
ATOM     33  C   UNL A   1      42.368  23.078  26.205  1.00  0.00     0.010 A 
ATOM     34  C   UNL A   1      41.673  22.391  28.421  1.00  0.00     0.010 A 
ATOM     35  C   UNL A   1      42.153  23.387  27.557  1.00  0.00    -0.014 A 
BRANCH  35  36
ATOM     36  C   UNL A   1      42.457  24.737  28.095  1.00  0.00     0.031 A 
ATOM     37  C   UNL A   1      43.861  25.078  28.520  1.00  0.00     0.074 A 
ATOM     38  C   UNL A   1      41.468  25.639  28.246  1.00  0.00     0.049 A 
ATOM     39  N   UNL A   1      44.318  26.180  29.060  1.00  0.00    -0.248 NA
ATOM     40  C   UNL A   1      44.880  24.030  28.341  1.00  0.00     0.031 C 
ATOM     41  C   UNL A   1      40.060  25.416  27.910  1.00  0.00     0.029 A 
ATOM     42  N   UNL A   1      41.497  26.924  28.725  1.00  0.00    -0.354 N 
ATOM     43  C   UNL A   1      45.669  25.953  29.293  1.00  0.00     0.074 A 
ATOM     44  C   UNL A   1      45.943  24.588  28.899  1.00  0.00     0.031 C 
ATOM     45  C   UNL A   1      39.365  26.536  28.168  1.00  0.00     0.029 A 
ATOM     46  C   UNL A   1      40.269  27.541  28.721  1.00  0.00     0.049 A 
ATOM     47  H   UNL A   1      42.318  27.363  29.043  1.00  0.00     0.167 HD
ATOM     48  C   UNL A   1      46.603  26.810  29.768  1.00  0.00     0.037 A 
ATOM     49  C   UNL A   1      39.912  28.775  29.123  1.00  0.00     0.037 A 
ATOM     50  C   UNL A   1      46.330  28.173  30.142  1.00  0.00     0.049 A 
ATOM     51  C   UNL A   1      40.966  29.706  29.659  1.00  0.00     0.074 A 
ATOM     52  C   UNL A   1      47.215  29.137  30.593  1.00  0.00     0.029 A 
ATOM     53  N   UNL A   1      45.077  28.764  30.110  1.00  0.00    -0.354 N 
ATOM     54  N   UNL A   1      42.251  29.497  29.818  1.00  0.00    -0.248 NA
ATOM     55  C   UNL A   1      40.520  31.047  30.060  1.00  0.00     0.031 C 
ATOM     56  C   UNL A   1      46.489  30.297  30.880  1.00  0.00     0.029 A 
ATOM     57  C   UNL A   1      45.162  30.075  30.550  1.00  0.00     0.049 A 
ATOM     58  H   UNL A   1      44.249  28.319  29.818  1.00  0.00     0.167 HD
ATOM     59  C   UNL A   1      42.773  30.692  30.300  1.00  0.00     0.074 A 
ATOM     60  C   UNL A   1      41.666  31.621  30.398  1.00  0.00     0.031 C 
ATOM     61  C   UNL A   1      44.053  30.993  30.628  1.00  0.00     0.037 A 
BRANCH  48  62
ATOM     62  C   UNL A   1      48.008  26.295  29.907  1.00  0.00     0.057 A 
ATOM     63  C   UNL A   1      48.932  26.374  28.855  1.00  0.00     0.134 A 
ATOM     64  C   UNL A   1      48.450  25.735  31.111  1.00  0.00     0.134 A 
ATOM     65  F   UNL A   1      48.571  26.888  27.669  1.00  0.00    -0.206 F 
ATOM     66  C   UNL A   1      50.233  25.886  28.986  1.00  0.00     0.040 A 
ATOM     67  C   UNL A   1      49.758  25.271  31.265  1.00  0.00     0.040 A 
ATOM     68  F   UNL A   1      47.621  25.632  32.161  1.00  0.00    -0.206 F 
ATOM     69  C   UNL A   1      50.652  25.338  30.198  1.00  0.00     0.006 A 
ENDBRANCH  48  62
BRANCH  49  70
ATOM     70  C   UNL A   1      38.499  29.218  29.006  1.00  0.00     0.057 A 
ATOM     71  C   UNL A   1      37.632  29.162  30.104  1.00  0.00     0.134 A 
ATOM     72  C   UNL A   1      37.976  29.690  27.796  1.00  0.00     0.134 A 
ATOM     73  F   UNL A   1      38.068  28.702  31.286  1.00  0.00    -0.206 F 
ATOM     74  C   UNL A   1      36.290  29.534  29.998  1.00  0.00     0.040 A 
ATOM     75  C   UNL A   1      36.644  30.093  27.683  1.00  0.00     0.040 A 
ATOM     76  F   UNL A   1      38.757  29.778  26.709  1.00  0.00    -0.206 F 
ATOM     77  C   UNL A   1      35.795  30.006  28.784  1.00  0.00     0.006 A 
ENDBRANCH  49  70
BRANCH  61  78
ATOM     78  C   UNL A   1      44.338  32.401  31.066  1.00  0.00     0.057 A 
ATOM     79  C   UNL A   1      44.341  32.777  32.416  1.00  0.00     0.134 A 
ATOM     80  C   UNL A   1      44.646  33.388  30.121  1.00  0.00     0.134 A 
ATOM     81  F   UNL A   1      44.043  31.884  33.371  1.00  0.00    -0.206 F 
ATOM     82  C   UNL A   1      44.609  34.090  32.807  1.00  0.00     0.040 A 
ATOM     83  C   UNL A   1      44.947  34.697  30.501  1.00  0.00     0.040 A 
ATOM     84  F   UNL A   1      44.672  33.095  28.812  1.00  0.00    -0.206 F 
ATOM     85  C   UNL A   1      44.920  35.053  31.848  1.00  0.00     0.006 A 
ENDBRANCH  61  78
ENDBRANCH  35  36
ENDBRANCH  27  30
ENDBRANCH  25  26
ENDBRANCH  24  25
ENDBRANCH   1  24
TORSDOF 15
ENDMDL
MODEL 2
REMARK VINA RESULT:     -11.0      1.270      6.692
REMARK SMILES CC(C)N1C(=O)C[C@@H](C(=O)NCCCCCCNC(=O)c2ccc(-c3c4nc(c(-c5c(F)cccc5F)c5ccc([nH]5)c(-c5c(F)cccc5F)c5nc(c(-c6c(F)cccc6F)c6ccc3[nH]6)C=C5)C=C4)cc2)[C@H]1c1ccccc1
REMARK SMILES IDX 15 1 14 2 13 3 12 4 11 5 9 6 10 7 8 9 4 10 5 11 75 12 6 13
REMARK SMILES IDX 7 14 2 15 1 16 3 17 76 18 77 19 81 20 78 21 80 22 79 23
REMARK SMILES IDX 16 24 17 25 18 26 19 27 20 29 21 30 22 31 74 32 23 33 73 34
REMARK SMILES IDX 24 35 25 36 26 37 67 38 27 39 72 40 66 41 68 42 28 43 71 44
REMARK SMILES IDX 65 45 64 46 29 48 55 49 38 50 54 51 39 52 42 53 53 54 69 55
REMARK SMILES IDX 40 56 41 57 52 59 70 60 43 61 30 62 31 63 36 64 32 65 33 66
REMARK SMILES IDX 35 67 37 68 34 69 56 70 57 71 62 72 58 73 59 74 61 75 63 76
REMARK SMILES IDX 60 77 44 78 45 79 50 80 46 81 47 82 49 83 51 84 48 85
REMARK H PARENT 11 8 18 28 68 47 42 58
REMARK Flexibility Score: inf
ROOT
ATOM      1  C   UNL A   1      36.426  21.051  24.644  1.00  0.00     0.002 C 
ENDROOT
BRANCH   1   2
ATOM      2  C   UNL A   1      34.982  20.695  25.012  1.00  0.00     0.002 C 
BRANCH   2   3
ATOM      3  C   UNL A   1      34.524  21.197  26.390  1.00  0.00     0.021 C 
BRANCH   3   4
ATOM      4  C   UNL A   1      33.488  22.325  26.334  1.00  0.00     0.116 C 
BRANCH   4   5
ATOM      5  N   UNL A   1      34.152  23.587  26.081  1.00  0.00    -0.356 N 
ATOM      6  C   UNL A   1      34.058  24.319  24.934  1.00  0.00     0.226 C 
ATOM      7  O   UNL A   1      35.091  24.788  24.464  1.00  0.00    -0.275 OA
ATOM      8  H   UNL A   1      34.719  23.949  26.799  1.00  0.00     0.163 HD
BRANCH   6   9
ATOM      9  C   UNL A   1      32.692  24.455  24.288  1.00  0.00     0.115 C 
ATOM     10  N   UNL A   1      32.596  26.335  22.858  1.00  0.00    -0.332 N 
ATOM     11  C   UNL A   1      32.978  25.258  22.064  1.00  0.00     0.224 C 
ATOM     12  C   UNL A   1      32.149  25.887  24.166  1.00  0.00     0.128 C 
ATOM     13  O   UNL A   1      33.303  25.300  20.883  1.00  0.00    -0.275 OA
ATOM     14  C   UNL A   1      32.805  23.980  22.845  1.00  0.00     0.116 C 
BRANCH  10  15
ATOM     15  C   UNL A   1      32.407  27.670  22.278  1.00  0.00     0.079 C 
ATOM     16  C   UNL A   1      31.172  28.421  22.771  1.00  0.00     0.031 C 
ATOM     17  C   UNL A   1      33.670  28.521  22.410  1.00  0.00     0.031 C 
ENDBRANCH  10  15
BRANCH  12  18
ATOM     18  C   UNL A   1      32.371  26.798  25.358  1.00  0.00    -0.025 A 
ATOM     19  C   UNL A   1      33.601  27.417  25.622  1.00  0.00     0.006 A 
ATOM     20  C   UNL A   1      31.312  27.046  26.249  1.00  0.00     0.006 A 
ATOM     21  C   UNL A   1      33.781  28.238  26.738  1.00  0.00     0.000 A 
ATOM     22  C   UNL A   1      31.482  27.889  27.352  1.00  0.00     0.000 A 
ATOM     23  C   UNL A   1      32.717  28.479  27.601  1.00  0.00     0.000 A 
ENDBRANCH  12  18
ENDBRANCH   6   9
ENDBRANCH   4   5
ENDBRANCH   3   4
ENDBRANCH   2   3
ENDBRANCH   1   2
BRANCH   1  24
ATOM     24  C   UNL A   1      37.448  19.954  24.944  1.00  0.00     0.021 C 
BRANCH  24  25
ATOM     25  C   UNL A   1      38.658  20.428  25.737  1.00  0.00     0.116 C 
BRANCH  25  26
ATOM     26  N   UNL A   1      39.712  19.428  25.777  1.00  0.00    -0.352 N 
ATOM     27  C   UNL A   1      41.043  19.591  26.061  1.00  0.00     0.251 C 
ATOM     28  H   UNL A   1      39.431  18.507  25.571  1.00  0.00     0.163 HD
ATOM     29  O   UNL A   1      41.837  18.677  25.865  1.00  0.00    -0.269 OA
BRANCH  27  30
ATOM     30  C   UNL A   1      41.523  20.886  26.590  1.00  0.00     0.039 A 
ATOM     31  C   UNL A   1      41.990  21.850  25.694  1.00  0.00     0.014 A 
ATOM     32  C   UNL A   1      41.512  21.147  27.963  1.00  0.00     0.014 A 
ATOM     33  C   UNL A   1      42.406  23.093  26.174  1.00  0.00     0.010 A 
ATOM     34  C   UNL A   1      41.845  22.414  28.430  1.00  0.00     0.010 A 
ATOM     35  C   UNL A   1      42.313  23.394  27.542  1.00  0.00    -0.014 A 
BRANCH  35  36
ATOM     36  C   UNL A   1      42.733  24.718  28.068  1.00  0.00     0.031 A 
ATOM     37  C   UNL A   1      41.704  25.788  28.318  1.00  0.00     0.074 A 
ATOM     38  C   UNL A   1      44.039  24.974  28.277  1.00  0.00     0.049 A 
ATOM     39  N   UNL A   1      41.873  27.020  28.725  1.00  0.00    -0.248 NA
ATOM     40  C   UNL A   1      40.301  25.433  28.046  1.00  0.00     0.031 C 
ATOM     41  C   UNL A   1      45.136  24.036  28.034  1.00  0.00     0.029 A 
ATOM     42  N   UNL A   1      44.664  26.106  28.737  1.00  0.00    -0.354 N 
ATOM     43  C   UNL A   1      40.604  27.587  28.746  1.00  0.00     0.074 A 
ATOM     44  C   UNL A   1      39.685  26.587  28.249  1.00  0.00     0.031 C 
ATOM     45  C   UNL A   1      46.296  24.621  28.374  1.00  0.00     0.029 A 
ATOM     46  C   UNL A   1      46.030  25.985  28.820  1.00  0.00     0.049 A 
ATOM     47  H   UNL A   1      44.180  26.927  28.982  1.00  0.00     0.167 HD
ATOM     48  C   UNL A   1      40.234  28.821  29.167  1.00  0.00     0.037 A 
ATOM     49  C   UNL A   1      46.961  26.875  29.210  1.00  0.00     0.037 A 
ATOM     50  C   UNL A   1      41.149  29.806  29.678  1.00  0.00     0.049 A 
ATOM     51  C   UNL A   1      46.527  28.243  29.661  1.00  0.00     0.074 A 
ATOM     52  C   UNL A   1      40.869  31.069  30.171  1.00  0.00     0.029 A 
ATOM     53  N   UNL A   1      42.523  29.640  29.760  1.00  0.00    -0.354 N 
ATOM     54  N   UNL A   1      45.317  28.745  29.733  1.00  0.00    -0.248 NA
ATOM     55  C   UNL A   1      47.586  29.163  30.095  1.00  0.00     0.031 C 
ATOM     56  C   UNL A   1      42.079  31.685  30.506  1.00  0.00     0.029 A 
ATOM     57  C   UNL A   1      43.106  30.784  30.280  1.00  0.00     0.049 A 
ATOM     58  H   UNL A   1      43.012  28.829  29.490  1.00  0.00     0.167 HD
ATOM     59  C   UNL A   1      45.467  30.024  30.257  1.00  0.00     0.074 A 
ATOM     60  C   UNL A   1      46.883  30.214  30.492  1.00  0.00     0.031 C 
ATOM     61  C   UNL A   1      44.518  30.954  30.523  1.00  0.00     0.037 A 
BRANCH  48  62
ATOM     62  C   UNL A   1      38.774  29.167  29.091  1.00  0.00     0.057 A 
ATOM     63  C   UNL A   1      37.933  29.076  30.209  1.00  0.00     0.134 A 
ATOM     64  C   UNL A   1      38.206  29.618  27.894  1.00  0.00     0.134 A 
ATOM     65  F   UNL A   1      38.409  28.638  31.385  1.00  0.00    -0.206 F 
ATOM     66  C   UNL A   1      36.575  29.391  30.131  1.00  0.00     0.040 A 
ATOM     67  C   UNL A   1      36.856  29.966  27.810  1.00  0.00     0.040 A 
ATOM     68  F   UNL A   1      38.953  29.735  26.785  1.00  0.00    -0.206 F 
ATOM     69  C   UNL A   1      36.034  29.845  28.929  1.00  0.00     0.006 A 
ENDBRANCH  48  62
BRANCH  49  70
ATOM     70  C   UNL A   1      48.398  26.494  29.222  1.00  0.00     0.057 A 
ATOM     71  C   UNL A   1      49.225  26.763  28.125  1.00  0.00     0.134 A 
ATOM     72  C   UNL A   1      48.973  25.840  30.318  1.00  0.00     0.134 A 
ATOM     73  F   UNL A   1      48.728  27.372  27.038  1.00  0.00    -0.206 F 
ATOM     74  C   UNL A   1      50.566  26.373  28.106  1.00  0.00     0.040 A 
ATOM     75  C   UNL A   1      50.320  25.470  30.323  1.00  0.00     0.040 A 
ATOM     76  F   UNL A   1      48.238  25.563  31.404  1.00  0.00    -0.206 F 
ATOM     77  C   UNL A   1      51.117  25.728  29.210  1.00  0.00     0.006 A 
ENDBRANCH  49  70
BRANCH  61  78
ATOM     78  C   UNL A   1      44.971  32.239  31.154  1.00  0.00     0.057 A 
ATOM     79  C   UNL A   1      45.341  33.355  30.392  1.00  0.00     0.134 A 
ATOM     80  C   UNL A   1      45.006  32.369  32.548  1.00  0.00     0.134 A 
ATOM     81  F   UNL A   1      45.341  33.294  29.052  1.00  0.00    -0.206 F 
ATOM     82  C   UNL A   1      45.758  34.544  30.994  1.00  0.00     0.040 A 
ATOM     83  C   UNL A   1      45.391  33.562  33.162  1.00  0.00     0.040 A 
ATOM     84  F   UNL A   1      44.654  31.344  33.338  1.00  0.00    -0.206 F 
ATOM     85  C   UNL A   1      45.778  34.651  32.384  1.00  0.00     0.006 A 
ENDBRANCH  61  78
ENDBRANCH  35  36
ENDBRANCH  27  30
ENDBRANCH  25  26
ENDBRANCH  24  25
ENDBRANCH   1  24
TORSDOF 15
ENDMDL
MODEL 3
REMARK VINA RESULT:     -10.9      0.404      6.200
REMARK SMILES CC(C)N1C(=O)C[C@@H](C(=O)NCCCCCCNC(=O)c2ccc(-c3c4nc(c(-c5c(F)cccc5F)c5ccc([nH]5)c(-c5c(F)cccc5F)c5nc(c(-c6c(F)cccc6F)c6ccc3[nH]6)C=C5)C=C4)cc2)[C@H]1c1ccccc1
REMARK SMILES IDX 15 1 14 2 13 3 12 4 11 5 9 6 10 7 8 9 4 10 5 11 75 12 6 13
REMARK SMILES IDX 7 14 2 15 1 16 3 17 76 18 77 19 81 20 78 21 80 22 79 23
REMARK SMILES IDX 16 24 17 25 18 26 19 27 20 29 21 30 22 31 74 32 23 33 73 34
REMARK SMILES IDX 24 35 25 36 26 37 67 38 27 39 72 40 66 41 68 42 28 43 71 44
REMARK SMILES IDX 65 45 64 46 29 48 55 49 38 50 54 51 39 52 42 53 53 54 69 55
REMARK SMILES IDX 40 56 41 57 52 59 70 60 43 61 30 62 31 63 36 64 32 65 33 66
REMARK SMILES IDX 35 67 37 68 34 69 56 70 57 71 62 72 58 73 59 74 61 75 63 76
REMARK SMILES IDX 60 77 44 78 45 79 50 80 46 81 47 82 49 83 51 84 48 85
REMARK H PARENT 11 8 18 28 68 47 42 58
REMARK Flexibility Score: inf
ROOT
ATOM      1  C   UNL A   1      36.435  19.145  24.956  1.00  0.00     0.002 C 
ENDROOT
BRANCH   1   2
ATOM      2  C   UNL A   1      35.246  20.112  24.977  1.00  0.00     0.002 C 
BRANCH   2   3
ATOM      3  C   UNL A   1      33.866  19.440  24.936  1.00  0.00     0.021 C 
BRANCH   3   4
ATOM      4  C   UNL A   1      32.704  20.369  25.305  1.00  0.00     0.116 C 
BRANCH   4   5
ATOM      5  N   UNL A   1      32.648  21.477  24.373  1.00  0.00    -0.356 N 
ATOM      6  C   UNL A   1      32.066  22.686  24.610  1.00  0.00     0.226 C 
ATOM      7  O   UNL A   1      31.362  23.169  23.727  1.00  0.00    -0.275 OA
ATOM      8  H   UNL A   1      33.068  21.345  23.493  1.00  0.00     0.163 HD
BRANCH   6   9
ATOM      9  C   UNL A   1      32.282  23.325  25.969  1.00  0.00     0.115 C 
ATOM     10  N   UNL A   1      32.853  25.610  25.769  1.00  0.00    -0.332 N 
ATOM     11  C   UNL A   1      31.468  25.562  25.899  1.00  0.00     0.224 C 
ATOM     12  C   UNL A   1      33.449  24.318  26.064  1.00  0.00     0.128 C 
ATOM     13  O   UNL A   1      30.693  26.508  25.816  1.00  0.00    -0.275 OA
ATOM     14  C   UNL A   1      31.055  24.167  26.293  1.00  0.00     0.116 C 
BRANCH  10  15
ATOM     15  C   UNL A   1      33.555  26.894  25.654  1.00  0.00     0.079 C 
ATOM     16  C   UNL A   1      33.371  27.614  24.320  1.00  0.00     0.031 C 
ATOM     17  C   UNL A   1      33.240  27.811  26.833  1.00  0.00     0.031 C 
ENDBRANCH  10  15
BRANCH  12  18
ATOM     18  C   UNL A   1      34.727  23.931  25.345  1.00  0.00    -0.025 A 
ATOM     19  C   UNL A   1      34.813  23.832  23.948  1.00  0.00     0.006 A 
ATOM     20  C   UNL A   1      35.887  23.654  26.089  1.00  0.00     0.006 A 
ATOM     21  C   UNL A   1      35.999  23.456  23.315  1.00  0.00     0.000 A 
ATOM     22  C   UNL A   1      37.084  23.303  25.456  1.00  0.00     0.000 A 
ATOM     23  C   UNL A   1      37.137  23.197  24.069  1.00  0.00     0.000 A 
ENDBRANCH  12  18
ENDBRANCH   6   9
ENDBRANCH   4   5
ENDBRANCH   3   4
ENDBRANCH   2   3
ENDBRANCH   1   2
BRANCH   1  24
ATOM     24  C   UNL A   1      37.769  19.786  24.575  1.00  0.00     0.021 C 
BRANCH  24  25
ATOM     25  C   UNL A   1      38.673  20.099  25.760  1.00  0.00     0.116 C 
BRANCH  25  26
ATOM     26  N   UNL A   1      39.819  19.209  25.825  1.00  0.00    -0.352 N 
ATOM     27  C   UNL A   1      41.126  19.507  26.112  1.00  0.00     0.251 C 
ATOM     28  H   UNL A   1      39.631  18.261  25.637  1.00  0.00     0.163 HD
ATOM     29  O   UNL A   1      42.007  18.671  25.937  1.00  0.00    -0.269 OA
BRANCH  27  30
ATOM     30  C   UNL A   1      41.473  20.853  26.616  1.00  0.00     0.039 A 
ATOM     31  C   UNL A   1      41.427  21.092  27.991  1.00  0.00     0.014 A 
ATOM     32  C   UNL A   1      41.842  21.874  25.735  1.00  0.00     0.014 A 
ATOM     33  C   UNL A   1      41.792  22.345  28.485  1.00  0.00     0.010 A 
ATOM     34  C   UNL A   1      42.286  23.093  26.235  1.00  0.00     0.010 A 
ATOM     35  C   UNL A   1      42.249  23.348  27.615  1.00  0.00    -0.014 A 
BRANCH  35  36
ATOM     36  C   UNL A   1      42.661  24.680  28.124  1.00  0.00     0.031 A 
ATOM     37  C   UNL A   1      41.628  25.754  28.339  1.00  0.00     0.074 A 
ATOM     38  C   UNL A   1      43.963  24.940  28.348  1.00  0.00     0.049 A 
ATOM     39  N   UNL A   1      41.791  26.993  28.728  1.00  0.00    -0.248 NA
ATOM     40  C   UNL A   1      40.229  25.395  28.052  1.00  0.00     0.031 C 
ATOM     41  C   UNL A   1      45.064  23.997  28.139  1.00  0.00     0.029 A 
ATOM     42  N   UNL A   1      44.582  26.079  28.798  1.00  0.00    -0.354 N 
ATOM     43  C   UNL A   1      40.523  27.561  28.720  1.00  0.00     0.074 A 
ATOM     44  C   UNL A   1      39.611  26.552  28.226  1.00  0.00     0.031 C 
ATOM     45  C   UNL A   1      46.219  24.588  28.486  1.00  0.00     0.029 A 
ATOM     46  C   UNL A   1      45.946  25.960  28.905  1.00  0.00     0.049 A 
ATOM     47  H   UNL A   1      44.094  26.905  29.023  1.00  0.00     0.167 HD
ATOM     48  C   UNL A   1      40.146  28.801  29.114  1.00  0.00     0.037 A 
ATOM     49  C   UNL A   1      46.872  26.857  29.294  1.00  0.00     0.037 A 
ATOM     50  C   UNL A   1      41.053  29.795  29.622  1.00  0.00     0.049 A 
ATOM     51  C   UNL A   1      46.430  28.232  29.715  1.00  0.00     0.074 A 
ATOM     52  C   UNL A   1      40.766  31.066  30.089  1.00  0.00     0.029 A 
ATOM     53  N   UNL A   1      42.426  29.631  29.728  1.00  0.00    -0.354 N 
ATOM     54  N   UNL A   1      45.220  28.736  29.759  1.00  0.00    -0.248 NA
ATOM     55  C   UNL A   1      47.483  29.160  30.149  1.00  0.00     0.031 C 
ATOM     56  C   UNL A   1      41.971  31.688  30.432  1.00  0.00     0.029 A 
ATOM     57  C   UNL A   1      43.002  30.783  30.237  1.00  0.00     0.049 A 
ATOM     58  H   UNL A   1      42.919  28.815  29.480  1.00  0.00     0.167 HD
ATOM     59  C   UNL A   1      45.362  30.023  30.264  1.00  0.00     0.074 A 
ATOM     60  C   UNL A   1      46.775  30.217  30.517  1.00  0.00     0.031 C 
ATOM     61  C   UNL A   1      44.409  30.957  30.499  1.00  0.00     0.037 A 
BRANCH  48  62
ATOM     62  C   UNL A   1      38.688  29.146  29.009  1.00  0.00     0.057 A 
ATOM     63  C   UNL A   1      37.824  29.051  30.110  1.00  0.00     0.134 A 
ATOM     64  C   UNL A   1      38.143  29.600  27.802  1.00  0.00     0.134 A 
ATOM     65  F   UNL A   1      38.277  28.611  31.294  1.00  0.00    -0.206 F 
ATOM     66  C   UNL A   1      36.468  29.365  30.006  1.00  0.00     0.040 A 
ATOM     67  C   UNL A   1      36.795  29.947  27.693  1.00  0.00     0.040 A 
ATOM     68  F   UNL A   1      38.912  29.720  26.709  1.00  0.00    -0.206 F 
ATOM     69  C   UNL A   1      35.951  29.821  28.794  1.00  0.00     0.006 A 
ENDBRANCH  48  62
BRANCH  49  70
ATOM     70  C   UNL A   1      48.307  26.476  29.335  1.00  0.00     0.057 A 
ATOM     71  C   UNL A   1      48.853  25.839  30.456  1.00  0.00     0.134 A 
ATOM     72  C   UNL A   1      49.170  26.754  28.269  1.00  0.00     0.134 A 
ATOM     73  F   UNL A   1      48.082  25.562  31.518  1.00  0.00    -0.206 F 
ATOM     74  C   UNL A   1      50.210  25.514  30.526  1.00  0.00     0.040 A 
ATOM     75  C   UNL A   1      50.522  26.410  28.313  1.00  0.00     0.040 A 
ATOM     76  F   UNL A   1      48.708  27.354  27.162  1.00  0.00    -0.206 F 
ATOM     77  C   UNL A   1      51.047  25.797  29.449  1.00  0.00     0.006 A 
ENDBRANCH  49  70
BRANCH  61  78
ATOM     78  C   UNL A   1      44.852  32.253  31.114  1.00  0.00     0.057 A 
ATOM     79  C   UNL A   1      44.940  32.430  32.501  1.00  0.00     0.134 A 
ATOM     80  C   UNL A   1      45.227  33.331  30.302  1.00  0.00     0.134 A 
ATOM     81  F   UNL A   1      44.585  31.442  33.336  1.00  0.00    -0.206 F 
ATOM     82  C   UNL A   1      45.355  33.641  33.058  1.00  0.00     0.040 A 
ATOM     83  C   UNL A   1      45.674  34.537  30.845  1.00  0.00     0.040 A 
ATOM     84  F   UNL A   1      45.178  33.228  28.965  1.00  0.00    -0.206 F 
ATOM     85  C   UNL A   1      45.730  34.697  32.228  1.00  0.00     0.006 A 
ENDBRANCH  61  78
ENDBRANCH  35  36
ENDBRANCH  27  30
ENDBRANCH  25  26
ENDBRANCH  24  25
ENDBRANCH   1  24
TORSDOF 15
ENDMDL
