MODEL 1
REMARK VINA RESULT:     -12.1      0.000      0.000
REMARK SMILES O=C(NCCCCCCNC(=O)[C@H]1C[C@](O)(c2ccccc2Cl)[C@@H](c2ccccc2Cl)O1)c1ccc(-c2c3nc(c(-c4c(F)cccc4F)c4ccc([nH]4)c(-c4c(F)cccc4F)c4nc(c(-c5c(F)cccc5F)c5ccc2[nH]5)C=C4)C=C3)cc1
REMARK SMILES IDX 6 1 5 2 4 3 3 4 1 5 2 6 33 8 34 9 86 10 35 11 85 12 36 13
REMARK SMILES IDX 37 14 38 15 79 16 39 17 84 18 78 19 80 20 40 21 83 22 77 23
REMARK SMILES IDX 76 24 41 26 67 27 50 28 66 29 51 30 54 31 65 32 81 33 52 34
REMARK SMILES IDX 53 35 64 37 82 38 55 39 42 40 43 41 48 42 44 43 45 44 47 45
REMARK SMILES IDX 49 46 46 47 68 48 69 49 74 50 70 51 71 52 73 53 75 54 72 55
REMARK SMILES IDX 56 56 57 57 62 58 58 59 59 60 61 61 63 62 60 63 7 64 8 65
REMARK SMILES IDX 9 66 10 67 11 68 12 70 13 71 14 72 32 73 15 74 24 75 17 76
REMARK SMILES IDX 18 77 22 78 19 79 21 80 23 81 20 82 16 83 25 85 26 86 30 87
REMARK SMILES IDX 27 88 29 89 31 90 28 91
REMARK H PARENT 3 7 80 25 54 36 10 69 16 84
REMARK Flexibility Score: inf
ROOT
ATOM      1  C   UNL A   1      30.543  31.364  25.088  1.00  0.00     0.002 C 
ENDROOT
BRANCH   1   2
ATOM      2  C   UNL A   1      31.001  31.776  26.487  1.00  0.00     0.021 C 
BRANCH   2   3
ATOM      3  C   UNL A   1      32.311  32.553  26.577  1.00  0.00     0.116 C 
BRANCH   3   4
ATOM      4  N   UNL A   1      32.208  33.823  27.271  1.00  0.00    -0.352 N 
ATOM      5  O   UNL A   1      32.765  35.432  28.754  1.00  0.00    -0.269 OA
ATOM      6  C   UNL A   1      33.030  34.351  28.242  1.00  0.00     0.251 C 
ATOM      7  H   UNL A   1      31.443  34.386  27.012  1.00  0.00     0.163 HD
BRANCH   6   8
ATOM      8  C   UNL A   1      34.211  33.588  28.708  1.00  0.00     0.039 A 
ATOM      9  C   UNL A   1      34.086  32.302  29.240  1.00  0.00     0.014 A 
ATOM     10  C   UNL A   1      35.473  34.186  28.623  1.00  0.00     0.014 A 
ATOM     11  C   UNL A   1      35.187  31.687  29.831  1.00  0.00     0.010 A 
ATOM     12  C   UNL A   1      36.593  33.533  29.148  1.00  0.00     0.010 A 
ATOM     13  C   UNL A   1      36.451  32.298  29.798  1.00  0.00    -0.014 A 
BRANCH  13  14
ATOM     14  C   UNL A   1      37.610  31.623  30.439  1.00  0.00     0.031 A 
ATOM     15  C   UNL A   1      37.937  31.854  31.889  1.00  0.00     0.074 A 
ATOM     16  C   UNL A   1      38.355  30.769  29.712  1.00  0.00     0.049 A 
ATOM     17  N   UNL A   1      38.888  31.320  32.617  1.00  0.00    -0.248 NA
ATOM     18  C   UNL A   1      37.096  32.815  32.619  1.00  0.00     0.031 C 
ATOM     19  C   UNL A   1      38.148  30.468  28.294  1.00  0.00     0.029 A 
ATOM     20  N   UNL A   1      39.422  29.984  30.068  1.00  0.00    -0.354 N 
ATOM     21  C   UNL A   1      38.776  31.897  33.876  1.00  0.00     0.074 A 
ATOM     22  C   UNL A   1      37.677  32.837  33.810  1.00  0.00     0.031 C 
ATOM     23  C   UNL A   1      39.026  29.527  27.913  1.00  0.00     0.029 A 
ATOM     24  C   UNL A   1      39.886  29.195  29.044  1.00  0.00     0.049 A 
ATOM     25  H   UNL A   1      39.816  29.986  30.970  1.00  0.00     0.167 HD
ATOM     26  C   UNL A   1      39.517  31.660  34.986  1.00  0.00     0.037 A 
ATOM     27  C   UNL A   1      40.894  28.305  29.015  1.00  0.00     0.037 A 
ATOM     28  C   UNL A   1      40.592  30.705  35.060  1.00  0.00     0.049 A 
ATOM     29  C   UNL A   1      41.698  28.061  30.259  1.00  0.00     0.074 A 
ATOM     30  C   UNL A   1      41.369  30.361  36.154  1.00  0.00     0.029 A 
ATOM     31  N   UNL A   1      41.046  29.941  33.994  1.00  0.00    -0.354 N 
ATOM     32  N   UNL A   1      41.554  28.585  31.451  1.00  0.00    -0.248 NA
ATOM     33  C   UNL A   1      42.805  27.102  30.151  1.00  0.00     0.031 C 
ATOM     34  C   UNL A   1      42.315  29.416  35.742  1.00  0.00     0.029 A 
ATOM     35  C   UNL A   1      42.102  29.141  34.401  1.00  0.00     0.049 A 
ATOM     36  H   UNL A   1      40.673  29.965  33.084  1.00  0.00     0.167 HD
ATOM     37  C   UNL A   1      42.536  28.005  32.241  1.00  0.00     0.074 A 
ATOM     38  C   UNL A   1      43.261  27.080  31.395  1.00  0.00     0.031 C 
ATOM     39  C   UNL A   1      42.811  28.220  33.551  1.00  0.00     0.037 A 
BRANCH  26  40
ATOM     40  C   UNL A   1      39.199  32.464  36.214  1.00  0.00     0.057 A 
ATOM     41  C   UNL A   1      39.773  33.719  36.449  1.00  0.00     0.134 A 
ATOM     42  C   UNL A   1      38.279  31.987  37.157  1.00  0.00     0.134 A 
ATOM     43  F   UNL A   1      40.669  34.228  35.590  1.00  0.00    -0.206 F 
ATOM     44  C   UNL A   1      39.460  34.463  37.589  1.00  0.00     0.040 A 
ATOM     45  C   UNL A   1      37.942  32.731  38.289  1.00  0.00     0.040 A 
ATOM     46  F   UNL A   1      37.687  30.795  36.990  1.00  0.00    -0.206 F 
ATOM     47  C   UNL A   1      38.538  33.971  38.510  1.00  0.00     0.006 A 
ENDBRANCH  26  40
BRANCH  27  48
ATOM     48  C   UNL A   1      41.179  27.559  27.766  1.00  0.00     0.057 A 
ATOM     49  C   UNL A   1      40.640  26.287  27.549  1.00  0.00     0.134 A 
ATOM     50  C   UNL A   1      41.977  28.107  26.755  1.00  0.00     0.134 A 
ATOM     51  F   UNL A   1      39.881  25.706  28.490  1.00  0.00    -0.206 F 
ATOM     52  C   UNL A   1      40.892  25.579  26.373  1.00  0.00     0.040 A 
ATOM     53  C   UNL A   1      42.218  27.420  25.564  1.00  0.00     0.040 A 
ATOM     54  F   UNL A   1      42.516  29.326  26.903  1.00  0.00    -0.206 F 
ATOM     55  C   UNL A   1      41.677  26.150  25.374  1.00  0.00     0.006 A 
ENDBRANCH  27  48
BRANCH  39  56
ATOM     56  C   UNL A   1      43.920  27.412  34.154  1.00  0.00     0.057 A 
ATOM     57  C   UNL A   1      43.695  26.144  34.705  1.00  0.00     0.134 A 
ATOM     58  C   UNL A   1      45.231  27.902  34.166  1.00  0.00     0.134 A 
ATOM     59  F   UNL A   1      42.458  25.625  34.736  1.00  0.00    -0.206 F 
ATOM     60  C   UNL A   1      44.733  25.401  35.269  1.00  0.00     0.040 A 
ATOM     61  C   UNL A   1      46.281  27.159  34.709  1.00  0.00     0.040 A 
ATOM     62  F   UNL A   1      45.514  29.108  33.649  1.00  0.00    -0.206 F 
ATOM     63  C   UNL A   1      46.032  25.908  35.267  1.00  0.00     0.006 A 
ENDBRANCH  39  56
ENDBRANCH  13  14
ENDBRANCH   6   8
ENDBRANCH   3   4
ENDBRANCH   2   3
ENDBRANCH   1   2
BRANCH   1  64
ATOM     64  C   UNL A   1      30.978  29.980  24.601  1.00  0.00     0.002 C 
BRANCH  64  65
ATOM     65  C   UNL A   1      30.269  29.423  23.361  1.00  0.00     0.021 C 
BRANCH  65  66
ATOM     66  C   UNL A   1      30.728  28.048  22.875  1.00  0.00     0.116 C 
BRANCH  66  67
ATOM     67  N   UNL A   1      32.080  28.050  22.368  1.00  0.00    -0.354 N 
ATOM     68  C   UNL A   1      32.980  27.059  22.146  1.00  0.00     0.249 C 
ATOM     69  H   UNL A   1      32.416  28.947  22.139  1.00  0.00     0.163 HD
ATOM     70  O   UNL A   1      34.041  27.441  21.631  1.00  0.00    -0.272 OA
BRANCH  68  71
ATOM     71  C   UNL A   1      32.793  25.563  22.516  1.00  0.00     0.211 C 
ATOM     72  C   UNL A   1      33.933  24.644  22.896  1.00  0.00     0.085 C 
ATOM     73  O   UNL A   1      31.822  25.451  23.569  1.00  0.00    -0.357 OA
ATOM     74  C   UNL A   1      33.791  24.329  24.390  1.00  0.00     0.124 C 
ATOM     75  C   UNL A   1      32.463  25.037  24.793  1.00  0.00     0.187 C 
BRANCH  74  76
ATOM     76  C   UNL A   1      34.005  22.807  24.552  1.00  0.00     0.005 A 
ATOM     77  C   UNL A   1      35.210  22.413  25.202  1.00  0.00     0.008 A 
ATOM     78  C   UNL A   1      33.220  21.757  24.034  1.00  0.00     0.047 A 
ATOM     79  C   UNL A   1      35.588  21.079  25.366  1.00  0.00     0.001 A 
ATOM     80  C   UNL A   1      33.585  20.411  24.238  1.00  0.00     0.021 A 
ATOM     81  Cl  UNL A   1      31.836  21.953  23.022  1.00  0.00    -0.084 Cl
ATOM     82  C   UNL A   1      34.762  20.071  24.897  1.00  0.00     0.002 A 
ENDBRANCH  74  76
BRANCH  74  83
ATOM     83  O   UNL A   1      34.905  24.965  25.058  1.00  0.00    -0.382 OA
ATOM     84  H   UNL A   1      34.865  24.774  26.008  1.00  0.00     0.212 HD
ENDBRANCH  74  83
BRANCH  75  85
ATOM     85  C   UNL A   1      32.502  26.234  25.746  1.00  0.00     0.003 A 
ATOM     86  C   UNL A   1      33.662  27.023  25.865  1.00  0.00     0.008 A 
ATOM     87  C   UNL A   1      31.375  26.643  26.486  1.00  0.00     0.046 A 
ATOM     88  C   UNL A   1      33.687  28.194  26.627  1.00  0.00     0.000 A 
ATOM     89  C   UNL A   1      31.403  27.814  27.258  1.00  0.00     0.021 A 
ATOM     90  Cl  UNL A   1      29.899  25.739  26.529  1.00  0.00    -0.084 Cl
ATOM     91  C   UNL A   1      32.552  28.597  27.315  1.00  0.00     0.002 A 
ENDBRANCH  75  85
ENDBRANCH  68  71
ENDBRANCH  66  67
ENDBRANCH  65  66
ENDBRANCH  64  65
ENDBRANCH   1  64
TORSDOF 16
ENDMDL
MODEL 2
REMARK VINA RESULT:     -12.1      4.217      9.174
REMARK SMILES O=C(NCCCCCCNC(=O)[C@H]1C[C@](O)(c2ccccc2Cl)[C@@H](c2ccccc2Cl)O1)c1ccc(-c2c3nc(c(-c4c(F)cccc4F)c4ccc([nH]4)c(-c4c(F)cccc4F)c4nc(c(-c5c(F)cccc5F)c5ccc2[nH]5)C=C4)C=C3)cc1
REMARK SMILES IDX 6 1 5 2 4 3 3 4 1 5 2 6 33 8 34 9 86 10 35 11 85 12 36 13
REMARK SMILES IDX 37 14 38 15 79 16 39 17 84 18 78 19 80 20 40 21 83 22 77 23
REMARK SMILES IDX 76 24 41 26 67 27 50 28 66 29 51 30 54 31 65 32 81 33 52 34
REMARK SMILES IDX 53 35 64 37 82 38 55 39 42 40 43 41 48 42 44 43 45 44 47 45
REMARK SMILES IDX 49 46 46 47 68 48 69 49 74 50 70 51 71 52 73 53 75 54 72 55
REMARK SMILES IDX 56 56 57 57 62 58 58 59 59 60 61 61 63 62 60 63 7 64 8 65
REMARK SMILES IDX 9 66 10 67 11 68 12 70 13 71 14 72 32 73 15 74 24 75 17 76
REMARK SMILES IDX 18 77 22 78 19 79 21 80 23 81 20 82 16 83 25 85 26 86 30 87
REMARK SMILES IDX 27 88 29 89 31 90 28 91
REMARK H PARENT 3 7 80 25 54 36 10 69 16 84
REMARK Flexibility Score: inf
ROOT
ATOM      1  C   UNL A   1      36.026  19.728  24.999  1.00  0.00     0.002 C 
ENDROOT
BRANCH   1   2
ATOM      2  C   UNL A   1      37.334  20.425  24.628  1.00  0.00     0.021 C 
BRANCH   2   3
ATOM      3  C   UNL A   1      38.402  20.501  25.714  1.00  0.00     0.116 C 
BRANCH   3   4
ATOM      4  N   UNL A   1      39.457  19.513  25.588  1.00  0.00    -0.352 N 
ATOM      5  O   UNL A   1      41.551  18.681  25.726  1.00  0.00    -0.269 OA
ATOM      6  C   UNL A   1      40.783  19.609  25.948  1.00  0.00     0.251 C 
ATOM      7  H   UNL A   1      39.188  18.655  25.189  1.00  0.00     0.163 HD
BRANCH   6   8
ATOM      8  C   UNL A   1      41.297  20.858  26.557  1.00  0.00     0.039 A 
ATOM      9  C   UNL A   1      41.214  21.088  27.933  1.00  0.00     0.014 A 
ATOM     10  C   UNL A   1      41.861  21.829  25.722  1.00  0.00     0.014 A 
ATOM     11  C   UNL A   1      41.541  22.340  28.447  1.00  0.00     0.010 A 
ATOM     12  C   UNL A   1      42.263  23.059  26.253  1.00  0.00     0.010 A 
ATOM     13  C   UNL A   1      42.062  23.342  27.612  1.00  0.00    -0.014 A 
BRANCH  13  14
ATOM     14  C   UNL A   1      42.401  24.672  28.185  1.00  0.00     0.031 A 
ATOM     15  C   UNL A   1      43.820  25.025  28.537  1.00  0.00     0.074 A 
ATOM     16  C   UNL A   1      41.421  25.579  28.359  1.00  0.00     0.049 A 
ATOM     17  N   UNL A   1      44.298  26.150  29.011  1.00  0.00    -0.248 NA
ATOM     18  C   UNL A   1      44.837  23.980  28.341  1.00  0.00     0.031 C 
ATOM     19  C   UNL A   1      40.004  25.355  28.067  1.00  0.00     0.029 A 
ATOM     20  N   UNL A   1      41.470  26.876  28.804  1.00  0.00    -0.354 N 
ATOM     21  C   UNL A   1      45.659  25.941  29.194  1.00  0.00     0.074 A 
ATOM     22  C   UNL A   1      45.930  24.575  28.799  1.00  0.00     0.031 C 
ATOM     23  C   UNL A   1      39.326  26.490  28.293  1.00  0.00     0.029 A 
ATOM     24  C   UNL A   1      40.249  27.505  28.789  1.00  0.00     0.049 A 
ATOM     25  H   UNL A   1      42.300  27.312  29.104  1.00  0.00     0.167 HD
ATOM     26  C   UNL A   1      46.598  26.809  29.644  1.00  0.00     0.037 A 
ATOM     27  C   UNL A   1      39.909  28.758  29.140  1.00  0.00     0.037 A 
ATOM     28  C   UNL A   1      46.334  28.176  30.012  1.00  0.00     0.049 A 
ATOM     29  C   UNL A   1      40.967  29.699  29.635  1.00  0.00     0.074 A 
ATOM     30  C   UNL A   1      47.229  29.145  30.434  1.00  0.00     0.029 A 
ATOM     31  N   UNL A   1      45.080  28.769  30.004  1.00  0.00    -0.354 N 
ATOM     32  N   UNL A   1      42.256  29.498  29.764  1.00  0.00    -0.248 NA
ATOM     33  C   UNL A   1      40.523  31.041  30.032  1.00  0.00     0.031 C 
ATOM     34  C   UNL A   1      46.512  30.313  30.715  1.00  0.00     0.029 A 
ATOM     35  C   UNL A   1      45.175  30.084  30.431  1.00  0.00     0.049 A 
ATOM     36  H   UNL A   1      44.246  28.320  29.736  1.00  0.00     0.167 HD
ATOM     37  C   UNL A   1      42.780  30.692  30.236  1.00  0.00     0.074 A 
ATOM     38  C   UNL A   1      41.672  31.617  30.359  1.00  0.00     0.031 C 
ATOM     39  C   UNL A   1      44.066  30.995  30.541  1.00  0.00     0.037 A 
BRANCH  26  40
ATOM     40  C   UNL A   1      48.003  26.298  29.782  1.00  0.00     0.057 A 
ATOM     41  C   UNL A   1      48.483  25.756  30.981  1.00  0.00     0.134 A 
ATOM     42  C   UNL A   1      48.877  26.319  28.688  1.00  0.00     0.134 A 
ATOM     43  F   UNL A   1      47.699  25.716  32.070  1.00  0.00    -0.206 F 
ATOM     44  C   UNL A   1      49.788  25.272  31.093  1.00  0.00     0.040 A 
ATOM     45  C   UNL A   1      50.177  25.818  28.781  1.00  0.00     0.040 A 
ATOM     46  F   UNL A   1      48.481  26.817  27.508  1.00  0.00    -0.206 F 
ATOM     47  C   UNL A   1      50.637  25.298  29.989  1.00  0.00     0.006 A 
ENDBRANCH  26  40
BRANCH  27  48
ATOM     48  C   UNL A   1      38.499  29.199  29.008  1.00  0.00     0.057 A 
ATOM     49  C   UNL A   1      37.631  29.168  30.104  1.00  0.00     0.134 A 
ATOM     50  C   UNL A   1      37.995  29.679  27.794  1.00  0.00     0.134 A 
ATOM     51  F   UNL A   1      38.054  28.702  31.287  1.00  0.00    -0.206 F 
ATOM     52  C   UNL A   1      36.305  29.590  29.995  1.00  0.00     0.040 A 
ATOM     53  C   UNL A   1      36.678  30.126  27.677  1.00  0.00     0.040 A 
ATOM     54  F   UNL A   1      38.783  29.739  26.710  1.00  0.00    -0.206 F 
ATOM     55  C   UNL A   1      35.828  30.079  28.781  1.00  0.00     0.006 A 
ENDBRANCH  27  48
BRANCH  39  56
ATOM     56  C   UNL A   1      44.343  32.395  31.000  1.00  0.00     0.057 A 
ATOM     57  C   UNL A   1      44.624  33.427  30.097  1.00  0.00     0.134 A 
ATOM     58  C   UNL A   1      44.311  32.716  32.363  1.00  0.00     0.134 A 
ATOM     59  F   UNL A   1      44.685  33.180  28.779  1.00  0.00    -0.206 F 
ATOM     60  C   UNL A   1      44.887  34.726  30.533  1.00  0.00     0.040 A 
ATOM     61  C   UNL A   1      44.551  34.016  32.811  1.00  0.00     0.040 A 
ATOM     62  F   UNL A   1      44.042  31.773  33.279  1.00  0.00    -0.206 F 
ATOM     63  C   UNL A   1      44.845  35.023  31.895  1.00  0.00     0.006 A 
ENDBRANCH  39  56
ENDBRANCH  13  14
ENDBRANCH   6   8
ENDBRANCH   3   4
ENDBRANCH   2   3
ENDBRANCH   1   2
BRANCH   1  64
ATOM     64  C   UNL A   1      34.840  20.631  25.347  1.00  0.00     0.002 C 
BRANCH  64  65
ATOM     65  C   UNL A   1      33.436  20.056  25.122  1.00  0.00     0.021 C 
BRANCH  65  66
ATOM     66  C   UNL A   1      32.303  21.068  24.963  1.00  0.00     0.116 C 
BRANCH  66  67
ATOM     67  N   UNL A   1      31.978  21.752  26.193  1.00  0.00    -0.354 N 
ATOM     68  C   UNL A   1      31.227  22.847  26.465  1.00  0.00     0.249 C 
ATOM     69  H   UNL A   1      32.382  21.342  26.992  1.00  0.00     0.163 HD
ATOM     70  O   UNL A   1      31.120  23.105  27.673  1.00  0.00    -0.272 OA
BRANCH  68  71
ATOM     71  C   UNL A   1      30.562  23.777  25.415  1.00  0.00     0.211 C 
ATOM     72  C   UNL A   1      30.397  25.270  25.598  1.00  0.00     0.085 C 
ATOM     73  O   UNL A   1      31.212  23.601  24.145  1.00  0.00    -0.357 OA
ATOM     74  C   UNL A   1      31.345  25.963  24.612  1.00  0.00     0.124 C 
ATOM     75  C   UNL A   1      31.967  24.783  23.806  1.00  0.00     0.187 C 
BRANCH  74  76
ATOM     76  C   UNL A   1      30.543  27.099  23.939  1.00  0.00     0.005 A 
ATOM     77  C   UNL A   1      29.129  26.929  23.911  1.00  0.00     0.008 A 
ATOM     78  C   UNL A   1      31.037  28.221  23.245  1.00  0.00     0.047 A 
ATOM     79  C   UNL A   1      28.265  27.829  23.280  1.00  0.00     0.001 A 
ATOM     80  C   UNL A   1      30.159  29.147  22.645  1.00  0.00     0.021 A 
ATOM     81  Cl  UNL A   1      32.703  28.548  22.936  1.00  0.00    -0.084 Cl
ATOM     82  C   UNL A   1      28.782  28.953  22.659  1.00  0.00     0.002 A 
ENDBRANCH  74  76
BRANCH  74  83
ATOM     83  O   UNL A   1      32.371  26.607  25.402  1.00  0.00    -0.382 OA
ATOM     84  H   UNL A   1      32.794  27.303  24.876  1.00  0.00     0.212 HD
ENDBRANCH  74  83
BRANCH  75  85
ATOM     85  C   UNL A   1      33.456  24.464  23.957  1.00  0.00     0.003 A 
ATOM     86  C   UNL A   1      34.162  24.849  25.114  1.00  0.00     0.008 A 
ATOM     87  C   UNL A   1      34.167  23.718  22.996  1.00  0.00     0.046 A 
ATOM     88  C   UNL A   1      35.485  24.462  25.338  1.00  0.00     0.000 A 
ATOM     89  C   UNL A   1      35.498  23.336  23.218  1.00  0.00     0.021 A 
ATOM     90  Cl  UNL A   1      33.482  23.243  21.479  1.00  0.00    -0.084 Cl
ATOM     91  C   UNL A   1      36.152  23.693  24.394  1.00  0.00     0.002 A 
ENDBRANCH  75  85
ENDBRANCH  68  71
ENDBRANCH  66  67
ENDBRANCH  65  66
ENDBRANCH  64  65
ENDBRANCH   1  64
TORSDOF 16
ENDMDL
MODEL 3
REMARK VINA RESULT:     -12.1      4.240      9.175
REMARK SMILES O=C(NCCCCCCNC(=O)[C@H]1C[C@](O)(c2ccccc2Cl)[C@@H](c2ccccc2Cl)O1)c1ccc(-c2c3nc(c(-c4c(F)cccc4F)c4ccc([nH]4)c(-c4c(F)cccc4F)c4nc(c(-c5c(F)cccc5F)c5ccc2[nH]5)C=C4)C=C3)cc1
REMARK SMILES IDX 6 1 5 2 4 3 3 4 1 5 2 6 33 8 34 9 86 10 35 11 85 12 36 13
REMARK SMILES IDX 37 14 38 15 79 16 39 17 84 18 78 19 80 20 40 21 83 22 77 23
REMARK SMILES IDX 76 24 41 26 67 27 50 28 66 29 51 30 54 31 65 32 81 33 52 34
REMARK SMILES IDX 53 35 64 37 82 38 55 39 42 40 43 41 48 42 44 43 45 44 47 45
REMARK SMILES IDX 49 46 46 47 68 48 69 49 74 50 70 51 71 52 73 53 75 54 72 55
REMARK SMILES IDX 56 56 57 57 62 58 58 59 59 60 61 61 63 62 60 63 7 64 8 65
REMARK SMILES IDX 9 66 10 67 11 68 12 70 13 71 14 72 32 73 15 74 24 75 17 76
REMARK SMILES IDX 18 77 22 78 19 79 21 80 23 81 20 82 16 83 25 85 26 86 30 87
REMARK SMILES IDX 27 88 29 89 31 90 28 91
REMARK H PARENT 3 7 80 25 54 36 10 69 16 84
REMARK Flexibility Score: inf
ROOT
ATOM      1  C   UNL A   1      35.880  20.516  25.383  1.00  0.00     0.002 C 
ENDROOT
BRANCH   1   2
ATOM      2  C   UNL A   1      37.255  20.275  24.760  1.00  0.00     0.021 C 
BRANCH   2   3
ATOM      3  C   UNL A   1      38.466  20.555  25.644  1.00  0.00     0.116 C 
BRANCH   3   4
ATOM      4  N   UNL A   1      39.502  19.541  25.580  1.00  0.00    -0.352 N 
ATOM      5  O   UNL A   1      41.571  18.668  25.810  1.00  0.00    -0.269 OA
ATOM      6  C   UNL A   1      40.818  19.619  25.981  1.00  0.00     0.251 C 
ATOM      7  H   UNL A   1      39.227  18.678  25.195  1.00  0.00     0.163 HD
BRANCH   6   8
ATOM      8  C   UNL A   1      41.339  20.873  26.574  1.00  0.00     0.039 A 
ATOM      9  C   UNL A   1      41.354  21.076  27.956  1.00  0.00     0.014 A 
ATOM     10  C   UNL A   1      41.809  21.874  25.717  1.00  0.00     0.014 A 
ATOM     11  C   UNL A   1      41.682  22.329  28.468  1.00  0.00     0.010 A 
ATOM     12  C   UNL A   1      42.213  23.108  26.240  1.00  0.00     0.010 A 
ATOM     13  C   UNL A   1      42.108  23.361  27.615  1.00  0.00    -0.014 A 
BRANCH  13  14
ATOM     14  C   UNL A   1      42.450  24.691  28.186  1.00  0.00     0.031 A 
ATOM     15  C   UNL A   1      43.871  25.045  28.528  1.00  0.00     0.074 A 
ATOM     16  C   UNL A   1      41.471  25.597  28.367  1.00  0.00     0.049 A 
ATOM     17  N   UNL A   1      44.352  26.170  28.999  1.00  0.00    -0.248 NA
ATOM     18  C   UNL A   1      44.887  24.001  28.325  1.00  0.00     0.031 C 
ATOM     19  C   UNL A   1      40.052  25.372  28.086  1.00  0.00     0.029 A 
ATOM     20  N   UNL A   1      41.521  26.894  28.813  1.00  0.00    -0.354 N 
ATOM     21  C   UNL A   1      45.714  25.962  29.173  1.00  0.00     0.074 A 
ATOM     22  C   UNL A   1      45.984  24.596  28.775  1.00  0.00     0.031 C 
ATOM     23  C   UNL A   1      39.374  26.506  28.316  1.00  0.00     0.029 A 
ATOM     24  C   UNL A   1      40.300  27.522  28.807  1.00  0.00     0.049 A 
ATOM     25  H   UNL A   1      42.353  27.331  29.107  1.00  0.00     0.167 HD
ATOM     26  C   UNL A   1      46.655  26.830  29.617  1.00  0.00     0.037 A 
ATOM     27  C   UNL A   1      39.961  28.774  29.160  1.00  0.00     0.037 A 
ATOM     28  C   UNL A   1      46.393  28.198  29.987  1.00  0.00     0.049 A 
ATOM     29  C   UNL A   1      41.022  29.716  29.648  1.00  0.00     0.074 A 
ATOM     30  C   UNL A   1      47.290  29.167  30.403  1.00  0.00     0.029 A 
ATOM     31  N   UNL A   1      45.138  28.789  29.988  1.00  0.00    -0.354 N 
ATOM     32  N   UNL A   1      42.312  29.516  29.768  1.00  0.00    -0.248 NA
ATOM     33  C   UNL A   1      40.579  31.058  30.050  1.00  0.00     0.031 C 
ATOM     34  C   UNL A   1      46.573  30.335  30.689  1.00  0.00     0.029 A 
ATOM     35  C   UNL A   1      45.235  30.104  30.415  1.00  0.00     0.049 A 
ATOM     36  H   UNL A   1      44.303  28.340  29.726  1.00  0.00     0.167 HD
ATOM     37  C   UNL A   1      42.838  30.710  30.238  1.00  0.00     0.074 A 
ATOM     38  C   UNL A   1      41.730  31.634  30.369  1.00  0.00     0.031 C 
ATOM     39  C   UNL A   1      44.126  31.015  30.533  1.00  0.00     0.037 A 
BRANCH  26  40
ATOM     40  C   UNL A   1      48.062  26.321  29.745  1.00  0.00     0.057 A 
ATOM     41  C   UNL A   1      48.991  26.435  28.704  1.00  0.00     0.134 A 
ATOM     42  C   UNL A   1      48.500  25.739  30.942  1.00  0.00     0.134 A 
ATOM     43  F   UNL A   1      48.632  26.972  27.528  1.00  0.00    -0.206 F 
ATOM     44  C   UNL A   1      50.301  25.968  28.840  1.00  0.00     0.040 A 
ATOM     45  C   UNL A   1      49.813  25.290  31.098  1.00  0.00     0.040 A 
ATOM     46  F   UNL A   1      47.664  25.606  31.982  1.00  0.00    -0.206 F 
ATOM     47  C   UNL A   1      50.715  25.398  30.042  1.00  0.00     0.006 A 
ENDBRANCH  26  40
BRANCH  27  48
ATOM     48  C   UNL A   1      38.550  29.214  29.039  1.00  0.00     0.057 A 
ATOM     49  C   UNL A   1      38.040  29.663  27.816  1.00  0.00     0.134 A 
ATOM     50  C   UNL A   1      37.677  29.177  30.131  1.00  0.00     0.134 A 
ATOM     51  F   UNL A   1      38.835  29.736  26.739  1.00  0.00    -0.206 F 
ATOM     52  C   UNL A   1      36.712  30.070  27.685  1.00  0.00     0.040 A 
ATOM     53  C   UNL A   1      36.340  29.559  30.010  1.00  0.00     0.040 A 
ATOM     54  F   UNL A   1      38.107  28.749  31.328  1.00  0.00    -0.206 F 
ATOM     55  C   UNL A   1      35.856  30.011  28.783  1.00  0.00     0.006 A 
ENDBRANCH  27  48
BRANCH  39  56
ATOM     56  C   UNL A   1      44.405  32.414  30.991  1.00  0.00     0.057 A 
ATOM     57  C   UNL A   1      44.636  33.456  30.084  1.00  0.00     0.134 A 
ATOM     58  C   UNL A   1      44.427  32.725  32.356  1.00  0.00     0.134 A 
ATOM     59  F   UNL A   1      44.643  33.219  28.763  1.00  0.00    -0.206 F 
ATOM     60  C   UNL A   1      44.901  34.755  30.519  1.00  0.00     0.040 A 
ATOM     61  C   UNL A   1      44.670  34.024  32.803  1.00  0.00     0.040 A 
ATOM     62  F   UNL A   1      44.209  31.773  33.276  1.00  0.00    -0.206 F 
ATOM     63  C   UNL A   1      44.913  35.043  31.884  1.00  0.00     0.006 A 
ENDBRANCH  39  56
ENDBRANCH  13  14
ENDBRANCH   6   8
ENDBRANCH   3   4
ENDBRANCH   2   3
ENDBRANCH   1   2
BRANCH   1  64
ATOM     64  C   UNL A   1      34.672  19.977  24.612  1.00  0.00     0.002 C 
BRANCH  64  65
ATOM     65  C   UNL A   1      33.323  19.980  25.341  1.00  0.00     0.021 C 
BRANCH  65  66
ATOM     66  C   UNL A   1      32.415  21.183  25.087  1.00  0.00     0.116 C 
BRANCH  66  67
ATOM     67  N   UNL A   1      32.030  21.867  26.300  1.00  0.00    -0.354 N 
ATOM     68  C   UNL A   1      31.234  22.939  26.537  1.00  0.00     0.249 C 
ATOM     69  H   UNL A   1      32.422  21.478  27.114  1.00  0.00     0.163 HD
ATOM     70  O   UNL A   1      31.082  23.205  27.739  1.00  0.00    -0.272 OA
BRANCH  68  71
ATOM     71  C   UNL A   1      30.572  23.836  25.457  1.00  0.00     0.211 C 
ATOM     72  C   UNL A   1      30.400  25.333  25.597  1.00  0.00     0.085 C 
ATOM     73  O   UNL A   1      31.229  23.627  24.197  1.00  0.00    -0.357 OA
ATOM     74  C   UNL A   1      31.351  26.001  24.597  1.00  0.00     0.124 C 
ATOM     75  C   UNL A   1      31.982  24.802  23.829  1.00  0.00     0.187 C 
BRANCH  74  76
ATOM     76  C   UNL A   1      30.548  27.115  23.888  1.00  0.00     0.005 A 
ATOM     77  C   UNL A   1      29.130  26.979  23.924  1.00  0.00     0.008 A 
ATOM     78  C   UNL A   1      31.039  28.181  23.109  1.00  0.00     0.047 A 
ATOM     79  C   UNL A   1      28.263  27.860  23.274  1.00  0.00     0.001 A 
ATOM     80  C   UNL A   1      30.159  29.091  22.489  1.00  0.00     0.021 A 
ATOM     81  Cl  UNL A   1      32.699  28.448  22.718  1.00  0.00    -0.084 Cl
ATOM     82  C   UNL A   1      28.780  28.932  22.567  1.00  0.00     0.002 A 
ENDBRANCH  74  76
BRANCH  74  83
ATOM     83  O   UNL A   1      32.370  26.672  25.375  1.00  0.00    -0.382 OA
ATOM     84  H   UNL A   1      32.645  27.481  24.917  1.00  0.00     0.212 HD
ENDBRANCH  74  83
BRANCH  75  85
ATOM     85  C   UNL A   1      33.471  24.493  23.997  1.00  0.00     0.003 A 
ATOM     86  C   UNL A   1      34.160  24.878  25.164  1.00  0.00     0.008 A 
ATOM     87  C   UNL A   1      34.200  23.757  23.042  1.00  0.00     0.046 A 
ATOM     88  C   UNL A   1      35.483  24.500  25.403  1.00  0.00     0.000 A 
ATOM     89  C   UNL A   1      35.531  23.384  23.278  1.00  0.00     0.021 A 
ATOM     90  Cl  UNL A   1      33.538  23.285  21.514  1.00  0.00    -0.084 Cl
ATOM     91  C   UNL A   1      36.167  23.741  24.464  1.00  0.00     0.002 A 
ENDBRANCH  75  85
ENDBRANCH  68  71
ENDBRANCH  66  67
ENDBRANCH  65  66
ENDBRANCH  64  65
ENDBRANCH   1  64
TORSDOF 16
ENDMDL
