MODEL 1
REMARK VINA RESULT:     -11.3      0.000      0.000
REMARK SMILES C[C@H](CC(=O)NCCCCCCNC(=O)c1ccc(-c2c3nc(c(-c4c(F)cccc4F)c4ccc([nH]4)c(-c4c(F)cccc4F)c4nc(c(-c5c(F)cccc5F)c5ccc2[nH]5)C=C4)C=C3)cc1)NC(=O)Cn1nc2ccccn2c1=O
REMARK SMILES IDX 8 1 7 2 6 3 4 4 5 5 3 7 2 8 1 9 70 10 71 11 72 13 73 14
REMARK SMILES IDX 74 15 75 16 82 17 76 18 81 19 83 20 77 21 80 22 78 23 79 24
REMARK SMILES IDX 9 25 10 26 11 27 12 28 13 29 14 30 15 32 16 33 17 34 69 35
REMARK SMILES IDX 18 36 68 37 19 38 20 39 21 40 62 41 22 42 67 43 61 44 63 45
REMARK SMILES IDX 23 46 66 47 60 48 59 49 24 51 50 52 33 53 49 54 34 55 37 56
REMARK SMILES IDX 48 57 64 58 35 59 36 60 47 62 65 63 38 64 25 65 26 66 31 67
REMARK SMILES IDX 27 68 28 69 30 70 32 71 29 72 51 73 52 74 57 75 53 76 54 77
REMARK SMILES IDX 56 78 58 79 55 80 39 81 40 82 45 83 41 84 42 85 44 86 46 87
REMARK SMILES IDX 43 88
REMARK H PARENT 6 6 70 12 13 31 63 50 37 61
REMARK Flexibility Score: inf
ROOT
ATOM      1  C   UNL A   1      36.118  23.232  25.208  1.00  0.00     0.021 C 
ENDROOT
BRANCH   1   2
ATOM      2  C   UNL A   1      34.840  23.815  25.816  1.00  0.00     0.116 C 
BRANCH   2   3
ATOM      3  N   UNL A   1      34.353  22.995  26.908  1.00  0.00    -0.356 N 
ATOM      4  C   UNL A   1      33.117  22.933  27.473  1.00  0.00     0.222 C 
ATOM      5  O   UNL A   1      32.958  22.199  28.450  1.00  0.00    -0.275 OA
ATOM      6  H   UNL A   1      35.021  22.389  27.302  1.00  0.00     0.163 HD
BRANCH   4   7
ATOM      7  C   UNL A   1      31.963  23.733  26.907  1.00  0.00     0.124 C 
BRANCH   7   8
ATOM      8  C   UNL A   1      30.757  22.938  26.379  1.00  0.00     0.088 C 
ATOM      9  C   UNL A   1      29.572  22.827  27.336  1.00  0.00     0.031 C 
BRANCH   8  10
ATOM     10  N   UNL A   1      30.316  23.448  25.079  1.00  0.00    -0.352 N 
ATOM     11  C   UNL A   1      30.968  23.562  23.886  1.00  0.00     0.242 C 
ATOM     12  H   UNL A   1      29.384  23.765  25.063  1.00  0.00     0.163 HD
ATOM     13  O   UNL A   1      30.292  23.979  22.936  1.00  0.00    -0.273 OA
BRANCH  11  14
ATOM     14  C   UNL A   1      32.374  23.005  23.636  1.00  0.00     0.249 C 
BRANCH  14  15
ATOM     15  N   UNL A   1      32.515  21.575  23.700  1.00  0.00    -0.203 N 
ATOM     16  N   UNL A   1      32.834  20.911  24.870  1.00  0.00    -0.149 NA
ATOM     17  C   UNL A   1      32.173  20.661  22.694  1.00  0.00     0.350 A 
ATOM     18  C   UNL A   1      32.788  19.662  24.524  1.00  0.00     0.161 A 
ATOM     19  N   UNL A   1      32.444  19.431  23.234  1.00  0.00    -0.250 N 
ATOM     20  O   UNL A   1      31.786  20.917  21.561  1.00  0.00    -0.246 OA
ATOM     21  C   UNL A   1      33.110  18.493  25.367  1.00  0.00     0.050 A 
ATOM     22  C   UNL A   1      32.481  18.205  22.632  1.00  0.00     0.098 A 
ATOM     23  C   UNL A   1      33.403  17.362  24.698  1.00  0.00     0.005 A 
ATOM     24  C   UNL A   1      32.979  17.171  23.323  1.00  0.00     0.019 A 
ENDBRANCH  14  15
ENDBRANCH  11  14
ENDBRANCH   8  10
ENDBRANCH   7   8
ENDBRANCH   4   7
ENDBRANCH   2   3
ENDBRANCH   1   2
BRANCH   1  25
ATOM     25  C   UNL A   1      36.509  21.856  25.762  1.00  0.00     0.002 C 
BRANCH  25  26
ATOM     26  C   UNL A   1      36.557  20.738  24.718  1.00  0.00     0.002 C 
BRANCH  26  27
ATOM     27  C   UNL A   1      37.682  19.720  24.921  1.00  0.00     0.021 C 
BRANCH  27  28
ATOM     28  C   UNL A   1      38.836  20.213  25.791  1.00  0.00     0.116 C 
BRANCH  28  29
ATOM     29  N   UNL A   1      39.923  19.249  25.847  1.00  0.00    -0.352 N 
ATOM     30  C   UNL A   1      41.261  19.452  26.062  1.00  0.00     0.251 C 
ATOM     31  H   UNL A   1      39.657  18.310  25.711  1.00  0.00     0.163 HD
ATOM     32  O   UNL A   1      42.059  18.543  25.850  1.00  0.00    -0.269 OA
BRANCH  30  33
ATOM     33  C   UNL A   1      41.752  20.765  26.532  1.00  0.00     0.039 A 
ATOM     34  C   UNL A   1      42.115  21.723  25.582  1.00  0.00     0.014 A 
ATOM     35  C   UNL A   1      41.885  21.048  27.895  1.00  0.00     0.014 A 
ATOM     36  C   UNL A   1      42.561  22.977  25.999  1.00  0.00     0.010 A 
ATOM     37  C   UNL A   1      42.259  22.324  28.309  1.00  0.00     0.010 A 
ATOM     38  C   UNL A   1      42.607  23.301  27.366  1.00  0.00    -0.014 A 
BRANCH  38  39
ATOM     39  C   UNL A   1      42.992  24.668  27.801  1.00  0.00     0.031 A 
ATOM     40  C   UNL A   1      44.434  25.092  27.835  1.00  0.00     0.074 A 
ATOM     41  C   UNL A   1      42.029  25.526  28.193  1.00  0.00     0.049 A 
ATOM     42  N   UNL A   1      44.944  26.256  28.148  1.00  0.00    -0.248 NA
ATOM     43  C   UNL A   1      45.436  24.071  27.494  1.00  0.00     0.031 C 
ATOM     44  C   UNL A   1      40.601  25.213  28.270  1.00  0.00     0.029 A 
ATOM     45  N   UNL A   1      42.105  26.836  28.597  1.00  0.00    -0.354 N 
ATOM     46  C   UNL A   1      46.321  26.108  28.048  1.00  0.00     0.074 A 
ATOM     47  C   UNL A   1      46.570  24.727  27.700  1.00  0.00     0.031 C 
ATOM     48  C   UNL A   1      39.931  26.310  28.657  1.00  0.00     0.029 A 
ATOM     49  C   UNL A   1      40.883  27.392  28.888  1.00  0.00     0.049 A 
ATOM     50  H   UNL A   1      42.953  27.328  28.670  1.00  0.00     0.167 HD
ATOM     51  C   UNL A   1      47.288  27.044  28.207  1.00  0.00     0.037 A 
ATOM     52  C   UNL A   1      40.563  28.635  29.292  1.00  0.00     0.037 A 
ATOM     53  C   UNL A   1      47.035  28.421  28.544  1.00  0.00     0.049 A 
ATOM     54  C   UNL A   1      41.653  29.656  29.454  1.00  0.00     0.074 A 
ATOM     55  C   UNL A   1      47.942  29.462  28.660  1.00  0.00     0.029 A 
ATOM     56  N   UNL A   1      45.784  28.950  28.828  1.00  0.00    -0.354 N 
ATOM     57  N   UNL A   1      42.944  29.526  29.264  1.00  0.00    -0.248 NA
ATOM     58  C   UNL A   1      41.242  31.001  29.878  1.00  0.00     0.031 C 
ATOM     59  C   UNL A   1      47.246  30.605  29.068  1.00  0.00     0.029 A 
ATOM     60  C   UNL A   1      45.899  30.293  29.150  1.00  0.00     0.049 A 
ATOM     61  H   UNL A   1      44.940  28.444  28.804  1.00  0.00     0.167 HD
ATOM     62  C   UNL A   1      43.496  30.772  29.526  1.00  0.00     0.074 A 
ATOM     63  C   UNL A   1      42.395  31.653  29.861  1.00  0.00     0.031 C 
ATOM     64  C   UNL A   1      44.796  31.155  29.495  1.00  0.00     0.037 A 
BRANCH  51  65
ATOM     65  C   UNL A   1      48.715  26.607  28.020  1.00  0.00     0.057 A 
ATOM     66  C   UNL A   1      49.496  26.151  29.091  1.00  0.00     0.134 A 
ATOM     67  C   UNL A   1      49.301  26.604  26.748  1.00  0.00     0.134 A 
ATOM     68  F   UNL A   1      49.001  26.136  30.337  1.00  0.00    -0.206 F 
ATOM     69  C   UNL A   1      50.817  25.736  28.907  1.00  0.00     0.040 A 
ATOM     70  C   UNL A   1      50.611  26.163  26.548  1.00  0.00     0.040 A 
ATOM     71  F   UNL A   1      48.609  27.019  25.677  1.00  0.00    -0.206 F 
ATOM     72  C   UNL A   1      51.375  25.734  27.631  1.00  0.00     0.006 A 
ENDBRANCH  51  65
BRANCH  52  73
ATOM     73  C   UNL A   1      39.143  28.989  29.545  1.00  0.00     0.057 A 
ATOM     74  C   UNL A   1      38.335  29.515  28.530  1.00  0.00     0.134 A 
ATOM     75  C   UNL A   1      38.562  28.813  30.806  1.00  0.00     0.134 A 
ATOM     76  F   UNL A   1      38.840  29.723  27.306  1.00  0.00    -0.206 F 
ATOM     77  C   UNL A   1      37.006  29.871  28.765  1.00  0.00     0.040 A 
ATOM     78  C   UNL A   1      37.226  29.139  31.048  1.00  0.00     0.040 A 
ATOM     79  F   UNL A   1      39.281  28.306  31.819  1.00  0.00    -0.206 F 
ATOM     80  C   UNL A   1      36.447  29.676  30.026  1.00  0.00     0.006 A 
ENDBRANCH  52  73
BRANCH  64  81
ATOM     81  C   UNL A   1      45.092  32.591  29.821  1.00  0.00     0.057 A 
ATOM     82  C   UNL A   1      45.384  33.009  31.126  1.00  0.00     0.134 A 
ATOM     83  C   UNL A   1      45.093  33.567  28.815  1.00  0.00     0.134 A 
ATOM     84  F   UNL A   1      45.387  32.128  32.138  1.00  0.00    -0.206 F 
ATOM     85  C   UNL A   1      45.631  34.350  31.425  1.00  0.00     0.040 A 
ATOM     86  C   UNL A   1      45.369  34.906  29.098  1.00  0.00     0.040 A 
ATOM     87  F   UNL A   1      44.830  33.235  27.543  1.00  0.00    -0.206 F 
ATOM     88  C   UNL A   1      45.630  35.302  30.408  1.00  0.00     0.006 A 
ENDBRANCH  64  81
ENDBRANCH  38  39
ENDBRANCH  30  33
ENDBRANCH  28  29
ENDBRANCH  27  28
ENDBRANCH  26  27
ENDBRANCH  25  26
ENDBRANCH   1  25
TORSDOF 17
ENDMDL
MODEL 2
REMARK VINA RESULT:     -11.2      2.405      3.970
REMARK SMILES C[C@H](CC(=O)NCCCCCCNC(=O)c1ccc(-c2c3nc(c(-c4c(F)cccc4F)c4ccc([nH]4)c(-c4c(F)cccc4F)c4nc(c(-c5c(F)cccc5F)c5ccc2[nH]5)C=C4)C=C3)cc1)NC(=O)Cn1nc2ccccn2c1=O
REMARK SMILES IDX 8 1 7 2 6 3 4 4 5 5 3 7 2 8 1 9 70 10 71 11 72 13 73 14
REMARK SMILES IDX 74 15 75 16 82 17 76 18 81 19 83 20 77 21 80 22 78 23 79 24
REMARK SMILES IDX 9 25 10 26 11 27 12 28 13 29 14 30 15 32 16 33 17 34 69 35
REMARK SMILES IDX 18 36 68 37 19 38 20 39 21 40 62 41 22 42 67 43 61 44 63 45
REMARK SMILES IDX 23 46 66 47 60 48 59 49 24 51 50 52 33 53 49 54 34 55 37 56
REMARK SMILES IDX 48 57 64 58 35 59 36 60 47 62 65 63 38 64 25 65 26 66 31 67
REMARK SMILES IDX 27 68 28 69 30 70 32 71 29 72 51 73 52 74 57 75 53 76 54 77
REMARK SMILES IDX 56 78 58 79 55 80 39 81 40 82 45 83 41 84 42 85 44 86 46 87
REMARK SMILES IDX 43 88
REMARK H PARENT 6 6 70 12 13 31 63 50 37 61
REMARK Flexibility Score: inf
ROOT
ATOM      1  C   UNL A   1      34.348  24.622  23.320  1.00  0.00     0.021 C 
ENDROOT
BRANCH   1   2
ATOM      2  C   UNL A   1      33.338  25.224  22.339  1.00  0.00     0.116 C 
BRANCH   2   3
ATOM      3  N   UNL A   1      32.050  24.568  22.438  1.00  0.00    -0.356 N 
ATOM      4  C   UNL A   1      30.964  24.881  23.195  1.00  0.00     0.222 C 
ATOM      5  O   UNL A   1      29.992  24.124  23.163  1.00  0.00    -0.275 OA
ATOM      6  H   UNL A   1      31.945  23.772  21.869  1.00  0.00     0.163 HD
BRANCH   4   7
ATOM      7  C   UNL A   1      30.942  26.135  24.042  1.00  0.00     0.124 C 
BRANCH   7   8
ATOM      8  C   UNL A   1      31.358  25.988  25.516  1.00  0.00     0.088 C 
ATOM      9  C   UNL A   1      31.448  27.292  26.306  1.00  0.00     0.031 C 
BRANCH   8  10
ATOM     10  N   UNL A   1      30.503  25.026  26.213  1.00  0.00    -0.352 N 
ATOM     11  C   UNL A   1      30.779  23.813  26.774  1.00  0.00     0.242 C 
ATOM     12  H   UNL A   1      29.561  25.304  26.292  1.00  0.00     0.163 HD
ATOM     13  O   UNL A   1      29.839  23.259  27.359  1.00  0.00    -0.273 OA
BRANCH  11  14
ATOM     14  C   UNL A   1      32.196  23.243  26.896  1.00  0.00     0.249 C 
BRANCH  14  15
ATOM     15  N   UNL A   1      32.493  22.091  26.089  1.00  0.00    -0.203 N 
ATOM     16  N   UNL A   1      31.845  21.832  24.895  1.00  0.00    -0.149 NA
ATOM     17  C   UNL A   1      33.566  21.207  26.266  1.00  0.00     0.350 A 
ATOM     18  C   UNL A   1      32.446  20.771  24.455  1.00  0.00     0.161 A 
ATOM     19  N   UNL A   1      33.454  20.311  25.234  1.00  0.00    -0.250 N 
ATOM     20  O   UNL A   1      34.376  21.201  27.184  1.00  0.00    -0.246 OA
ATOM     21  C   UNL A   1      32.119  20.004  23.236  1.00  0.00     0.050 A 
ATOM     22  C   UNL A   1      34.113  19.132  25.030  1.00  0.00     0.098 A 
ATOM     23  C   UNL A   1      32.578  18.739  23.209  1.00  0.00     0.005 A 
ATOM     24  C   UNL A   1      33.681  18.322  24.055  1.00  0.00     0.019 A 
ENDBRANCH  14  15
ENDBRANCH  11  14
ENDBRANCH   8  10
ENDBRANCH   7   8
ENDBRANCH   4   7
ENDBRANCH   2   3
ENDBRANCH   1   2
BRANCH   1  25
ATOM     25  C   UNL A   1      34.638  23.134  23.092  1.00  0.00     0.002 C 
BRANCH  25  26
ATOM     26  C   UNL A   1      36.017  22.671  23.571  1.00  0.00     0.002 C 
BRANCH  26  27
ATOM     27  C   UNL A   1      36.752  23.672  24.467  1.00  0.00     0.021 C 
BRANCH  27  28
ATOM     28  C   UNL A   1      36.877  23.246  25.927  1.00  0.00     0.116 C 
BRANCH  28  29
ATOM     29  N   UNL A   1      38.011  22.361  26.139  1.00  0.00    -0.352 N 
ATOM     30  C   UNL A   1      39.308  22.664  26.463  1.00  0.00     0.251 C 
ATOM     31  H   UNL A   1      37.818  21.401  26.033  1.00  0.00     0.163 HD
ATOM     32  O   UNL A   1      40.177  21.801  26.378  1.00  0.00    -0.269 OA
BRANCH  30  33
ATOM     33  C   UNL A   1      39.669  24.029  26.901  1.00  0.00     0.039 A 
ATOM     34  C   UNL A   1      39.534  24.356  28.253  1.00  0.00     0.014 A 
ATOM     35  C   UNL A   1      40.109  24.994  25.990  1.00  0.00     0.014 A 
ATOM     36  C   UNL A   1      39.887  25.630  28.696  1.00  0.00     0.010 A 
ATOM     37  C   UNL A   1      40.532  26.242  26.445  1.00  0.00     0.010 A 
ATOM     38  C   UNL A   1      40.421  26.575  27.802  1.00  0.00    -0.014 A 
BRANCH  38  39
ATOM     39  C   UNL A   1      40.884  27.898  28.296  1.00  0.00     0.031 A 
ATOM     40  C   UNL A   1      42.343  28.257  28.292  1.00  0.00     0.074 A 
ATOM     41  C   UNL A   1      39.976  28.771  28.777  1.00  0.00     0.049 A 
ATOM     42  N   UNL A   1      42.916  29.379  28.649  1.00  0.00    -0.248 NA
ATOM     43  C   UNL A   1      43.284  27.217  27.852  1.00  0.00     0.031 C 
ATOM     44  C   UNL A   1      38.540  28.514  28.897  1.00  0.00     0.029 A 
ATOM     45  N   UNL A   1      40.126  30.050  29.250  1.00  0.00    -0.354 N 
ATOM     46  C   UNL A   1      44.280  29.180  28.482  1.00  0.00     0.074 A 
ATOM     47  C   UNL A   1      44.454  27.811  28.045  1.00  0.00     0.031 C 
ATOM     48  C   UNL A   1      37.936  29.614  29.374  1.00  0.00     0.029 A 
ATOM     49  C   UNL A   1      38.943  30.639  29.625  1.00  0.00     0.049 A 
ATOM     50  H   UNL A   1      40.998  30.502  29.315  1.00  0.00     0.167 HD
ATOM     51  C   UNL A   1      45.294  30.063  28.652  1.00  0.00     0.037 A 
ATOM     52  C   UNL A   1      38.696  31.869  30.112  1.00  0.00     0.037 A 
ATOM     53  C   UNL A   1      45.116  31.427  29.076  1.00  0.00     0.049 A 
ATOM     54  C   UNL A   1      39.835  32.832  30.285  1.00  0.00     0.074 A 
ATOM     55  C   UNL A   1      46.072  32.420  29.212  1.00  0.00     0.029 A 
ATOM     56  N   UNL A   1      43.902  31.991  29.443  1.00  0.00    -0.354 N 
ATOM     57  N   UNL A   1      41.110  32.659  30.032  1.00  0.00    -0.248 NA
ATOM     58  C   UNL A   1      39.502  34.166  30.801  1.00  0.00     0.031 C 
ATOM     59  C   UNL A   1      45.445  33.566  29.713  1.00  0.00     0.029 A 
ATOM     60  C   UNL A   1      44.089  33.307  29.836  1.00  0.00     0.049 A 
ATOM     61  H   UNL A   1      43.036  31.523  29.427  1.00  0.00     0.167 HD
ATOM     62  C   UNL A   1      41.727  33.864  30.340  1.00  0.00     0.074 A 
ATOM     63  C   UNL A   1      40.681  34.769  30.771  1.00  0.00     0.031 C 
ATOM     64  C   UNL A   1      43.041  34.193  30.276  1.00  0.00     0.037 A 
BRANCH  51  65
ATOM     65  C   UNL A   1      46.691  29.577  28.379  1.00  0.00     0.057 A 
ATOM     66  C   UNL A   1      47.269  29.663  27.106  1.00  0.00     0.134 A 
ATOM     67  C   UNL A   1      47.481  29.055  29.411  1.00  0.00     0.134 A 
ATOM     68  F   UNL A   1      46.566  30.144  26.070  1.00  0.00    -0.206 F 
ATOM     69  C   UNL A   1      48.571  29.220  26.863  1.00  0.00     0.040 A 
ATOM     70  C   UNL A   1      48.793  28.636  29.186  1.00  0.00     0.040 A 
ATOM     71  F   UNL A   1      46.995  28.951  30.657  1.00  0.00    -0.206 F 
ATOM     72  C   UNL A   1      49.340  28.712  27.908  1.00  0.00     0.006 A 
ENDBRANCH  51  65
BRANCH  52  73
ATOM     73  C   UNL A   1      37.304  32.267  30.445  1.00  0.00     0.057 A 
ATOM     74  C   UNL A   1      36.760  32.015  31.711  1.00  0.00     0.134 A 
ATOM     75  C   UNL A   1      36.485  32.907  29.508  1.00  0.00     0.134 A 
ATOM     76  F   UNL A   1      37.491  31.390  32.645  1.00  0.00    -0.206 F 
ATOM     77  C   UNL A   1      35.447  32.366  32.026  1.00  0.00     0.040 A 
ATOM     78  C   UNL A   1      35.178  33.289  29.817  1.00  0.00     0.040 A 
ATOM     79  F   UNL A   1      36.949  33.184  28.280  1.00  0.00    -0.206 F 
ATOM     80  C   UNL A   1      34.654  33.011  31.078  1.00  0.00     0.006 A 
ENDBRANCH  52  73
BRANCH  64  81
ATOM     81  C   UNL A   1      43.413  35.594  30.669  1.00  0.00     0.057 A 
ATOM     82  C   UNL A   1      43.724  35.933  31.992  1.00  0.00     0.134 A 
ATOM     83  C   UNL A   1      43.468  36.615  29.711  1.00  0.00     0.134 A 
ATOM     84  F   UNL A   1      43.678  35.006  32.961  1.00  0.00    -0.206 F 
ATOM     85  C   UNL A   1      44.043  37.243  32.354  1.00  0.00     0.040 A 
ATOM     86  C   UNL A   1      43.816  37.922  30.056  1.00  0.00     0.040 A 
ATOM     87  F   UNL A   1      43.191  36.358  28.424  1.00  0.00    -0.206 F 
ATOM     88  C   UNL A   1      44.095  38.241  31.384  1.00  0.00     0.006 A 
ENDBRANCH  64  81
ENDBRANCH  38  39
ENDBRANCH  30  33
ENDBRANCH  28  29
ENDBRANCH  27  28
ENDBRANCH  26  27
ENDBRANCH  25  26
ENDBRANCH   1  25
TORSDOF 17
ENDMDL
MODEL 3
REMARK VINA RESULT:     -11.2      6.358     10.775
REMARK SMILES C[C@H](CC(=O)NCCCCCCNC(=O)c1ccc(-c2c3nc(c(-c4c(F)cccc4F)c4ccc([nH]4)c(-c4c(F)cccc4F)c4nc(c(-c5c(F)cccc5F)c5ccc2[nH]5)C=C4)C=C3)cc1)NC(=O)Cn1nc2ccccn2c1=O
REMARK SMILES IDX 8 1 7 2 6 3 4 4 5 5 3 7 2 8 1 9 70 10 71 11 72 13 73 14
REMARK SMILES IDX 74 15 75 16 82 17 76 18 81 19 83 20 77 21 80 22 78 23 79 24
REMARK SMILES IDX 9 25 10 26 11 27 12 28 13 29 14 30 15 32 16 33 17 34 69 35
REMARK SMILES IDX 18 36 68 37 19 38 20 39 21 40 62 41 22 42 67 43 61 44 63 45
REMARK SMILES IDX 23 46 66 47 60 48 59 49 24 51 50 52 33 53 49 54 34 55 37 56
REMARK SMILES IDX 48 57 64 58 35 59 36 60 47 62 65 63 38 64 25 65 26 66 31 67
REMARK SMILES IDX 27 68 28 69 30 70 32 71 29 72 51 73 52 74 57 75 53 76 54 77
REMARK SMILES IDX 56 78 58 79 55 80 39 81 40 82 45 83 41 84 42 85 44 86 46 87
REMARK SMILES IDX 43 88
REMARK H PARENT 6 6 70 12 13 31 63 50 37 61
REMARK Flexibility Score: inf
ROOT
ATOM      1  C   UNL A   1      33.383  31.933  27.705  1.00  0.00     0.021 C 
ENDROOT
BRANCH   1   2
ATOM      2  C   UNL A   1      33.561  30.504  27.186  1.00  0.00     0.116 C 
BRANCH   2   3
ATOM      3  N   UNL A   1      32.463  29.652  27.597  1.00  0.00    -0.356 N 
ATOM      4  C   UNL A   1      32.250  28.328  27.370  1.00  0.00     0.222 C 
ATOM      5  O   UNL A   1      31.194  27.830  27.766  1.00  0.00    -0.275 OA
ATOM      6  H   UNL A   1      31.763  30.101  28.123  1.00  0.00     0.163 HD
BRANCH   4   7
ATOM      7  C   UNL A   1      33.289  27.483  26.665  1.00  0.00     0.124 C 
BRANCH   7   8
ATOM      8  C   UNL A   1      32.973  27.048  25.223  1.00  0.00     0.088 C 
ATOM      9  C   UNL A   1      33.952  26.051  24.608  1.00  0.00     0.031 C 
BRANCH   8  10
ATOM     10  N   UNL A   1      31.600  26.552  25.110  1.00  0.00    -0.352 N 
ATOM     11  C   UNL A   1      30.637  26.768  24.168  1.00  0.00     0.242 C 
ATOM     12  H   UNL A   1      31.322  25.957  25.844  1.00  0.00     0.163 HD
ATOM     13  O   UNL A   1      29.579  26.143  24.320  1.00  0.00    -0.273 OA
BRANCH  11  14
ATOM     14  C   UNL A   1      30.886  27.542  22.869  1.00  0.00     0.249 C 
BRANCH  14  15
ATOM     15  N   UNL A   1      30.234  28.818  22.751  1.00  0.00    -0.203 N 
ATOM     16  N   UNL A   1      29.386  29.126  21.703  1.00  0.00    -0.149 NA
ATOM     17  C   UNL A   1      30.194  29.824  23.726  1.00  0.00     0.350 A 
ATOM     18  C   UNL A   1      28.960  30.312  22.005  1.00  0.00     0.161 A 
ATOM     19  N   UNL A   1      29.427  30.816  23.173  1.00  0.00    -0.250 N 
ATOM     20  O   UNL A   1      30.778  29.835  24.802  1.00  0.00    -0.246 OA
ATOM     21  C   UNL A   1      28.067  31.170  21.198  1.00  0.00     0.050 A 
ATOM     22  C   UNL A   1      29.220  32.097  23.600  1.00  0.00     0.098 A 
ATOM     23  C   UNL A   1      28.107  32.482  21.493  1.00  0.00     0.005 A 
ATOM     24  C   UNL A   1      28.597  32.950  22.777  1.00  0.00     0.019 A 
ENDBRANCH  14  15
ENDBRANCH  11  14
ENDBRANCH   8  10
ENDBRANCH   7   8
ENDBRANCH   4   7
ENDBRANCH   2   3
ENDBRANCH   1   2
BRANCH   1  25
ATOM     25  C   UNL A   1      34.573  32.461  28.516  1.00  0.00     0.002 C 
BRANCH  25  26
ATOM     26  C   UNL A   1      34.594  33.980  28.703  1.00  0.00     0.002 C 
BRANCH  26  27
ATOM     27  C   UNL A   1      33.224  34.612  28.963  1.00  0.00     0.021 C 
BRANCH  27  28
ATOM     28  C   UNL A   1      33.271  36.070  29.414  1.00  0.00     0.116 C 
BRANCH  28  29
ATOM     29  N   UNL A   1      32.492  36.289  30.622  1.00  0.00    -0.352 N 
ATOM     30  C   UNL A   1      32.629  35.726  31.865  1.00  0.00     0.251 C 
ATOM     31  H   UNL A   1      31.757  36.937  30.534  1.00  0.00     0.163 HD
ATOM     32  O   UNL A   1      31.739  35.864  32.699  1.00  0.00    -0.269 OA
BRANCH  30  33
ATOM     33  C   UNL A   1      33.836  34.943  32.202  1.00  0.00     0.039 A 
ATOM     34  C   UNL A   1      35.086  35.559  32.091  1.00  0.00     0.014 A 
ATOM     35  C   UNL A   1      33.750  33.604  32.595  1.00  0.00     0.014 A 
ATOM     36  C   UNL A   1      36.240  34.849  32.422  1.00  0.00     0.010 A 
ATOM     37  C   UNL A   1      34.896  32.920  32.996  1.00  0.00     0.010 A 
ATOM     38  C   UNL A   1      36.154  33.532  32.909  1.00  0.00    -0.014 A 
BRANCH  38  39
ATOM     39  C   UNL A   1      37.377  32.814  33.350  1.00  0.00     0.031 A 
ATOM     40  C   UNL A   1      38.021  31.775  32.476  1.00  0.00     0.074 A 
ATOM     41  C   UNL A   1      37.894  33.086  34.565  1.00  0.00     0.049 A 
ATOM     42  N   UNL A   1      39.112  31.082  32.687  1.00  0.00    -0.248 NA
ATOM     43  C   UNL A   1      37.343  31.455  31.211  1.00  0.00     0.031 C 
ATOM     44  C   UNL A   1      37.322  34.024  35.534  1.00  0.00     0.029 A 
ATOM     45  N   UNL A   1      39.016  32.605  35.190  1.00  0.00    -0.354 N 
ATOM     46  C   UNL A   1      39.249  30.244  31.588  1.00  0.00     0.074 A 
ATOM     47  C   UNL A   1      38.100  30.474  30.739  1.00  0.00     0.031 C 
ATOM     48  C   UNL A   1      38.117  34.077  36.614  1.00  0.00     0.029 A 
ATOM     49  C   UNL A   1      39.234  33.156  36.429  1.00  0.00     0.049 A 
ATOM     50  H   UNL A   1      39.609  31.929  34.789  1.00  0.00     0.167 HD
ATOM     51  C   UNL A   1      40.252  29.380  31.300  1.00  0.00     0.037 A 
ATOM     52  C   UNL A   1      40.224  32.947  37.317  1.00  0.00     0.037 A 
ATOM     53  C   UNL A   1      41.400  29.162  32.142  1.00  0.00     0.049 A 
ATOM     54  C   UNL A   1      41.328  31.990  36.971  1.00  0.00     0.074 A 
ATOM     55  C   UNL A   1      42.504  28.360  31.906  1.00  0.00     0.029 A 
ATOM     56  N   UNL A   1      41.589  29.741  33.389  1.00  0.00    -0.354 N 
ATOM     57  N   UNL A   1      41.493  31.274  35.884  1.00  0.00    -0.248 NA
ATOM     58  C   UNL A   1      42.392  31.818  37.970  1.00  0.00     0.031 C 
ATOM     59  C   UNL A   1      43.332  28.411  33.033  1.00  0.00     0.029 A 
ATOM     60  C   UNL A   1      42.774  29.290  33.947  1.00  0.00     0.049 A 
ATOM     61  H   UNL A   1      40.970  30.379  33.813  1.00  0.00     0.167 HD
ATOM     62  C   UNL A   1      42.684  30.583  36.060  1.00  0.00     0.074 A 
ATOM     63  C   UNL A   1      43.214  30.988  37.347  1.00  0.00     0.031 C 
ATOM     64  C   UNL A   1      43.284  29.690  35.234  1.00  0.00     0.037 A 
BRANCH  51  65
ATOM     65  C   UNL A   1      40.152  28.602  30.017  1.00  0.00     0.057 A 
ATOM     66  C   UNL A   1      39.401  27.423  29.923  1.00  0.00     0.134 A 
ATOM     67  C   UNL A   1      40.781  29.059  28.852  1.00  0.00     0.134 A 
ATOM     68  F   UNL A   1      38.779  26.924  31.002  1.00  0.00    -0.206 F 
ATOM     69  C   UNL A   1      39.303  26.712  28.725  1.00  0.00     0.040 A 
ATOM     70  C   UNL A   1      40.667  28.372  27.642  1.00  0.00     0.040 A 
ATOM     71  F   UNL A   1      41.510  30.185  28.867  1.00  0.00    -0.206 F 
ATOM     72  C   UNL A   1      39.932  27.191  27.578  1.00  0.00     0.006 A 
ENDBRANCH  51  65
BRANCH  52  73
ATOM     73  C   UNL A   1      40.228  33.681  38.608  1.00  0.00     0.057 A 
ATOM     74  C   UNL A   1      41.028  34.815  38.796  1.00  0.00     0.134 A 
ATOM     75  C   UNL A   1      39.435  33.266  39.685  1.00  0.00     0.134 A 
ATOM     76  F   UNL A   1      41.822  35.251  37.807  1.00  0.00    -0.206 F 
ATOM     77  C   UNL A   1      41.054  35.498  40.012  1.00  0.00     0.040 A 
ATOM     78  C   UNL A   1      39.430  33.955  40.899  1.00  0.00     0.040 A 
ATOM     79  F   UNL A   1      38.640  32.192  39.566  1.00  0.00    -0.206 F 
ATOM     80  C   UNL A   1      40.248  35.071  41.067  1.00  0.00     0.006 A 
ENDBRANCH  52  73
BRANCH  64  81
ATOM     81  C   UNL A   1      44.588  29.105  35.696  1.00  0.00     0.057 A 
ATOM     82  C   UNL A   1      44.645  27.922  36.444  1.00  0.00     0.134 A 
ATOM     83  C   UNL A   1      45.803  29.728  35.381  1.00  0.00     0.134 A 
ATOM     84  F   UNL A   1      43.517  27.282  36.791  1.00  0.00    -0.206 F 
ATOM     85  C   UNL A   1      45.859  27.398  36.892  1.00  0.00     0.040 A 
ATOM     86  C   UNL A   1      47.025  29.197  35.797  1.00  0.00     0.040 A 
ATOM     87  F   UNL A   1      45.823  30.859  34.660  1.00  0.00    -0.206 F 
ATOM     88  C   UNL A   1      47.054  28.034  36.564  1.00  0.00     0.006 A 
ENDBRANCH  64  81
ENDBRANCH  38  39
ENDBRANCH  30  33
ENDBRANCH  28  29
ENDBRANCH  27  28
ENDBRANCH  26  27
ENDBRANCH  25  26
ENDBRANCH   1  25
TORSDOF 17
ENDMDL
