MODEL 1
REMARK VINA RESULT:     -11.5      0.000      0.000
REMARK SMILES CCOC(=O)c1ccc(NC(=O)[C@H]2CC=CC[C@@]2(C)C(=O)NCCCCCCNC(=O)c2ccc(-c3c4nc(c(-c5c(F)cccc5F)c5ccc([nH]5)c(-c5c(F)cccc5F)c5nc(c(-c6c(F)cccc6F)c6ccc3[nH]6)C=C5)C=C4)cc2)cc1
REMARK SMILES IDX 24 1 23 2 22 3 20 4 21 5 18 7 13 8 14 9 15 10 17 11 19 12
REMARK SMILES IDX 16 13 11 14 10 15 12 17 9 18 6 19 7 20 87 21 8 22 86 23 4 24
REMARK SMILES IDX 5 25 3 26 2 27 1 28 25 29 26 30 27 31 28 32 29 33 30 34
REMARK SMILES IDX 31 36 32 37 33 38 85 39 34 40 84 41 35 42 36 43 37 44 78 45
REMARK SMILES IDX 38 46 83 47 77 48 79 49 39 50 82 51 76 52 75 53 40 55 66 56
REMARK SMILES IDX 49 57 65 58 50 59 53 60 64 61 80 62 51 63 52 64 63 66 81 67
REMARK SMILES IDX 54 68 41 69 42 70 47 71 43 72 44 73 46 74 48 75 45 76 67 77
REMARK SMILES IDX 68 78 73 79 69 80 70 81 72 82 74 83 71 84 55 85 56 86 61 87
REMARK SMILES IDX 57 88 58 89 60 90 62 91 59 92
REMARK H PARENT 22 6 10 16 29 35 79 54 53 65
REMARK Flexibility Score: inf
ROOT
ATOM      1  C   UNL A   1      36.916  23.725  26.092  1.00  0.00     0.021 C 
ENDROOT
BRANCH   1   2
ATOM      2  C   UNL A   1      35.525  23.566  25.495  1.00  0.00     0.116 C 
BRANCH   2   3
ATOM      3  N   UNL A   1      35.130  24.724  24.717  1.00  0.00    -0.356 N 
ATOM      4  C   UNL A   1      33.978  25.441  24.680  1.00  0.00     0.227 C 
ATOM      5  O   UNL A   1      33.998  26.449  23.968  1.00  0.00    -0.274 OA
ATOM      6  H   UNL A   1      35.826  25.050  24.102  1.00  0.00     0.163 HD
BRANCH   4   7
ATOM      7  C   UNL A   1      32.735  25.069  25.519  1.00  0.00     0.062 C 
ATOM      8  C   UNL A   1      31.606  24.493  24.584  1.00  0.00     0.098 C 
ATOM      9  C   UNL A   1      30.615  23.491  25.206  1.00  0.00     0.041 C 
ATOM     10  C   UNL A   1      30.961  22.964  26.564  1.00  0.00    -0.030 C 
ATOM     11  C   UNL A   1      33.200  24.076  26.637  1.00  0.00     0.044 C 
ATOM     12  C   UNL A   1      32.218  26.304  26.325  1.00  0.00     0.023 C 
ATOM     13  C   UNL A   1      32.108  23.219  27.204  1.00  0.00    -0.030 C 
BRANCH   8  14
ATOM     14  C   UNL A   1      31.919  24.212  23.092  1.00  0.00     0.228 C 
ATOM     15  N   UNL A   1      32.429  23.101  22.508  1.00  0.00    -0.326 N 
ATOM     16  H   UNL A   1      32.649  23.245  21.559  1.00  0.00     0.169 HD
ATOM     17  O   UNL A   1      31.595  25.085  22.265  1.00  0.00    -0.274 OA
BRANCH  15  18
ATOM     18  C   UNL A   1      32.717  21.801  22.929  1.00  0.00     0.041 A 
ATOM     19  C   UNL A   1      32.794  19.237  24.012  1.00  0.00     0.060 A 
ATOM     20  C   UNL A   1      33.580  20.243  24.561  1.00  0.00     0.018 A 
ATOM     21  C   UNL A   1      32.069  19.460  22.842  1.00  0.00     0.018 A 
ATOM     22  C   UNL A   1      33.547  21.509  23.991  1.00  0.00     0.027 A 
ATOM     23  C   UNL A   1      32.047  20.747  22.291  1.00  0.00     0.027 A 
BRANCH  19  24
ATOM     24  C   UNL A   1      32.598  18.024  24.801  1.00  0.00     0.338 C 
ATOM     25  O   UNL A   1      32.302  18.059  25.989  1.00  0.00    -0.246 OA
BRANCH  24  26
ATOM     26  O   UNL A   1      32.889  16.940  24.053  1.00  0.00    -0.462 OA
BRANCH  26  27
ATOM     27  C   UNL A   1      33.528  15.885  24.785  1.00  0.00     0.230 C 
ATOM     28  C   UNL A   1      34.997  16.212  24.996  1.00  0.00     0.049 C 
ENDBRANCH  26  27
ENDBRANCH  24  26
ENDBRANCH  19  24
ENDBRANCH  15  18
ENDBRANCH   8  14
ENDBRANCH   4   7
ENDBRANCH   2   3
ENDBRANCH   1   2
BRANCH   1  29
ATOM     29  C   UNL A   1      37.932  22.693  25.590  1.00  0.00     0.002 C 
BRANCH  29  30
ATOM     30  C   UNL A   1      37.397  21.648  24.602  1.00  0.00     0.002 C 
BRANCH  30  31
ATOM     31  C   UNL A   1      38.054  20.265  24.666  1.00  0.00     0.021 C 
BRANCH  31  32
ATOM     32  C   UNL A   1      38.740  19.927  25.983  1.00  0.00     0.116 C 
BRANCH  32  33
ATOM     33  N   UNL A   1      39.954  19.156  25.805  1.00  0.00    -0.352 N 
ATOM     34  C   UNL A   1      41.259  19.540  25.979  1.00  0.00     0.251 C 
ATOM     35  H   UNL A   1      39.824  18.223  25.518  1.00  0.00     0.163 HD
ATOM     36  O   UNL A   1      42.169  18.777  25.670  1.00  0.00    -0.269 OA
BRANCH  34  37
ATOM     37  C   UNL A   1      41.576  20.883  26.511  1.00  0.00     0.039 A 
ATOM     38  C   UNL A   1      41.487  21.086  27.891  1.00  0.00     0.014 A 
ATOM     39  C   UNL A   1      41.923  21.944  25.669  1.00  0.00     0.014 A 
ATOM     40  C   UNL A   1      41.777  22.340  28.429  1.00  0.00     0.010 A 
ATOM     41  C   UNL A   1      42.275  23.178  26.212  1.00  0.00     0.010 A 
ATOM     42  C   UNL A   1      42.188  23.393  27.596  1.00  0.00    -0.014 A 
BRANCH  42  43
ATOM     43  C   UNL A   1      42.493  24.729  28.163  1.00  0.00     0.031 A 
ATOM     44  C   UNL A   1      43.898  25.071  28.574  1.00  0.00     0.074 A 
ATOM     45  C   UNL A   1      41.502  25.624  28.334  1.00  0.00     0.049 A 
ATOM     46  N   UNL A   1      44.362  26.182  29.088  1.00  0.00    -0.248 NA
ATOM     47  C   UNL A   1      44.912  24.017  28.410  1.00  0.00     0.031 C 
ATOM     48  C   UNL A   1      40.090  25.392  28.024  1.00  0.00     0.029 A 
ATOM     49  N   UNL A   1      41.532  26.910  28.809  1.00  0.00    -0.354 N 
ATOM     50  C   UNL A   1      45.713  25.957  29.319  1.00  0.00     0.074 A 
ATOM     51  C   UNL A   1      45.985  24.588  28.939  1.00  0.00     0.031 C 
ATOM     52  C   UNL A   1      39.394  26.509  28.291  1.00  0.00     0.029 A 
ATOM     53  C   UNL A   1      40.304  27.525  28.810  1.00  0.00     0.049 A 
ATOM     54  H   UNL A   1      42.356  27.350  29.120  1.00  0.00     0.167 HD
ATOM     55  C   UNL A   1      46.649  26.820  29.781  1.00  0.00     0.037 A 
ATOM     56  C   UNL A   1      39.957  28.772  29.178  1.00  0.00     0.037 A 
ATOM     57  C   UNL A   1      46.385  28.191  30.129  1.00  0.00     0.049 A 
ATOM     58  C   UNL A   1      41.020  29.721  29.657  1.00  0.00     0.074 A 
ATOM     59  C   UNL A   1      47.276  29.162  30.554  1.00  0.00     0.029 A 
ATOM     60  N   UNL A   1      45.133  28.787  30.086  1.00  0.00    -0.354 N 
ATOM     61  N   UNL A   1      42.305  29.515  29.806  1.00  0.00    -0.248 NA
ATOM     62  C   UNL A   1      40.583  31.081  30.005  1.00  0.00     0.031 C 
ATOM     63  C   UNL A   1      46.557  30.338  30.797  1.00  0.00     0.029 A 
ATOM     64  C   UNL A   1      45.226  30.110  30.487  1.00  0.00     0.049 A 
ATOM     65  H   UNL A   1      44.302  28.336  29.811  1.00  0.00     0.167 HD
ATOM     66  C   UNL A   1      42.836  30.723  30.238  1.00  0.00     0.074 A 
ATOM     67  C   UNL A   1      41.734  31.661  30.312  1.00  0.00     0.031 C 
ATOM     68  C   UNL A   1      44.120  31.030  30.546  1.00  0.00     0.037 A 
BRANCH  55  69
ATOM     69  C   UNL A   1      48.049  26.301  29.928  1.00  0.00     0.057 A 
ATOM     70  C   UNL A   1      48.960  26.329  28.864  1.00  0.00     0.134 A 
ATOM     71  C   UNL A   1      48.500  25.789  31.151  1.00  0.00     0.134 A 
ATOM     72  F   UNL A   1      48.588  26.793  27.662  1.00  0.00    -0.206 F 
ATOM     73  C   UNL A   1      50.260  25.840  29.003  1.00  0.00     0.040 A 
ATOM     74  C   UNL A   1      49.806  25.321  31.310  1.00  0.00     0.040 A 
ATOM     75  F   UNL A   1      47.681  25.739  32.212  1.00  0.00    -0.206 F 
ATOM     76  C   UNL A   1      50.688  25.339  30.231  1.00  0.00     0.006 A 
ENDBRANCH  55  69
BRANCH  56  77
ATOM     77  C   UNL A   1      38.544  29.211  29.066  1.00  0.00     0.057 A 
ATOM     78  C   UNL A   1      37.687  29.166  30.170  1.00  0.00     0.134 A 
ATOM     79  C   UNL A   1      38.018  29.678  27.857  1.00  0.00     0.134 A 
ATOM     80  F   UNL A   1      38.130  28.711  31.351  1.00  0.00    -0.206 F 
ATOM     81  C   UNL A   1      36.348  29.551  30.072  1.00  0.00     0.040 A 
ATOM     82  C   UNL A   1      36.689  30.089  27.749  1.00  0.00     0.040 A 
ATOM     83  F   UNL A   1      38.792  29.752  26.763  1.00  0.00    -0.206 F 
ATOM     84  C   UNL A   1      35.848  30.019  28.859  1.00  0.00     0.006 A 
ENDBRANCH  56  77
BRANCH  68  85
ATOM     85  C   UNL A   1      44.402  32.443  30.959  1.00  0.00     0.057 A 
ATOM     86  C   UNL A   1      44.714  33.438  30.024  1.00  0.00     0.134 A 
ATOM     87  C   UNL A   1      44.341  32.816  32.308  1.00  0.00     0.134 A 
ATOM     88  F   UNL A   1      44.801  33.141  28.719  1.00  0.00    -0.206 F 
ATOM     89  C   UNL A   1      44.981  34.750  30.420  1.00  0.00     0.040 A 
ATOM     90  C   UNL A   1      44.581  34.130  32.713  1.00  0.00     0.040 A 
ATOM     91  F   UNL A   1      44.040  31.912  33.253  1.00  0.00    -0.206 F 
ATOM     92  C   UNL A   1      44.909  35.099  31.767  1.00  0.00     0.006 A 
ENDBRANCH  68  85
ENDBRANCH  42  43
ENDBRANCH  34  37
ENDBRANCH  32  33
ENDBRANCH  31  32
ENDBRANCH  30  31
ENDBRANCH  29  30
ENDBRANCH   1  29
TORSDOF 18
ENDMDL
MODEL 2
REMARK VINA RESULT:     -11.5      4.486      9.627
REMARK SMILES CCOC(=O)c1ccc(NC(=O)[C@H]2CC=CC[C@@]2(C)C(=O)NCCCCCCNC(=O)c2ccc(-c3c4nc(c(-c5c(F)cccc5F)c5ccc([nH]5)c(-c5c(F)cccc5F)c5nc(c(-c6c(F)cccc6F)c6ccc3[nH]6)C=C5)C=C4)cc2)cc1
REMARK SMILES IDX 24 1 23 2 22 3 20 4 21 5 18 7 13 8 14 9 15 10 17 11 19 12
REMARK SMILES IDX 16 13 11 14 10 15 12 17 9 18 6 19 7 20 87 21 8 22 86 23 4 24
REMARK SMILES IDX 5 25 3 26 2 27 1 28 25 29 26 30 27 31 28 32 29 33 30 34
REMARK SMILES IDX 31 36 32 37 33 38 85 39 34 40 84 41 35 42 36 43 37 44 78 45
REMARK SMILES IDX 38 46 83 47 77 48 79 49 39 50 82 51 76 52 75 53 40 55 66 56
REMARK SMILES IDX 49 57 65 58 50 59 53 60 64 61 80 62 51 63 52 64 63 66 81 67
REMARK SMILES IDX 54 68 41 69 42 70 47 71 43 72 44 73 46 74 48 75 45 76 67 77
REMARK SMILES IDX 68 78 73 79 69 80 70 81 72 82 74 83 71 84 55 85 56 86 61 87
REMARK SMILES IDX 57 88 58 89 60 90 62 91 59 92
REMARK H PARENT 22 6 10 16 29 35 79 54 53 65
REMARK Flexibility Score: inf
ROOT
ATOM      1  C   UNL A   1      32.478  28.561  27.117  1.00  0.00     0.021 C 
ENDROOT
BRANCH   1   2
ATOM      2  C   UNL A   1      33.110  27.660  26.067  1.00  0.00     0.116 C 
BRANCH   2   3
ATOM      3  N   UNL A   1      33.133  26.271  26.482  1.00  0.00    -0.356 N 
ATOM      4  C   UNL A   1      33.319  25.119  25.788  1.00  0.00     0.227 C 
ATOM      5  O   UNL A   1      33.382  24.090  26.465  1.00  0.00    -0.274 OA
ATOM      6  H   UNL A   1      32.986  26.139  27.447  1.00  0.00     0.163 HD
BRANCH   4   7
ATOM      7  C   UNL A   1      33.509  25.090  24.255  1.00  0.00     0.062 C 
ATOM      8  C   UNL A   1      32.198  24.559  23.560  1.00  0.00     0.098 C 
ATOM      9  C   UNL A   1      31.909  25.048  22.128  1.00  0.00     0.041 C 
ATOM     10  C   UNL A   1      32.758  26.172  21.621  1.00  0.00    -0.030 C 
ATOM     11  C   UNL A   1      33.927  26.530  23.803  1.00  0.00     0.044 C 
ATOM     12  C   UNL A   1      34.743  24.216  23.863  1.00  0.00     0.023 C 
ATOM     13  C   UNL A   1      33.655  26.835  22.360  1.00  0.00    -0.030 C 
BRANCH   8  14
ATOM     14  C   UNL A   1      30.921  24.333  24.409  1.00  0.00     0.228 C 
ATOM     15  N   UNL A   1      29.923  25.195  24.718  1.00  0.00    -0.326 N 
ATOM     16  H   UNL A   1      29.301  24.823  25.385  1.00  0.00     0.169 HD
ATOM     17  O   UNL A   1      30.706  23.178  24.821  1.00  0.00    -0.274 OA
BRANCH  15  18
ATOM     18  C   UNL A   1      29.564  26.484  24.319  1.00  0.00     0.041 A 
ATOM     19  C   UNL A   1      28.875  28.843  23.011  1.00  0.00     0.060 A 
ATOM     20  C   UNL A   1      30.136  28.711  23.578  1.00  0.00     0.018 A 
ATOM     21  C   UNL A   1      27.902  27.863  23.203  1.00  0.00     0.018 A 
ATOM     22  C   UNL A   1      30.452  27.536  24.249  1.00  0.00     0.027 A 
ATOM     23  C   UNL A   1      28.248  26.686  23.877  1.00  0.00     0.027 A 
BRANCH  19  24
ATOM     24  C   UNL A   1      28.674  29.928  22.053  1.00  0.00     0.338 C 
ATOM     25  O   UNL A   1      29.428  30.110  21.105  1.00  0.00    -0.246 OA
BRANCH  24  26
ATOM     26  O   UNL A   1      27.637  30.697  22.446  1.00  0.00    -0.462 OA
BRANCH  26  27
ATOM     27  C   UNL A   1      27.951  31.580  23.532  1.00  0.00     0.230 C 
ATOM     28  C   UNL A   1      28.681  32.807  23.012  1.00  0.00     0.049 C 
ENDBRANCH  26  27
ENDBRANCH  24  26
ENDBRANCH  19  24
ENDBRANCH  15  18
ENDBRANCH   8  14
ENDBRANCH   4   7
ENDBRANCH   2   3
ENDBRANCH   1   2
BRANCH   1  29
ATOM     29  C   UNL A   1      32.660  30.059  26.846  1.00  0.00     0.002 C 
BRANCH  29  30
ATOM     30  C   UNL A   1      31.441  30.791  26.269  1.00  0.00     0.002 C 
BRANCH  30  31
ATOM     31  C   UNL A   1      31.345  32.287  26.585  1.00  0.00     0.021 C 
BRANCH  31  32
ATOM     32  C   UNL A   1      32.654  32.957  26.979  1.00  0.00     0.116 C 
BRANCH  32  33
ATOM     33  N   UNL A   1      32.456  34.207  27.687  1.00  0.00    -0.352 N 
ATOM     34  C   UNL A   1      33.124  34.701  28.777  1.00  0.00     0.251 C 
ATOM     35  H   UNL A   1      31.741  34.784  27.334  1.00  0.00     0.163 HD
ATOM     36  O   UNL A   1      32.741  35.736  29.314  1.00  0.00    -0.269 OA
BRANCH  34  37
ATOM     37  C   UNL A   1      34.289  33.976  29.330  1.00  0.00     0.039 A 
ATOM     38  C   UNL A   1      35.568  34.373  28.926  1.00  0.00     0.014 A 
ATOM     39  C   UNL A   1      34.135  32.896  30.205  1.00  0.00     0.014 A 
ATOM     40  C   UNL A   1      36.690  33.711  29.424  1.00  0.00     0.010 A 
ATOM     41  C   UNL A   1      35.257  32.278  30.753  1.00  0.00     0.010 A 
ATOM     42  C   UNL A   1      36.545  32.667  30.354  1.00  0.00    -0.014 A 
BRANCH  42  43
ATOM     43  C   UNL A   1      37.735  31.959  30.883  1.00  0.00     0.031 A 
ATOM     44  C   UNL A   1      38.248  32.270  32.261  1.00  0.00     0.074 A 
ATOM     45  C   UNL A   1      38.371  31.055  30.114  1.00  0.00     0.049 A 
ATOM     46  N   UNL A   1      39.271  31.758  32.899  1.00  0.00    -0.248 NA
ATOM     47  C   UNL A   1      37.532  33.312  33.016  1.00  0.00     0.031 C 
ATOM     48  C   UNL A   1      38.003  30.705  28.740  1.00  0.00     0.029 A 
ATOM     49  N   UNL A   1      39.460  30.266  30.379  1.00  0.00    -0.354 N 
ATOM     50  C   UNL A   1      39.328  32.422  34.117  1.00  0.00     0.074 A 
ATOM     51  C   UNL A   1      38.270  33.410  34.111  1.00  0.00     0.031 C 
ATOM     52  C   UNL A   1      38.836  29.750  28.294  1.00  0.00     0.029 A 
ATOM     53  C   UNL A   1      39.806  29.438  29.338  1.00  0.00     0.049 A 
ATOM     54  H   UNL A   1      39.948  30.290  31.234  1.00  0.00     0.167 HD
ATOM     55  C   UNL A   1      40.168  32.212  35.158  1.00  0.00     0.037 A 
ATOM     56  C   UNL A   1      40.789  28.523  29.245  1.00  0.00     0.037 A 
ATOM     57  C   UNL A   1      41.200  31.208  35.177  1.00  0.00     0.049 A 
ATOM     58  C   UNL A   1      41.688  28.285  30.426  1.00  0.00     0.074 A 
ATOM     59  C   UNL A   1      42.066  30.878  36.204  1.00  0.00     0.029 A 
ATOM     60  N   UNL A   1      41.498  30.367  34.115  1.00  0.00    -0.354 N 
ATOM     61  N   UNL A   1      41.687  28.874  31.597  1.00  0.00    -0.248 NA
ATOM     62  C   UNL A   1      42.715  27.245  30.275  1.00  0.00     0.031 C 
ATOM     63  C   UNL A   1      42.910  29.857  35.753  1.00  0.00     0.029 A 
ATOM     64  C   UNL A   1      42.543  29.525  34.458  1.00  0.00     0.049 A 
ATOM     65  H   UNL A   1      41.035  30.368  33.246  1.00  0.00     0.167 HD
ATOM     66  C   UNL A   1      42.692  28.259  32.332  1.00  0.00     0.074 A 
ATOM     67  C   UNL A   1      43.270  27.241  31.479  1.00  0.00     0.031 C 
ATOM     68  C   UNL A   1      43.100  28.513  33.599  1.00  0.00     0.037 A 
BRANCH  55  69
ATOM     69  C   UNL A   1      39.997  33.084  36.367  1.00  0.00     0.057 A 
ATOM     70  C   UNL A   1      39.094  32.759  37.388  1.00  0.00     0.134 A 
ATOM     71  C   UNL A   1      40.758  34.249  36.525  1.00  0.00     0.134 A 
ATOM     72  F   UNL A   1      38.325  31.663  37.292  1.00  0.00    -0.206 F 
ATOM     73  C   UNL A   1      38.933  33.576  38.508  1.00  0.00     0.040 A 
ATOM     74  C   UNL A   1      40.624  35.060  37.653  1.00  0.00     0.040 A 
ATOM     75  F   UNL A   1      41.645  34.616  35.588  1.00  0.00    -0.206 F 
ATOM     76  C   UNL A   1      39.704  34.727  38.646  1.00  0.00     0.006 A 
ENDBRANCH  55  69
BRANCH  56  77
ATOM     77  C   UNL A   1      40.946  27.731  28.001  1.00  0.00     0.057 A 
ATOM     78  C   UNL A   1      41.733  28.200  26.943  1.00  0.00     0.134 A 
ATOM     79  C   UNL A   1      40.313  26.494  27.837  1.00  0.00     0.134 A 
ATOM     80  F   UNL A   1      42.351  29.387  27.036  1.00  0.00    -0.206 F 
ATOM     81  C   UNL A   1      41.870  27.477  25.757  1.00  0.00     0.040 A 
ATOM     82  C   UNL A   1      40.459  25.749  26.666  1.00  0.00     0.040 A 
ATOM     83  F   UNL A   1      39.551  25.987  28.818  1.00  0.00    -0.206 F 
ATOM     84  C   UNL A   1      41.235  26.244  25.619  1.00  0.00     0.006 A 
ENDBRANCH  56  77
BRANCH  68  85
ATOM     85  C   UNL A   1      44.202  27.655  34.145  1.00  0.00     0.057 A 
ATOM     86  C   UNL A   1      43.943  26.425  34.763  1.00  0.00     0.134 A 
ATOM     87  C   UNL A   1      45.539  28.057  34.032  1.00  0.00     0.134 A 
ATOM     88  F   UNL A   1      42.683  25.991  34.913  1.00  0.00    -0.206 F 
ATOM     89  C   UNL A   1      44.976  25.636  35.272  1.00  0.00     0.040 A 
ATOM     90  C   UNL A   1      46.581  27.265  34.516  1.00  0.00     0.040 A 
ATOM     91  F   UNL A   1      45.854  29.221  33.444  1.00  0.00    -0.206 F 
ATOM     92  C   UNL A   1      46.299  26.054  35.144  1.00  0.00     0.006 A 
ENDBRANCH  68  85
ENDBRANCH  42  43
ENDBRANCH  34  37
ENDBRANCH  32  33
ENDBRANCH  31  32
ENDBRANCH  30  31
ENDBRANCH  29  30
ENDBRANCH   1  29
TORSDOF 18
ENDMDL
MODEL 3
REMARK VINA RESULT:     -11.4      4.110      8.666
REMARK SMILES CCOC(=O)c1ccc(NC(=O)[C@H]2CC=CC[C@@]2(C)C(=O)NCCCCCCNC(=O)c2ccc(-c3c4nc(c(-c5c(F)cccc5F)c5ccc([nH]5)c(-c5c(F)cccc5F)c5nc(c(-c6c(F)cccc6F)c6ccc3[nH]6)C=C5)C=C4)cc2)cc1
REMARK SMILES IDX 24 1 23 2 22 3 20 4 21 5 18 7 13 8 14 9 15 10 17 11 19 12
REMARK SMILES IDX 16 13 11 14 10 15 12 17 9 18 6 19 7 20 87 21 8 22 86 23 4 24
REMARK SMILES IDX 5 25 3 26 2 27 1 28 25 29 26 30 27 31 28 32 29 33 30 34
REMARK SMILES IDX 31 36 32 37 33 38 85 39 34 40 84 41 35 42 36 43 37 44 78 45
REMARK SMILES IDX 38 46 83 47 77 48 79 49 39 50 82 51 76 52 75 53 40 55 66 56
REMARK SMILES IDX 49 57 65 58 50 59 53 60 64 61 80 62 51 63 52 64 63 66 81 67
REMARK SMILES IDX 54 68 41 69 42 70 47 71 43 72 44 73 46 74 48 75 45 76 67 77
REMARK SMILES IDX 68 78 73 79 69 80 70 81 72 82 74 83 71 84 55 85 56 86 61 87
REMARK SMILES IDX 57 88 58 89 60 90 62 91 59 92
REMARK H PARENT 22 6 10 16 29 35 79 54 53 65
REMARK Flexibility Score: inf
ROOT
ATOM      1  C   UNL A   1      33.653  28.744  27.127  1.00  0.00     0.021 C 
ENDROOT
BRANCH   1   2
ATOM      2  C   UNL A   1      33.529  28.268  25.688  1.00  0.00     0.116 C 
BRANCH   2   3
ATOM      3  N   UNL A   1      33.949  26.889  25.532  1.00  0.00    -0.356 N 
ATOM      4  C   UNL A   1      33.486  25.883  24.745  1.00  0.00     0.227 C 
ATOM      5  O   UNL A   1      34.138  24.836  24.777  1.00  0.00    -0.274 OA
ATOM      6  H   UNL A   1      34.710  26.634  26.103  1.00  0.00     0.163 HD
BRANCH   4   7
ATOM      7  C   UNL A   1      32.263  26.046  23.816  1.00  0.00     0.062 C 
ATOM      8  C   UNL A   1      30.935  25.777  24.621  1.00  0.00     0.098 C 
ATOM      9  C   UNL A   1      29.659  26.493  24.138  1.00  0.00     0.041 C 
ATOM     10  C   UNL A   1      29.842  27.566  23.112  1.00  0.00    -0.030 C 
ATOM     11  C   UNL A   1      32.340  27.474  23.179  1.00  0.00     0.044 C 
ATOM     12  C   UNL A   1      32.370  25.093  22.582  1.00  0.00     0.023 C 
ATOM     13  C   UNL A   1      31.030  28.008  22.682  1.00  0.00    -0.030 C 
BRANCH   8  14
ATOM     14  C   UNL A   1      30.998  25.590  26.159  1.00  0.00     0.228 C 
ATOM     15  N   UNL A   1      31.305  24.489  26.885  1.00  0.00    -0.326 N 
ATOM     16  H   UNL A   1      31.138  24.617  27.847  1.00  0.00     0.169 HD
ATOM     17  O   UNL A   1      30.822  26.600  26.865  1.00  0.00    -0.274 OA
BRANCH  15  18
ATOM     18  C   UNL A   1      31.802  23.216  26.598  1.00  0.00     0.041 A 
ATOM     19  C   UNL A   1      33.224  20.955  25.810  1.00  0.00     0.060 A 
ATOM     20  C   UNL A   1      32.092  21.340  25.102  1.00  0.00     0.018 A 
ATOM     21  C   UNL A   1      33.581  21.606  26.989  1.00  0.00     0.018 A 
ATOM     22  C   UNL A   1      31.382  22.456  25.526  1.00  0.00     0.027 A 
ATOM     23  C   UNL A   1      32.854  22.733  27.391  1.00  0.00     0.027 A 
BRANCH  19  24
ATOM     24  C   UNL A   1      34.123  19.993  25.177  1.00  0.00     0.338 C 
ATOM     25  O   UNL A   1      35.226  20.313  24.752  1.00  0.00    -0.246 OA
BRANCH  24  26
ATOM     26  O   UNL A   1      33.507  18.798  25.063  1.00  0.00    -0.462 OA
BRANCH  26  27
ATOM     27  C   UNL A   1      34.279  17.813  24.362  1.00  0.00     0.230 C 
ATOM     28  C   UNL A   1      33.529  17.346  23.126  1.00  0.00     0.049 C 
ENDBRANCH  26  27
ENDBRANCH  24  26
ENDBRANCH  19  24
ENDBRANCH  15  18
ENDBRANCH   8  14
ENDBRANCH   4   7
ENDBRANCH   2   3
ENDBRANCH   1   2
BRANCH   1  29
ATOM     29  C   UNL A   1      33.240  30.205  27.339  1.00  0.00     0.002 C 
BRANCH  29  30
ATOM     30  C   UNL A   1      31.836  30.585  26.850  1.00  0.00     0.002 C 
BRANCH  30  31
ATOM     31  C   UNL A   1      31.501  32.080  26.866  1.00  0.00     0.021 C 
BRANCH  31  32
ATOM     32  C   UNL A   1      32.701  33.018  26.900  1.00  0.00     0.116 C 
BRANCH  32  33
ATOM     33  N   UNL A   1      32.448  34.226  27.661  1.00  0.00    -0.352 N 
ATOM     34  C   UNL A   1      33.102  34.707  28.766  1.00  0.00     0.251 C 
ATOM     35  H   UNL A   1      31.702  34.782  27.337  1.00  0.00     0.163 HD
ATOM     36  O   UNL A   1      32.674  35.699  29.347  1.00  0.00    -0.269 OA
BRANCH  34  37
ATOM     37  C   UNL A   1      34.306  34.019  29.279  1.00  0.00     0.039 A 
ATOM     38  C   UNL A   1      34.134  32.979  30.196  1.00  0.00     0.014 A 
ATOM     39  C   UNL A   1      35.594  34.408  28.895  1.00  0.00     0.014 A 
ATOM     40  C   UNL A   1      35.247  32.308  30.703  1.00  0.00     0.010 A 
ATOM     41  C   UNL A   1      36.702  33.696  29.351  1.00  0.00     0.010 A 
ATOM     42  C   UNL A   1      36.540  32.651  30.274  1.00  0.00    -0.014 A 
BRANCH  42  43
ATOM     43  C   UNL A   1      37.726  31.943  30.813  1.00  0.00     0.031 A 
ATOM     44  C   UNL A   1      38.231  32.259  32.193  1.00  0.00     0.074 A 
ATOM     45  C   UNL A   1      38.366  31.037  30.051  1.00  0.00     0.049 A 
ATOM     46  N   UNL A   1      39.249  31.749  32.839  1.00  0.00    -0.248 NA
ATOM     47  C   UNL A   1      37.511  33.304  32.940  1.00  0.00     0.031 C 
ATOM     48  C   UNL A   1      38.006  30.682  28.676  1.00  0.00     0.029 A 
ATOM     49  N   UNL A   1      39.454  30.248  30.325  1.00  0.00    -0.354 N 
ATOM     50  C   UNL A   1      39.300  32.417  34.055  1.00  0.00     0.074 A 
ATOM     51  C   UNL A   1      38.243  33.405  34.040  1.00  0.00     0.031 C 
ATOM     52  C   UNL A   1      38.841  29.725  28.238  1.00  0.00     0.029 A 
ATOM     53  C   UNL A   1      39.804  29.416  29.290  1.00  0.00     0.049 A 
ATOM     54  H   UNL A   1      39.936  30.274  31.183  1.00  0.00     0.167 HD
ATOM     55  C   UNL A   1      40.134  32.210  35.102  1.00  0.00     0.037 A 
ATOM     56  C   UNL A   1      40.787  28.501  29.205  1.00  0.00     0.037 A 
ATOM     57  C   UNL A   1      41.164  31.205  35.130  1.00  0.00     0.049 A 
ATOM     58  C   UNL A   1      41.679  28.266  30.392  1.00  0.00     0.074 A 
ATOM     59  C   UNL A   1      42.025  30.878  36.164  1.00  0.00     0.029 A 
ATOM     60  N   UNL A   1      41.468  30.360  34.073  1.00  0.00    -0.354 N 
ATOM     61  N   UNL A   1      41.672  28.859  31.561  1.00  0.00    -0.248 NA
ATOM     62  C   UNL A   1      42.706  27.224  30.251  1.00  0.00     0.031 C 
ATOM     63  C   UNL A   1      42.871  29.854  35.721  1.00  0.00     0.029 A 
ATOM     64  C   UNL A   1      42.511  29.519  34.426  1.00  0.00     0.049 A 
ATOM     65  H   UNL A   1      41.010  30.358  33.201  1.00  0.00     0.167 HD
ATOM     66  C   UNL A   1      42.672  28.246  32.304  1.00  0.00     0.074 A 
ATOM     67  C   UNL A   1      43.254  27.224  31.458  1.00  0.00     0.031 C 
ATOM     68  C   UNL A   1      43.072  28.503  33.573  1.00  0.00     0.037 A 
BRANCH  55  69
ATOM     69  C   UNL A   1      39.956  33.086  36.307  1.00  0.00     0.057 A 
ATOM     70  C   UNL A   1      39.072  32.747  37.340  1.00  0.00     0.134 A 
ATOM     71  C   UNL A   1      40.691  34.269  36.448  1.00  0.00     0.134 A 
ATOM     72  F   UNL A   1      38.328  31.633  37.261  1.00  0.00    -0.206 F 
ATOM     73  C   UNL A   1      38.905  33.568  38.457  1.00  0.00     0.040 A 
ATOM     74  C   UNL A   1      40.551  35.085  37.572  1.00  0.00     0.040 A 
ATOM     75  F   UNL A   1      41.559  34.650  35.499  1.00  0.00    -0.206 F 
ATOM     76  C   UNL A   1      39.651  34.738  38.578  1.00  0.00     0.006 A 
ENDBRANCH  55  69
BRANCH  56  77
ATOM     77  C   UNL A   1      40.952  27.704  27.965  1.00  0.00     0.057 A 
ATOM     78  C   UNL A   1      40.329  26.459  27.820  1.00  0.00     0.134 A 
ATOM     79  C   UNL A   1      41.736  28.161  26.901  1.00  0.00     0.134 A 
ATOM     80  F   UNL A   1      39.578  25.961  28.814  1.00  0.00    -0.206 F 
ATOM     81  C   UNL A   1      40.495  25.687  26.669  1.00  0.00     0.040 A 
ATOM     82  C   UNL A   1      41.894  27.411  25.735  1.00  0.00     0.040 A 
ATOM     83  F   UNL A   1      42.354  29.350  26.975  1.00  0.00    -0.206 F 
ATOM     84  C   UNL A   1      41.277  26.166  25.620  1.00  0.00     0.006 A 
ENDBRANCH  56  77
BRANCH  68  85
ATOM     85  C   UNL A   1      44.170  27.646  34.129  1.00  0.00     0.057 A 
ATOM     86  C   UNL A   1      45.512  28.040  34.077  1.00  0.00     0.134 A 
ATOM     87  C   UNL A   1      43.875  26.421  34.741  1.00  0.00     0.134 A 
ATOM     88  F   UNL A   1      45.860  29.195  33.492  1.00  0.00    -0.206 F 
ATOM     89  C   UNL A   1      46.528  27.232  34.593  1.00  0.00     0.040 A 
ATOM     90  C   UNL A   1      44.879  25.617  35.283  1.00  0.00     0.040 A 
ATOM     91  F   UNL A   1      42.607  25.991  34.829  1.00  0.00    -0.206 F 
ATOM     92  C   UNL A   1      46.210  26.020  35.202  1.00  0.00     0.006 A 
ENDBRANCH  68  85
ENDBRANCH  42  43
ENDBRANCH  34  37
ENDBRANCH  32  33
ENDBRANCH  31  32
ENDBRANCH  30  31
ENDBRANCH  29  30
ENDBRANCH   1  29
TORSDOF 18
ENDMDL
