MODEL 1
REMARK VINA RESULT:     -10.2      0.000      0.000
REMARK SMILES C[C@@](CC(=O)Nc1ccc(NC(=O)c2ccco2)cc1)(C(=O)NCCCCCCNC(=O)c1ccc(-c2c3nc(c(-c4c(F)cccc4F)c4ccc([nH]4)c(-c4c(F)cccc4F)c4nc(c(-c5c(F)cccc5F)c5ccc2[nH]5)C=C4)C=C3)cc1)c1ccccc1
REMARK SMILES IDX 25 1 24 2 23 3 21 4 22 5 2 7 1 8 3 9 4 10 5 11 6 12 7 14
REMARK SMILES IDX 8 15 20 16 9 17 19 18 10 19 11 20 12 21 13 23 14 24 15 25
REMARK SMILES IDX 18 26 16 27 17 28 87 29 88 30 92 31 89 32 91 33 90 34 26 35
REMARK SMILES IDX 27 36 28 37 29 38 30 39 31 40 32 42 33 43 34 44 86 45 35 46
REMARK SMILES IDX 85 47 36 48 37 49 38 50 79 51 39 52 84 53 78 54 80 55 40 56
REMARK SMILES IDX 83 57 77 58 76 59 41 61 67 62 50 63 66 64 51 65 54 66 65 67
REMARK SMILES IDX 81 68 52 69 53 70 64 72 82 73 55 74 42 75 43 76 48 77 44 78
REMARK SMILES IDX 45 79 47 80 49 81 46 82 68 83 69 84 74 85 70 86 71 87 73 88
REMARK SMILES IDX 75 89 72 90 56 91 57 92 62 93 58 94 59 95 61 96 63 97 60 98
REMARK H PARENT 23 6 6 13 11 22 30 41 80 60 54 71
REMARK Flexibility Score: inf
ROOT
ATOM      1  C   UNL A   1      42.254  28.161  29.542  1.00  0.00     0.021 C 
ENDROOT
BRANCH   1   2
ATOM      2  C   UNL A   1      41.967  29.121  30.690  1.00  0.00     0.116 C 
BRANCH   2   3
ATOM      3  N   UNL A   1      41.262  28.564  31.829  1.00  0.00    -0.355 N 
ATOM      4  C   UNL A   1      39.952  28.682  32.235  1.00  0.00     0.230 C 
ATOM      5  O   UNL A   1      39.582  27.796  33.010  1.00  0.00    -0.274 OA
ATOM      6  H   UNL A   1      41.819  28.003  32.414  1.00  0.00     0.163 HD
BRANCH   4   7
ATOM      7  C   UNL A   1      39.050  29.891  31.802  1.00  0.00     0.080 C 
ATOM      8  C   UNL A   1      37.856  29.834  32.801  1.00  0.00     0.027 C 
BRANCH   7   9
ATOM      9  C   UNL A   1      39.905  31.193  31.639  1.00  0.00     0.121 C 
BRANCH   9  10
ATOM     10  C   UNL A   1      39.598  32.488  32.358  1.00  0.00     0.225 C 
ATOM     11  O   UNL A   1      40.308  32.855  33.301  1.00  0.00    -0.275 OA
ATOM     12  N   UNL A   1      38.596  33.337  31.977  1.00  0.00    -0.326 N 
ATOM     13  H   UNL A   1      38.628  34.204  32.444  1.00  0.00     0.169 HD
BRANCH  12  14
ATOM     14  C   UNL A   1      37.531  33.246  31.065  1.00  0.00     0.041 A 
ATOM     15  C   UNL A   1      36.289  32.824  31.547  1.00  0.00     0.028 A 
ATOM     16  C   UNL A   1      37.634  33.503  29.708  1.00  0.00     0.028 A 
ATOM     17  C   UNL A   1      35.179  32.738  30.689  1.00  0.00     0.028 A 
ATOM     18  C   UNL A   1      36.546  33.394  28.845  1.00  0.00     0.028 A 
ATOM     19  C   UNL A   1      35.292  33.077  29.341  1.00  0.00     0.041 A 
BRANCH  19  20
ATOM     20  N   UNL A   1      34.240  33.130  28.417  1.00  0.00    -0.319 N 
ATOM     21  C   UNL A   1      33.144  33.959  28.319  1.00  0.00     0.291 C 
ATOM     22  H   UNL A   1      34.293  32.449  27.708  1.00  0.00     0.170 HD
ATOM     23  O   UNL A   1      32.297  33.672  27.470  1.00  0.00    -0.265 OA
BRANCH  21  24
ATOM     24  C   UNL A   1      33.075  35.148  29.132  1.00  0.00     0.191 A 
ATOM     25  C   UNL A   1      33.493  36.451  28.920  1.00  0.00     0.056 A 
ATOM     26  O   UNL A   1      32.512  35.045  30.372  1.00  0.00    -0.459 OA
ATOM     27  C   UNL A   1      33.218  37.161  30.114  1.00  0.00     0.043 A 
ATOM     28  C   UNL A   1      32.616  36.261  30.963  1.00  0.00     0.196 A 
ENDBRANCH  21  24
ENDBRANCH  19  20
ENDBRANCH  12  14
ENDBRANCH   9  10
ENDBRANCH   7   9
BRANCH   7  29
ATOM     29  C   UNL A   1      38.330  29.807  30.393  1.00  0.00    -0.032 A 
ATOM     30  C   UNL A   1      38.927  30.105  29.164  1.00  0.00     0.005 A 
ATOM     31  C   UNL A   1      36.942  29.492  30.358  1.00  0.00     0.005 A 
ATOM     32  C   UNL A   1      38.189  30.064  27.969  1.00  0.00     0.000 A 
ATOM     33  C   UNL A   1      36.208  29.449  29.171  1.00  0.00     0.000 A 
ATOM     34  C   UNL A   1      36.837  29.734  27.971  1.00  0.00     0.000 A 
ENDBRANCH   7  29
ENDBRANCH   4   7
ENDBRANCH   2   3
ENDBRANCH   1   2
BRANCH   1  35
ATOM     35  C   UNL A   1      41.128  27.209  29.145  1.00  0.00     0.002 C 
BRANCH  35  36
ATOM     36  C   UNL A   1      40.692  27.223  27.678  1.00  0.00     0.002 C 
BRANCH  36  37
ATOM     37  C   UNL A   1      40.101  25.930  27.106  1.00  0.00     0.021 C 
BRANCH  37  38
ATOM     38  C   UNL A   1      40.250  24.671  27.953  1.00  0.00     0.116 C 
BRANCH  38  39
ATOM     39  N   UNL A   1      40.796  23.549  27.214  1.00  0.00    -0.352 N 
ATOM     40  C   UNL A   1      41.943  23.441  26.469  1.00  0.00     0.251 C 
ATOM     41  H   UNL A   1      40.253  22.728  27.254  1.00  0.00     0.163 HD
ATOM     42  O   UNL A   1      42.147  22.413  25.828  1.00  0.00    -0.269 OA
BRANCH  40  43
ATOM     43  C   UNL A   1      42.934  24.542  26.405  1.00  0.00     0.039 A 
ATOM     44  C   UNL A   1      43.658  24.847  27.564  1.00  0.00     0.014 A 
ATOM     45  C   UNL A   1      43.110  25.322  25.258  1.00  0.00     0.014 A 
ATOM     46  C   UNL A   1      44.579  25.898  27.565  1.00  0.00     0.010 A 
ATOM     47  C   UNL A   1      44.068  26.339  25.242  1.00  0.00     0.010 A 
ATOM     48  C   UNL A   1      44.804  26.643  26.398  1.00  0.00    -0.014 A 
BRANCH  48  49
ATOM     49  C   UNL A   1      45.778  27.766  26.382  1.00  0.00     0.031 A 
ATOM     50  C   UNL A   1      47.250  27.486  26.241  1.00  0.00     0.074 A 
ATOM     51  C   UNL A   1      45.348  29.034  26.534  1.00  0.00     0.049 A 
ATOM     52  N   UNL A   1      48.260  28.316  26.298  1.00  0.00    -0.248 NA
ATOM     53  C   UNL A   1      47.636  26.082  26.028  1.00  0.00     0.031 C 
ATOM     54  C   UNL A   1      43.954  29.440  26.704  1.00  0.00     0.029 A 
ATOM     55  N   UNL A   1      46.048  30.213  26.580  1.00  0.00    -0.354 N 
ATOM     56  C   UNL A   1      49.400  27.537  26.145  1.00  0.00     0.074 A 
ATOM     57  C   UNL A   1      48.960  26.164  26.028  1.00  0.00     0.031 C 
ATOM     58  C   UNL A   1      43.898  30.778  26.829  1.00  0.00     0.029 A 
ATOM     59  C   UNL A   1      45.255  31.317  26.773  1.00  0.00     0.049 A 
ATOM     60  H   UNL A   1      47.026  30.264  26.484  1.00  0.00     0.167 HD
ATOM     61  C   UNL A   1      50.694  27.931  26.090  1.00  0.00     0.037 A 
ATOM     62  C   UNL A   1      45.583  32.617  26.896  1.00  0.00     0.037 A 
ATOM     63  C   UNL A   1      51.136  29.298  26.178  1.00  0.00     0.049 A 
ATOM     64  C   UNL A   1      47.024  33.031  26.799  1.00  0.00     0.074 A 
ATOM     65  C   UNL A   1      52.429  29.793  26.131  1.00  0.00     0.029 A 
ATOM     66  N   UNL A   1      50.295  30.390  26.311  1.00  0.00    -0.354 N 
ATOM     67  N   UNL A   1      48.090  32.282  26.645  1.00  0.00    -0.248 NA
ATOM     68  C   UNL A   1      47.310  34.471  26.883  1.00  0.00     0.031 C 
ATOM     69  C   UNL A   1      52.369  31.186  26.248  1.00  0.00     0.029 A 
ATOM     70  C   UNL A   1      51.037  31.557  26.339  1.00  0.00     0.049 A 
ATOM     71  H   UNL A   1      49.313  30.341  26.377  1.00  0.00     0.167 HD
ATOM     72  C   UNL A   1      49.164  33.159  26.583  1.00  0.00     0.074 A 
ATOM     73  C   UNL A   1      48.624  34.497  26.709  1.00  0.00     0.031 C 
ATOM     74  C   UNL A   1      50.481  32.881  26.438  1.00  0.00     0.037 A 
BRANCH  61  75
ATOM     75  C   UNL A   1      51.731  26.862  25.916  1.00  0.00     0.057 A 
ATOM     76  C   UNL A   1      52.119  26.419  24.646  1.00  0.00     0.134 A 
ATOM     77  C   UNL A   1      52.374  26.298  27.025  1.00  0.00     0.134 A 
ATOM     78  F   UNL A   1      51.530  26.912  23.546  1.00  0.00    -0.206 F 
ATOM     79  C   UNL A   1      53.098  25.438  24.483  1.00  0.00     0.040 A 
ATOM     80  C   UNL A   1      53.370  25.330  26.874  1.00  0.00     0.040 A 
ATOM     81  F   UNL A   1      52.052  26.682  28.269  1.00  0.00    -0.206 F 
ATOM     82  C   UNL A   1      53.731  24.895  25.600  1.00  0.00     0.006 A 
ENDBRANCH  61  75
BRANCH  62  83
ATOM     83  C   UNL A   1      44.524  33.634  27.104  1.00  0.00     0.057 A 
ATOM     84  C   UNL A   1      44.066  33.947  28.389  1.00  0.00     0.134 A 
ATOM     85  C   UNL A   1      43.929  34.299  26.025  1.00  0.00     0.134 A 
ATOM     86  F   UNL A   1      44.584  33.325  29.459  1.00  0.00    -0.206 F 
ATOM     87  C   UNL A   1      43.039  34.869  28.595  1.00  0.00     0.040 A 
ATOM     88  C   UNL A   1      42.916  35.239  26.218  1.00  0.00     0.040 A 
ATOM     89  F   UNL A   1      44.328  34.045  24.771  1.00  0.00    -0.206 F 
ATOM     90  C   UNL A   1      42.463  35.520  27.506  1.00  0.00     0.006 A 
ENDBRANCH  62  83
BRANCH  74  91
ATOM     91  C   UNL A   1      51.422  34.044  26.357  1.00  0.00     0.057 A 
ATOM     92  C   UNL A   1      51.823  34.582  25.129  1.00  0.00     0.134 A 
ATOM     93  C   UNL A   1      51.903  34.651  27.523  1.00  0.00     0.134 A 
ATOM     94  F   UNL A   1      51.405  34.035  23.977  1.00  0.00    -0.206 F 
ATOM     95  C   UNL A   1      52.688  35.676  25.063  1.00  0.00     0.040 A 
ATOM     96  C   UNL A   1      52.753  35.756  27.470  1.00  0.00     0.040 A 
ATOM     97  F   UNL A   1      51.550  34.184  28.730  1.00  0.00    -0.206 F 
ATOM     98  C   UNL A   1      53.151  36.268  26.236  1.00  0.00     0.006 A 
ENDBRANCH  74  91
ENDBRANCH  48  49
ENDBRANCH  40  43
ENDBRANCH  38  39
ENDBRANCH  37  38
ENDBRANCH  36  37
ENDBRANCH  35  36
ENDBRANCH   1  35
TORSDOF 19
ENDMDL
MODEL 2
REMARK VINA RESULT:      -9.5      0.833      5.957
REMARK SMILES C[C@@](CC(=O)Nc1ccc(NC(=O)c2ccco2)cc1)(C(=O)NCCCCCCNC(=O)c1ccc(-c2c3nc(c(-c4c(F)cccc4F)c4ccc([nH]4)c(-c4c(F)cccc4F)c4nc(c(-c5c(F)cccc5F)c5ccc2[nH]5)C=C4)C=C3)cc1)c1ccccc1
REMARK SMILES IDX 25 1 24 2 23 3 21 4 22 5 2 7 1 8 3 9 4 10 5 11 6 12 7 14
REMARK SMILES IDX 8 15 20 16 9 17 19 18 10 19 11 20 12 21 13 23 14 24 15 25
REMARK SMILES IDX 18 26 16 27 17 28 87 29 88 30 92 31 89 32 91 33 90 34 26 35
REMARK SMILES IDX 27 36 28 37 29 38 30 39 31 40 32 42 33 43 34 44 86 45 35 46
REMARK SMILES IDX 85 47 36 48 37 49 38 50 79 51 39 52 84 53 78 54 80 55 40 56
REMARK SMILES IDX 83 57 77 58 76 59 41 61 67 62 50 63 66 64 51 65 54 66 65 67
REMARK SMILES IDX 81 68 52 69 53 70 64 72 82 73 55 74 42 75 43 76 48 77 44 78
REMARK SMILES IDX 45 79 47 80 49 81 46 82 68 83 69 84 74 85 70 86 71 87 73 88
REMARK SMILES IDX 75 89 72 90 56 91 57 92 62 93 58 94 59 95 61 96 63 97 60 98
REMARK H PARENT 23 6 6 13 11 22 30 41 80 60 54 71
REMARK Flexibility Score: inf
ROOT
ATOM      1  C   UNL A   1      38.525  26.991  31.001  1.00  0.00     0.021 C 
ENDROOT
BRANCH   1   2
ATOM      2  C   UNL A   1      38.494  27.721  32.338  1.00  0.00     0.116 C 
BRANCH   2   3
ATOM      3  N   UNL A   1      39.747  28.304  32.779  1.00  0.00    -0.355 N 
ATOM      4  C   UNL A   1      40.087  29.599  33.096  1.00  0.00     0.230 C 
ATOM      5  O   UNL A   1      41.101  29.700  33.791  1.00  0.00    -0.274 OA
ATOM      6  H   UNL A   1      40.484  27.657  32.868  1.00  0.00     0.163 HD
BRANCH   4   7
ATOM      7  C   UNL A   1      39.287  30.830  32.543  1.00  0.00     0.080 C 
ATOM      8  C   UNL A   1      38.167  31.047  33.605  1.00  0.00     0.027 C 
BRANCH   7   9
ATOM      9  C   UNL A   1      40.257  31.993  32.145  1.00  0.00     0.121 C 
BRANCH   9  10
ATOM     10  C   UNL A   1      40.077  33.424  32.599  1.00  0.00     0.225 C 
ATOM     11  O   UNL A   1      40.827  33.899  33.458  1.00  0.00    -0.275 OA
ATOM     12  N   UNL A   1      39.151  34.271  32.055  1.00  0.00    -0.326 N 
ATOM     13  H   UNL A   1      39.266  35.205  32.347  1.00  0.00     0.169 HD
BRANCH  12  14
ATOM     14  C   UNL A   1      38.072  34.103  31.171  1.00  0.00     0.041 A 
ATOM     15  C   UNL A   1      38.326  34.188  29.800  1.00  0.00     0.028 A 
ATOM     16  C   UNL A   1      36.759  33.900  31.565  1.00  0.00     0.028 A 
ATOM     17  C   UNL A   1      37.293  34.002  28.866  1.00  0.00     0.028 A 
ATOM     18  C   UNL A   1      35.723  33.743  30.647  1.00  0.00     0.028 A 
ATOM     19  C   UNL A   1      35.992  33.723  29.288  1.00  0.00     0.041 A 
BRANCH  19  20
ATOM     20  N   UNL A   1      34.908  33.418  28.455  1.00  0.00    -0.319 N 
ATOM     21  C   UNL A   1      33.633  33.931  28.381  1.00  0.00     0.291 C 
ATOM     22  H   UNL A   1      35.092  32.704  27.803  1.00  0.00     0.170 HD
ATOM     23  O   UNL A   1      32.838  33.357  27.633  1.00  0.00    -0.265 OA
BRANCH  21  24
ATOM     24  C   UNL A   1      33.308  35.140  29.097  1.00  0.00     0.191 A 
ATOM     25  C   UNL A   1      33.532  36.479  28.820  1.00  0.00     0.056 A 
ATOM     26  O   UNL A   1      32.667  35.023  30.297  1.00  0.00    -0.459 OA
ATOM     27  C   UNL A   1      33.049  37.206  29.935  1.00  0.00     0.043 A 
ATOM     28  C   UNL A   1      32.528  36.274  30.802  1.00  0.00     0.196 A 
ENDBRANCH  21  24
ENDBRANCH  19  20
ENDBRANCH  12  14
ENDBRANCH   9  10
ENDBRANCH   7   9
BRANCH   7  29
ATOM     29  C   UNL A   1      38.463  30.634  31.204  1.00  0.00    -0.032 A 
ATOM     30  C   UNL A   1      37.106  30.300  31.133  1.00  0.00     0.005 A 
ATOM     31  C   UNL A   1      39.156  30.713  29.962  1.00  0.00     0.005 A 
ATOM     32  C   UNL A   1      36.474  30.086  29.896  1.00  0.00     0.000 A 
ATOM     33  C   UNL A   1      38.529  30.500  28.733  1.00  0.00     0.000 A 
ATOM     34  C   UNL A   1      37.180  30.188  28.701  1.00  0.00     0.000 A 
ENDBRANCH   7  29
ENDBRANCH   4   7
ENDBRANCH   2   3
ENDBRANCH   1   2
BRANCH   1  35
ATOM     35  C   UNL A   1      39.719  27.274  30.092  1.00  0.00     0.002 C 
BRANCH  35  36
ATOM     36  C   UNL A   1      39.532  27.004  28.597  1.00  0.00     0.002 C 
BRANCH  36  37
ATOM     37  C   UNL A   1      39.353  25.546  28.160  1.00  0.00     0.021 C 
BRANCH  37  38
ATOM     38  C   UNL A   1      39.739  25.206  26.725  1.00  0.00     0.116 C 
BRANCH  38  39
ATOM     39  N   UNL A   1      40.376  23.909  26.599  1.00  0.00    -0.352 N 
ATOM     40  C   UNL A   1      41.690  23.575  26.387  1.00  0.00     0.251 C 
ATOM     41  H   UNL A   1      39.764  23.141  26.679  1.00  0.00     0.163 HD
ATOM     42  O   UNL A   1      41.985  22.397  26.196  1.00  0.00    -0.269 OA
BRANCH  40  43
ATOM     43  C   UNL A   1      42.759  24.600  26.365  1.00  0.00     0.039 A 
ATOM     44  C   UNL A   1      43.339  24.976  27.583  1.00  0.00     0.014 A 
ATOM     45  C   UNL A   1      43.147  25.250  25.189  1.00  0.00     0.014 A 
ATOM     46  C   UNL A   1      44.327  25.963  27.620  1.00  0.00     0.010 A 
ATOM     47  C   UNL A   1      44.171  26.200  25.218  1.00  0.00     0.010 A 
ATOM     48  C   UNL A   1      44.764  26.572  26.434  1.00  0.00    -0.014 A 
BRANCH  48  49
ATOM     49  C   UNL A   1      45.811  27.627  26.456  1.00  0.00     0.031 A 
ATOM     50  C   UNL A   1      45.424  29.071  26.623  1.00  0.00     0.074 A 
ATOM     51  C   UNL A   1      47.106  27.296  26.287  1.00  0.00     0.049 A 
ATOM     52  N   UNL A   1      46.176  30.141  26.576  1.00  0.00    -0.248 NA
ATOM     53  C   UNL A   1      43.997  29.349  26.854  1.00  0.00     0.031 C 
ATOM     54  C   UNL A   1      47.614  25.938  26.091  1.00  0.00     0.029 A 
ATOM     55  N   UNL A   1      48.230  28.082  26.243  1.00  0.00    -0.354 N 
ATOM     56  C   UNL A   1      45.316  31.217  26.754  1.00  0.00     0.074 A 
ATOM     57  C   UNL A   1      43.980  30.675  26.876  1.00  0.00     0.031 C 
ATOM     58  C   UNL A   1      48.950  25.984  25.954  1.00  0.00     0.029 A 
ATOM     59  C   UNL A   1      49.388  27.376  26.027  1.00  0.00     0.049 A 
ATOM     60  H   UNL A   1      48.208  29.060  26.354  1.00  0.00     0.167 HD
ATOM     61  C   UNL A   1      45.612  32.537  26.826  1.00  0.00     0.037 A 
ATOM     62  C   UNL A   1      50.659  27.803  25.898  1.00  0.00     0.037 A 
ATOM     63  C   UNL A   1      46.942  33.081  26.734  1.00  0.00     0.049 A 
ATOM     64  C   UNL A   1      50.964  29.269  26.015  1.00  0.00     0.074 A 
ATOM     65  C   UNL A   1      47.339  34.406  26.798  1.00  0.00     0.029 A 
ATOM     66  N   UNL A   1      48.092  32.325  26.578  1.00  0.00    -0.354 N 
ATOM     67  N   UNL A   1      50.140  30.273  26.193  1.00  0.00    -0.248 NA
ATOM     68  C   UNL A   1      52.378  29.663  25.924  1.00  0.00     0.031 C 
ATOM     69  C   UNL A   1      48.732  34.452  26.669  1.00  0.00     0.029 A 
ATOM     70  C   UNL A   1      49.201  33.153  26.553  1.00  0.00     0.049 A 
ATOM     71  H   UNL A   1      48.116  31.344  26.497  1.00  0.00     0.167 HD
ATOM     72  C   UNL A   1      50.935  31.409  26.265  1.00  0.00     0.074 A 
ATOM     73  C   UNL A   1      52.308  30.972  26.119  1.00  0.00     0.031 C 
ATOM     74  C   UNL A   1      50.561  32.699  26.433  1.00  0.00     0.037 A 
BRANCH  61  75
ATOM     75  C   UNL A   1      44.471  33.488  27.026  1.00  0.00     0.057 A 
ATOM     76  C   UNL A   1      43.933  33.729  28.297  1.00  0.00     0.134 A 
ATOM     77  C   UNL A   1      43.929  34.197  25.947  1.00  0.00     0.134 A 
ATOM     78  F   UNL A   1      44.401  33.070  29.368  1.00  0.00    -0.206 F 
ATOM     79  C   UNL A   1      42.884  34.629  28.485  1.00  0.00     0.040 A 
ATOM     80  C   UNL A   1      42.893  35.116  26.126  1.00  0.00     0.040 A 
ATOM     81  F   UNL A   1      44.403  34.015  24.705  1.00  0.00    -0.206 F 
ATOM     82  C   UNL A   1      42.365  35.331  27.398  1.00  0.00     0.006 A 
ENDBRANCH  61  75
BRANCH  62  83
ATOM     83  C   UNL A   1      51.750  26.826  25.665  1.00  0.00     0.057 A 
ATOM     84  C   UNL A   1      52.204  26.548  24.371  1.00  0.00     0.134 A 
ATOM     85  C   UNL A   1      52.345  26.131  26.724  1.00  0.00     0.134 A 
ATOM     86  F   UNL A   1      51.655  27.167  23.315  1.00  0.00    -0.206 F 
ATOM     87  C   UNL A   1      53.199  25.598  24.134  1.00  0.00     0.040 A 
ATOM     88  C   UNL A   1      53.356  25.195  26.504  1.00  0.00     0.040 A 
ATOM     89  F   UNL A   1      51.956  26.358  27.986  1.00  0.00    -0.206 F 
ATOM     90  C   UNL A   1      53.780  24.920  25.203  1.00  0.00     0.006 A 
ENDBRANCH  62  83
BRANCH  74  91
ATOM     91  C   UNL A   1      51.651  33.723  26.520  1.00  0.00     0.057 A 
ATOM     92  C   UNL A   1      52.049  34.471  25.407  1.00  0.00     0.134 A 
ATOM     93  C   UNL A   1      52.285  33.984  27.741  1.00  0.00     0.134 A 
ATOM     94  F   UNL A   1      51.488  34.257  24.207  1.00  0.00    -0.206 F 
ATOM     95  C   UNL A   1      53.056  35.434  25.501  1.00  0.00     0.040 A 
ATOM     96  C   UNL A   1      53.279  34.956  27.852  1.00  0.00     0.040 A 
ATOM     97  F   UNL A   1      51.943  33.302  28.845  1.00  0.00    -0.206 F 
ATOM     98  C   UNL A   1      53.669  35.681  26.727  1.00  0.00     0.006 A 
ENDBRANCH  74  91
ENDBRANCH  48  49
ENDBRANCH  40  43
ENDBRANCH  38  39
ENDBRANCH  37  38
ENDBRANCH  36  37
ENDBRANCH  35  36
ENDBRANCH   1  35
TORSDOF 19
ENDMDL
MODEL 3
REMARK VINA RESULT:      -9.5      1.181      2.473
REMARK SMILES C[C@@](CC(=O)Nc1ccc(NC(=O)c2ccco2)cc1)(C(=O)NCCCCCCNC(=O)c1ccc(-c2c3nc(c(-c4c(F)cccc4F)c4ccc([nH]4)c(-c4c(F)cccc4F)c4nc(c(-c5c(F)cccc5F)c5ccc2[nH]5)C=C4)C=C3)cc1)c1ccccc1
REMARK SMILES IDX 25 1 24 2 23 3 21 4 22 5 2 7 1 8 3 9 4 10 5 11 6 12 7 14
REMARK SMILES IDX 8 15 20 16 9 17 19 18 10 19 11 20 12 21 13 23 14 24 15 25
REMARK SMILES IDX 18 26 16 27 17 28 87 29 88 30 92 31 89 32 91 33 90 34 26 35
REMARK SMILES IDX 27 36 28 37 29 38 30 39 31 40 32 42 33 43 34 44 86 45 35 46
REMARK SMILES IDX 85 47 36 48 37 49 38 50 79 51 39 52 84 53 78 54 80 55 40 56
REMARK SMILES IDX 83 57 77 58 76 59 41 61 67 62 50 63 66 64 51 65 54 66 65 67
REMARK SMILES IDX 81 68 52 69 53 70 64 72 82 73 55 74 42 75 43 76 48 77 44 78
REMARK SMILES IDX 45 79 47 80 49 81 46 82 68 83 69 84 74 85 70 86 71 87 73 88
REMARK SMILES IDX 75 89 72 90 56 91 57 92 62 93 58 94 59 95 61 96 63 97 60 98
REMARK H PARENT 23 6 6 13 11 22 30 41 80 60 54 71
REMARK Flexibility Score: inf
ROOT
ATOM      1  C   UNL A   1      40.049  28.797  27.536  1.00  0.00     0.021 C 
ENDROOT
BRANCH   1   2
ATOM      2  C   UNL A   1      38.787  28.909  28.381  1.00  0.00     0.116 C 
BRANCH   2   3
ATOM      3  N   UNL A   1      38.278  30.250  28.598  1.00  0.00    -0.355 N 
ATOM      4  C   UNL A   1      38.651  31.234  29.484  1.00  0.00     0.230 C 
ATOM      5  O   UNL A   1      38.289  32.368  29.162  1.00  0.00    -0.274 OA
ATOM      6  H   UNL A   1      37.533  30.500  28.004  1.00  0.00     0.163 HD
BRANCH   4   7
ATOM      7  C   UNL A   1      39.402  30.909  30.822  1.00  0.00     0.080 C 
ATOM      8  C   UNL A   1      39.913  32.300  31.305  1.00  0.00     0.027 C 
BRANCH   7   9
ATOM      9  C   UNL A   1      38.521  30.006  31.751  1.00  0.00     0.121 C 
BRANCH   9  10
ATOM     10  C   UNL A   1      37.930  30.481  33.060  1.00  0.00     0.225 C 
ATOM     11  O   UNL A   1      38.281  29.957  34.123  1.00  0.00    -0.275 OA
ATOM     12  N   UNL A   1      37.056  31.529  33.150  1.00  0.00    -0.326 N 
ATOM     13  H   UNL A   1      36.889  31.811  34.079  1.00  0.00     0.169 HD
BRANCH  12  14
ATOM     14  C   UNL A   1      36.344  32.292  32.210  1.00  0.00     0.041 A 
ATOM     15  C   UNL A   1      35.428  31.631  31.387  1.00  0.00     0.028 A 
ATOM     16  C   UNL A   1      36.516  33.652  32.009  1.00  0.00     0.028 A 
ATOM     17  C   UNL A   1      34.665  32.344  30.446  1.00  0.00     0.028 A 
ATOM     18  C   UNL A   1      35.786  34.362  31.059  1.00  0.00     0.028 A 
ATOM     19  C   UNL A   1      34.804  33.726  30.316  1.00  0.00     0.041 A 
BRANCH  19  20
ATOM     20  N   UNL A   1      34.030  34.554  29.492  1.00  0.00    -0.319 N 
ATOM     21  C   UNL A   1      33.165  35.586  29.778  1.00  0.00     0.291 C 
ATOM     22  H   UNL A   1      34.122  34.362  28.531  1.00  0.00     0.170 HD
ATOM     23  O   UNL A   1      32.506  36.043  28.841  1.00  0.00    -0.265 OA
BRANCH  21  24
ATOM     24  C   UNL A   1      33.128  36.137  31.110  1.00  0.00     0.191 A 
ATOM     25  C   UNL A   1      32.459  35.755  32.261  1.00  0.00     0.056 A 
ATOM     26  O   UNL A   1      33.858  37.263  31.359  1.00  0.00    -0.459 OA
ATOM     27  C   UNL A   1      32.758  36.731  33.243  1.00  0.00     0.043 A 
ATOM     28  C   UNL A   1      33.617  37.623  32.644  1.00  0.00     0.196 A 
ENDBRANCH  21  24
ENDBRANCH  19  20
ENDBRANCH  12  14
ENDBRANCH   9  10
ENDBRANCH   7   9
BRANCH   7  29
ATOM     29  C   UNL A   1      40.738  30.060  30.733  1.00  0.00    -0.032 A 
ATOM     30  C   UNL A   1      40.905  28.765  31.233  1.00  0.00     0.005 A 
ATOM     31  C   UNL A   1      41.898  30.676  30.182  1.00  0.00     0.005 A 
ATOM     32  C   UNL A   1      42.149  28.114  31.162  1.00  0.00     0.000 A 
ATOM     33  C   UNL A   1      43.133  30.030  30.111  1.00  0.00     0.000 A 
ATOM     34  C   UNL A   1      43.257  28.741  30.602  1.00  0.00     0.000 A 
ENDBRANCH   7  29
ENDBRANCH   4   7
ENDBRANCH   2   3
ENDBRANCH   1   2
BRANCH   1  35
ATOM     35  C   UNL A   1      40.795  27.466  27.590  1.00  0.00     0.002 C 
BRANCH  35  36
ATOM     36  C   UNL A   1      40.474  26.445  26.496  1.00  0.00     0.002 C 
BRANCH  36  37
ATOM     37  C   UNL A   1      39.710  25.183  26.912  1.00  0.00     0.021 C 
BRANCH  37  38
ATOM     38  C   UNL A   1      40.439  24.209  27.832  1.00  0.00     0.116 C 
BRANCH  38  39
ATOM     39  N   UNL A   1      41.099  23.136  27.116  1.00  0.00    -0.352 N 
ATOM     40  C   UNL A   1      42.299  23.109  26.451  1.00  0.00     0.251 C 
ATOM     41  H   UNL A   1      40.605  22.284  27.105  1.00  0.00     0.163 HD
ATOM     42  O   UNL A   1      42.607  22.107  25.809  1.00  0.00    -0.269 OA
BRANCH  40  43
ATOM     43  C   UNL A   1      43.226  24.266  26.472  1.00  0.00     0.039 A 
ATOM     44  C   UNL A   1      43.532  24.890  25.256  1.00  0.00     0.014 A 
ATOM     45  C   UNL A   1      43.853  24.698  27.645  1.00  0.00     0.014 A 
ATOM     46  C   UNL A   1      44.426  25.963  25.220  1.00  0.00     0.010 A 
ATOM     47  C   UNL A   1      44.707  25.803  27.616  1.00  0.00     0.010 A 
ATOM     48  C   UNL A   1      45.009  26.440  26.403  1.00  0.00    -0.014 A 
BRANCH  48  49
ATOM     49  C   UNL A   1      45.965  27.578  26.380  1.00  0.00     0.031 A 
ATOM     50  C   UNL A   1      47.442  27.320  26.252  1.00  0.00     0.074 A 
ATOM     51  C   UNL A   1      45.515  28.840  26.515  1.00  0.00     0.049 A 
ATOM     52  N   UNL A   1      48.438  28.166  26.305  1.00  0.00    -0.248 NA
ATOM     53  C   UNL A   1      47.852  25.919  26.057  1.00  0.00     0.031 C 
ATOM     54  C   UNL A   1      44.113  29.227  26.671  1.00  0.00     0.029 A 
ATOM     55  N   UNL A   1      46.196  30.031  26.551  1.00  0.00    -0.354 N 
ATOM     56  C   UNL A   1      49.592  27.404  26.168  1.00  0.00     0.074 A 
ATOM     57  C   UNL A   1      49.174  26.022  26.064  1.00  0.00     0.031 C 
ATOM     58  C   UNL A   1      44.036  30.565  26.780  1.00  0.00     0.029 A 
ATOM     59  C   UNL A   1      45.384  31.125  26.727  1.00  0.00     0.049 A 
ATOM     60  H   UNL A   1      47.174  30.096  26.461  1.00  0.00     0.167 HD
ATOM     61  C   UNL A   1      50.880  27.817  26.117  1.00  0.00     0.037 A 
ATOM     62  C   UNL A   1      45.691  32.431  26.837  1.00  0.00     0.037 A 
ATOM     63  C   UNL A   1      51.300  29.192  26.192  1.00  0.00     0.049 A 
ATOM     64  C   UNL A   1      47.126  32.866  26.745  1.00  0.00     0.074 A 
ATOM     65  C   UNL A   1      52.585  29.706  26.148  1.00  0.00     0.029 A 
ATOM     66  N   UNL A   1      50.440  30.271  26.308  1.00  0.00    -0.354 N 
ATOM     67  N   UNL A   1      48.204  32.133  26.605  1.00  0.00    -0.248 NA
ATOM     68  C   UNL A   1      47.388  34.311  26.814  1.00  0.00     0.031 C 
ATOM     69  C   UNL A   1      52.502  31.100  26.248  1.00  0.00     0.029 A 
ATOM     70  C   UNL A   1      51.165  31.451  26.326  1.00  0.00     0.049 A 
ATOM     71  H   UNL A   1      49.460  30.208  26.368  1.00  0.00     0.167 HD
ATOM     72  C   UNL A   1      49.265  33.026  26.541  1.00  0.00     0.074 A 
ATOM     73  C   UNL A   1      48.703  34.356  26.647  1.00  0.00     0.031 C 
ATOM     74  C   UNL A   1      50.587  32.767  26.407  1.00  0.00     0.037 A 
BRANCH  61  75
ATOM     75  C   UNL A   1      51.935  26.763  25.962  1.00  0.00     0.057 A 
ATOM     76  C   UNL A   1      52.286  26.259  24.703  1.00  0.00     0.134 A 
ATOM     77  C   UNL A   1      52.631  26.273  27.074  1.00  0.00     0.134 A 
ATOM     78  F   UNL A   1      51.646  26.679  23.602  1.00  0.00    -0.206 F 
ATOM     79  C   UNL A   1      53.282  25.292  24.557  1.00  0.00     0.040 A 
ATOM     80  C   UNL A   1      53.643  25.321  26.938  1.00  0.00     0.040 A 
ATOM     81  F   UNL A   1      52.344  26.718  28.307  1.00  0.00    -0.206 F 
ATOM     82  C   UNL A   1      53.968  24.825  25.677  1.00  0.00     0.006 A 
ENDBRANCH  61  75
BRANCH  62  83
ATOM     83  C   UNL A   1      44.614  33.434  27.027  1.00  0.00     0.057 A 
ATOM     84  C   UNL A   1      44.040  34.091  25.932  1.00  0.00     0.134 A 
ATOM     85  C   UNL A   1      44.152  33.775  28.303  1.00  0.00     0.134 A 
ATOM     86  F   UNL A   1      44.459  33.820  24.687  1.00  0.00    -0.206 F 
ATOM     87  C   UNL A   1      43.058  35.068  26.100  1.00  0.00     0.040 A 
ATOM     88  C   UNL A   1      43.155  34.734  28.484  1.00  0.00     0.040 A 
ATOM     89  F   UNL A   1      44.660  33.176  29.389  1.00  0.00    -0.206 F 
ATOM     90  C   UNL A   1      42.611  35.390  27.380  1.00  0.00     0.006 A 
ENDBRANCH  62  83
BRANCH  74  91
ATOM     91  C   UNL A   1      51.510  33.943  26.318  1.00  0.00     0.057 A 
ATOM     92  C   UNL A   1      52.007  34.578  27.462  1.00  0.00     0.134 A 
ATOM     93  C   UNL A   1      51.931  34.423  25.072  1.00  0.00     0.134 A 
ATOM     94  F   UNL A   1      51.630  34.171  28.684  1.00  0.00    -0.206 F 
ATOM     95  C   UNL A   1      52.879  35.664  27.369  1.00  0.00     0.040 A 
ATOM     96  C   UNL A   1      52.816  35.496  24.967  1.00  0.00     0.040 A 
ATOM     97  F   UNL A   1      51.493  33.853  23.939  1.00  0.00    -0.206 F 
ATOM     98  C   UNL A   1      53.289  36.122  26.119  1.00  0.00     0.006 A 
ENDBRANCH  74  91
ENDBRANCH  48  49
ENDBRANCH  40  43
ENDBRANCH  38  39
ENDBRANCH  37  38
ENDBRANCH  36  37
ENDBRANCH  35  36
ENDBRANCH   1  35
TORSDOF 19
ENDMDL
