MODEL 1
REMARK VINA RESULT:     -11.9      0.000      0.000
REMARK SMILES C[C@@H](Oc1ccc(-c2ccccc2)cc1)C(=O)N1CCC[C@H](C(=O)NCCCCCCNC(=O)c2ccc(-c3c4nc(c(-c5c(F)cccc5F)c5ccc([nH]5)c(-c5c(F)cccc5F)c5nc(c(-c6c(F)cccc6F)c6ccc3[nH]6)C=C5)C=C4)cc2)C1
REMARK SMILES IDX 27 1 26 2 25 3 23 4 24 5 22 7 18 8 19 9 89 10 20 11 21 12
REMARK SMILES IDX 16 13 17 14 2 15 1 16 3 17 4 18 5 19 15 20 6 21 14 22 7 23
REMARK SMILES IDX 8 24 9 25 13 26 10 27 12 28 11 29 28 30 29 31 30 32 31 33
REMARK SMILES IDX 32 34 33 35 34 37 35 38 36 39 88 40 37 41 87 42 38 43 39 44
REMARK SMILES IDX 40 45 81 46 41 47 86 48 80 49 82 50 42 51 85 52 79 53 78 54
REMARK SMILES IDX 43 56 69 57 52 58 68 59 53 60 56 61 67 62 83 63 54 64 55 65
REMARK SMILES IDX 66 67 84 68 57 69 44 70 45 71 50 72 46 73 47 74 49 75 51 76
REMARK SMILES IDX 48 77 70 78 71 79 76 80 72 81 73 82 75 83 77 84 74 85 58 86
REMARK SMILES IDX 59 87 64 88 60 89 61 90 63 91 65 92 62 93
REMARK H PARENT 25 6 32 36 82 55 56 66
REMARK Flexibility Score: inf
ROOT
ATOM      1  C   UNL A   1      34.988  29.371  27.091  1.00  0.00     0.021 C 
ENDROOT
BRANCH   1   2
ATOM      2  C   UNL A   1      34.127  28.317  26.401  1.00  0.00     0.116 C 
BRANCH   2   3
ATOM      3  N   UNL A   1      33.993  28.526  24.977  1.00  0.00    -0.356 N 
ATOM      4  C   UNL A   1      32.921  28.830  24.205  1.00  0.00     0.224 C 
ATOM      5  O   UNL A   1      33.170  29.140  23.033  1.00  0.00    -0.275 OA
ATOM      6  H   UNL A   1      34.835  28.431  24.476  1.00  0.00     0.163 HD
BRANCH   4   7
ATOM      7  C   UNL A   1      31.458  28.805  24.672  1.00  0.00     0.098 C 
ATOM      8  N   UNL A   1      30.472  26.524  24.554  1.00  0.00    -0.339 N 
ATOM      9  C   UNL A   1      29.365  26.972  23.709  1.00  0.00     0.119 C 
ATOM     10  C   UNL A   1      31.036  27.543  25.427  1.00  0.00     0.133 C 
ATOM     11  C   UNL A   1      29.689  28.211  22.879  1.00  0.00     0.022 C 
ATOM     12  C   UNL A   1      30.432  29.299  23.649  1.00  0.00     0.017 C 
BRANCH   8  13
ATOM     13  C   UNL A   1      30.852  25.184  24.516  1.00  0.00     0.263 C 
ATOM     14  O   UNL A   1      30.470  24.401  25.395  1.00  0.00    -0.271 OA
BRANCH  13  15
ATOM     15  C   UNL A   1      31.809  24.666  23.418  1.00  0.00     0.259 C 
ATOM     16  C   UNL A   1      32.184  25.675  22.335  1.00  0.00     0.064 C 
BRANCH  15  17
ATOM     17  O   UNL A   1      32.971  24.180  24.103  1.00  0.00    -0.481 OA
BRANCH  17  18
ATOM     18  C   UNL A   1      33.125  22.827  23.998  1.00  0.00     0.120 A 
ATOM     19  C   UNL A   1      32.244  22.055  23.243  1.00  0.00     0.047 A 
ATOM     20  C   UNL A   1      34.084  22.222  24.798  1.00  0.00     0.047 A 
ATOM     21  C   UNL A   1      32.314  20.657  23.312  1.00  0.00     0.012 A 
ATOM     22  C   UNL A   1      34.157  20.833  24.858  1.00  0.00     0.012 A 
ATOM     23  C   UNL A   1      33.251  20.024  24.147  1.00  0.00    -0.018 A 
BRANCH  23  24
ATOM     24  C   UNL A   1      33.253  18.566  24.361  1.00  0.00    -0.018 A 
ATOM     25  C   UNL A   1      33.815  17.673  23.439  1.00  0.00     0.009 A 
ATOM     26  C   UNL A   1      32.684  18.032  25.533  1.00  0.00     0.009 A 
ATOM     27  C   UNL A   1      33.827  16.296  23.692  1.00  0.00     0.001 A 
ATOM     28  C   UNL A   1      32.696  16.660  25.789  1.00  0.00     0.001 A 
ATOM     29  C   UNL A   1      33.272  15.793  24.868  1.00  0.00     0.000 A 
ENDBRANCH  23  24
ENDBRANCH  17  18
ENDBRANCH  15  17
ENDBRANCH  13  15
ENDBRANCH   8  13
ENDBRANCH   4   7
ENDBRANCH   2   3
ENDBRANCH   1   2
BRANCH   1  30
ATOM     30  C   UNL A   1      34.251  30.671  27.419  1.00  0.00     0.002 C 
BRANCH  30  31
ATOM     31  C   UNL A   1      32.719  30.587  27.426  1.00  0.00     0.002 C 
BRANCH  31  32
ATOM     32  C   UNL A   1      31.966  31.909  27.247  1.00  0.00     0.021 C 
BRANCH  32  33
ATOM     33  C   UNL A   1      32.824  33.107  26.844  1.00  0.00     0.116 C 
BRANCH  33  34
ATOM     34  N   UNL A   1      32.587  34.267  27.688  1.00  0.00    -0.352 N 
ATOM     35  C   UNL A   1      33.146  34.632  28.885  1.00  0.00     0.251 C 
ATOM     36  H   UNL A   1      31.912  34.894  27.342  1.00  0.00     0.163 HD
ATOM     37  O   UNL A   1      32.665  35.569  29.515  1.00  0.00    -0.269 OA
BRANCH  35  38
ATOM     38  C   UNL A   1      34.319  33.913  29.432  1.00  0.00     0.039 A 
ATOM     39  C   UNL A   1      35.589  34.266  28.966  1.00  0.00     0.014 A 
ATOM     40  C   UNL A   1      34.176  32.858  30.337  1.00  0.00     0.014 A 
ATOM     41  C   UNL A   1      36.717  33.590  29.436  1.00  0.00     0.010 A 
ATOM     42  C   UNL A   1      35.308  32.225  30.853  1.00  0.00     0.010 A 
ATOM     43  C   UNL A   1      36.587  32.577  30.398  1.00  0.00    -0.014 A 
BRANCH  43  44
ATOM     44  C   UNL A   1      37.785  31.873  30.924  1.00  0.00     0.031 A 
ATOM     45  C   UNL A   1      38.337  32.219  32.279  1.00  0.00     0.074 A 
ATOM     46  C   UNL A   1      38.396  30.946  30.163  1.00  0.00     0.049 A 
ATOM     47  N   UNL A   1      39.380  31.724  32.898  1.00  0.00    -0.248 NA
ATOM     48  C   UNL A   1      37.640  33.275  33.029  1.00  0.00     0.031 C 
ATOM     49  C   UNL A   1      37.987  30.559  28.812  1.00  0.00     0.029 A 
ATOM     50  N   UNL A   1      39.494  30.164  30.416  1.00  0.00    -0.354 N 
ATOM     51  C   UNL A   1      39.470  32.414  34.099  1.00  0.00     0.074 A 
ATOM     52  C   UNL A   1      38.408  33.396  34.102  1.00  0.00     0.031 C 
ATOM     53  C   UNL A   1      38.809  29.594  28.364  1.00  0.00     0.029 A 
ATOM     54  C   UNL A   1      39.815  29.315  29.385  1.00  0.00     0.049 A 
ATOM     55  H   UNL A   1      40.004  30.207  31.258  1.00  0.00     0.167 HD
ATOM     56  C   UNL A   1      40.345  32.232  35.118  1.00  0.00     0.037 A 
ATOM     57  C   UNL A   1      40.807  28.413  29.276  1.00  0.00     0.037 A 
ATOM     58  C   UNL A   1      41.386  31.237  35.124  1.00  0.00     0.049 A 
ATOM     59  C   UNL A   1      41.756  28.220  30.425  1.00  0.00     0.074 A 
ATOM     60  C   UNL A   1      42.283  30.932  36.133  1.00  0.00     0.029 A 
ATOM     61  N   UNL A   1      41.669  30.385  34.067  1.00  0.00    -0.354 N 
ATOM     62  N   UNL A   1      41.786  28.831  31.584  1.00  0.00    -0.248 NA
ATOM     63  C   UNL A   1      42.802  27.202  30.254  1.00  0.00     0.031 C 
ATOM     64  C   UNL A   1      43.133  29.919  35.674  1.00  0.00     0.029 A 
ATOM     65  C   UNL A   1      42.739  29.566  34.394  1.00  0.00     0.049 A 
ATOM     66  H   UNL A   1      41.182  30.365  33.212  1.00  0.00     0.167 HD
ATOM     67  C   UNL A   1      42.839  28.261  32.287  1.00  0.00     0.074 A 
ATOM     68  C   UNL A   1      43.410  27.241  31.431  1.00  0.00     0.031 C 
ATOM     69  C   UNL A   1      43.296  28.558  33.528  1.00  0.00     0.037 A 
BRANCH  56  70
ATOM     70  C   UNL A   1      40.208  33.127  36.314  1.00  0.00     0.057 A 
ATOM     71  C   UNL A   1      39.321  32.831  37.358  1.00  0.00     0.134 A 
ATOM     72  C   UNL A   1      40.988  34.283  36.438  1.00  0.00     0.134 A 
ATOM     73  F   UNL A   1      38.535  31.745  37.295  1.00  0.00    -0.206 F 
ATOM     74  C   UNL A   1      39.198  33.665  38.471  1.00  0.00     0.040 A 
ATOM     75  C   UNL A   1      40.892  35.112  37.558  1.00  0.00     0.040 A 
ATOM     76  F   UNL A   1      41.862  34.623  35.479  1.00  0.00    -0.206 F 
ATOM     77  C   UNL A   1      39.989  34.807  38.575  1.00  0.00     0.006 A 
ENDBRANCH  56  70
BRANCH  57  78
ATOM     78  C   UNL A   1      40.934  27.598  28.043  1.00  0.00     0.057 A 
ATOM     79  C   UNL A   1      41.680  28.055  26.951  1.00  0.00     0.134 A 
ATOM     80  C   UNL A   1      40.313  26.349  27.925  1.00  0.00     0.134 A 
ATOM     81  F   UNL A   1      42.282  29.252  27.000  1.00  0.00    -0.206 F 
ATOM     82  C   UNL A   1      41.790  27.308  25.777  1.00  0.00     0.040 A 
ATOM     83  C   UNL A   1      40.433  25.581  26.765  1.00  0.00     0.040 A 
ATOM     84  F   UNL A   1      39.588  25.854  28.939  1.00  0.00    -0.206 F 
ATOM     85  C   UNL A   1      41.169  26.065  25.685  1.00  0.00     0.006 A 
ENDBRANCH  57  78
BRANCH  69  86
ATOM     86  C   UNL A   1      44.456  27.754  34.037  1.00  0.00     0.057 A 
ATOM     87  C   UNL A   1      44.274  26.520  34.672  1.00  0.00     0.134 A 
ATOM     88  C   UNL A   1      45.769  28.212  33.869  1.00  0.00     0.134 A 
ATOM     89  F   UNL A   1      43.040  26.035  34.875  1.00  0.00    -0.206 F 
ATOM     90  C   UNL A   1      45.357  25.780  35.149  1.00  0.00     0.040 A 
ATOM     91  C   UNL A   1      46.861  27.468  34.319  1.00  0.00     0.040 A 
ATOM     92  F   UNL A   1      46.011  29.382  33.263  1.00  0.00    -0.206 F 
ATOM     93  C   UNL A   1      46.656  26.252  34.967  1.00  0.00     0.006 A 
ENDBRANCH  69  86
ENDBRANCH  43  44
ENDBRANCH  35  38
ENDBRANCH  33  34
ENDBRANCH  32  33
ENDBRANCH  31  32
ENDBRANCH  30  31
ENDBRANCH   1  30
TORSDOF 18
ENDMDL
MODEL 2
REMARK VINA RESULT:     -11.7      5.622     11.217
REMARK SMILES C[C@@H](Oc1ccc(-c2ccccc2)cc1)C(=O)N1CCC[C@H](C(=O)NCCCCCCNC(=O)c2ccc(-c3c4nc(c(-c5c(F)cccc5F)c5ccc([nH]5)c(-c5c(F)cccc5F)c5nc(c(-c6c(F)cccc6F)c6ccc3[nH]6)C=C5)C=C4)cc2)C1
REMARK SMILES IDX 27 1 26 2 25 3 23 4 24 5 22 7 18 8 19 9 89 10 20 11 21 12
REMARK SMILES IDX 16 13 17 14 2 15 1 16 3 17 4 18 5 19 15 20 6 21 14 22 7 23
REMARK SMILES IDX 8 24 9 25 13 26 10 27 12 28 11 29 28 30 29 31 30 32 31 33
REMARK SMILES IDX 32 34 33 35 34 37 35 38 36 39 88 40 37 41 87 42 38 43 39 44
REMARK SMILES IDX 40 45 81 46 41 47 86 48 80 49 82 50 42 51 85 52 79 53 78 54
REMARK SMILES IDX 43 56 69 57 52 58 68 59 53 60 56 61 67 62 83 63 54 64 55 65
REMARK SMILES IDX 66 67 84 68 57 69 44 70 45 71 50 72 46 73 47 74 49 75 51 76
REMARK SMILES IDX 48 77 70 78 71 79 76 80 72 81 73 82 75 83 77 84 74 85 58 86
REMARK SMILES IDX 59 87 64 88 60 89 61 90 63 91 65 92 62 93
REMARK H PARENT 25 6 32 36 82 55 56 66
REMARK Flexibility Score: inf
ROOT
ATOM      1  C   UNL A   1      39.677  22.364  26.509  1.00  0.00     0.021 C 
ENDROOT
BRANCH   1   2
ATOM      2  C   UNL A   1      38.416  21.962  25.748  1.00  0.00     0.116 C 
BRANCH   2   3
ATOM      3  N   UNL A   1      37.210  22.557  26.278  1.00  0.00    -0.356 N 
ATOM      4  C   UNL A   1      35.904  22.392  25.954  1.00  0.00     0.224 C 
ATOM      5  O   UNL A   1      35.087  22.900  26.732  1.00  0.00    -0.275 OA
ATOM      6  H   UNL A   1      37.365  23.198  27.008  1.00  0.00     0.163 HD
BRANCH   4   7
ATOM      7  C   UNL A   1      35.385  21.646  24.716  1.00  0.00     0.098 C 
ATOM      8  N   UNL A   1      32.903  21.714  24.549  1.00  0.00    -0.339 N 
ATOM      9  C   UNL A   1      32.799  20.257  24.489  1.00  0.00     0.119 C 
ATOM     10  C   UNL A   1      34.154  22.266  24.050  1.00  0.00     0.133 C 
ATOM     11  C   UNL A   1      33.962  19.530  25.159  1.00  0.00     0.022 C 
ATOM     12  C   UNL A   1      35.332  20.121  24.839  1.00  0.00     0.017 C 
BRANCH   8  13
ATOM     13  C   UNL A   1      31.811  22.452  24.998  1.00  0.00     0.263 C 
ATOM     14  O   UNL A   1      30.976  21.937  25.752  1.00  0.00    -0.271 OA
BRANCH  13  15
ATOM     15  C   UNL A   1      31.585  23.903  24.515  1.00  0.00     0.259 C 
ATOM     16  C   UNL A   1      30.639  24.066  23.328  1.00  0.00     0.064 C 
BRANCH  15  17
ATOM     17  O   UNL A   1      31.120  24.633  25.657  1.00  0.00    -0.481 OA
BRANCH  17  18
ATOM     18  C   UNL A   1      31.759  25.828  25.823  1.00  0.00     0.120 A 
ATOM     19  C   UNL A   1      33.134  25.946  25.630  1.00  0.00     0.047 A 
ATOM     20  C   UNL A   1      31.028  26.885  26.349  1.00  0.00     0.047 A 
ATOM     21  C   UNL A   1      33.785  27.133  25.995  1.00  0.00     0.012 A 
ATOM     22  C   UNL A   1      31.676  28.065  26.702  1.00  0.00     0.012 A 
ATOM     23  C   UNL A   1      33.070  28.200  26.567  1.00  0.00    -0.018 A 
BRANCH  23  24
ATOM     24  C   UNL A   1      33.742  29.398  27.100  1.00  0.00    -0.018 A 
ATOM     25  C   UNL A   1      35.087  29.392  27.493  1.00  0.00     0.009 A 
ATOM     26  C   UNL A   1      33.027  30.605  27.215  1.00  0.00     0.009 A 
ATOM     27  C   UNL A   1      35.700  30.560  27.963  1.00  0.00     0.001 A 
ATOM     28  C   UNL A   1      33.636  31.771  27.683  1.00  0.00     0.001 A 
ATOM     29  C   UNL A   1      34.975  31.747  28.054  1.00  0.00     0.000 A 
ENDBRANCH  23  24
ENDBRANCH  17  18
ENDBRANCH  15  17
ENDBRANCH  13  15
ENDBRANCH   8  13
ENDBRANCH   4   7
ENDBRANCH   2   3
ENDBRANCH   1   2
BRANCH   1  30
ATOM     30  C   UNL A   1      40.519  21.185  27.001  1.00  0.00     0.002 C 
BRANCH  30  31
ATOM     31  C   UNL A   1      41.758  20.852  26.158  1.00  0.00     0.002 C 
BRANCH  31  32
ATOM     32  C   UNL A   1      41.929  19.383  25.756  1.00  0.00     0.021 C 
BRANCH  32  33
ATOM     33  C   UNL A   1      43.284  18.762  26.089  1.00  0.00     0.116 C 
BRANCH  33  34
ATOM     34  N   UNL A   1      44.113  18.577  24.910  1.00  0.00    -0.352 N 
ATOM     35  C   UNL A   1      44.807  19.484  24.152  1.00  0.00     0.251 C 
ATOM     36  H   UNL A   1      44.189  17.644  24.604  1.00  0.00     0.163 HD
ATOM     37  O   UNL A   1      45.300  19.129  23.086  1.00  0.00    -0.269 OA
BRANCH  35  38
ATOM     38  C   UNL A   1      44.969  20.886  24.597  1.00  0.00     0.039 A 
ATOM     39  C   UNL A   1      45.515  21.122  25.862  1.00  0.00     0.014 A 
ATOM     40  C   UNL A   1      44.527  21.959  23.818  1.00  0.00     0.014 A 
ATOM     41  C   UNL A   1      45.656  22.431  26.329  1.00  0.00     0.010 A 
ATOM     42  C   UNL A   1      44.724  23.269  24.258  1.00  0.00     0.010 A 
ATOM     43  C   UNL A   1      45.279  23.516  25.522  1.00  0.00    -0.014 A 
BRANCH  43  44
ATOM     44  C   UNL A   1      45.452  24.911  26.001  1.00  0.00     0.031 A 
ATOM     45  C   UNL A   1      46.798  25.577  25.935  1.00  0.00     0.074 A 
ATOM     46  C   UNL A   1      44.401  25.566  26.529  1.00  0.00     0.049 A 
ATOM     47  N   UNL A   1      47.145  26.781  26.317  1.00  0.00    -0.248 NA
ATOM     48  C   UNL A   1      47.906  24.779  25.387  1.00  0.00     0.031 C 
ATOM     49  C   UNL A   1      43.057  25.011  26.695  1.00  0.00     0.029 A 
ATOM     50  N   UNL A   1      44.300  26.840  27.027  1.00  0.00    -0.354 N 
ATOM     51  C   UNL A   1      48.508  26.879  26.068  1.00  0.00     0.074 A 
ATOM     52  C   UNL A   1      48.936  25.598  25.549  1.00  0.00     0.031 C 
ATOM     53  C   UNL A   1      42.259  25.949  27.233  1.00  0.00     0.029 A 
ATOM     54  C   UNL A   1      43.040  27.158  27.473  1.00  0.00     0.049 A 
ATOM     55  H   UNL A   1      45.058  27.468  27.060  1.00  0.00     0.167 HD
ATOM     56  C   UNL A   1      49.325  27.947  26.237  1.00  0.00     0.037 A 
ATOM     57  C   UNL A   1      42.569  28.297  28.012  1.00  0.00     0.037 A 
ATOM     58  C   UNL A   1      48.893  29.229  26.729  1.00  0.00     0.049 A 
ATOM     59  C   UNL A   1      43.493  29.472  28.175  1.00  0.00     0.074 A 
ATOM     60  C   UNL A   1      49.632  30.390  26.877  1.00  0.00     0.029 A 
ATOM     61  N   UNL A   1      47.606  29.517  27.156  1.00  0.00    -0.354 N 
ATOM     62  N   UNL A   1      44.763  29.572  27.870  1.00  0.00    -0.248 NA
ATOM     63  C   UNL A   1      42.912  30.694  28.747  1.00  0.00     0.031 C 
ATOM     64  C   UNL A   1      48.799  31.372  27.426  1.00  0.00     0.029 A 
ATOM     65  C   UNL A   1      47.533  30.833  27.583  1.00  0.00     0.049 A 
ATOM     66  H   UNL A   1      46.855  28.880  27.154  1.00  0.00     0.167 HD
ATOM     67  C   UNL A   1      45.130  30.872  28.195  1.00  0.00     0.074 A 
ATOM     68  C   UNL A   1      43.941  31.528  28.702  1.00  0.00     0.031 C 
ATOM     69  C   UNL A   1      46.342  31.468  28.087  1.00  0.00     0.037 A 
BRANCH  56  70
ATOM     70  C   UNL A   1      50.772  27.771  25.878  1.00  0.00     0.057 A 
ATOM     71  C   UNL A   1      51.736  27.447  26.843  1.00  0.00     0.134 A 
ATOM     72  C   UNL A   1      51.203  27.900  24.553  1.00  0.00     0.134 A 
ATOM     73  F   UNL A   1      51.391  27.321  28.133  1.00  0.00    -0.206 F 
ATOM     74  C   UNL A   1      53.081  27.282  26.505  1.00  0.00     0.040 A 
ATOM     75  C   UNL A   1      52.541  27.714  24.198  1.00  0.00     0.040 A 
ATOM     76  F   UNL A   1      50.332  28.203  23.578  1.00  0.00    -0.206 F 
ATOM     77  C   UNL A   1      53.485  27.410  25.178  1.00  0.00     0.006 A 
ENDBRANCH  56  70
BRANCH  57  78
ATOM     78  C   UNL A   1      41.143  28.395  28.408  1.00  0.00     0.057 A 
ATOM     79  C   UNL A   1      40.735  28.090  29.711  1.00  0.00     0.134 A 
ATOM     80  C   UNL A   1      40.156  28.787  27.496  1.00  0.00     0.134 A 
ATOM     81  F   UNL A   1      41.633  27.689  30.623  1.00  0.00    -0.206 F 
ATOM     82  C   UNL A   1      39.393  28.157  30.091  1.00  0.00     0.040 A 
ATOM     83  C   UNL A   1      38.814  28.880  27.868  1.00  0.00     0.040 A 
ATOM     84  F   UNL A   1      40.486  29.097  26.233  1.00  0.00    -0.206 F 
ATOM     85  C   UNL A   1      38.429  28.557  29.168  1.00  0.00     0.006 A 
ENDBRANCH  57  78
BRANCH  69  86
ATOM     86  C   UNL A   1      46.433  32.905  28.508  1.00  0.00     0.057 A 
ATOM     87  C   UNL A   1      46.771  33.269  29.818  1.00  0.00     0.134 A 
ATOM     88  C   UNL A   1      46.201  33.935  27.588  1.00  0.00     0.134 A 
ATOM     89  F   UNL A   1      46.992  32.329  30.749  1.00  0.00    -0.206 F 
ATOM     90  C   UNL A   1      46.847  34.607  30.205  1.00  0.00     0.040 A 
ATOM     91  C   UNL A   1      46.299  35.277  27.957  1.00  0.00     0.040 A 
ATOM     92  F   UNL A   1      45.881  33.654  26.317  1.00  0.00    -0.206 F 
ATOM     93  C   UNL A   1      46.616  35.616  29.271  1.00  0.00     0.006 A 
ENDBRANCH  69  86
ENDBRANCH  43  44
ENDBRANCH  35  38
ENDBRANCH  33  34
ENDBRANCH  32  33
ENDBRANCH  31  32
ENDBRANCH  30  31
ENDBRANCH   1  30
TORSDOF 18
ENDMDL
MODEL 3
REMARK VINA RESULT:     -11.7      2.065      5.292
REMARK SMILES C[C@@H](Oc1ccc(-c2ccccc2)cc1)C(=O)N1CCC[C@H](C(=O)NCCCCCCNC(=O)c2ccc(-c3c4nc(c(-c5c(F)cccc5F)c5ccc([nH]5)c(-c5c(F)cccc5F)c5nc(c(-c6c(F)cccc6F)c6ccc3[nH]6)C=C5)C=C4)cc2)C1
REMARK SMILES IDX 27 1 26 2 25 3 23 4 24 5 22 7 18 8 19 9 89 10 20 11 21 12
REMARK SMILES IDX 16 13 17 14 2 15 1 16 3 17 4 18 5 19 15 20 6 21 14 22 7 23
REMARK SMILES IDX 8 24 9 25 13 26 10 27 12 28 11 29 28 30 29 31 30 32 31 33
REMARK SMILES IDX 32 34 33 35 34 37 35 38 36 39 88 40 37 41 87 42 38 43 39 44
REMARK SMILES IDX 40 45 81 46 41 47 86 48 80 49 82 50 42 51 85 52 79 53 78 54
REMARK SMILES IDX 43 56 69 57 52 58 68 59 53 60 56 61 67 62 83 63 54 64 55 65
REMARK SMILES IDX 66 67 84 68 57 69 44 70 45 71 50 72 46 73 47 74 49 75 51 76
REMARK SMILES IDX 48 77 70 78 71 79 76 80 72 81 73 82 75 83 77 84 74 85 58 86
REMARK SMILES IDX 59 87 64 88 60 89 61 90 63 91 65 92 62 93
REMARK H PARENT 25 6 32 36 82 55 56 66
REMARK Flexibility Score: inf
ROOT
ATOM      1  C   UNL A   1      32.371  28.171  26.026  1.00  0.00     0.021 C 
ENDROOT
BRANCH   1   2
ATOM      2  C   UNL A   1      31.801  27.250  27.101  1.00  0.00     0.116 C 
BRANCH   2   3
ATOM      3  N   UNL A   1      31.139  26.082  26.565  1.00  0.00    -0.356 N 
ATOM      4  C   UNL A   1      31.595  24.838  26.278  1.00  0.00     0.224 C 
ATOM      5  O   UNL A   1      30.730  23.994  26.013  1.00  0.00    -0.275 OA
ATOM      6  H   UNL A   1      30.183  26.214  26.375  1.00  0.00     0.163 HD
BRANCH   4   7
ATOM      7  C   UNL A   1      33.073  24.421  26.249  1.00  0.00     0.098 C 
ATOM      8  N   UNL A   1      33.828  23.794  23.962  1.00  0.00    -0.339 N 
ATOM      9  C   UNL A   1      34.286  22.476  24.401  1.00  0.00     0.119 C 
ATOM     10  C   UNL A   1      33.840  24.826  24.988  1.00  0.00     0.133 C 
ATOM     11  C   UNL A   1      33.559  21.953  25.637  1.00  0.00     0.022 C 
ATOM     12  C   UNL A   1      33.365  22.998  26.732  1.00  0.00     0.017 C 
BRANCH   8  13
ATOM     13  C   UNL A   1      33.489  23.981  22.624  1.00  0.00     0.263 C 
ATOM     14  O   UNL A   1      33.804  23.137  21.775  1.00  0.00    -0.271 OA
BRANCH  13  15
ATOM     15  C   UNL A   1      32.773  25.272  22.164  1.00  0.00     0.259 C 
ATOM     16  C   UNL A   1      32.624  25.444  20.655  1.00  0.00     0.064 C 
BRANCH  15  17
ATOM     17  O   UNL A   1      31.498  25.271  22.817  1.00  0.00    -0.481 OA
BRANCH  17  18
ATOM     18  C   UNL A   1      30.962  26.522  22.942  1.00  0.00     0.120 A 
ATOM     19  C   UNL A   1      29.632  26.705  23.313  1.00  0.00     0.047 A 
ATOM     20  C   UNL A   1      31.733  27.599  22.527  1.00  0.00     0.047 A 
ATOM     21  C   UNL A   1      29.062  27.984  23.243  1.00  0.00     0.012 A 
ATOM     22  C   UNL A   1      31.167  28.870  22.467  1.00  0.00     0.012 A 
ATOM     23  C   UNL A   1      29.813  29.082  22.787  1.00  0.00    -0.018 A 
BRANCH  23  24
ATOM     24  C   UNL A   1      29.207  30.405  22.557  1.00  0.00    -0.018 A 
ATOM     25  C   UNL A   1      29.101  31.368  23.570  1.00  0.00     0.009 A 
ATOM     26  C   UNL A   1      28.723  30.737  21.278  1.00  0.00     0.009 A 
ATOM     27  C   UNL A   1      28.549  32.627  23.304  1.00  0.00     0.001 A 
ATOM     28  C   UNL A   1      28.173  31.992  21.010  1.00  0.00     0.001 A 
ATOM     29  C   UNL A   1      28.090  32.938  22.025  1.00  0.00     0.000 A 
ENDBRANCH  23  24
ENDBRANCH  17  18
ENDBRANCH  15  17
ENDBRANCH  13  15
ENDBRANCH   8  13
ENDBRANCH   4   7
ENDBRANCH   2   3
ENDBRANCH   1   2
BRANCH   1  30
ATOM     30  C   UNL A   1      31.703  29.546  25.954  1.00  0.00     0.002 C 
BRANCH  30  31
ATOM     31  C   UNL A   1      31.992  30.491  27.129  1.00  0.00     0.002 C 
BRANCH  31  32
ATOM     32  C   UNL A   1      31.536  31.944  26.958  1.00  0.00     0.021 C 
BRANCH  32  33
ATOM     33  C   UNL A   1      32.656  32.975  26.826  1.00  0.00     0.116 C 
BRANCH  33  34
ATOM     34  N   UNL A   1      32.452  34.128  27.687  1.00  0.00    -0.352 N 
ATOM     35  C   UNL A   1      33.146  34.557  28.788  1.00  0.00     0.251 C 
ATOM     36  H   UNL A   1      31.687  34.696  27.438  1.00  0.00     0.163 HD
ATOM     37  O   UNL A   1      32.687  35.465  29.475  1.00  0.00    -0.269 OA
BRANCH  35  38
ATOM     38  C   UNL A   1      34.437  33.940  29.165  1.00  0.00     0.039 A 
ATOM     39  C   UNL A   1      34.434  32.940  30.143  1.00  0.00     0.014 A 
ATOM     40  C   UNL A   1      35.647  34.381  28.624  1.00  0.00     0.014 A 
ATOM     41  C   UNL A   1      35.636  32.355  30.547  1.00  0.00     0.010 A 
ATOM     42  C   UNL A   1      36.841  33.755  28.983  1.00  0.00     0.010 A 
ATOM     43  C   UNL A   1      36.848  32.744  29.956  1.00  0.00    -0.014 A 
BRANCH  43  44
ATOM     44  C   UNL A   1      38.127  32.107  30.361  1.00  0.00     0.031 A 
ATOM     45  C   UNL A   1      38.998  32.746  31.406  1.00  0.00     0.074 A 
ATOM     46  C   UNL A   1      38.519  30.968  29.759  1.00  0.00     0.049 A 
ATOM     47  N   UNL A   1      40.153  32.346  31.878  1.00  0.00    -0.248 NA
ATOM     48  C   UNL A   1      38.521  34.012  31.983  1.00  0.00     0.031 C 
ATOM     49  C   UNL A   1      37.788  30.279  28.696  1.00  0.00     0.029 A 
ATOM     50  N   UNL A   1      39.634  30.193  29.954  1.00  0.00    -0.354 N 
ATOM     51  C   UNL A   1      40.544  33.313  32.793  1.00  0.00     0.074 A 
ATOM     52  C   UNL A   1      39.530  34.345  32.776  1.00  0.00     0.031 C 
ATOM     53  C   UNL A   1      38.460  29.169  28.349  1.00  0.00     0.029 A 
ATOM     54  C   UNL A   1      39.680  29.084  29.145  1.00  0.00     0.049 A 
ATOM     55  H   UNL A   1      40.335  30.411  30.611  1.00  0.00     0.167 HD
ATOM     56  C   UNL A   1      41.638  33.331  33.592  1.00  0.00     0.037 A 
ATOM     57  C   UNL A   1      40.602  28.107  29.059  1.00  0.00     0.037 A 
ATOM     58  C   UNL A   1      42.634  32.292  33.627  1.00  0.00     0.049 A 
ATOM     59  C   UNL A   1      41.799  28.142  29.966  1.00  0.00     0.074 A 
ATOM     60  C   UNL A   1      43.746  32.188  34.445  1.00  0.00     0.029 A 
ATOM     61  N   UNL A   1      42.637  31.176  32.804  1.00  0.00    -0.354 N 
ATOM     62  N   UNL A   1      42.121  29.028  30.876  1.00  0.00    -0.248 NA
ATOM     63  C   UNL A   1      42.757  27.034  29.840  1.00  0.00     0.031 C 
ATOM     64  C   UNL A   1      44.442  31.025  34.093  1.00  0.00     0.029 A 
ATOM     65  C   UNL A   1      43.742  30.386  33.083  1.00  0.00     0.049 A 
ATOM     66  H   UNL A   1      41.956  30.974  32.123  1.00  0.00     0.167 HD
ATOM     67  C   UNL A   1      43.305  28.577  31.444  1.00  0.00     0.074 A 
ATOM     68  C   UNL A   1      43.634  27.327  30.789  1.00  0.00     0.031 C 
ATOM     69  C   UNL A   1      44.055  29.147  32.419  1.00  0.00     0.037 A 
BRANCH  56  70
ATOM     70  C   UNL A   1      41.811  34.514  34.500  1.00  0.00     0.057 A 
ATOM     71  C   UNL A   1      42.459  35.682  34.073  1.00  0.00     0.134 A 
ATOM     72  C   UNL A   1      41.302  34.498  35.804  1.00  0.00     0.134 A 
ATOM     73  F   UNL A   1      42.980  35.758  32.839  1.00  0.00    -0.206 F 
ATOM     74  C   UNL A   1      42.615  36.781  34.920  1.00  0.00     0.040 A 
ATOM     75  C   UNL A   1      41.430  35.600  36.651  1.00  0.00     0.040 A 
ATOM     76  F   UNL A   1      40.665  33.415  36.275  1.00  0.00    -0.206 F 
ATOM     77  C   UNL A   1      42.095  36.744  36.211  1.00  0.00     0.006 A 
ENDBRANCH  56  70
BRANCH  57  78
ATOM     78  C   UNL A   1      40.412  26.993  28.098  1.00  0.00     0.057 A 
ATOM     79  C   UNL A   1      41.012  27.022  26.834  1.00  0.00     0.134 A 
ATOM     80  C   UNL A   1      39.626  25.880  28.415  1.00  0.00     0.134 A 
ATOM     81  F   UNL A   1      41.761  28.072  26.467  1.00  0.00    -0.206 F 
ATOM     82  C   UNL A   1      40.824  25.991  25.912  1.00  0.00     0.040 A 
ATOM     83  C   UNL A   1      39.447  24.831  27.511  1.00  0.00     0.040 A 
ATOM     84  F   UNL A   1      39.028  25.791  29.613  1.00  0.00    -0.206 F 
ATOM     85  C   UNL A   1      40.043  24.889  26.252  1.00  0.00     0.006 A 
ENDBRANCH  57  78
BRANCH  69  86
ATOM     86  C   UNL A   1      45.292  28.411  32.843  1.00  0.00     0.057 A 
ATOM     87  C   UNL A   1      46.538  28.668  32.259  1.00  0.00     0.134 A 
ATOM     88  C   UNL A   1      45.237  27.452  33.862  1.00  0.00     0.134 A 
ATOM     89  F   UNL A   1      46.653  29.565  31.269  1.00  0.00    -0.206 F 
ATOM     90  C   UNL A   1      47.683  27.975  32.653  1.00  0.00     0.040 A 
ATOM     91  C   UNL A   1      46.381  26.771  34.282  1.00  0.00     0.040 A 
ATOM     92  F   UNL A   1      44.076  27.165  34.467  1.00  0.00    -0.206 F 
ATOM     93  C   UNL A   1      47.608  27.027  33.672  1.00  0.00     0.006 A 
ENDBRANCH  69  86
ENDBRANCH  43  44
ENDBRANCH  35  38
ENDBRANCH  33  34
ENDBRANCH  32  33
ENDBRANCH  31  32
ENDBRANCH  30  31
ENDBRANCH   1  30
TORSDOF 18
ENDMDL
