MODEL 1
REMARK VINA RESULT:     -10.8      0.000      0.000
REMARK SMILES COc1c(C(=O)NCCCCCCNC(=O)c2ccc(-c3c4nc(c(-c5c(F)cccc5F)c5ccc([nH]5)c(-c5c(F)cccc5F)c5nc(c(-c6c(F)cccc6F)c6ccc3[nH]6)C=C5)C=C4)cc2)ccc(F)c1F
REMARK SMILES IDX 11 1 10 2 9 3 8 4 7 5 5 6 6 7 4 9 3 10 75 11 71 12 73 13
REMARK SMILES IDX 76 14 72 15 74 16 2 17 1 18 12 19 13 20 14 21 15 22 16 24
REMARK SMILES IDX 17 25 18 26 70 27 19 28 69 29 20 30 21 31 22 32 63 33 23 34
REMARK SMILES IDX 68 35 62 36 64 37 24 38 67 39 61 40 60 41 25 43 51 44 34 45
REMARK SMILES IDX 50 46 35 47 38 48 49 49 65 50 36 51 37 52 48 54 66 55 39 56
REMARK SMILES IDX 26 57 27 58 32 59 28 60 29 61 31 62 33 63 30 64 52 65 53 66
REMARK SMILES IDX 58 67 54 68 55 69 57 70 59 71 56 72 40 73 41 74 46 75 42 76
REMARK SMILES IDX 43 77 45 78 47 79 44 80
REMARK H PARENT 7 8 14 23 64 42 38 53
REMARK Flexibility Score: inf
ROOT
ATOM      1  C   UNL A   1      36.510  20.799  25.072  1.00  0.00     0.002 C 
ENDROOT
BRANCH   1   2
ATOM      2  C   UNL A   1      36.415  22.121  24.299  1.00  0.00     0.002 C 
BRANCH   2   3
ATOM      3  C   UNL A   1      35.871  23.314  25.104  1.00  0.00     0.021 C 
BRANCH   3   4
ATOM      4  C   UNL A   1      35.233  22.914  26.435  1.00  0.00     0.116 C 
BRANCH   4   5
ATOM      5  N   UNL A   1      33.808  23.157  26.413  1.00  0.00    -0.352 N 
ATOM      6  C   UNL A   1      32.707  22.597  25.827  1.00  0.00     0.255 C 
ATOM      7  O   UNL A   1      31.652  23.137  26.162  1.00  0.00    -0.269 OA
ATOM      8  H   UNL A   1      33.566  23.932  26.970  1.00  0.00     0.163 HD
BRANCH   6   9
ATOM      9  C   UNL A   1      32.703  21.418  24.890  1.00  0.00     0.085 A 
ATOM     10  C   UNL A   1      32.354  21.605  23.533  1.00  0.00     0.170 A 
ATOM     11  C   UNL A   1      32.153  20.508  22.683  1.00  0.00     0.201 A 
ATOM     12  C   UNL A   1      33.001  20.104  25.289  1.00  0.00     0.021 A 
ATOM     13  C   UNL A   1      32.357  19.218  23.140  1.00  0.00     0.162 A 
ATOM     14  F   UNL A   1      31.781  20.702  21.408  1.00  0.00    -0.200 F 
ATOM     15  C   UNL A   1      32.806  19.009  24.433  1.00  0.00     0.043 A 
ATOM     16  F   UNL A   1      32.156  18.167  22.335  1.00  0.00    -0.204 F 
BRANCH  10  17
ATOM     17  O   UNL A   1      32.157  22.841  22.964  1.00  0.00    -0.493 OA
ATOM     18  C   UNL A   1      33.371  23.324  22.381  1.00  0.00     0.278 C 
ENDBRANCH  10  17
ENDBRANCH   6   9
ENDBRANCH   4   5
ENDBRANCH   3   4
ENDBRANCH   2   3
ENDBRANCH   1   2
BRANCH   1  19
ATOM     19  C   UNL A   1      37.779  19.984  24.808  1.00  0.00     0.021 C 
BRANCH  19  20
ATOM     20  C   UNL A   1      38.959  20.359  25.699  1.00  0.00     0.116 C 
BRANCH  20  21
ATOM     21  N   UNL A   1      39.902  19.262  25.832  1.00  0.00    -0.352 N 
ATOM     22  C   UNL A   1      41.261  19.304  26.021  1.00  0.00     0.251 C 
ATOM     23  H   UNL A   1      39.511  18.359  25.778  1.00  0.00     0.163 HD
ATOM     24  O   UNL A   1      41.940  18.294  25.875  1.00  0.00    -0.269 OA
BRANCH  22  25
ATOM     25  C   UNL A   1      41.906  20.582  26.389  1.00  0.00     0.039 A 
ATOM     26  C   UNL A   1      42.317  21.451  25.377  1.00  0.00     0.014 A 
ATOM     27  C   UNL A   1      42.101  20.917  27.732  1.00  0.00     0.014 A 
ATOM     28  C   UNL A   1      42.864  22.691  25.712  1.00  0.00     0.010 A 
ATOM     29  C   UNL A   1      42.586  22.178  28.065  1.00  0.00     0.010 A 
ATOM     30  C   UNL A   1      42.965  23.080  27.058  1.00  0.00    -0.014 A 
BRANCH  30  31
ATOM     31  C   UNL A   1      43.440  24.433  27.438  1.00  0.00     0.031 A 
ATOM     32  C   UNL A   1      42.459  25.485  27.874  1.00  0.00     0.074 A 
ATOM     33  C   UNL A   1      44.747  24.736  27.308  1.00  0.00     0.049 A 
ATOM     34  N   UNL A   1      42.668  26.748  28.141  1.00  0.00    -0.248 NA
ATOM     35  C   UNL A   1      41.054  25.067  28.004  1.00  0.00     0.031 C 
ATOM     36  C   UNL A   1      45.791  23.811  26.861  1.00  0.00     0.029 A 
ATOM     37  N   UNL A   1      45.419  25.913  27.523  1.00  0.00    -0.354 N 
ATOM     38  C   UNL A   1      41.423  27.280  28.453  1.00  0.00     0.074 A 
ATOM     39  C   UNL A   1      40.458  26.212  28.304  1.00  0.00     0.031 C 
ATOM     40  C   UNL A   1      46.972  24.451  26.851  1.00  0.00     0.029 A 
ATOM     41  C   UNL A   1      46.762  25.841  27.245  1.00  0.00     0.049 A 
ATOM     42  H   UNL A   1      44.979  26.734  27.846  1.00  0.00     0.167 HD
ATOM     43  C   UNL A   1      41.117  28.541  28.842  1.00  0.00     0.037 A 
ATOM     44  C   UNL A   1      47.714  26.792  27.285  1.00  0.00     0.037 A 
ATOM     45  C   UNL A   1      42.085  29.591  29.014  1.00  0.00     0.049 A 
ATOM     46  C   UNL A   1      47.339  28.189  27.694  1.00  0.00     0.074 A 
ATOM     47  C   UNL A   1      41.882  30.881  29.477  1.00  0.00     0.029 A 
ATOM     48  N   UNL A   1      43.436  29.478  28.726  1.00  0.00    -0.354 N 
ATOM     49  N   UNL A   1      46.169  28.659  28.055  1.00  0.00    -0.248 NA
ATOM     50  C   UNL A   1      48.415  29.189  27.700  1.00  0.00     0.031 C 
ATOM     51  C   UNL A   1      43.101  31.563  29.417  1.00  0.00     0.029 A 
ATOM     52  C   UNL A   1      44.074  30.684  28.968  1.00  0.00     0.049 A 
ATOM     53  H   UNL A   1      43.878  28.662  28.398  1.00  0.00     0.167 HD
ATOM     54  C   UNL A   1      46.375  29.999  28.358  1.00  0.00     0.074 A 
ATOM     55  C   UNL A   1      47.784  30.261  28.155  1.00  0.00     0.031 C 
ATOM     56  C   UNL A   1      45.478  30.928  28.768  1.00  0.00     0.037 A 
BRANCH  43  57
ATOM     57  C   UNL A   1      39.676  28.860  29.109  1.00  0.00     0.057 A 
ATOM     58  C   UNL A   1      38.810  29.286  28.094  1.00  0.00     0.134 A 
ATOM     59  C   UNL A   1      39.131  28.676  30.387  1.00  0.00     0.134 A 
ATOM     60  F   UNL A   1      39.270  29.493  26.850  1.00  0.00    -0.206 F 
ATOM     61  C   UNL A   1      37.459  29.533  28.342  1.00  0.00     0.040 A 
ATOM     62  C   UNL A   1      37.776  28.895  30.641  1.00  0.00     0.040 A 
ATOM     63  F   UNL A   1      39.903  28.265  31.404  1.00  0.00    -0.206 F 
ATOM     64  C   UNL A   1      36.936  29.328  29.618  1.00  0.00     0.006 A 
ENDBRANCH  43  57
BRANCH  44  65
ATOM     65  C   UNL A   1      49.119  26.463  26.930  1.00  0.00     0.057 A 
ATOM     66  C   UNL A   1      49.581  26.603  25.616  1.00  0.00     0.134 A 
ATOM     67  C   UNL A   1      50.021  25.970  27.881  1.00  0.00     0.134 A 
ATOM     68  F   UNL A   1      48.758  27.051  24.656  1.00  0.00    -0.206 F 
ATOM     69  C   UNL A   1      50.879  26.240  25.254  1.00  0.00     0.040 A 
ATOM     70  C   UNL A   1      51.331  25.629  27.538  1.00  0.00     0.040 A 
ATOM     71  F   UNL A   1      49.643  25.819  29.159  1.00  0.00    -0.206 F 
ATOM     72  C   UNL A   1      51.759  25.755  26.218  1.00  0.00     0.006 A 
ENDBRANCH  44  65
BRANCH  56  73
ATOM     73  C   UNL A   1      46.001  32.306  29.054  1.00  0.00     0.057 A 
ATOM     74  C   UNL A   1      46.505  32.660  30.311  1.00  0.00     0.134 A 
ATOM     75  C   UNL A   1      46.033  33.279  28.047  1.00  0.00     0.134 A 
ATOM     76  F   UNL A   1      46.490  31.778  31.323  1.00  0.00    -0.206 F 
ATOM     77  C   UNL A   1      46.997  33.940  30.565  1.00  0.00     0.040 A 
ATOM     78  C   UNL A   1      46.550  34.554  28.280  1.00  0.00     0.040 A 
ATOM     79  F   UNL A   1      45.575  33.003  26.817  1.00  0.00    -0.206 F 
ATOM     80  C   UNL A   1      47.027  34.890  29.544  1.00  0.00     0.006 A 
ENDBRANCH  56  73
ENDBRANCH  30  31
ENDBRANCH  22  25
ENDBRANCH  20  21
ENDBRANCH  19  20
ENDBRANCH   1  19
TORSDOF 14
ENDMDL
MODEL 2
REMARK VINA RESULT:     -10.8      5.993     10.649
REMARK SMILES COc1c(C(=O)NCCCCCCNC(=O)c2ccc(-c3c4nc(c(-c5c(F)cccc5F)c5ccc([nH]5)c(-c5c(F)cccc5F)c5nc(c(-c6c(F)cccc6F)c6ccc3[nH]6)C=C5)C=C4)cc2)ccc(F)c1F
REMARK SMILES IDX 11 1 10 2 9 3 8 4 7 5 5 6 6 7 4 9 3 10 75 11 71 12 73 13
REMARK SMILES IDX 76 14 72 15 74 16 2 17 1 18 12 19 13 20 14 21 15 22 16 24
REMARK SMILES IDX 17 25 18 26 70 27 19 28 69 29 20 30 21 31 22 32 63 33 23 34
REMARK SMILES IDX 68 35 62 36 64 37 24 38 67 39 61 40 60 41 25 43 51 44 34 45
REMARK SMILES IDX 50 46 35 47 38 48 49 49 65 50 36 51 37 52 48 54 66 55 39 56
REMARK SMILES IDX 26 57 27 58 32 59 28 60 29 61 31 62 33 63 30 64 52 65 53 66
REMARK SMILES IDX 58 67 54 68 55 69 57 70 59 71 56 72 40 73 41 74 46 75 42 76
REMARK SMILES IDX 43 77 45 78 47 79 44 80
REMARK H PARENT 7 8 14 23 64 42 38 53
REMARK Flexibility Score: inf
ROOT
ATOM      1  C   UNL A   1      31.778  30.425  26.096  1.00  0.00     0.002 C 
ENDROOT
BRANCH   1   2
ATOM      2  C   UNL A   1      33.094  29.827  26.611  1.00  0.00     0.002 C 
BRANCH   2   3
ATOM      3  C   UNL A   1      32.962  28.472  27.329  1.00  0.00     0.021 C 
BRANCH   3   4
ATOM      4  C   UNL A   1      31.514  28.056  27.588  1.00  0.00     0.116 C 
BRANCH   4   5
ATOM      5  N   UNL A   1      31.230  26.779  26.972  1.00  0.00    -0.352 N 
ATOM      6  C   UNL A   1      30.907  26.321  25.725  1.00  0.00     0.255 C 
ATOM      7  O   UNL A   1      30.812  25.094  25.669  1.00  0.00    -0.269 OA
ATOM      8  H   UNL A   1      31.286  26.044  27.624  1.00  0.00     0.163 HD
BRANCH   6   9
ATOM      9  C   UNL A   1      30.709  27.163  24.493  1.00  0.00     0.085 A 
ATOM     10  C   UNL A   1      31.834  27.693  23.821  1.00  0.00     0.170 A 
ATOM     11  C   UNL A   1      31.682  28.634  22.792  1.00  0.00     0.201 A 
ATOM     12  C   UNL A   1      29.448  27.494  23.968  1.00  0.00     0.021 A 
ATOM     13  C   UNL A   1      30.421  29.014  22.369  1.00  0.00     0.162 A 
ATOM     14  F   UNL A   1      32.763  29.158  22.193  1.00  0.00    -0.200 F 
ATOM     15  C   UNL A   1      29.300  28.430  22.933  1.00  0.00     0.043 A 
ATOM     16  F   UNL A   1      30.272  29.920  21.394  1.00  0.00    -0.204 F 
BRANCH  10  17
ATOM     17  O   UNL A   1      33.130  27.362  24.136  1.00  0.00    -0.493 OA
ATOM     18  C   UNL A   1      33.563  26.238  23.364  1.00  0.00     0.278 C 
ENDBRANCH  10  17
ENDBRANCH   6   9
ENDBRANCH   4   5
ENDBRANCH   3   4
ENDBRANCH   2   3
ENDBRANCH   1   2
BRANCH   1  19
ATOM     19  C   UNL A   1      31.500  31.862  26.548  1.00  0.00     0.021 C 
BRANCH  19  20
ATOM     20  C   UNL A   1      32.671  32.529  27.262  1.00  0.00     0.116 C 
BRANCH  20  21
ATOM     21  N   UNL A   1      32.418  33.939  27.505  1.00  0.00    -0.352 N 
ATOM     22  C   UNL A   1      32.982  34.773  28.438  1.00  0.00     0.251 C 
ATOM     23  H   UNL A   1      31.747  34.356  26.917  1.00  0.00     0.163 HD
ATOM     24  O   UNL A   1      32.490  35.872  28.669  1.00  0.00    -0.269 OA
BRANCH  22  25
ATOM     25  C   UNL A   1      34.183  34.332  29.178  1.00  0.00     0.039 A 
ATOM     26  C   UNL A   1      34.024  33.640  30.380  1.00  0.00     0.014 A 
ATOM     27  C   UNL A   1      35.462  34.603  28.681  1.00  0.00     0.014 A 
ATOM     28  C   UNL A   1      35.149  33.157  31.053  1.00  0.00     0.010 A 
ATOM     29  C   UNL A   1      36.577  34.067  29.318  1.00  0.00     0.010 A 
ATOM     30  C   UNL A   1      36.431  33.333  30.505  1.00  0.00    -0.014 A 
BRANCH  30  31
ATOM     31  C   UNL A   1      37.631  32.737  31.142  1.00  0.00     0.031 A 
ATOM     32  C   UNL A   1      38.282  31.523  30.542  1.00  0.00     0.074 A 
ATOM     33  C   UNL A   1      38.081  33.241  32.308  1.00  0.00     0.049 A 
ATOM     34  N   UNL A   1      39.267  30.799  31.007  1.00  0.00    -0.248 NA
ATOM     35  C   UNL A   1      37.739  31.045  29.260  1.00  0.00     0.031 C 
ATOM     36  C   UNL A   1      37.511  34.395  33.008  1.00  0.00     0.029 A 
ATOM     37  N   UNL A   1      39.111  32.838  33.120  1.00  0.00    -0.354 N 
ATOM     38  C   UNL A   1      39.450  29.773  30.088  1.00  0.00     0.074 A 
ATOM     39  C   UNL A   1      38.450  29.945  29.058  1.00  0.00     0.031 C 
ATOM     40  C   UNL A   1      38.209  34.616  34.134  1.00  0.00     0.029 A 
ATOM     41  C   UNL A   1      39.243  33.593  34.260  1.00  0.00     0.049 A 
ATOM     42  H   UNL A   1      39.699  32.077  32.906  1.00  0.00     0.167 HD
ATOM     43  C   UNL A   1      40.380  28.788  30.098  1.00  0.00     0.037 A 
ATOM     44  C   UNL A   1      40.091  33.465  35.298  1.00  0.00     0.037 A 
ATOM     45  C   UNL A   1      41.390  28.639  31.111  1.00  0.00     0.049 A 
ATOM     46  C   UNL A   1      41.093  32.345  35.293  1.00  0.00     0.074 A 
ATOM     47  C   UNL A   1      42.422  27.717  31.168  1.00  0.00     0.029 A 
ATOM     48  N   UNL A   1      41.494  29.426  32.247  1.00  0.00    -0.354 N 
ATOM     49  N   UNL A   1      41.300  31.425  34.382  1.00  0.00    -0.248 NA
ATOM     50  C   UNL A   1      41.978  32.242  36.462  1.00  0.00     0.031 C 
ATOM     51  C   UNL A   1      43.117  27.912  32.365  1.00  0.00     0.029 A 
ATOM     52  C   UNL A   1      42.552  28.990  33.029  1.00  0.00     0.049 A 
ATOM     53  H   UNL A   1      40.904  30.182  32.467  1.00  0.00     0.167 HD
ATOM     54  C   UNL A   1      42.356  30.655  34.853  1.00  0.00     0.074 A 
ATOM     55  C   UNL A   1      42.756  31.226  36.122  1.00  0.00     0.031 C 
ATOM     56  C   UNL A   1      42.942  29.573  34.286  1.00  0.00     0.037 A 
BRANCH  43  57
ATOM     57  C   UNL A   1      40.351  27.789  28.979  1.00  0.00     0.057 A 
ATOM     58  C   UNL A   1      39.565  26.631  29.039  1.00  0.00     0.134 A 
ATOM     59  C   UNL A   1      41.069  28.021  27.799  1.00  0.00     0.134 A 
ATOM     60  F   UNL A   1      38.862  26.343  30.145  1.00  0.00    -0.206 F 
ATOM     61  C   UNL A   1      39.507  25.732  27.973  1.00  0.00     0.040 A 
ATOM     62  C   UNL A   1      40.999  27.142  26.716  1.00  0.00     0.040 A 
ATOM     63  F   UNL A   1      41.839  29.113  27.673  1.00  0.00    -0.206 F 
ATOM     64  C   UNL A   1      40.218  25.992  26.802  1.00  0.00     0.006 A 
ENDBRANCH  43  57
BRANCH  44  65
ATOM     65  C   UNL A   1      40.036  34.421  36.434  1.00  0.00     0.057 A 
ATOM     66  C   UNL A   1      40.819  35.583  36.435  1.00  0.00     0.134 A 
ATOM     67  C   UNL A   1      39.235  34.184  37.557  1.00  0.00     0.134 A 
ATOM     68  F   UNL A   1      41.623  35.855  35.397  1.00  0.00    -0.206 F 
ATOM     69  C   UNL A   1      40.826  36.459  37.521  1.00  0.00     0.040 A 
ATOM     70  C   UNL A   1      39.212  35.066  38.638  1.00  0.00     0.040 A 
ATOM     71  F   UNL A   1      38.457  33.093  37.616  1.00  0.00    -0.206 F 
ATOM     72  C   UNL A   1      40.018  36.203  38.626  1.00  0.00     0.006 A 
ENDBRANCH  44  65
BRANCH  56  73
ATOM     73  C   UNL A   1      44.098  28.956  35.020  1.00  0.00     0.057 A 
ATOM     74  C   UNL A   1      43.919  27.918  35.942  1.00  0.00     0.134 A 
ATOM     75  C   UNL A   1      45.408  29.384  34.772  1.00  0.00     0.134 A 
ATOM     76  F   UNL A   1      42.688  27.472  36.235  1.00  0.00    -0.206 F 
ATOM     77  C   UNL A   1      45.001  27.345  36.612  1.00  0.00     0.040 A 
ATOM     78  C   UNL A   1      46.501  28.799  35.414  1.00  0.00     0.040 A 
ATOM     79  F   UNL A   1      45.650  30.368  33.893  1.00  0.00    -0.206 F 
ATOM     80  C   UNL A   1      46.298  27.781  36.342  1.00  0.00     0.006 A 
ENDBRANCH  56  73
ENDBRANCH  30  31
ENDBRANCH  22  25
ENDBRANCH  20  21
ENDBRANCH  19  20
ENDBRANCH   1  19
TORSDOF 14
ENDMDL
MODEL 3
REMARK VINA RESULT:     -10.7      5.078      9.771
REMARK SMILES COc1c(C(=O)NCCCCCCNC(=O)c2ccc(-c3c4nc(c(-c5c(F)cccc5F)c5ccc([nH]5)c(-c5c(F)cccc5F)c5nc(c(-c6c(F)cccc6F)c6ccc3[nH]6)C=C5)C=C4)cc2)ccc(F)c1F
REMARK SMILES IDX 11 1 10 2 9 3 8 4 7 5 5 6 6 7 4 9 3 10 75 11 71 12 73 13
REMARK SMILES IDX 76 14 72 15 74 16 2 17 1 18 12 19 13 20 14 21 15 22 16 24
REMARK SMILES IDX 17 25 18 26 70 27 19 28 69 29 20 30 21 31 22 32 63 33 23 34
REMARK SMILES IDX 68 35 62 36 64 37 24 38 67 39 61 40 60 41 25 43 51 44 34 45
REMARK SMILES IDX 50 46 35 47 38 48 49 49 65 50 36 51 37 52 48 54 66 55 39 56
REMARK SMILES IDX 26 57 27 58 32 59 28 60 29 61 31 62 33 63 30 64 52 65 53 66
REMARK SMILES IDX 58 67 54 68 55 69 57 70 59 71 56 72 40 73 41 74 46 75 42 76
REMARK SMILES IDX 43 77 45 78 47 79 44 80
REMARK H PARENT 7 8 14 23 64 42 38 53
REMARK Flexibility Score: inf
ROOT
ATOM      1  C   UNL A   1      31.777  30.431  26.126  1.00  0.00     0.002 C 
ENDROOT
BRANCH   1   2
ATOM      2  C   UNL A   1      32.442  29.339  26.974  1.00  0.00     0.002 C 
BRANCH   2   3
ATOM      3  C   UNL A   1      31.524  28.173  27.381  1.00  0.00     0.021 C 
BRANCH   3   4
ATOM      4  C   UNL A   1      31.331  27.133  26.277  1.00  0.00     0.116 C 
BRANCH   4   5
ATOM      5  N   UNL A   1      31.247  25.803  26.836  1.00  0.00    -0.352 N 
ATOM      6  C   UNL A   1      31.846  24.592  26.627  1.00  0.00     0.255 C 
ATOM      7  O   UNL A   1      31.474  23.724  27.419  1.00  0.00    -0.269 OA
ATOM      8  H   UNL A   1      30.581  25.757  27.559  1.00  0.00     0.163 HD
BRANCH   6   9
ATOM      9  C   UNL A   1      32.890  24.284  25.586  1.00  0.00     0.085 A 
ATOM     10  C   UNL A   1      32.529  23.553  24.431  1.00  0.00     0.170 A 
ATOM     11  C   UNL A   1      33.506  23.086  23.540  1.00  0.00     0.201 A 
ATOM     12  C   UNL A   1      34.240  24.657  25.700  1.00  0.00     0.021 A 
ATOM     13  C   UNL A   1      34.842  23.387  23.741  1.00  0.00     0.162 A 
ATOM     14  F   UNL A   1      33.150  22.357  22.470  1.00  0.00    -0.200 F 
ATOM     15  C   UNL A   1      35.214  24.193  24.803  1.00  0.00     0.043 A 
ATOM     16  F   UNL A   1      35.779  22.933  22.898  1.00  0.00    -0.204 F 
BRANCH  10  17
ATOM     17  O   UNL A   1      31.232  23.225  24.116  1.00  0.00    -0.493 OA
ATOM     18  C   UNL A   1      30.623  24.267  23.347  1.00  0.00     0.278 C 
ENDBRANCH  10  17
ENDBRANCH   6   9
ENDBRANCH   4   5
ENDBRANCH   3   4
ENDBRANCH   2   3
ENDBRANCH   1   2
BRANCH   1  19
ATOM     19  C   UNL A   1      31.529  31.755  26.854  1.00  0.00     0.021 C 
BRANCH  19  20
ATOM     20  C   UNL A   1      32.801  32.498  27.249  1.00  0.00     0.116 C 
BRANCH  20  21
ATOM     21  N   UNL A   1      32.521  33.869  27.643  1.00  0.00    -0.352 N 
ATOM     22  C   UNL A   1      33.135  34.638  28.600  1.00  0.00     0.251 C 
ATOM     23  H   UNL A   1      31.788  34.309  27.155  1.00  0.00     0.163 HD
ATOM     24  O   UNL A   1      32.626  35.690  28.973  1.00  0.00    -0.269 OA
BRANCH  22  25
ATOM     25  C   UNL A   1      34.409  34.183  29.194  1.00  0.00     0.039 A 
ATOM     26  C   UNL A   1      34.384  33.487  30.404  1.00  0.00     0.014 A 
ATOM     27  C   UNL A   1      35.624  34.445  28.553  1.00  0.00     0.014 A 
ATOM     28  C   UNL A   1      35.575  32.991  30.940  1.00  0.00     0.010 A 
ATOM     29  C   UNL A   1      36.800  33.896  29.054  1.00  0.00     0.010 A 
ATOM     30  C   UNL A   1      36.787  33.159  30.248  1.00  0.00    -0.014 A 
BRANCH  30  31
ATOM     31  C   UNL A   1      38.047  32.549  30.738  1.00  0.00     0.031 A 
ATOM     32  C   UNL A   1      38.569  31.284  30.116  1.00  0.00     0.074 A 
ATOM     33  C   UNL A   1      38.674  33.090  31.802  1.00  0.00     0.049 A 
ATOM     34  N   UNL A   1      39.588  30.547  30.474  1.00  0.00    -0.248 NA
ATOM     35  C   UNL A   1      37.833  30.767  28.950  1.00  0.00     0.031 C 
ATOM     36  C   UNL A   1      38.245  34.296  32.514  1.00  0.00     0.029 A 
ATOM     37  N   UNL A   1      39.797  32.688  32.480  1.00  0.00    -0.354 N 
ATOM     38  C   UNL A   1      39.607  29.473  29.593  1.00  0.00     0.074 A 
ATOM     39  C   UNL A   1      38.475  29.634  28.707  1.00  0.00     0.031 C 
ATOM     40  C   UNL A   1      39.103  34.543  33.517  1.00  0.00     0.029 A 
ATOM     41  C   UNL A   1      40.113  33.491  33.549  1.00  0.00     0.049 A 
ATOM     42  H   UNL A   1      40.326  31.896  32.225  1.00  0.00     0.167 HD
ATOM     43  C   UNL A   1      40.498  28.456  29.522  1.00  0.00     0.037 A 
ATOM     44  C   UNL A   1      41.096  33.380  34.462  1.00  0.00     0.037 A 
ATOM     45  C   UNL A   1      41.639  28.317  30.390  1.00  0.00     0.049 A 
ATOM     46  C   UNL A   1      42.053  32.224  34.374  1.00  0.00     0.074 A 
ATOM     47  C   UNL A   1      42.640  27.362  30.348  1.00  0.00     0.029 A 
ATOM     48  N   UNL A   1      41.927  29.152  31.457  1.00  0.00    -0.354 N 
ATOM     49  N   UNL A   1      42.101  31.255  33.491  1.00  0.00    -0.248 NA
ATOM     50  C   UNL A   1      43.093  32.144  35.409  1.00  0.00     0.031 C 
ATOM     51  C   UNL A   1      43.504  27.587  31.423  1.00  0.00     0.029 A 
ATOM     52  C   UNL A   1      43.072  28.715  32.103  1.00  0.00     0.049 A 
ATOM     53  H   UNL A   1      41.398  29.940  31.718  1.00  0.00     0.167 HD
ATOM     54  C   UNL A   1      43.190  30.470  33.848  1.00  0.00     0.074 A 
ATOM     55  C   UNL A   1      43.784  31.085  35.016  1.00  0.00     0.031 C 
ATOM     56  C   UNL A   1      43.655  29.341  33.261  1.00  0.00     0.037 A 
BRANCH  43  57
ATOM     57  C   UNL A   1      40.280  27.407  28.472  1.00  0.00     0.057 A 
ATOM     58  C   UNL A   1      40.899  27.474  27.217  1.00  0.00     0.134 A 
ATOM     59  C   UNL A   1      39.493  26.280  28.744  1.00  0.00     0.134 A 
ATOM     60  F   UNL A   1      41.656  28.532  26.889  1.00  0.00    -0.206 F 
ATOM     61  C   UNL A   1      40.729  26.468  26.265  1.00  0.00     0.040 A 
ATOM     62  C   UNL A   1      39.338  25.255  27.810  1.00  0.00     0.040 A 
ATOM     63  F   UNL A   1      38.877  26.150  29.929  1.00  0.00    -0.206 F 
ATOM     64  C   UNL A   1      39.955  25.348  26.564  1.00  0.00     0.006 A 
ENDBRANCH  43  57
BRANCH  44  65
ATOM     65  C   UNL A   1      41.234  34.390  35.543  1.00  0.00     0.057 A 
ATOM     66  C   UNL A   1      42.015  35.537  35.361  1.00  0.00     0.134 A 
ATOM     67  C   UNL A   1      40.622  34.219  36.791  1.00  0.00     0.134 A 
ATOM     68  F   UNL A   1      42.643  35.747  34.195  1.00  0.00    -0.206 F 
ATOM     69  C   UNL A   1      42.205  36.465  36.387  1.00  0.00     0.040 A 
ATOM     70  C   UNL A   1      40.781  35.152  37.817  1.00  0.00     0.040 A 
ATOM     71  F   UNL A   1      39.855  33.144  37.028  1.00  0.00    -0.206 F 
ATOM     72  C   UNL A   1      41.583  36.274  37.619  1.00  0.00     0.006 A 
ENDBRANCH  44  65
BRANCH  56  73
ATOM     73  C   UNL A   1      44.885  28.717  33.854  1.00  0.00     0.057 A 
ATOM     74  C   UNL A   1      46.171  29.058  33.418  1.00  0.00     0.134 A 
ATOM     75  C   UNL A   1      44.780  27.790  34.900  1.00  0.00     0.134 A 
ATOM     76  F   UNL A   1      46.340  29.928  32.411  1.00  0.00    -0.206 F 
ATOM     77  C   UNL A   1      47.309  28.479  33.982  1.00  0.00     0.040 A 
ATOM     78  C   UNL A   1      45.911  27.227  35.492  1.00  0.00     0.040 A 
ATOM     79  F   UNL A   1      43.578  27.428  35.371  1.00  0.00    -0.206 F 
ATOM     80  C   UNL A   1      47.180  27.566  35.028  1.00  0.00     0.006 A 
ENDBRANCH  56  73
ENDBRANCH  30  31
ENDBRANCH  22  25
ENDBRANCH  20  21
ENDBRANCH  19  20
ENDBRANCH   1  19
TORSDOF 14
ENDMDL
