MODEL 1
REMARK VINA RESULT:     -12.0      0.000      0.000
REMARK SMILES O=C(Nc1c(F)cc(F)cc1F)N[C@H]1C=C[C@H](C(=O)NCCCCCCNC(=O)c2ccc(-c3c4nc(c(-c5c(F)cccc5F)c5ccc([nH]5)c(-c5c(F)cccc5F)c5nc(c(-c6c(F)cccc6F)c6ccc3[nH]6)C=C5)C=C4)cc2)C1
REMARK SMILES IDX 23 1 22 2 21 3 20 4 18 5 19 6 17 8 14 9 15 10 84 11 16 12
REMARK SMILES IDX 13 13 1 14 2 15 3 16 4 19 5 20 11 21 6 22 7 23 10 24 12 25
REMARK SMILES IDX 8 26 9 27 24 28 25 29 26 30 27 31 28 32 29 34 30 35 31 36
REMARK SMILES IDX 83 37 32 38 82 39 33 40 34 41 35 42 76 43 36 44 81 45 75 46
REMARK SMILES IDX 77 47 37 48 80 49 74 50 73 51 38 53 64 54 47 55 63 56 48 57
REMARK SMILES IDX 51 58 62 59 78 60 49 61 50 62 61 64 79 65 52 66 39 67 40 68
REMARK SMILES IDX 45 69 41 70 42 71 44 72 46 73 43 74 65 75 66 76 71 77 67 78
REMARK SMILES IDX 68 79 70 80 72 81 69 82 53 83 54 84 59 85 55 86 56 87 58 88
REMARK SMILES IDX 60 89 57 90
REMARK H PARENT 20 7 3 17 13 18 27 33 77 52 51 63
REMARK Flexibility Score: inf
ROOT
ATOM      1  C   UNL A   1      40.766  21.400  27.326  1.00  0.00     0.002 C 
ENDROOT
BRANCH   1   2
ATOM      2  C   UNL A   1      40.200  22.805  27.563  1.00  0.00     0.021 C 
BRANCH   2   3
ATOM      3  C   UNL A   1      39.200  23.266  26.502  1.00  0.00     0.116 C 
BRANCH   3   4
ATOM      4  N   UNL A   1      38.599  22.138  25.816  1.00  0.00    -0.356 N 
ATOM      5  C   UNL A   1      37.424  22.076  25.119  1.00  0.00     0.227 C 
ATOM      6  O   UNL A   1      37.099  20.996  24.626  1.00  0.00    -0.274 OA
ATOM      7  H   UNL A   1      39.109  21.298  25.857  1.00  0.00     0.163 HD
BRANCH   5   8
ATOM      8  C   UNL A   1      36.604  23.357  24.961  1.00  0.00     0.103 C 
ATOM      9  C   UNL A   1      34.212  23.338  25.586  1.00  0.00     0.107 C 
ATOM     10  C   UNL A   1      34.413  23.309  24.103  1.00  0.00    -0.006 C 
ATOM     11  C   UNL A   1      35.629  23.570  26.126  1.00  0.00     0.047 C 
ATOM     12  C   UNL A   1      35.706  23.327  23.766  1.00  0.00    -0.016 C 
BRANCH   9  13
ATOM     13  N   UNL A   1      33.262  24.385  25.873  1.00  0.00    -0.332 N 
ATOM     14  O   UNL A   1      31.833  23.209  27.221  1.00  0.00    -0.248 OA
ATOM     15  C   UNL A   1      32.127  24.234  26.613  1.00  0.00     0.319 C 
ATOM     16  N   UNL A   1      31.397  25.372  26.813  1.00  0.00    -0.303 N 
ATOM     17  H   UNL A   1      30.900  25.405  27.662  1.00  0.00     0.172 HD
ATOM     18  H   UNL A   1      33.450  25.279  25.506  1.00  0.00     0.165 HD
BRANCH  16  19
ATOM     19  C   UNL A   1      31.246  26.506  25.991  1.00  0.00     0.115 A 
ATOM     20  C   UNL A   1      31.862  27.738  26.243  1.00  0.00     0.152 A 
ATOM     21  C   UNL A   1      30.493  26.378  24.820  1.00  0.00     0.152 A 
ATOM     22  F   UNL A   1      32.662  27.901  27.305  1.00  0.00    -0.204 F 
ATOM     23  C   UNL A   1      31.702  28.817  25.379  1.00  0.00     0.081 A 
ATOM     24  C   UNL A   1      30.300  27.452  23.958  1.00  0.00     0.081 A 
ATOM     25  F   UNL A   1      29.902  25.207  24.535  1.00  0.00    -0.204 F 
ATOM     26  C   UNL A   1      30.911  28.665  24.249  1.00  0.00     0.129 A 
ATOM     27  F   UNL A   1      30.741  29.704  23.423  1.00  0.00    -0.207 F 
ENDBRANCH  16  19
ENDBRANCH   9  13
ENDBRANCH   5   8
ENDBRANCH   3   4
ENDBRANCH   2   3
ENDBRANCH   1   2
BRANCH   1  28
ATOM     28  C   UNL A   1      42.290  21.327  27.192  1.00  0.00     0.002 C 
BRANCH  28  29
ATOM     29  C   UNL A   1      42.817  21.421  25.759  1.00  0.00     0.021 C 
BRANCH  29  30
ATOM     30  C   UNL A   1      42.683  22.799  25.122  1.00  0.00     0.116 C 
BRANCH  30  31
ATOM     31  N   UNL A   1      43.972  23.378  24.779  1.00  0.00    -0.352 N 
ATOM     32  C   UNL A   1      44.518  24.577  25.161  1.00  0.00     0.251 C 
ATOM     33  H   UNL A   1      44.535  22.831  24.185  1.00  0.00     0.163 HD
ATOM     34  O   UNL A   1      45.547  24.987  24.626  1.00  0.00    -0.269 OA
BRANCH  32  35
ATOM     35  C   UNL A   1      43.857  25.391  26.203  1.00  0.00     0.039 A 
ATOM     36  C   UNL A   1      43.190  24.741  27.244  1.00  0.00     0.014 A 
ATOM     37  C   UNL A   1      43.894  26.787  26.154  1.00  0.00     0.014 A 
ATOM     38  C   UNL A   1      42.613  25.492  28.270  1.00  0.00     0.010 A 
ATOM     39  C   UNL A   1      43.388  27.530  27.217  1.00  0.00     0.010 A 
ATOM     40  C   UNL A   1      42.740  26.891  28.284  1.00  0.00    -0.014 A 
BRANCH  40  41
ATOM     41  C   UNL A   1      42.204  27.700  29.409  1.00  0.00     0.031 A 
ATOM     42  C   UNL A   1      42.874  27.661  30.755  1.00  0.00     0.074 A 
ATOM     43  C   UNL A   1      41.081  28.422  29.236  1.00  0.00     0.049 A 
ATOM     44  N   UNL A   1      42.523  28.251  31.871  1.00  0.00    -0.248 NA
ATOM     45  C   UNL A   1      44.084  26.832  30.870  1.00  0.00     0.031 C 
ATOM     46  C   UNL A   1      40.315  28.510  27.992  1.00  0.00     0.029 A 
ATOM     47  N   UNL A   1      40.383  29.217  30.112  1.00  0.00    -0.354 N 
ATOM     48  C   UNL A   1      43.461  27.857  32.817  1.00  0.00     0.074 A 
ATOM     49  C   UNL A   1      44.358  26.931  32.162  1.00  0.00     0.031 C 
ATOM     50  C   UNL A   1      39.271  29.335  28.175  1.00  0.00     0.029 A 
ATOM     51  C   UNL A   1      39.269  29.799  29.558  1.00  0.00     0.049 A 
ATOM     52  H   UNL A   1      40.657  29.356  31.047  1.00  0.00     0.167 HD
ATOM     53  C   UNL A   1      43.579  28.250  34.108  1.00  0.00     0.037 A 
ATOM     54  C   UNL A   1      38.343  30.608  30.108  1.00  0.00     0.037 A 
ATOM     55  C   UNL A   1      42.690  29.179  34.755  1.00  0.00     0.049 A 
ATOM     56  C   UNL A   1      38.477  31.003  31.553  1.00  0.00     0.074 A 
ATOM     57  C   UNL A   1      42.752  29.677  36.045  1.00  0.00     0.029 A 
ATOM     58  N   UNL A   1      41.570  29.745  34.162  1.00  0.00    -0.354 N 
ATOM     59  N   UNL A   1      39.407  30.677  32.417  1.00  0.00    -0.248 NA
ATOM     60  C   UNL A   1      37.434  31.883  32.098  1.00  0.00     0.031 C 
ATOM     61  C   UNL A   1      41.642  30.503  36.249  1.00  0.00     0.029 A 
ATOM     62  C   UNL A   1      40.919  30.566  35.069  1.00  0.00     0.049 A 
ATOM     63  H   UNL A   1      41.282  29.588  33.234  1.00  0.00     0.167 HD
ATOM     64  C   UNL A   1      39.080  31.337  33.596  1.00  0.00     0.074 A 
ATOM     65  C   UNL A   1      37.873  32.092  33.330  1.00  0.00     0.031 C 
ATOM     66  C   UNL A   1      39.722  31.319  34.790  1.00  0.00     0.037 A 
BRANCH  53  67
ATOM     67  C   UNL A   1      44.713  27.670  34.906  1.00  0.00     0.057 A 
ATOM     68  C   UNL A   1      45.969  28.290  34.967  1.00  0.00     0.134 A 
ATOM     69  C   UNL A   1      44.543  26.490  35.640  1.00  0.00     0.134 A 
ATOM     70  F   UNL A   1      46.204  29.418  34.279  1.00  0.00    -0.206 F 
ATOM     71  C   UNL A   1      47.021  27.742  35.702  1.00  0.00     0.040 A 
ATOM     72  C   UNL A   1      45.579  25.948  36.405  1.00  0.00     0.040 A 
ATOM     73  F   UNL A   1      43.366  25.846  35.635  1.00  0.00    -0.206 F 
ATOM     74  C   UNL A   1      46.826  26.570  36.428  1.00  0.00     0.006 A 
ENDBRANCH  53  67
BRANCH  54  75
ATOM     75  C   UNL A   1      37.219  31.122  29.284  1.00  0.00     0.057 A 
ATOM     76  C   UNL A   1      36.125  30.307  28.967  1.00  0.00     0.134 A 
ATOM     77  C   UNL A   1      37.214  32.429  28.782  1.00  0.00     0.134 A 
ATOM     78  F   UNL A   1      36.081  29.040  29.403  1.00  0.00    -0.206 F 
ATOM     79  C   UNL A   1      35.080  30.763  28.164  1.00  0.00     0.040 A 
ATOM     80  C   UNL A   1      36.161  32.908  27.999  1.00  0.00     0.040 A 
ATOM     81  F   UNL A   1      38.228  33.264  29.054  1.00  0.00    -0.206 F 
ATOM     82  C   UNL A   1      35.094  32.070  27.680  1.00  0.00     0.006 A 
ENDBRANCH  54  75
BRANCH  66  83
ATOM     83  C   UNL A   1      39.157  32.174  35.888  1.00  0.00     0.057 A 
ATOM     84  C   UNL A   1      39.535  33.511  36.058  1.00  0.00     0.134 A 
ATOM     85  C   UNL A   1      38.194  31.658  36.765  1.00  0.00     0.134 A 
ATOM     86  F   UNL A   1      40.463  34.064  35.261  1.00  0.00    -0.206 F 
ATOM     87  C   UNL A   1      38.994  34.298  37.077  1.00  0.00     0.040 A 
ATOM     88  C   UNL A   1      37.623  32.444  37.767  1.00  0.00     0.040 A 
ATOM     89  F   UNL A   1      37.779  30.386  36.652  1.00  0.00    -0.206 F 
ATOM     90  C   UNL A   1      38.029  33.766  37.930  1.00  0.00     0.006 A 
ENDBRANCH  66  83
ENDBRANCH  40  41
ENDBRANCH  32  35
ENDBRANCH  30  31
ENDBRANCH  29  30
ENDBRANCH  28  29
ENDBRANCH   1  28
TORSDOF 15
ENDMDL
MODEL 2
REMARK VINA RESULT:     -12.0      4.182      9.108
REMARK SMILES O=C(Nc1c(F)cc(F)cc1F)N[C@H]1C=C[C@H](C(=O)NCCCCCCNC(=O)c2ccc(-c3c4nc(c(-c5c(F)cccc5F)c5ccc([nH]5)c(-c5c(F)cccc5F)c5nc(c(-c6c(F)cccc6F)c6ccc3[nH]6)C=C5)C=C4)cc2)C1
REMARK SMILES IDX 23 1 22 2 21 3 20 4 18 5 19 6 17 8 14 9 15 10 84 11 16 12
REMARK SMILES IDX 13 13 1 14 2 15 3 16 4 19 5 20 11 21 6 22 7 23 10 24 12 25
REMARK SMILES IDX 8 26 9 27 24 28 25 29 26 30 27 31 28 32 29 34 30 35 31 36
REMARK SMILES IDX 83 37 32 38 82 39 33 40 34 41 35 42 76 43 36 44 81 45 75 46
REMARK SMILES IDX 77 47 37 48 80 49 74 50 73 51 38 53 64 54 47 55 63 56 48 57
REMARK SMILES IDX 51 58 62 59 78 60 49 61 50 62 61 64 79 65 52 66 39 67 40 68
REMARK SMILES IDX 45 69 41 70 42 71 44 72 46 73 43 74 65 75 66 76 71 77 67 78
REMARK SMILES IDX 68 79 70 80 72 81 69 82 53 83 54 84 59 85 55 86 56 87 58 88
REMARK SMILES IDX 60 89 57 90
REMARK H PARENT 20 7 3 17 13 18 27 33 77 52 51 63
REMARK Flexibility Score: inf
ROOT
ATOM      1  C   UNL A   1      30.921  27.444  25.010  1.00  0.00     0.002 C 
ENDROOT
BRANCH   1   2
ATOM      2  C   UNL A   1      30.444  28.263  23.804  1.00  0.00     0.021 C 
BRANCH   2   3
ATOM      3  C   UNL A   1      30.590  27.546  22.461  1.00  0.00     0.116 C 
BRANCH   3   4
ATOM      4  N   UNL A   1      31.968  27.549  22.008  1.00  0.00    -0.356 N 
ATOM      5  C   UNL A   1      32.898  26.548  22.061  1.00  0.00     0.227 C 
ATOM      6  O   UNL A   1      34.026  26.781  21.625  1.00  0.00    -0.274 OA
ATOM      7  H   UNL A   1      32.278  28.391  21.604  1.00  0.00     0.163 HD
BRANCH   5   8
ATOM      8  C   UNL A   1      32.473  25.190  22.622  1.00  0.00     0.103 C 
ATOM      9  C   UNL A   1      34.204  23.489  23.091  1.00  0.00     0.107 C 
ATOM     10  C   UNL A   1      33.435  23.189  21.842  1.00  0.00    -0.006 C 
ATOM     11  C   UNL A   1      33.442  24.675  23.694  1.00  0.00     0.047 C 
ATOM     12  C   UNL A   1      32.495  24.105  21.593  1.00  0.00    -0.016 C 
BRANCH   9  13
ATOM     13  N   UNL A   1      34.212  22.288  23.892  1.00  0.00    -0.332 N 
ATOM     14  O   UNL A   1      35.911  22.830  25.327  1.00  0.00    -0.248 OA
ATOM     15  C   UNL A   1      35.089  22.024  24.902  1.00  0.00     0.319 C 
ATOM     16  N   UNL A   1      34.881  20.851  25.572  1.00  0.00    -0.303 N 
ATOM     17  H   UNL A   1      35.146  20.861  26.520  1.00  0.00     0.172 HD
ATOM     18  H   UNL A   1      33.529  21.608  23.693  1.00  0.00     0.165 HD
BRANCH  16  19
ATOM     19  C   UNL A   1      34.346  19.631  25.115  1.00  0.00     0.115 A 
ATOM     20  C   UNL A   1      32.973  19.377  25.002  1.00  0.00     0.152 A 
ATOM     21  C   UNL A   1      35.233  18.639  24.688  1.00  0.00     0.152 A 
ATOM     22  F   UNL A   1      32.072  20.318  25.318  1.00  0.00    -0.204 F 
ATOM     23  C   UNL A   1      32.500  18.163  24.514  1.00  0.00     0.081 A 
ATOM     24  C   UNL A   1      34.779  17.409  24.224  1.00  0.00     0.081 A 
ATOM     25  F   UNL A   1      36.556  18.853  24.766  1.00  0.00    -0.204 F 
ATOM     26  C   UNL A   1      33.412  17.185  24.141  1.00  0.00     0.129 A 
ATOM     27  F   UNL A   1      32.962  16.009  23.687  1.00  0.00    -0.207 F 
ENDBRANCH  16  19
ENDBRANCH   9  13
ENDBRANCH   5   8
ENDBRANCH   3   4
ENDBRANCH   2   3
ENDBRANCH   1   2
BRANCH   1  28
ATOM     28  C   UNL A   1      32.346  27.751  25.481  1.00  0.00     0.002 C 
BRANCH  28  29
ATOM     29  C   UNL A   1      32.456  28.238  26.927  1.00  0.00     0.021 C 
BRANCH  29  30
ATOM     30  C   UNL A   1      33.843  28.729  27.327  1.00  0.00     0.116 C 
BRANCH  30  31
ATOM     31  N   UNL A   1      33.823  30.095  27.827  1.00  0.00    -0.352 N 
ATOM     32  C   UNL A   1      34.791  30.788  28.508  1.00  0.00     0.251 C 
ATOM     33  H   UNL A   1      32.993  30.595  27.651  1.00  0.00     0.163 HD
ATOM     34  O   UNL A   1      34.531  31.878  29.014  1.00  0.00    -0.269 OA
BRANCH  32  35
ATOM     35  C   UNL A   1      36.144  30.213  28.655  1.00  0.00     0.039 A 
ATOM     36  C   UNL A   1      37.026  30.277  27.573  1.00  0.00     0.014 A 
ATOM     37  C   UNL A   1      36.544  29.614  29.853  1.00  0.00     0.014 A 
ATOM     38  C   UNL A   1      38.329  29.795  27.714  1.00  0.00     0.010 A 
ATOM     39  C   UNL A   1      37.865  29.207  30.016  1.00  0.00     0.010 A 
ATOM     40  C   UNL A   1      38.770  29.290  28.948  1.00  0.00    -0.014 A 
BRANCH  40  41
ATOM     41  C   UNL A   1      40.176  28.849  29.140  1.00  0.00     0.031 A 
ATOM     42  C   UNL A   1      41.183  29.779  29.757  1.00  0.00     0.074 A 
ATOM     43  C   UNL A   1      40.559  27.634  28.704  1.00  0.00     0.049 A 
ATOM     44  N   UNL A   1      42.466  29.598  29.955  1.00  0.00    -0.248 NA
ATOM     45  C   UNL A   1      40.691  31.098  30.188  1.00  0.00     0.031 C 
ATOM     46  C   UNL A   1      39.688  26.655  28.052  1.00  0.00     0.029 A 
ATOM     47  N   UNL A   1      41.785  27.016  28.739  1.00  0.00    -0.354 N 
ATOM     48  C   UNL A   1      42.931  30.777  30.522  1.00  0.00     0.074 A 
ATOM     49  C   UNL A   1      41.809  31.689  30.580  1.00  0.00     0.031 C 
ATOM     50  C   UNL A   1      40.399  25.550  27.774  1.00  0.00     0.029 A 
ATOM     51  C   UNL A   1      41.782  25.758  28.187  1.00  0.00     0.049 A 
ATOM     52  H   UNL A   1      42.589  27.435  29.122  1.00  0.00     0.167 HD
ATOM     53  C   UNL A   1      44.173  31.066  30.976  1.00  0.00     0.037 A 
ATOM     54  C   UNL A   1      42.786  24.875  28.025  1.00  0.00     0.037 A 
ATOM     55  C   UNL A   1      45.286  30.153  30.926  1.00  0.00     0.049 A 
ATOM     56  C   UNL A   1      44.165  25.232  28.506  1.00  0.00     0.074 A 
ATOM     57  C   UNL A   1      46.572  30.334  31.402  1.00  0.00     0.029 A 
ATOM     58  N   UNL A   1      45.245  28.888  30.357  1.00  0.00    -0.354 N 
ATOM     59  N   UNL A   1      44.576  26.325  29.102  1.00  0.00    -0.248 NA
ATOM     60  C   UNL A   1      45.220  24.231  28.295  1.00  0.00     0.031 C 
ATOM     61  C   UNL A   1      47.324  29.201  31.074  1.00  0.00     0.029 A 
ATOM     62  C   UNL A   1      46.491  28.289  30.447  1.00  0.00     0.049 A 
ATOM     63  H   UNL A   1      44.448  28.477  29.950  1.00  0.00     0.167 HD
ATOM     64  C   UNL A   1      45.926  26.129  29.367  1.00  0.00     0.074 A 
ATOM     65  C   UNL A   1      46.260  24.808  28.878  1.00  0.00     0.031 C 
ATOM     66  C   UNL A   1      46.809  26.969  29.963  1.00  0.00     0.037 A 
BRANCH  53  67
ATOM     67  C   UNL A   1      44.394  32.431  31.567  1.00  0.00     0.057 A 
ATOM     68  C   UNL A   1      44.206  32.686  32.932  1.00  0.00     0.134 A 
ATOM     69  C   UNL A   1      44.820  33.498  30.766  1.00  0.00     0.134 A 
ATOM     70  F   UNL A   1      43.789  31.712  33.755  1.00  0.00    -0.206 F 
ATOM     71  C   UNL A   1      44.403  33.958  33.472  1.00  0.00     0.040 A 
ATOM     72  C   UNL A   1      45.050  34.767  31.300  1.00  0.00     0.040 A 
ATOM     73  F   UNL A   1      45.028  33.325  29.451  1.00  0.00    -0.206 F 
ATOM     74  C   UNL A   1      44.832  35.002  32.657  1.00  0.00     0.006 A 
ENDBRANCH  53  67
BRANCH  54  75
ATOM     75  C   UNL A   1      42.522  23.554  27.398  1.00  0.00     0.057 A 
ATOM     76  C   UNL A   1      42.132  22.453  28.171  1.00  0.00     0.134 A 
ATOM     77  C   UNL A   1      42.666  23.352  26.020  1.00  0.00     0.134 A 
ATOM     78  F   UNL A   1      41.995  22.578  29.500  1.00  0.00    -0.206 F 
ATOM     79  C   UNL A   1      41.917  21.197  27.603  1.00  0.00     0.040 A 
ATOM     80  C   UNL A   1      42.428  22.108  25.433  1.00  0.00     0.040 A 
ATOM     81  F   UNL A   1      43.030  24.367  25.222  1.00  0.00    -0.206 F 
ATOM     82  C   UNL A   1      42.061  21.023  26.228  1.00  0.00     0.006 A 
ENDBRANCH  54  75
BRANCH  66  83
ATOM     83  C   UNL A   1      48.211  26.467  30.158  1.00  0.00     0.057 A 
ATOM     84  C   UNL A   1      49.207  26.652  29.192  1.00  0.00     0.134 A 
ATOM     85  C   UNL A   1      48.575  25.820  31.346  1.00  0.00     0.134 A 
ATOM     86  F   UNL A   1      48.923  27.251  28.025  1.00  0.00    -0.206 F 
ATOM     87  C   UNL A   1      50.510  26.189  29.390  1.00  0.00     0.040 A 
ATOM     88  C   UNL A   1      49.881  25.381  31.569  1.00  0.00     0.040 A 
ATOM     89  F   UNL A   1      47.671  25.619  32.318  1.00  0.00    -0.206 F 
ATOM     90  C   UNL A   1      50.851  25.558  30.585  1.00  0.00     0.006 A 
ENDBRANCH  66  83
ENDBRANCH  40  41
ENDBRANCH  32  35
ENDBRANCH  30  31
ENDBRANCH  29  30
ENDBRANCH  28  29
ENDBRANCH   1  28
TORSDOF 15
ENDMDL
MODEL 3
REMARK VINA RESULT:     -11.9      3.371      8.572
REMARK SMILES O=C(Nc1c(F)cc(F)cc1F)N[C@H]1C=C[C@H](C(=O)NCCCCCCNC(=O)c2ccc(-c3c4nc(c(-c5c(F)cccc5F)c5ccc([nH]5)c(-c5c(F)cccc5F)c5nc(c(-c6c(F)cccc6F)c6ccc3[nH]6)C=C5)C=C4)cc2)C1
REMARK SMILES IDX 23 1 22 2 21 3 20 4 18 5 19 6 17 8 14 9 15 10 84 11 16 12
REMARK SMILES IDX 13 13 1 14 2 15 3 16 4 19 5 20 11 21 6 22 7 23 10 24 12 25
REMARK SMILES IDX 8 26 9 27 24 28 25 29 26 30 27 31 28 32 29 34 30 35 31 36
REMARK SMILES IDX 83 37 32 38 82 39 33 40 34 41 35 42 76 43 36 44 81 45 75 46
REMARK SMILES IDX 77 47 37 48 80 49 74 50 73 51 38 53 64 54 47 55 63 56 48 57
REMARK SMILES IDX 51 58 62 59 78 60 49 61 50 62 61 64 79 65 52 66 39 67 40 68
REMARK SMILES IDX 45 69 41 70 42 71 44 72 46 73 43 74 65 75 66 76 71 77 67 78
REMARK SMILES IDX 68 79 70 80 72 81 69 82 53 83 54 84 59 85 55 86 56 87 58 88
REMARK SMILES IDX 60 89 57 90
REMARK H PARENT 20 7 3 17 13 18 27 33 77 52 51 63
REMARK Flexibility Score: inf
ROOT
ATOM      1  C   UNL A   1      30.981  30.283  24.815  1.00  0.00     0.002 C 
ENDROOT
BRANCH   1   2
ATOM      2  C   UNL A   1      31.025  28.779  24.521  1.00  0.00     0.021 C 
BRANCH   2   3
ATOM      3  C   UNL A   1      30.867  28.422  23.043  1.00  0.00     0.116 C 
BRANCH   3   4
ATOM      4  N   UNL A   1      32.155  28.309  22.385  1.00  0.00    -0.356 N 
ATOM      5  C   UNL A   1      32.957  27.213  22.237  1.00  0.00     0.227 C 
ATOM      6  O   UNL A   1      34.029  27.353  21.648  1.00  0.00    -0.274 OA
ATOM      7  H   UNL A   1      32.501  29.141  21.989  1.00  0.00     0.163 HD
BRANCH   5   8
ATOM      8  C   UNL A   1      32.460  25.870  22.775  1.00  0.00     0.103 C 
ATOM      9  C   UNL A   1      34.093  24.062  23.192  1.00  0.00     0.107 C 
ATOM     10  C   UNL A   1      33.297  23.833  21.946  1.00  0.00    -0.006 C 
ATOM     11  C   UNL A   1      33.406  25.279  23.826  1.00  0.00     0.047 C 
ATOM     12  C   UNL A   1      32.409  24.807  21.724  1.00  0.00    -0.016 C 
BRANCH   9  13
ATOM     13  N   UNL A   1      34.039  22.847  23.969  1.00  0.00    -0.332 N 
ATOM     14  O   UNL A   1      35.464  23.443  25.660  1.00  0.00    -0.248 OA
ATOM     15  C   UNL A   1      34.760  22.606  25.101  1.00  0.00     0.319 C 
ATOM     16  N   UNL A   1      34.513  21.411  25.715  1.00  0.00    -0.303 N 
ATOM     17  H   UNL A   1      34.625  21.414  26.693  1.00  0.00     0.172 HD
ATOM     18  H   UNL A   1      33.432  22.138  23.657  1.00  0.00     0.165 HD
BRANCH  16  19
ATOM     19  C   UNL A   1      34.120  20.175  25.165  1.00  0.00     0.115 A 
ATOM     20  C   UNL A   1      32.789  19.827  24.905  1.00  0.00     0.152 A 
ATOM     21  C   UNL A   1      35.118  19.270  24.794  1.00  0.00     0.152 A 
ATOM     22  F   UNL A   1      31.792  20.684  25.163  1.00  0.00    -0.204 F 
ATOM     23  C   UNL A   1      32.460  18.603  24.331  1.00  0.00     0.081 A 
ATOM     24  C   UNL A   1      34.808  18.031  24.243  1.00  0.00     0.081 A 
ATOM     25  F   UNL A   1      36.407  19.577  25.010  1.00  0.00    -0.204 F 
ATOM     26  C   UNL A   1      33.476  17.711  24.017  1.00  0.00     0.129 A 
ATOM     27  F   UNL A   1      33.165  16.526  23.479  1.00  0.00    -0.207 F 
ENDBRANCH  16  19
ENDBRANCH   9  13
ENDBRANCH   5   8
ENDBRANCH   3   4
ENDBRANCH   2   3
ENDBRANCH   1   2
BRANCH   1  28
ATOM     28  C   UNL A   1      31.499  30.691  26.197  1.00  0.00     0.002 C 
BRANCH  28  29
ATOM     29  C   UNL A   1      31.390  32.184  26.512  1.00  0.00     0.021 C 
BRANCH  29  30
ATOM     30  C   UNL A   1      32.618  32.782  27.189  1.00  0.00     0.116 C 
BRANCH  30  31
ATOM     31  N   UNL A   1      32.392  34.147  27.640  1.00  0.00    -0.352 N 
ATOM     32  C   UNL A   1      33.011  34.846  28.645  1.00  0.00     0.251 C 
ATOM     33  H   UNL A   1      31.693  34.640  27.153  1.00  0.00     0.163 HD
ATOM     34  O   UNL A   1      32.564  35.932  29.008  1.00  0.00    -0.269 OA
BRANCH  32  35
ATOM     35  C   UNL A   1      34.205  34.282  29.309  1.00  0.00     0.039 A 
ATOM     36  C   UNL A   1      34.038  33.538  30.479  1.00  0.00     0.014 A 
ATOM     37  C   UNL A   1      35.483  34.486  28.781  1.00  0.00     0.014 A 
ATOM     38  C   UNL A   1      35.148  32.946  31.086  1.00  0.00     0.010 A 
ATOM     39  C   UNL A   1      36.575  33.830  29.341  1.00  0.00     0.010 A 
ATOM     40  C   UNL A   1      36.420  33.057  30.501  1.00  0.00    -0.014 A 
BRANCH  40  41
ATOM     41  C   UNL A   1      37.598  32.366  31.086  1.00  0.00     0.031 A 
ATOM     42  C   UNL A   1      38.232  32.885  32.347  1.00  0.00     0.074 A 
ATOM     43  C   UNL A   1      38.132  31.305  30.450  1.00  0.00     0.049 A 
ATOM     44  N   UNL A   1      39.297  32.453  32.977  1.00  0.00    -0.248 NA
ATOM     45  C   UNL A   1      37.602  34.060  32.970  1.00  0.00     0.031 C 
ATOM     46  C   UNL A   1      37.636  30.730  29.199  1.00  0.00     0.029 A 
ATOM     47  N   UNL A   1      39.217  30.525  30.766  1.00  0.00    -0.354 N 
ATOM     48  C   UNL A   1      39.466  33.306  34.059  1.00  0.00     0.074 A 
ATOM     49  C   UNL A   1      38.435  34.316  33.967  1.00  0.00     0.031 C 
ATOM     50  C   UNL A   1      38.395  29.672  28.870  1.00  0.00     0.029 A 
ATOM     51  C   UNL A   1      39.456  29.521  29.859  1.00  0.00     0.049 A 
ATOM     52  H   UNL A   1      39.771  30.672  31.567  1.00  0.00     0.167 HD
ATOM     53  C   UNL A   1      40.383  33.240  35.054  1.00  0.00     0.037 A 
ATOM     54  C   UNL A   1      40.427  28.589  29.825  1.00  0.00     0.037 A 
ATOM     55  C   UNL A   1      41.403  32.228  35.148  1.00  0.00     0.049 A 
ATOM     56  C   UNL A   1      41.454  28.558  30.923  1.00  0.00     0.074 A 
ATOM     57  C   UNL A   1      42.349  32.047  36.142  1.00  0.00     0.029 A 
ATOM     58  N   UNL A   1      41.615  31.229  34.209  1.00  0.00    -0.354 N 
ATOM     59  N   UNL A   1      41.563  29.329  31.978  1.00  0.00    -0.248 NA
ATOM     60  C   UNL A   1      42.493  27.522  30.828  1.00  0.00     0.031 C 
ATOM     61  C   UNL A   1      43.166  30.972  35.777  1.00  0.00     0.029 A 
ATOM     62  C   UNL A   1      42.693  30.446  34.587  1.00  0.00     0.049 A 
ATOM     63  H   UNL A   1      41.077  31.097  33.395  1.00  0.00     0.167 HD
ATOM     64  C   UNL A   1      42.659  28.852  32.687  1.00  0.00     0.074 A 
ATOM     65  C   UNL A   1      43.172  27.717  31.950  1.00  0.00     0.031 C 
ATOM     66  C   UNL A   1      43.190  29.313  33.846  1.00  0.00     0.037 A 
BRANCH  53  67
ATOM     67  C   UNL A   1      40.323  34.298  36.121  1.00  0.00     0.057 A 
ATOM     68  C   UNL A   1      41.094  35.466  36.049  1.00  0.00     0.134 A 
ATOM     69  C   UNL A   1      39.468  34.158  37.222  1.00  0.00     0.134 A 
ATOM     70  F   UNL A   1      41.941  35.660  35.027  1.00  0.00    -0.206 F 
ATOM     71  C   UNL A   1      41.041  36.440  37.048  1.00  0.00     0.040 A 
ATOM     72  C   UNL A   1      39.383  35.139  38.211  1.00  0.00     0.040 A 
ATOM     73  F   UNL A   1      38.695  33.069  37.351  1.00  0.00    -0.206 F 
ATOM     74  C   UNL A   1      40.179  36.281  38.130  1.00  0.00     0.006 A 
ENDBRANCH  53  67
BRANCH  54  75
ATOM     75  C   UNL A   1      40.464  27.591  28.726  1.00  0.00     0.057 A 
ATOM     76  C   UNL A   1      41.253  27.799  27.588  1.00  0.00     0.134 A 
ATOM     77  C   UNL A   1      39.704  26.415  28.775  1.00  0.00     0.134 A 
ATOM     78  F   UNL A   1      41.989  28.914  27.473  1.00  0.00    -0.206 F 
ATOM     79  C   UNL A   1      41.270  26.889  26.531  1.00  0.00     0.040 A 
ATOM     80  C   UNL A   1      39.732  25.483  27.737  1.00  0.00     0.040 A 
ATOM     81  F   UNL A   1      38.933  26.152  29.840  1.00  0.00    -0.206 F 
ATOM     82  C   UNL A   1      40.510  25.723  26.606  1.00  0.00     0.006 A 
ENDBRANCH  54  75
BRANCH  66  83
ATOM     83  C   UNL A   1      44.363  28.564  34.411  1.00  0.00     0.057 A 
ATOM     84  C   UNL A   1      45.684  28.963  34.174  1.00  0.00     0.134 A 
ATOM     85  C   UNL A   1      44.163  27.446  35.233  1.00  0.00     0.134 A 
ATOM     86  F   UNL A   1      45.947  30.015  33.385  1.00  0.00    -0.206 F 
ATOM     87  C   UNL A   1      46.765  28.262  34.713  1.00  0.00     0.040 A 
ATOM     88  C   UNL A   1      45.234  26.758  35.803  1.00  0.00     0.040 A 
ATOM     89  F   UNL A   1      42.922  27.016  35.509  1.00  0.00    -0.206 F 
ATOM     90  C   UNL A   1      46.541  27.161  35.537  1.00  0.00     0.006 A 
ENDBRANCH  66  83
ENDBRANCH  40  41
ENDBRANCH  32  35
ENDBRANCH  30  31
ENDBRANCH  29  30
ENDBRANCH  28  29
ENDBRANCH   1  28
TORSDOF 15
ENDMDL
