MODEL 1
REMARK VINA RESULT:     -11.9      0.000      0.000
REMARK SMILES CCc1cc(OC(F)(F)F)cc2c1O[C@H](C(F)(F)F)C(C(=O)NCCCCCCNC(=O)c1ccc(-c3c4nc(c(-c5c(F)cccc5F)c5ccc([nH]5)c(-c5c(F)cccc5F)c5nc(c(-c6c(F)cccc6F)c6ccc3[nH]6)C=C5)C=C4)cc1)=C2
REMARK SMILES IDX 26 1 25 2 24 3 23 4 21 5 22 6 20 8 3 9 4 10 13 11 5 12 12 13
REMARK SMILES IDX 14 14 11 15 87 16 15 17 2 18 1 19 6 20 7 21 8 22 9 23 10 24
REMARK SMILES IDX 16 25 17 26 18 27 19 28 27 29 28 30 29 31 30 32 31 33 32 35
REMARK SMILES IDX 33 36 34 37 86 38 35 39 85 40 36 41 37 42 38 43 79 44 39 45
REMARK SMILES IDX 84 46 78 47 80 48 40 49 83 50 77 51 76 52 41 54 67 55 50 56
REMARK SMILES IDX 66 57 51 58 54 59 65 60 81 61 52 62 53 63 64 65 82 66 55 67
REMARK SMILES IDX 42 68 43 69 48 70 44 71 45 72 47 73 49 74 46 75 68 76 69 77
REMARK SMILES IDX 74 78 70 79 71 80 73 81 75 82 72 83 56 84 57 85 62 86 58 87
REMARK SMILES IDX 59 88 61 89 63 90 60 91
REMARK H PARENT 23 7 30 34 80 53 54 64
REMARK Flexibility Score: inf
ROOT
ATOM      1  C   UNL A   1      31.668  27.963  24.633  1.00  0.00     0.002 C 
ENDROOT
BRANCH   1   2
ATOM      2  C   UNL A   1      30.481  27.340  23.885  1.00  0.00     0.021 C 
BRANCH   2   3
ATOM      3  C   UNL A   1      30.735  25.888  23.474  1.00  0.00     0.116 C 
BRANCH   3   4
ATOM      4  N   UNL A   1      31.575  25.850  22.296  1.00  0.00    -0.352 N 
ATOM      5  C   UNL A   1      32.674  25.131  21.966  1.00  0.00     0.251 C 
ATOM      6  O   UNL A   1      33.180  25.350  20.865  1.00  0.00    -0.270 OA
ATOM      7  H   UNL A   1      31.288  26.474  21.590  1.00  0.00     0.163 HD
BRANCH   5   8
ATOM      8  C   UNL A   1      33.212  24.022  22.805  1.00  0.00     0.067 C 
ATOM      9  C   UNL A   1      35.567  21.069  24.637  1.00  0.00    -0.002 A 
ATOM     10  C   UNL A   1      34.996  19.814  24.914  1.00  0.00     0.054 A 
ATOM     11  C   UNL A   1      34.779  22.054  24.025  1.00  0.00     0.131 A 
ATOM     12  C   UNL A   1      33.666  19.545  24.585  1.00  0.00     0.130 A 
ATOM     13  C   UNL A   1      33.437  21.809  23.722  1.00  0.00     0.021 A 
ATOM     14  O   UNL A   1      35.396  23.229  23.679  1.00  0.00    -0.475 OA
ATOM     15  C   UNL A   1      32.891  20.552  24.000  1.00  0.00     0.058 A 
ATOM     16  C   UNL A   1      32.652  22.825  23.026  1.00  0.00     0.025 C 
ATOM     17  C   UNL A   1      34.526  24.374  23.483  1.00  0.00     0.314 C 
BRANCH   9  18
ATOM     18  C   UNL A   1      37.004  21.342  25.020  1.00  0.00     0.036 C 
ATOM     19  C   UNL A   1      37.871  20.093  24.919  1.00  0.00     0.009 C 
ENDBRANCH   9  18
BRANCH  12  20
ATOM     20  O   UNL A   1      33.006  18.363  24.764  1.00  0.00    -0.406 OA
BRANCH  20  21
ATOM     21  C   UNL A   1      33.278  17.306  23.859  1.00  0.00     0.573 C 
ATOM     22  F   UNL A   1      32.729  16.147  24.282  1.00  0.00    -0.132 F 
ATOM     23  F   UNL A   1      32.825  17.598  22.623  1.00  0.00    -0.132 F 
ATOM     24  F   UNL A   1      34.616  17.133  23.788  1.00  0.00    -0.132 F 
ENDBRANCH  20  21
ENDBRANCH  12  20
BRANCH  17  25
ATOM     25  C   UNL A   1      34.317  25.112  24.822  1.00  0.00     0.429 C 
ATOM     26  F   UNL A   1      34.363  26.457  24.645  1.00  0.00    -0.167 F 
ATOM     27  F   UNL A   1      33.131  24.837  25.409  1.00  0.00    -0.167 F 
ATOM     28  F   UNL A   1      35.277  24.801  25.729  1.00  0.00    -0.167 F 
ENDBRANCH  17  25
ENDBRANCH   5   8
ENDBRANCH   3   4
ENDBRANCH   2   3
ENDBRANCH   1   2
BRANCH   1  29
ATOM     29  C   UNL A   1      31.414  28.232  26.122  1.00  0.00     0.002 C 
BRANCH  29  30
ATOM     30  C   UNL A   1      32.536  27.779  27.059  1.00  0.00     0.021 C 
BRANCH  30  31
ATOM     31  C   UNL A   1      33.833  28.565  26.903  1.00  0.00     0.116 C 
BRANCH  31  32
ATOM     32  N   UNL A   1      33.698  29.921  27.411  1.00  0.00    -0.352 N 
ATOM     33  C   UNL A   1      34.550  30.635  28.215  1.00  0.00     0.251 C 
ATOM     34  H   UNL A   1      32.878  30.394  27.140  1.00  0.00     0.163 HD
ATOM     35  O   UNL A   1      34.171  31.671  28.751  1.00  0.00    -0.269 OA
BRANCH  33  36
ATOM     36  C   UNL A   1      35.925  30.148  28.442  1.00  0.00     0.039 A 
ATOM     37  C   UNL A   1      36.853  30.231  27.400  1.00  0.00     0.014 A 
ATOM     38  C   UNL A   1      36.291  29.583  29.667  1.00  0.00     0.014 A 
ATOM     39  C   UNL A   1      38.162  29.792  27.604  1.00  0.00     0.010 A 
ATOM     40  C   UNL A   1      37.612  29.207  29.890  1.00  0.00     0.010 A 
ATOM     41  C   UNL A   1      38.557  29.299  28.858  1.00  0.00    -0.014 A 
BRANCH  41  42
ATOM     42  C   UNL A   1      39.955  28.868  29.106  1.00  0.00     0.031 A 
ATOM     43  C   UNL A   1      40.933  29.811  29.749  1.00  0.00     0.074 A 
ATOM     44  C   UNL A   1      40.359  27.651  28.692  1.00  0.00     0.049 A 
ATOM     45  N   UNL A   1      42.210  29.644  29.984  1.00  0.00    -0.248 NA
ATOM     46  C   UNL A   1      40.416  31.128  30.156  1.00  0.00     0.031 C 
ATOM     47  C   UNL A   1      39.515  26.667  28.011  1.00  0.00     0.029 A 
ATOM     48  N   UNL A   1      41.585  27.041  28.773  1.00  0.00    -0.354 N 
ATOM     49  C   UNL A   1      42.650  30.835  30.546  1.00  0.00     0.074 A 
ATOM     50  C   UNL A   1      41.516  31.733  30.576  1.00  0.00     0.031 C 
ATOM     51  C   UNL A   1      40.246  25.570  27.748  1.00  0.00     0.029 A 
ATOM     52  C   UNL A   1      41.612  25.787  28.212  1.00  0.00     0.049 A 
ATOM     53  H   UNL A   1      42.369  27.462  29.192  1.00  0.00     0.167 HD
ATOM     54  C   UNL A   1      43.882  31.144  31.015  1.00  0.00     0.037 A 
ATOM     55  C   UNL A   1      42.628  24.913  28.081  1.00  0.00     0.037 A 
ATOM     56  C   UNL A   1      44.999  30.236  31.015  1.00  0.00     0.049 A 
ATOM     57  C   UNL A   1      43.983  25.276  28.624  1.00  0.00     0.074 A 
ATOM     58  C   UNL A   1      46.267  30.429  31.534  1.00  0.00     0.029 A 
ATOM     59  N   UNL A   1      44.979  28.962  30.468  1.00  0.00    -0.354 N 
ATOM     60  N   UNL A   1      44.366  26.378  29.222  1.00  0.00    -0.248 NA
ATOM     61  C   UNL A   1      45.045  24.270  28.481  1.00  0.00     0.031 C 
ATOM     62  C   UNL A   1      47.028  29.287  31.264  1.00  0.00     0.029 A 
ATOM     63  C   UNL A   1      46.221  28.365  30.619  1.00  0.00     0.049 A 
ATOM     64  H   UNL A   1      44.200  28.543  30.038  1.00  0.00     0.167 HD
ATOM     65  C   UNL A   1      45.702  26.189  29.549  1.00  0.00     0.074 A 
ATOM     66  C   UNL A   1      46.059  24.860  29.097  1.00  0.00     0.031 C 
ATOM     67  C   UNL A   1      46.556  27.039  30.169  1.00  0.00     0.037 A 
BRANCH  54  68
ATOM     68  C   UNL A   1      44.089  32.522  31.573  1.00  0.00     0.057 A 
ATOM     69  C   UNL A   1      44.495  33.593  30.766  1.00  0.00     0.134 A 
ATOM     70  C   UNL A   1      43.834  32.792  32.923  1.00  0.00     0.134 A 
ATOM     71  F   UNL A   1      44.767  33.400  29.467  1.00  0.00    -0.206 F 
ATOM     72  C   UNL A   1      44.663  34.878  31.287  1.00  0.00     0.040 A 
ATOM     73  C   UNL A   1      43.973  34.078  33.450  1.00  0.00     0.040 A 
ATOM     74  F   UNL A   1      43.436  31.813  33.750  1.00  0.00    -0.206 F 
ATOM     75  C   UNL A   1      44.392  35.124  32.631  1.00  0.00     0.006 A 
ENDBRANCH  54  68
BRANCH  55  76
ATOM     76  C   UNL A   1      42.402  23.603  27.423  1.00  0.00     0.057 A 
ATOM     77  C   UNL A   1      42.057  22.470  28.168  1.00  0.00     0.134 A 
ATOM     78  C   UNL A   1      42.534  23.447  26.038  1.00  0.00     0.134 A 
ATOM     79  F   UNL A   1      41.933  22.551  29.502  1.00  0.00    -0.206 F 
ATOM     80  C   UNL A   1      41.875  21.225  27.565  1.00  0.00     0.040 A 
ATOM     81  C   UNL A   1      42.330  22.214  25.418  1.00  0.00     0.040 A 
ATOM     82  F   UNL A   1      42.854  24.497  25.266  1.00  0.00    -0.206 F 
ATOM     83  C   UNL A   1      42.008  21.095  26.184  1.00  0.00     0.006 A 
ENDBRANCH  55  76
BRANCH  67  84
ATOM     84  C   UNL A   1      47.949  26.546  30.423  1.00  0.00     0.057 A 
ATOM     85  C   UNL A   1      48.293  25.877  31.605  1.00  0.00     0.134 A 
ATOM     86  C   UNL A   1      48.950  26.709  29.456  1.00  0.00     0.134 A 
ATOM     87  F   UNL A   1      47.383  25.700  32.575  1.00  0.00    -0.206 F 
ATOM     88  C   UNL A   1      49.588  25.407  31.825  1.00  0.00     0.040 A 
ATOM     89  C   UNL A   1      50.242  26.221  29.654  1.00  0.00     0.040 A 
ATOM     90  F   UNL A   1      48.684  27.333  28.299  1.00  0.00    -0.206 F 
ATOM     91  C   UNL A   1      50.566  25.573  30.844  1.00  0.00     0.006 A 
ENDBRANCH  67  84
ENDBRANCH  41  42
ENDBRANCH  33  36
ENDBRANCH  31  32
ENDBRANCH  30  31
ENDBRANCH  29  30
ENDBRANCH   1  29
TORSDOF 17
ENDMDL
MODEL 2
REMARK VINA RESULT:     -11.7      1.678      2.008
REMARK SMILES CCc1cc(OC(F)(F)F)cc2c1O[C@H](C(F)(F)F)C(C(=O)NCCCCCCNC(=O)c1ccc(-c3c4nc(c(-c5c(F)cccc5F)c5ccc([nH]5)c(-c5c(F)cccc5F)c5nc(c(-c6c(F)cccc6F)c6ccc3[nH]6)C=C5)C=C4)cc1)=C2
REMARK SMILES IDX 26 1 25 2 24 3 23 4 21 5 22 6 20 8 3 9 4 10 13 11 5 12 12 13
REMARK SMILES IDX 14 14 11 15 87 16 15 17 2 18 1 19 6 20 7 21 8 22 9 23 10 24
REMARK SMILES IDX 16 25 17 26 18 27 19 28 27 29 28 30 29 31 30 32 31 33 32 35
REMARK SMILES IDX 33 36 34 37 86 38 35 39 85 40 36 41 37 42 38 43 79 44 39 45
REMARK SMILES IDX 84 46 78 47 80 48 40 49 83 50 77 51 76 52 41 54 67 55 50 56
REMARK SMILES IDX 66 57 51 58 54 59 65 60 81 61 52 62 53 63 64 65 82 66 55 67
REMARK SMILES IDX 42 68 43 69 48 70 44 71 45 72 47 73 49 74 46 75 68 76 69 77
REMARK SMILES IDX 74 78 70 79 71 80 73 81 75 82 72 83 56 84 57 85 62 86 58 87
REMARK SMILES IDX 59 88 61 89 63 90 60 91
REMARK H PARENT 23 7 30 34 80 53 54 64
REMARK Flexibility Score: inf
ROOT
ATOM      1  C   UNL A   1      31.594  28.088  24.504  1.00  0.00     0.002 C 
ENDROOT
BRANCH   1   2
ATOM      2  C   UNL A   1      30.377  27.324  23.965  1.00  0.00     0.021 C 
BRANCH   2   3
ATOM      3  C   UNL A   1      30.704  25.879  23.585  1.00  0.00     0.116 C 
BRANCH   3   4
ATOM      4  N   UNL A   1      31.534  25.857  22.399  1.00  0.00    -0.352 N 
ATOM      5  C   UNL A   1      32.631  25.144  22.050  1.00  0.00     0.251 C 
ATOM      6  O   UNL A   1      33.127  25.379  20.948  1.00  0.00    -0.270 OA
ATOM      7  H   UNL A   1      31.240  26.490  21.703  1.00  0.00     0.163 HD
BRANCH   5   8
ATOM      8  C   UNL A   1      33.178  24.025  22.869  1.00  0.00     0.067 C 
ATOM      9  C   UNL A   1      35.556  21.057  24.648  1.00  0.00    -0.002 A 
ATOM     10  C   UNL A   1      34.994  19.794  24.904  1.00  0.00     0.054 A 
ATOM     11  C   UNL A   1      34.760  22.048  24.054  1.00  0.00     0.131 A 
ATOM     12  C   UNL A   1      33.664  19.522  24.573  1.00  0.00     0.130 A 
ATOM     13  C   UNL A   1      33.419  21.798  23.749  1.00  0.00     0.021 A 
ATOM     14  O   UNL A   1      35.368  23.233  23.726  1.00  0.00    -0.475 OA
ATOM     15  C   UNL A   1      32.881  20.534  24.006  1.00  0.00     0.058 A 
ATOM     16  C   UNL A   1      32.626  22.821  23.071  1.00  0.00     0.025 C 
ATOM     17  C   UNL A   1      34.490  24.375  23.551  1.00  0.00     0.314 C 
BRANCH   9  18
ATOM     18  C   UNL A   1      36.991  21.334  25.034  1.00  0.00     0.036 C 
ATOM     19  C   UNL A   1      37.865  20.091  24.916  1.00  0.00     0.009 C 
ENDBRANCH   9  18
BRANCH  12  20
ATOM     20  O   UNL A   1      33.012  18.333  24.733  1.00  0.00    -0.406 OA
BRANCH  20  21
ATOM     21  C   UNL A   1      33.109  17.376  23.691  1.00  0.00     0.573 C 
ATOM     22  F   UNL A   1      32.862  16.130  24.148  1.00  0.00    -0.132 F 
ATOM     23  F   UNL A   1      32.259  17.668  22.685  1.00  0.00    -0.132 F 
ATOM     24  F   UNL A   1      34.368  17.399  23.200  1.00  0.00    -0.132 F 
ENDBRANCH  20  21
ENDBRANCH  12  20
BRANCH  17  25
ATOM     25  C   UNL A   1      34.278  25.089  24.903  1.00  0.00     0.429 C 
ATOM     26  F   UNL A   1      34.263  26.436  24.741  1.00  0.00    -0.167 F 
ATOM     27  F   UNL A   1      33.118  24.757  25.511  1.00  0.00    -0.167 F 
ATOM     28  F   UNL A   1      35.269  24.809  25.786  1.00  0.00    -0.167 F 
ENDBRANCH  17  25
ENDBRANCH   5   8
ENDBRANCH   3   4
ENDBRANCH   2   3
ENDBRANCH   1   2
BRANCH   1  29
ATOM     29  C   UNL A   1      31.458  28.561  25.958  1.00  0.00     0.002 C 
BRANCH  29  30
ATOM     30  C   UNL A   1      32.679  28.291  26.840  1.00  0.00     0.021 C 
BRANCH  30  31
ATOM     31  C   UNL A   1      33.921  29.084  26.446  1.00  0.00     0.116 C 
BRANCH  31  32
ATOM     32  N   UNL A   1      33.837  30.463  26.898  1.00  0.00    -0.352 N 
ATOM     33  C   UNL A   1      34.589  31.114  27.842  1.00  0.00     0.251 C 
ATOM     34  H   UNL A   1      33.141  31.008  26.464  1.00  0.00     0.163 HD
ATOM     35  O   UNL A   1      34.228  32.202  28.278  1.00  0.00    -0.269 OA
BRANCH  33  36
ATOM     36  C   UNL A   1      35.835  30.496  28.340  1.00  0.00     0.039 A 
ATOM     37  C   UNL A   1      37.019  30.692  27.626  1.00  0.00     0.014 A 
ATOM     38  C   UNL A   1      35.828  29.703  29.491  1.00  0.00     0.014 A 
ATOM     39  C   UNL A   1      38.209  30.130  28.094  1.00  0.00     0.010 A 
ATOM     40  C   UNL A   1      37.024  29.199  29.992  1.00  0.00     0.010 A 
ATOM     41  C   UNL A   1      38.224  29.400  29.294  1.00  0.00    -0.014 A 
BRANCH  41  42
ATOM     42  C   UNL A   1      39.485  28.832  29.830  1.00  0.00     0.031 A 
ATOM     43  C   UNL A   1      40.134  29.441  31.041  1.00  0.00     0.074 A 
ATOM     44  C   UNL A   1      40.081  27.809  29.185  1.00  0.00     0.049 A 
ATOM     45  N   UNL A   1      41.269  29.132  31.614  1.00  0.00    -0.248 NA
ATOM     46  C   UNL A   1      39.427  30.566  31.676  1.00  0.00     0.031 C 
ATOM     47  C   UNL A   1      39.575  27.167  27.970  1.00  0.00     0.029 A 
ATOM     48  N   UNL A   1      41.247  27.140  29.455  1.00  0.00    -0.354 N 
ATOM     49  C   UNL A   1      41.421  30.032  32.661  1.00  0.00     0.074 A 
ATOM     50  C   UNL A   1      40.286  30.928  32.617  1.00  0.00     0.031 C 
ATOM     51  C   UNL A   1      40.420  26.187  27.608  1.00  0.00     0.029 A 
ATOM     52  C   UNL A   1      41.539  26.154  28.543  1.00  0.00     0.049 A 
ATOM     53  H   UNL A   1      41.821  27.347  30.227  1.00  0.00     0.167 HD
ATOM     54  C   UNL A   1      42.406  30.092  33.588  1.00  0.00     0.037 A 
ATOM     55  C   UNL A   1      42.595  25.323  28.468  1.00  0.00     0.037 A 
ATOM     56  C   UNL A   1      43.516  29.178  33.649  1.00  0.00     0.049 A 
ATOM     57  C   UNL A   1      43.668  25.400  29.518  1.00  0.00     0.074 A 
ATOM     58  C   UNL A   1      44.526  29.110  34.592  1.00  0.00     0.029 A 
ATOM     59  N   UNL A   1      43.760  28.171  32.728  1.00  0.00    -0.354 N 
ATOM     60  N   UNL A   1      43.761  26.208  30.547  1.00  0.00    -0.248 NA
ATOM     61  C   UNL A   1      44.780  24.447  29.402  1.00  0.00     0.031 C 
ATOM     62  C   UNL A   1      45.406  28.088  34.219  1.00  0.00     0.029 A 
ATOM     63  C   UNL A   1      44.917  27.490  33.069  1.00  0.00     0.049 A 
ATOM     64  H   UNL A   1      43.195  27.970  31.947  1.00  0.00     0.167 HD
ATOM     65  C   UNL A   1      44.922  25.844  31.214  1.00  0.00     0.074 A 
ATOM     66  C   UNL A   1      45.493  24.732  30.482  1.00  0.00     0.031 C 
ATOM     67  C   UNL A   1      45.467  26.381  32.332  1.00  0.00     0.037 A 
BRANCH  54  68
ATOM     68  C   UNL A   1      42.328  31.182  34.617  1.00  0.00     0.057 A 
ATOM     69  C   UNL A   1      42.782  32.481  34.354  1.00  0.00     0.134 A 
ATOM     70  C   UNL A   1      41.750  30.942  35.869  1.00  0.00     0.134 A 
ATOM     71  F   UNL A   1      43.357  32.775  33.178  1.00  0.00    -0.206 F 
ATOM     72  C   UNL A   1      42.684  33.497  35.307  1.00  0.00     0.040 A 
ATOM     73  C   UNL A   1      41.623  31.956  36.822  1.00  0.00     0.040 A 
ATOM     74  F   UNL A   1      41.290  29.722  36.185  1.00  0.00    -0.206 F 
ATOM     75  C   UNL A   1      42.095  33.236  36.543  1.00  0.00     0.006 A 
ENDBRANCH  54  68
BRANCH  55  76
ATOM     76  C   UNL A   1      42.684  24.332  27.367  1.00  0.00     0.057 A 
ATOM     77  C   UNL A   1      42.211  23.024  27.532  1.00  0.00     0.134 A 
ATOM     78  C   UNL A   1      43.251  24.660  26.130  1.00  0.00     0.134 A 
ATOM     79  F   UNL A   1      41.674  22.644  28.700  1.00  0.00    -0.206 F 
ATOM     80  C   UNL A   1      42.320  22.074  26.516  1.00  0.00     0.040 A 
ATOM     81  C   UNL A   1      43.342  23.727  25.096  1.00  0.00     0.040 A 
ATOM     82  F   UNL A   1      43.713  25.900  25.905  1.00  0.00    -0.206 F 
ATOM     83  C   UNL A   1      42.884  22.426  25.291  1.00  0.00     0.006 A 
ENDBRANCH  55  76
BRANCH  67  84
ATOM     84  C   UNL A   1      46.727  25.753  32.851  1.00  0.00     0.057 A 
ATOM     85  C   UNL A   1      46.704  24.732  33.810  1.00  0.00     0.134 A 
ATOM     86  C   UNL A   1      47.976  26.149  32.355  1.00  0.00     0.134 A 
ATOM     87  F   UNL A   1      45.540  24.317  34.333  1.00  0.00    -0.206 F 
ATOM     88  C   UNL A   1      47.880  24.143  34.273  1.00  0.00     0.040 A 
ATOM     89  C   UNL A   1      49.157  25.549  32.792  1.00  0.00     0.040 A 
ATOM     90  F   UNL A   1      48.066  27.115  31.429  1.00  0.00    -0.206 F 
ATOM     91  C   UNL A   1      49.112  24.546  33.759  1.00  0.00     0.006 A 
ENDBRANCH  67  84
ENDBRANCH  41  42
ENDBRANCH  33  36
ENDBRANCH  31  32
ENDBRANCH  30  31
ENDBRANCH  29  30
ENDBRANCH   1  29
TORSDOF 17
ENDMDL
MODEL 3
REMARK VINA RESULT:     -11.4      2.479      7.790
REMARK SMILES CCc1cc(OC(F)(F)F)cc2c1O[C@H](C(F)(F)F)C(C(=O)NCCCCCCNC(=O)c1ccc(-c3c4nc(c(-c5c(F)cccc5F)c5ccc([nH]5)c(-c5c(F)cccc5F)c5nc(c(-c6c(F)cccc6F)c6ccc3[nH]6)C=C5)C=C4)cc1)=C2
REMARK SMILES IDX 26 1 25 2 24 3 23 4 21 5 22 6 20 8 3 9 4 10 13 11 5 12 12 13
REMARK SMILES IDX 14 14 11 15 87 16 15 17 2 18 1 19 6 20 7 21 8 22 9 23 10 24
REMARK SMILES IDX 16 25 17 26 18 27 19 28 27 29 28 30 29 31 30 32 31 33 32 35
REMARK SMILES IDX 33 36 34 37 86 38 35 39 85 40 36 41 37 42 38 43 79 44 39 45
REMARK SMILES IDX 84 46 78 47 80 48 40 49 83 50 77 51 76 52 41 54 67 55 50 56
REMARK SMILES IDX 66 57 51 58 54 59 65 60 81 61 52 62 53 63 64 65 82 66 55 67
REMARK SMILES IDX 42 68 43 69 48 70 44 71 45 72 47 73 49 74 46 75 68 76 69 77
REMARK SMILES IDX 74 78 70 79 71 80 73 81 75 82 72 83 56 84 57 85 62 86 58 87
REMARK SMILES IDX 59 88 61 89 63 90 60 91
REMARK H PARENT 23 7 30 34 80 53 54 64
REMARK Flexibility Score: inf
ROOT
ATOM      1  C   UNL A   1      34.782  20.221  25.026  1.00  0.00     0.002 C 
ENDROOT
BRANCH   1   2
ATOM      2  C   UNL A   1      33.939  20.926  26.097  1.00  0.00     0.021 C 
BRANCH   2   3
ATOM      3  C   UNL A   1      32.613  21.459  25.551  1.00  0.00     0.116 C 
BRANCH   3   4
ATOM      4  N   UNL A   1      32.613  21.392  24.105  1.00  0.00    -0.352 N 
ATOM      5  C   UNL A   1      32.409  22.316  23.136  1.00  0.00     0.251 C 
ATOM      6  O   UNL A   1      32.461  21.927  21.969  1.00  0.00    -0.270 OA
ATOM      7  H   UNL A   1      32.801  20.491  23.754  1.00  0.00     0.163 HD
BRANCH   5   8
ATOM      8  C   UNL A   1      32.253  23.773  23.410  1.00  0.00     0.067 C 
ATOM      9  C   UNL A   1      31.485  27.550  25.074  1.00  0.00    -0.002 A 
ATOM     10  C   UNL A   1      30.884  28.539  24.275  1.00  0.00     0.054 A 
ATOM     11  C   UNL A   1      31.742  26.289  24.516  1.00  0.00     0.131 A 
ATOM     12  C   UNL A   1      30.542  28.276  22.947  1.00  0.00     0.130 A 
ATOM     13  C   UNL A   1      31.434  26.024  23.179  1.00  0.00     0.021 A 
ATOM     14  O   UNL A   1      32.235  25.320  25.351  1.00  0.00    -0.475 OA
ATOM     15  C   UNL A   1      30.831  27.019  22.404  1.00  0.00     0.058 A 
ATOM     16  C   UNL A   1      31.648  24.685  22.636  1.00  0.00     0.025 C 
ATOM     17  C   UNL A   1      32.911  24.207  24.709  1.00  0.00     0.314 C 
BRANCH   9  18
ATOM     18  C   UNL A   1      31.865  27.866  26.503  1.00  0.00     0.036 C 
ATOM     19  C   UNL A   1      33.334  28.252  26.632  1.00  0.00     0.009 C 
ENDBRANCH   9  18
BRANCH  12  20
ATOM     20  O   UNL A   1      29.921  29.130  22.081  1.00  0.00    -0.406 OA
BRANCH  20  21
ATOM     21  C   UNL A   1      28.570  29.474  22.339  1.00  0.00     0.573 C 
ATOM     22  F   UNL A   1      27.948  29.889  21.215  1.00  0.00    -0.132 F 
ATOM     23  F   UNL A   1      27.898  28.432  22.870  1.00  0.00    -0.132 F 
ATOM     24  F   UNL A   1      28.545  30.489  23.230  1.00  0.00    -0.132 F 
ENDBRANCH  20  21
ENDBRANCH  12  20
BRANCH  17  25
ATOM     25  C   UNL A   1      34.409  24.532  24.529  1.00  0.00     0.429 C 
ATOM     26  F   UNL A   1      34.623  25.871  24.589  1.00  0.00    -0.167 F 
ATOM     27  F   UNL A   1      35.199  23.970  25.470  1.00  0.00    -0.167 F 
ATOM     28  F   UNL A   1      34.879  24.111  23.328  1.00  0.00    -0.167 F 
ENDBRANCH  17  25
ENDBRANCH   5   8
ENDBRANCH   3   4
ENDBRANCH   2   3
ENDBRANCH   1   2
BRANCH   1  29
ATOM     29  C   UNL A   1      36.175  20.826  24.809  1.00  0.00     0.002 C 
BRANCH  29  30
ATOM     30  C   UNL A   1      37.335  19.837  24.943  1.00  0.00     0.021 C 
BRANCH  30  31
ATOM     31  C   UNL A   1      38.571  20.413  25.626  1.00  0.00     0.116 C 
BRANCH  31  32
ATOM     32  N   UNL A   1      39.639  19.431  25.711  1.00  0.00    -0.352 N 
ATOM     33  C   UNL A   1      40.967  19.615  26.005  1.00  0.00     0.251 C 
ATOM     34  H   UNL A   1      39.373  18.500  25.532  1.00  0.00     0.163 HD
ATOM     35  O   UNL A   1      41.777  18.720  25.794  1.00  0.00    -0.269 OA
BRANCH  33  36
ATOM     36  C   UNL A   1      41.419  20.902  26.572  1.00  0.00     0.039 A 
ATOM     37  C   UNL A   1      41.916  21.883  25.710  1.00  0.00     0.014 A 
ATOM     38  C   UNL A   1      41.381  21.128  27.951  1.00  0.00     0.014 A 
ATOM     39  C   UNL A   1      42.330  23.112  26.228  1.00  0.00     0.010 A 
ATOM     40  C   UNL A   1      41.732  22.375  28.458  1.00  0.00     0.010 A 
ATOM     41  C   UNL A   1      42.217  23.376  27.603  1.00  0.00    -0.014 A 
BRANCH  41  42
ATOM     42  C   UNL A   1      42.612  24.690  28.166  1.00  0.00     0.031 A 
ATOM     43  C   UNL A   1      41.577  25.758  28.387  1.00  0.00     0.074 A 
ATOM     44  C   UNL A   1      43.912  24.944  28.415  1.00  0.00     0.049 A 
ATOM     45  N   UNL A   1      41.736  26.989  28.802  1.00  0.00    -0.248 NA
ATOM     46  C   UNL A   1      40.183  25.406  28.074  1.00  0.00     0.031 C 
ATOM     47  C   UNL A   1      45.014  24.006  28.193  1.00  0.00     0.029 A 
ATOM     48  N   UNL A   1      44.526  26.072  28.898  1.00  0.00    -0.354 N 
ATOM     49  C   UNL A   1      40.471  27.561  28.782  1.00  0.00     0.074 A 
ATOM     50  C   UNL A   1      39.561  26.559  28.271  1.00  0.00     0.031 C 
ATOM     51  C   UNL A   1      46.168  24.593  28.552  1.00  0.00     0.029 A 
ATOM     52  C   UNL A   1      45.891  25.955  28.997  1.00  0.00     0.049 A 
ATOM     53  H   UNL A   1      44.035  26.888  29.148  1.00  0.00     0.167 HD
ATOM     54  C   UNL A   1      40.097  28.802  29.174  1.00  0.00     0.037 A 
ATOM     55  C   UNL A   1      46.816  26.849  29.395  1.00  0.00     0.037 A 
ATOM     56  C   UNL A   1      40.999  29.785  29.714  1.00  0.00     0.049 A 
ATOM     57  C   UNL A   1      46.373  28.215  29.840  1.00  0.00     0.074 A 
ATOM     58  C   UNL A   1      40.707  31.045  30.208  1.00  0.00     0.029 A 
ATOM     59  N   UNL A   1      42.371  29.618  29.830  1.00  0.00    -0.354 N 
ATOM     60  N   UNL A   1      45.162  28.717  29.886  1.00  0.00    -0.248 NA
ATOM     61  C   UNL A   1      47.422  29.137  30.294  1.00  0.00     0.031 C 
ATOM     62  C   UNL A   1      41.907  31.656  30.585  1.00  0.00     0.029 A 
ATOM     63  C   UNL A   1      42.941  30.760  30.369  1.00  0.00     0.049 A 
ATOM     64  H   UNL A   1      42.866  28.809  29.569  1.00  0.00     0.167 HD
ATOM     65  C   UNL A   1      45.301  30.000  30.399  1.00  0.00     0.074 A 
ATOM     66  C   UNL A   1      46.712  30.193  30.662  1.00  0.00     0.031 C 
ATOM     67  C   UNL A   1      44.347  30.933  30.631  1.00  0.00     0.037 A 
BRANCH  54  68
ATOM     68  C   UNL A   1      38.648  29.169  29.039  1.00  0.00     0.057 A 
ATOM     69  C   UNL A   1      37.768  29.118  30.128  1.00  0.00     0.134 A 
ATOM     70  C   UNL A   1      38.137  29.623  27.817  1.00  0.00     0.134 A 
ATOM     71  F   UNL A   1      38.192  28.680  31.324  1.00  0.00    -0.206 F 
ATOM     72  C   UNL A   1      36.427  29.483  30.001  1.00  0.00     0.040 A 
ATOM     73  C   UNL A   1      36.803  30.016  27.684  1.00  0.00     0.040 A 
ATOM     74  F   UNL A   1      38.926  29.702  26.735  1.00  0.00    -0.206 F 
ATOM     75  C   UNL A   1      35.944  29.942  28.778  1.00  0.00     0.006 A 
ENDBRANCH  54  68
BRANCH  55  76
ATOM     76  C   UNL A   1      48.252  26.476  29.409  1.00  0.00     0.057 A 
ATOM     77  C   UNL A   1      49.082  26.758  28.318  1.00  0.00     0.134 A 
ATOM     78  C   UNL A   1      48.828  25.822  30.505  1.00  0.00     0.134 A 
ATOM     79  F   UNL A   1      48.584  27.367  27.231  1.00  0.00    -0.206 F 
ATOM     80  C   UNL A   1      50.426  26.383  28.305  1.00  0.00     0.040 A 
ATOM     81  C   UNL A   1      50.177  25.464  30.516  1.00  0.00     0.040 A 
ATOM     82  F   UNL A   1      48.088  25.532  31.586  1.00  0.00    -0.206 F 
ATOM     83  C   UNL A   1      50.978  25.737  29.409  1.00  0.00     0.006 A 
ENDBRANCH  55  76
BRANCH  67  84
ATOM     84  C   UNL A   1      44.792  32.235  31.228  1.00  0.00     0.057 A 
ATOM     85  C   UNL A   1      44.873  32.424  32.613  1.00  0.00     0.134 A 
ATOM     86  C   UNL A   1      45.181  33.300  30.404  1.00  0.00     0.134 A 
ATOM     87  F   UNL A   1      44.503  31.447  33.455  1.00  0.00    -0.206 F 
ATOM     88  C   UNL A   1      45.304  33.633  33.159  1.00  0.00     0.040 A 
ATOM     89  C   UNL A   1      45.638  34.505  30.938  1.00  0.00     0.040 A 
ATOM     90  F   UNL A   1      45.135  33.180  29.069  1.00  0.00    -0.206 F 
ATOM     91  C   UNL A   1      45.695  34.676  32.319  1.00  0.00     0.006 A 
ENDBRANCH  67  84
ENDBRANCH  41  42
ENDBRANCH  33  36
ENDBRANCH  31  32
ENDBRANCH  30  31
ENDBRANCH  29  30
ENDBRANCH   1  29
TORSDOF 17
ENDMDL
