MODEL 1
REMARK VINA RESULT:     -11.4      0.000      0.000
REMARK SMILES O=C(NCCCCCCNC(=O)[C@@H](CO)NC(=O)[C@H]1CCCc2ccccc21)c1ccc(-c2c3nc(c(-c4c(F)cccc4F)c4ccc([nH]4)c(-c4c(F)cccc4F)c4nc(c(-c5c(F)cccc5F)c5ccc2[nH]5)C=C4)C=C3)cc1
REMARK SMILES IDX 6 1 5 2 4 3 3 4 1 5 2 6 29 8 30 9 82 10 31 11 81 12 32 13
REMARK SMILES IDX 33 14 34 15 75 16 35 17 80 18 74 19 76 20 36 21 79 22 73 23
REMARK SMILES IDX 72 24 37 26 63 27 46 28 62 29 47 30 50 31 61 32 77 33 48 34
REMARK SMILES IDX 49 35 60 37 78 38 51 39 38 40 39 41 44 42 40 43 41 44 43 45
REMARK SMILES IDX 45 46 42 47 64 48 65 49 70 50 66 51 67 52 69 53 71 54 68 55
REMARK SMILES IDX 52 56 53 57 58 58 54 59 55 60 57 61 59 62 56 63 7 64 8 65
REMARK SMILES IDX 9 66 10 67 11 68 12 70 13 71 14 72 15 73 16 75 17 76 18 78
REMARK SMILES IDX 19 79 20 80 28 81 21 82 23 83 27 84 22 85 24 86 26 87 25 88
REMARK H PARENT 3 7 76 25 50 36 10 69 15 74 16 77
REMARK Flexibility Score: inf
ROOT
ATOM      1  C   UNL A   1      36.388  20.395  24.990  1.00  0.00     0.002 C 
ENDROOT
BRANCH   1   2
ATOM      2  C   UNL A   1      37.726  19.676  24.817  1.00  0.00     0.021 C 
BRANCH   2   3
ATOM      3  C   UNL A   1      38.835  20.191  25.723  1.00  0.00     0.116 C 
BRANCH   3   4
ATOM      4  N   UNL A   1      39.968  19.282  25.770  1.00  0.00    -0.352 N 
ATOM      5  O   UNL A   1      42.155  18.720  25.856  1.00  0.00    -0.269 OA
ATOM      6  C   UNL A   1      41.282  19.560  26.050  1.00  0.00     0.251 C 
ATOM      7  H   UNL A   1      39.765  18.338  25.574  1.00  0.00     0.163 HD
BRANCH   6   8
ATOM      8  C   UNL A   1      41.637  20.893  26.578  1.00  0.00     0.039 A 
ATOM      9  C   UNL A   1      42.038  21.909  25.707  1.00  0.00     0.014 A 
ATOM     10  C   UNL A   1      41.562  21.126  27.953  1.00  0.00     0.014 A 
ATOM     11  C   UNL A   1      42.479  23.121  26.222  1.00  0.00     0.010 A 
ATOM     12  C   UNL A   1      41.925  22.375  28.461  1.00  0.00     0.010 A 
ATOM     13  C   UNL A   1      42.403  23.375  27.601  1.00  0.00    -0.014 A 
BRANCH  13  14
ATOM     14  C   UNL A   1      42.744  24.726  28.107  1.00  0.00     0.031 A 
ATOM     15  C   UNL A   1      41.685  25.764  28.336  1.00  0.00     0.074 A 
ATOM     16  C   UNL A   1      44.037  25.001  28.370  1.00  0.00     0.049 A 
ATOM     17  N   UNL A   1      41.819  26.994  28.767  1.00  0.00    -0.248 NA
ATOM     18  C   UNL A   1      40.297  25.381  28.039  1.00  0.00     0.031 C 
ATOM     19  C   UNL A   1      45.151  24.070  28.170  1.00  0.00     0.029 A 
ATOM     20  N   UNL A   1      44.632  26.129  28.869  1.00  0.00    -0.354 N 
ATOM     21  C   UNL A   1      40.541  27.536  28.778  1.00  0.00     0.074 A 
ATOM     22  C   UNL A   1      39.645  26.510  28.287  1.00  0.00     0.031 C 
ATOM     23  C   UNL A   1      46.288  24.649  28.581  1.00  0.00     0.029 A 
ATOM     24  C   UNL A   1      45.993  26.011  29.010  1.00  0.00     0.049 A 
ATOM     25  H   UNL A   1      44.133  26.944  29.104  1.00  0.00     0.167 HD
ATOM     26  C   UNL A   1      40.156  28.775  29.166  1.00  0.00     0.037 A 
ATOM     27  C   UNL A   1      46.909  26.906  29.418  1.00  0.00     0.037 A 
ATOM     28  C   UNL A   1      41.055  29.786  29.664  1.00  0.00     0.049 A 
ATOM     29  C   UNL A   1      46.454  28.279  29.818  1.00  0.00     0.074 A 
ATOM     30  C   UNL A   1      40.757  31.060  30.114  1.00  0.00     0.029 A 
ATOM     31  N   UNL A   1      42.430  29.636  29.771  1.00  0.00    -0.354 N 
ATOM     32  N   UNL A   1      45.238  28.766  29.853  1.00  0.00    -0.248 NA
ATOM     33  C   UNL A   1      47.497  29.226  30.229  1.00  0.00     0.031 C 
ATOM     34  C   UNL A   1      41.955  31.697  30.453  1.00  0.00     0.029 A 
ATOM     35  C   UNL A   1      42.997  30.803  30.260  1.00  0.00     0.049 A 
ATOM     36  H   UNL A   1      42.930  28.822  29.535  1.00  0.00     0.167 HD
ATOM     37  C   UNL A   1      45.366  30.070  30.308  1.00  0.00     0.074 A 
ATOM     38  C   UNL A   1      46.777  30.290  30.553  1.00  0.00     0.031 C 
ATOM     39  C   UNL A   1      44.403  31.004  30.502  1.00  0.00     0.037 A 
BRANCH  26  40
ATOM     40  C   UNL A   1      38.698  29.120  29.056  1.00  0.00     0.057 A 
ATOM     41  C   UNL A   1      37.833  29.045  30.155  1.00  0.00     0.134 A 
ATOM     42  C   UNL A   1      38.167  29.592  27.848  1.00  0.00     0.134 A 
ATOM     43  F   UNL A   1      38.277  28.594  31.338  1.00  0.00    -0.206 F 
ATOM     44  C   UNL A   1      36.489  29.409  30.054  1.00  0.00     0.040 A 
ATOM     45  C   UNL A   1      36.830  29.980  27.740  1.00  0.00     0.040 A 
ATOM     46  F   UNL A   1      38.941  29.696  26.757  1.00  0.00    -0.206 F 
ATOM     47  C   UNL A   1      35.986  29.886  28.844  1.00  0.00     0.006 A 
ENDBRANCH  26  40
BRANCH  27  48
ATOM     48  C   UNL A   1      48.343  26.530  29.457  1.00  0.00     0.057 A 
ATOM     49  C   UNL A   1      49.195  26.805  28.381  1.00  0.00     0.134 A 
ATOM     50  C   UNL A   1      48.900  25.897  30.576  1.00  0.00     0.134 A 
ATOM     51  F   UNL A   1      48.716  27.397  27.277  1.00  0.00    -0.206 F 
ATOM     52  C   UNL A   1      50.543  26.450  28.410  1.00  0.00     0.040 A 
ATOM     53  C   UNL A   1      50.253  25.562  30.629  1.00  0.00     0.040 A 
ATOM     54  F   UNL A   1      48.138  25.616  31.644  1.00  0.00    -0.206 F 
ATOM     55  C   UNL A   1      51.077  25.832  29.539  1.00  0.00     0.006 A 
ENDBRANCH  27  48
BRANCH  39  56
ATOM     56  C   UNL A   1      44.844  32.333  31.034  1.00  0.00     0.057 A 
ATOM     57  C   UNL A   1      44.938  32.585  32.409  1.00  0.00     0.134 A 
ATOM     58  C   UNL A   1      45.203  33.366  30.159  1.00  0.00     0.134 A 
ATOM     59  F   UNL A   1      44.593  31.641  33.298  1.00  0.00    -0.206 F 
ATOM     60  C   UNL A   1      45.348  33.827  32.894  1.00  0.00     0.040 A 
ATOM     61  C   UNL A   1      45.640  34.603  30.633  1.00  0.00     0.040 A 
ATOM     62  F   UNL A   1      45.142  33.187  28.831  1.00  0.00    -0.206 F 
ATOM     63  C   UNL A   1      45.707  34.838  32.005  1.00  0.00     0.006 A 
ENDBRANCH  39  56
ENDBRANCH  13  14
ENDBRANCH   6   8
ENDBRANCH   3   4
ENDBRANCH   2   3
ENDBRANCH   1   2
BRANCH   1  64
ATOM     64  C   UNL A   1      36.364  21.843  24.492  1.00  0.00     0.002 C 
BRANCH  64  65
ATOM     65  C   UNL A   1      36.485  22.905  25.590  1.00  0.00     0.021 C 
BRANCH  65  66
ATOM     66  C   UNL A   1      35.189  23.670  25.861  1.00  0.00     0.116 C 
BRANCH  66  67
ATOM     67  N   UNL A   1      34.396  22.995  26.873  1.00  0.00    -0.354 N 
ATOM     68  C   UNL A   1      33.051  22.832  26.986  1.00  0.00     0.244 C 
ATOM     69  H   UNL A   1      34.922  22.588  27.599  1.00  0.00     0.163 HD
ATOM     70  O   UNL A   1      32.614  22.536  28.105  1.00  0.00    -0.273 OA
BRANCH  68  71
ATOM     71  C   UNL A   1      32.074  23.087  25.826  1.00  0.00     0.197 C 
BRANCH  71  72
ATOM     72  C   UNL A   1      31.819  21.815  24.996  1.00  0.00     0.191 C 
BRANCH  72  73
ATOM     73  O   UNL A   1      31.812  20.613  25.756  1.00  0.00    -0.394 OA
ATOM     74  H   UNL A   1      32.324  19.933  25.290  1.00  0.00     0.210 HD
ENDBRANCH  72  73
ENDBRANCH  71  72
BRANCH  71  75
ATOM     75  N   UNL A   1      30.861  23.787  26.260  1.00  0.00    -0.342 N 
ATOM     76  C   UNL A   1      30.405  25.039  25.959  1.00  0.00     0.228 C 
ATOM     77  H   UNL A   1      30.282  23.271  26.867  1.00  0.00     0.164 HD
ATOM     78  O   UNL A   1      29.426  25.434  26.598  1.00  0.00    -0.274 OA
BRANCH  76  79
ATOM     79  C   UNL A   1      31.090  25.869  24.854  1.00  0.00     0.109 C 
ATOM     80  C   UNL A   1      30.044  26.158  23.758  1.00  0.00     0.018 C 
ATOM     81  C   UNL A   1      31.786  27.126  25.382  1.00  0.00    -0.032 A 
ATOM     82  C   UNL A   1      30.343  27.390  22.925  1.00  0.00     0.006 C 
ATOM     83  C   UNL A   1      31.486  28.409  24.881  1.00  0.00    -0.044 A 
ATOM     84  C   UNL A   1      32.802  27.005  26.346  1.00  0.00     0.005 A 
ATOM     85  C   UNL A   1      30.434  28.609  23.824  1.00  0.00     0.036 C 
ATOM     86  C   UNL A   1      32.155  29.535  25.386  1.00  0.00     0.004 A 
ATOM     87  C   UNL A   1      33.475  28.129  26.828  1.00  0.00     0.000 A 
ATOM     88  C   UNL A   1      33.147  29.394  26.352  1.00  0.00     0.000 A 
ENDBRANCH  76  79
ENDBRANCH  71  75
ENDBRANCH  68  71
ENDBRANCH  66  67
ENDBRANCH  65  66
ENDBRANCH  64  65
ENDBRANCH   1  64
TORSDOF 17
ENDMDL
MODEL 2
REMARK VINA RESULT:     -11.3      0.311      6.072
REMARK SMILES O=C(NCCCCCCNC(=O)[C@@H](CO)NC(=O)[C@H]1CCCc2ccccc21)c1ccc(-c2c3nc(c(-c4c(F)cccc4F)c4ccc([nH]4)c(-c4c(F)cccc4F)c4nc(c(-c5c(F)cccc5F)c5ccc2[nH]5)C=C4)C=C3)cc1
REMARK SMILES IDX 6 1 5 2 4 3 3 4 1 5 2 6 29 8 30 9 82 10 31 11 81 12 32 13
REMARK SMILES IDX 33 14 34 15 75 16 35 17 80 18 74 19 76 20 36 21 79 22 73 23
REMARK SMILES IDX 72 24 37 26 63 27 46 28 62 29 47 30 50 31 61 32 77 33 48 34
REMARK SMILES IDX 49 35 60 37 78 38 51 39 38 40 39 41 44 42 40 43 41 44 43 45
REMARK SMILES IDX 45 46 42 47 64 48 65 49 70 50 66 51 67 52 69 53 71 54 68 55
REMARK SMILES IDX 52 56 53 57 58 58 54 59 55 60 57 61 59 62 56 63 7 64 8 65
REMARK SMILES IDX 9 66 10 67 11 68 12 70 13 71 14 72 15 73 16 75 17 76 18 78
REMARK SMILES IDX 19 79 20 80 28 81 21 82 23 83 27 84 22 85 24 86 26 87 25 88
REMARK H PARENT 3 7 76 25 50 36 10 69 15 74 16 77
REMARK Flexibility Score: inf
ROOT
ATOM      1  C   UNL A   1      36.351  20.614  24.972  1.00  0.00     0.002 C 
ENDROOT
BRANCH   1   2
ATOM      2  C   UNL A   1      37.569  19.690  24.971  1.00  0.00     0.021 C 
BRANCH   2   3
ATOM      3  C   UNL A   1      38.861  20.356  25.422  1.00  0.00     0.116 C 
BRANCH   3   4
ATOM      4  N   UNL A   1      39.923  19.390  25.647  1.00  0.00    -0.352 N 
ATOM      5  O   UNL A   1      42.043  18.717  26.045  1.00  0.00    -0.269 OA
ATOM      6  C   UNL A   1      41.201  19.608  26.097  1.00  0.00     0.251 C 
ATOM      7  H   UNL A   1      39.695  18.452  25.450  1.00  0.00     0.163 HD
BRANCH   6   8
ATOM      8  C   UNL A   1      41.557  20.936  26.634  1.00  0.00     0.039 A 
ATOM      9  C   UNL A   1      42.028  21.936  25.779  1.00  0.00     0.014 A 
ATOM     10  C   UNL A   1      41.412  21.182  28.001  1.00  0.00     0.014 A 
ATOM     11  C   UNL A   1      42.469  23.142  26.309  1.00  0.00     0.010 A 
ATOM     12  C   UNL A   1      41.776  22.427  28.519  1.00  0.00     0.010 A 
ATOM     13  C   UNL A   1      42.323  23.409  27.680  1.00  0.00    -0.014 A 
BRANCH  13  14
ATOM     14  C   UNL A   1      42.666  24.756  28.194  1.00  0.00     0.031 A 
ATOM     15  C   UNL A   1      44.079  25.123  28.542  1.00  0.00     0.074 A 
ATOM     16  C   UNL A   1      41.673  25.658  28.331  1.00  0.00     0.049 A 
ATOM     17  N   UNL A   1      44.542  26.255  29.010  1.00  0.00    -0.248 NA
ATOM     18  C   UNL A   1      45.105  24.088  28.350  1.00  0.00     0.031 C 
ATOM     19  C   UNL A   1      40.261  25.404  28.035  1.00  0.00     0.029 A 
ATOM     20  N   UNL A   1      41.696  26.964  28.741  1.00  0.00    -0.354 N 
ATOM     21  C   UNL A   1      45.906  26.067  29.183  1.00  0.00     0.074 A 
ATOM     22  C   UNL A   1      46.195  24.702  28.794  1.00  0.00     0.031 C 
ATOM     23  C   UNL A   1      39.560  26.528  28.232  1.00  0.00     0.029 A 
ATOM     24  C   UNL A   1      40.460  27.561  28.731  1.00  0.00     0.049 A 
ATOM     25  H   UNL A   1      42.519  27.430  29.014  1.00  0.00     0.167 HD
ATOM     26  C   UNL A   1      46.830  26.954  29.624  1.00  0.00     0.037 A 
ATOM     27  C   UNL A   1      40.085  28.798  29.103  1.00  0.00     0.037 A 
ATOM     28  C   UNL A   1      46.534  28.315  29.998  1.00  0.00     0.049 A 
ATOM     29  C   UNL A   1      41.126  29.750  29.611  1.00  0.00     0.074 A 
ATOM     30  C   UNL A   1      47.405  29.302  30.424  1.00  0.00     0.029 A 
ATOM     31  N   UNL A   1      45.265  28.876  29.996  1.00  0.00    -0.354 N 
ATOM     32  N   UNL A   1      42.418  29.567  29.739  1.00  0.00    -0.248 NA
ATOM     33  C   UNL A   1      40.660  31.077  30.030  1.00  0.00     0.031 C 
ATOM     34  C   UNL A   1      46.660  30.447  30.721  1.00  0.00     0.029 A 
ATOM     35  C   UNL A   1      45.328  30.190  30.434  1.00  0.00     0.049 A 
ATOM     36  H   UNL A   1      44.441  28.411  29.724  1.00  0.00     0.167 HD
ATOM     37  C   UNL A   1      42.922  30.760  30.234  1.00  0.00     0.074 A 
ATOM     38  C   UNL A   1      41.799  31.666  30.366  1.00  0.00     0.031 C 
ATOM     39  C   UNL A   1      44.200  31.078  30.556  1.00  0.00     0.037 A 
BRANCH  26  40
ATOM     40  C   UNL A   1      48.251  26.484  29.741  1.00  0.00     0.057 A 
ATOM     41  C   UNL A   1      48.725  25.834  30.888  1.00  0.00     0.134 A 
ATOM     42  C   UNL A   1      49.141  26.629  28.668  1.00  0.00     0.134 A 
ATOM     43  F   UNL A   1      47.927  25.670  31.954  1.00  0.00    -0.206 F 
ATOM     44  C   UNL A   1      50.036  25.361  30.971  1.00  0.00     0.040 A 
ATOM     45  C   UNL A   1      50.447  26.140  28.731  1.00  0.00     0.040 A 
ATOM     46  F   UNL A   1      48.751  27.235  27.537  1.00  0.00    -0.206 F 
ATOM     47  C   UNL A   1      50.899  25.507  29.886  1.00  0.00     0.006 A 
ENDBRANCH  26  40
BRANCH  27  48
ATOM     48  C   UNL A   1      38.658  29.194  29.017  1.00  0.00     0.057 A 
ATOM     49  C   UNL A   1      38.096  29.622  27.810  1.00  0.00     0.134 A 
ATOM     50  C   UNL A   1      37.820  29.144  30.138  1.00  0.00     0.134 A 
ATOM     51  F   UNL A   1      38.852  29.704  26.705  1.00  0.00    -0.206 F 
ATOM     52  C   UNL A   1      36.756  30.000  27.723  1.00  0.00     0.040 A 
ATOM     53  C   UNL A   1      36.472  29.493  30.060  1.00  0.00     0.040 A 
ATOM     54  F   UNL A   1      38.297  28.733  31.323  1.00  0.00    -0.206 F 
ATOM     55  C   UNL A   1      35.938  29.930  28.850  1.00  0.00     0.006 A 
ENDBRANCH  27  48
BRANCH  39  56
ATOM     56  C   UNL A   1      44.449  32.471  31.048  1.00  0.00     0.057 A 
ATOM     57  C   UNL A   1      44.428  32.788  32.412  1.00  0.00     0.134 A 
ATOM     58  C   UNL A   1      44.737  33.503  30.146  1.00  0.00     0.134 A 
ATOM     59  F   UNL A   1      44.143  31.847  33.325  1.00  0.00    -0.206 F 
ATOM     60  C   UNL A   1      44.660  34.089  32.860  1.00  0.00     0.040 A 
ATOM     61  C   UNL A   1      44.997  34.802  30.585  1.00  0.00     0.040 A 
ATOM     62  F   UNL A   1      44.779  33.264  28.827  1.00  0.00    -0.206 F 
ATOM     63  C   UNL A   1      44.952  35.099  31.945  1.00  0.00     0.006 A 
ENDBRANCH  39  56
ENDBRANCH  13  14
ENDBRANCH   6   8
ENDBRANCH   3   4
ENDBRANCH   2   3
ENDBRANCH   1   2
BRANCH   1  64
ATOM     64  C   UNL A   1      36.634  22.055  24.537  1.00  0.00     0.002 C 
BRANCH  64  65
ATOM     65  C   UNL A   1      36.567  23.094  25.660  1.00  0.00     0.021 C 
BRANCH  65  66
ATOM     66  C   UNL A   1      35.204  23.774  25.799  1.00  0.00     0.116 C 
BRANCH  66  67
ATOM     67  N   UNL A   1      34.399  23.109  26.807  1.00  0.00    -0.354 N 
ATOM     68  C   UNL A   1      33.052  22.942  26.903  1.00  0.00     0.244 C 
ATOM     69  H   UNL A   1      34.915  22.713  27.547  1.00  0.00     0.163 HD
ATOM     70  O   UNL A   1      32.599  22.660  28.018  1.00  0.00    -0.273 OA
BRANCH  68  71
ATOM     71  C   UNL A   1      32.092  23.179  25.724  1.00  0.00     0.197 C 
BRANCH  71  72
ATOM     72  C   UNL A   1      31.879  21.903  24.888  1.00  0.00     0.191 C 
BRANCH  72  73
ATOM     73  O   UNL A   1      31.560  20.749  25.655  1.00  0.00    -0.394 OA
ATOM     74  H   UNL A   1      32.185  20.666  26.391  1.00  0.00     0.210 HD
ENDBRANCH  72  73
ENDBRANCH  71  72
BRANCH  71  75
ATOM     75  N   UNL A   1      30.857  23.853  26.136  1.00  0.00    -0.342 N 
ATOM     76  C   UNL A   1      30.427  25.130  25.912  1.00  0.00     0.228 C 
ATOM     77  H   UNL A   1      30.237  23.294  26.660  1.00  0.00     0.164 HD
ATOM     78  O   UNL A   1      29.411  25.481  26.517  1.00  0.00    -0.274 OA
BRANCH  76  79
ATOM     79  C   UNL A   1      31.186  26.041  24.926  1.00  0.00     0.109 C 
ATOM     80  C   UNL A   1      30.312  26.212  23.666  1.00  0.00     0.018 C 
ATOM     81  C   UNL A   1      31.631  27.369  25.545  1.00  0.00    -0.032 A 
ATOM     82  C   UNL A   1      30.601  27.476  22.878  1.00  0.00     0.006 C 
ATOM     83  C   UNL A   1      31.271  28.611  24.984  1.00  0.00    -0.044 A 
ATOM     84  C   UNL A   1      32.478  27.362  26.668  1.00  0.00     0.005 A 
ATOM     85  C   UNL A   1      30.395  28.692  23.763  1.00  0.00     0.036 C 
ATOM     86  C   UNL A   1      31.709  29.804  25.579  1.00  0.00     0.004 A 
ATOM     87  C   UNL A   1      32.924  28.555  27.241  1.00  0.00     0.000 A 
ATOM     88  C   UNL A   1      32.535  29.776  26.699  1.00  0.00     0.000 A 
ENDBRANCH  76  79
ENDBRANCH  71  75
ENDBRANCH  68  71
ENDBRANCH  66  67
ENDBRANCH  65  66
ENDBRANCH  64  65
ENDBRANCH   1  64
TORSDOF 17
ENDMDL
MODEL 3
REMARK VINA RESULT:     -11.2      3.563      8.730
REMARK SMILES O=C(NCCCCCCNC(=O)[C@@H](CO)NC(=O)[C@H]1CCCc2ccccc21)c1ccc(-c2c3nc(c(-c4c(F)cccc4F)c4ccc([nH]4)c(-c4c(F)cccc4F)c4nc(c(-c5c(F)cccc5F)c5ccc2[nH]5)C=C4)C=C3)cc1
REMARK SMILES IDX 6 1 5 2 4 3 3 4 1 5 2 6 29 8 30 9 82 10 31 11 81 12 32 13
REMARK SMILES IDX 33 14 34 15 75 16 35 17 80 18 74 19 76 20 36 21 79 22 73 23
REMARK SMILES IDX 72 24 37 26 63 27 46 28 62 29 47 30 50 31 61 32 77 33 48 34
REMARK SMILES IDX 49 35 60 37 78 38 51 39 38 40 39 41 44 42 40 43 41 44 43 45
REMARK SMILES IDX 45 46 42 47 64 48 65 49 70 50 66 51 67 52 69 53 71 54 68 55
REMARK SMILES IDX 52 56 53 57 58 58 54 59 55 60 57 61 59 62 56 63 7 64 8 65
REMARK SMILES IDX 9 66 10 67 11 68 12 70 13 71 14 72 15 73 16 75 17 76 18 78
REMARK SMILES IDX 19 79 20 80 28 81 21 82 23 83 27 84 22 85 24 86 26 87 25 88
REMARK H PARENT 3 7 76 25 50 36 10 69 15 74 16 77
REMARK Flexibility Score: inf
ROOT
ATOM      1  C   UNL A   1      31.540  30.785  26.227  1.00  0.00     0.002 C 
ENDROOT
BRANCH   1   2
ATOM      2  C   UNL A   1      31.381  32.235  26.688  1.00  0.00     0.021 C 
BRANCH   2   3
ATOM      3  C   UNL A   1      32.683  32.910  27.094  1.00  0.00     0.116 C 
BRANCH   3   4
ATOM      4  N   UNL A   1      32.453  34.147  27.820  1.00  0.00    -0.352 N 
ATOM      5  O   UNL A   1      32.716  35.619  29.514  1.00  0.00    -0.269 OA
ATOM      6  C   UNL A   1      33.152  34.662  28.882  1.00  0.00     0.251 C 
ATOM      7  H   UNL A   1      31.693  34.690  27.508  1.00  0.00     0.163 HD
BRANCH   6   8
ATOM      8  C   UNL A   1      34.435  34.041  29.267  1.00  0.00     0.039 A 
ATOM      9  C   UNL A   1      35.597  34.323  28.544  1.00  0.00     0.014 A 
ATOM     10  C   UNL A   1      34.474  33.174  30.361  1.00  0.00     0.014 A 
ATOM     11  C   UNL A   1      36.773  33.647  28.840  1.00  0.00     0.010 A 
ATOM     12  C   UNL A   1      35.679  32.560  30.711  1.00  0.00     0.010 A 
ATOM     13  C   UNL A   1      36.832  32.778  29.942  1.00  0.00    -0.014 A 
BRANCH  13  14
ATOM     14  C   UNL A   1      38.135  32.182  30.323  1.00  0.00     0.031 A 
ATOM     15  C   UNL A   1      39.049  32.862  31.300  1.00  0.00     0.074 A 
ATOM     16  C   UNL A   1      38.478  30.999  29.777  1.00  0.00     0.049 A 
ATOM     17  N   UNL A   1      40.224  32.476  31.731  1.00  0.00    -0.248 NA
ATOM     18  C   UNL A   1      38.595  34.143  31.861  1.00  0.00     0.031 C 
ATOM     19  C   UNL A   1      37.671  30.256  28.806  1.00  0.00     0.029 A 
ATOM     20  N   UNL A   1      39.581  30.209  29.965  1.00  0.00    -0.354 N 
ATOM     21  C   UNL A   1      40.657  33.469  32.599  1.00  0.00     0.074 A 
ATOM     22  C   UNL A   1      39.630  34.490  32.617  1.00  0.00     0.031 C 
ATOM     23  C   UNL A   1      38.284  29.101  28.515  1.00  0.00     0.029 A 
ATOM     24  C   UNL A   1      39.556  29.052  29.226  1.00  0.00     0.049 A 
ATOM     25  H   UNL A   1      40.319  30.447  30.571  1.00  0.00     0.167 HD
ATOM     26  C   UNL A   1      41.805  33.519  33.316  1.00  0.00     0.037 A 
ATOM     27  C   UNL A   1      40.466  28.068  29.113  1.00  0.00     0.037 A 
ATOM     28  C   UNL A   1      42.816  32.491  33.300  1.00  0.00     0.049 A 
ATOM     29  C   UNL A   1      41.739  28.164  29.901  1.00  0.00     0.074 A 
ATOM     30  C   UNL A   1      43.999  32.433  34.018  1.00  0.00     0.029 A 
ATOM     31  N   UNL A   1      42.766  31.344  32.522  1.00  0.00    -0.354 N 
ATOM     32  N   UNL A   1      42.119  29.093  30.742  1.00  0.00    -0.248 NA
ATOM     33  C   UNL A   1      42.710  27.077  29.721  1.00  0.00     0.031 C 
ATOM     34  C   UNL A   1      44.683  31.273  33.642  1.00  0.00     0.029 A 
ATOM     35  C   UNL A   1      43.906  30.583  32.725  1.00  0.00     0.049 A 
ATOM     36  H   UNL A   1      42.029  31.106  31.914  1.00  0.00     0.167 HD
ATOM     37  C   UNL A   1      43.364  28.697  31.207  1.00  0.00     0.074 A 
ATOM     38  C   UNL A   1      43.665  27.432  30.567  1.00  0.00     0.031 C 
ATOM     39  C   UNL A   1      44.187  29.325  32.082  1.00  0.00     0.037 A 
BRANCH  26  40
ATOM     40  C   UNL A   1      42.043  34.730  34.172  1.00  0.00     0.057 A 
ATOM     41  C   UNL A   1      41.666  34.771  35.520  1.00  0.00     0.134 A 
ATOM     42  C   UNL A   1      42.713  35.847  33.655  1.00  0.00     0.134 A 
ATOM     43  F   UNL A   1      41.013  33.738  36.075  1.00  0.00    -0.206 F 
ATOM     44  C   UNL A   1      41.930  35.885  36.319  1.00  0.00     0.040 A 
ATOM     45  C   UNL A   1      43.003  36.957  34.450  1.00  0.00     0.040 A 
ATOM     46  F   UNL A   1      43.110  35.871  32.373  1.00  0.00    -0.206 F 
ATOM     47  C   UNL A   1      42.609  36.980  35.785  1.00  0.00     0.006 A 
ENDBRANCH  26  40
BRANCH  27  48
ATOM     48  C   UNL A   1      40.204  26.920  28.212  1.00  0.00     0.057 A 
ATOM     49  C   UNL A   1      39.383  25.859  28.610  1.00  0.00     0.134 A 
ATOM     50  C   UNL A   1      40.760  26.860  26.928  1.00  0.00     0.134 A 
ATOM     51  F   UNL A   1      38.833  25.853  29.833  1.00  0.00    -0.206 F 
ATOM     52  C   UNL A   1      39.136  24.773  27.769  1.00  0.00     0.040 A 
ATOM     53  C   UNL A   1      40.499  25.794  26.067  1.00  0.00     0.040 A 
ATOM     54  F   UNL A   1      41.547  27.852  26.484  1.00  0.00    -0.206 F 
ATOM     55  C   UNL A   1      39.690  24.742  26.490  1.00  0.00     0.006 A 
ENDBRANCH  27  48
BRANCH  39  56
ATOM     56  C   UNL A   1      45.473  28.633  32.419  1.00  0.00     0.057 A 
ATOM     57  C   UNL A   1      45.561  27.704  33.463  1.00  0.00     0.134 A 
ATOM     58  C   UNL A   1      46.632  28.883  31.674  1.00  0.00     0.134 A 
ATOM     59  F   UNL A   1      44.490  27.433  34.225  1.00  0.00    -0.206 F 
ATOM     60  C   UNL A   1      46.764  27.066  33.770  1.00  0.00     0.040 A 
ATOM     61  C   UNL A   1      47.833  28.232  31.954  1.00  0.00     0.040 A 
ATOM     62  F   UNL A   1      46.613  29.757  30.656  1.00  0.00    -0.206 F 
ATOM     63  C   UNL A   1      47.903  27.325  33.010  1.00  0.00     0.006 A 
ENDBRANCH  39  56
ENDBRANCH  13  14
ENDBRANCH   6   8
ENDBRANCH   3   4
ENDBRANCH   2   3
ENDBRANCH   1   2
BRANCH   1  64
ATOM     64  C   UNL A   1      32.354  29.895  27.170  1.00  0.00     0.002 C 
BRANCH  64  65
ATOM     65  C   UNL A   1      33.771  29.569  26.687  1.00  0.00     0.021 C 
BRANCH  65  66
ATOM     66  C   UNL A   1      33.852  28.343  25.776  1.00  0.00     0.116 C 
BRANCH  66  67
ATOM     67  N   UNL A   1      34.079  28.741  24.398  1.00  0.00    -0.354 N 
ATOM     68  C   UNL A   1      33.393  28.443  23.262  1.00  0.00     0.244 C 
ATOM     69  H   UNL A   1      34.861  29.323  24.265  1.00  0.00     0.163 HD
ATOM     70  O   UNL A   1      33.987  28.606  22.190  1.00  0.00    -0.273 OA
BRANCH  68  71
ATOM     71  C   UNL A   1      31.980  27.837  23.270  1.00  0.00     0.197 C 
BRANCH  71  72
ATOM     72  C   UNL A   1      30.932  28.809  22.694  1.00  0.00     0.191 C 
BRANCH  72  73
ATOM     73  O   UNL A   1      31.459  29.759  21.776  1.00  0.00    -0.394 OA
ATOM     74  H   UNL A   1      31.331  29.438  20.870  1.00  0.00     0.210 HD
ENDBRANCH  72  73
ENDBRANCH  71  72
BRANCH  71  75
ATOM     75  N   UNL A   1      31.945  26.490  22.692  1.00  0.00    -0.342 N 
ATOM     76  C   UNL A   1      32.122  25.269  23.280  1.00  0.00     0.228 C 
ATOM     77  H   UNL A   1      31.767  26.460  21.724  1.00  0.00     0.164 HD
ATOM     78  O   UNL A   1      32.201  24.301  22.520  1.00  0.00    -0.274 OA
BRANCH  76  79
ATOM     79  C   UNL A   1      32.187  25.150  24.816  1.00  0.00     0.109 C 
ATOM     80  C   UNL A   1      30.856  24.543  25.303  1.00  0.00     0.018 C 
ATOM     81  C   UNL A   1      33.423  24.397  25.316  1.00  0.00    -0.032 A 
ATOM     82  C   UNL A   1      30.951  23.837  26.643  1.00  0.00     0.006 C 
ATOM     83  C   UNL A   1      33.318  23.267  26.152  1.00  0.00    -0.044 A 
ATOM     84  C   UNL A   1      34.705  24.873  24.992  1.00  0.00     0.005 A 
ATOM     85  C   UNL A   1      31.978  22.722  26.565  1.00  0.00     0.036 C 
ATOM     86  C   UNL A   1      34.477  22.612  26.595  1.00  0.00     0.004 A 
ATOM     87  C   UNL A   1      35.852  24.225  25.454  1.00  0.00     0.000 A 
ATOM     88  C   UNL A   1      35.738  23.091  26.251  1.00  0.00     0.000 A 
ENDBRANCH  76  79
ENDBRANCH  71  75
ENDBRANCH  68  71
ENDBRANCH  66  67
ENDBRANCH  65  66
ENDBRANCH  64  65
ENDBRANCH   1  64
TORSDOF 17
ENDMDL
