MODEL 1
REMARK VINA RESULT:     -12.3      0.000      0.000
REMARK SMILES C[C@@H](C(=O)NCCCCCCNC(=O)c1ccc(-c2c3nc(c(-c4c(F)cccc4F)c4ccc([nH]4)c(-c4c(F)cccc4F)c4nc(c(-c5c(F)cccc5F)c5ccc2[nH]5)C=C4)C=C3)cc1)c1ccc(C[C@H]2CCCC2=O)c(-c2ccc(F)cc2)c1
REMARK SMILES IDX 8 1 7 2 6 3 5 4 3 5 4 6 2 8 1 9 69 10 70 11 88 12 71 13
REMARK SMILES IDX 80 14 72 15 81 16 82 17 87 18 83 19 86 20 84 21 85 22 73 23
REMARK SMILES IDX 74 24 75 25 78 26 76 27 77 28 79 29 9 30 10 31 11 32 12 33
REMARK SMILES IDX 13 34 14 36 15 37 16 38 68 39 17 40 67 41 18 42 19 43 20 44
REMARK SMILES IDX 61 45 21 46 66 47 60 48 62 49 22 50 65 51 59 52 58 53 23 55
REMARK SMILES IDX 49 56 32 57 48 58 33 59 36 60 47 61 63 62 34 63 35 64 46 66
REMARK SMILES IDX 64 67 37 68 24 69 25 70 30 71 26 72 27 73 29 74 31 75 28 76
REMARK SMILES IDX 50 77 51 78 56 79 52 80 53 81 55 82 57 83 54 84 38 85 39 86
REMARK SMILES IDX 44 87 40 88 41 89 43 90 45 91 42 92
REMARK H PARENT 5 7 12 35 62 54 36 65
REMARK Flexibility Score: inf
ROOT
ATOM      1  C   UNL A   1      34.398  32.417  28.873  1.00  0.00     0.002 C 
ENDROOT
BRANCH   1   2
ATOM      2  C   UNL A   1      35.490  31.783  27.999  1.00  0.00     0.021 C 
BRANCH   2   3
ATOM      3  C   UNL A   1      35.306  30.278  27.767  1.00  0.00     0.116 C 
BRANCH   3   4
ATOM      4  N   UNL A   1      33.914  29.924  27.949  1.00  0.00    -0.356 N 
ATOM      5  C   UNL A   1      33.035  29.479  27.003  1.00  0.00     0.227 C 
ATOM      6  O   UNL A   1      31.855  29.794  27.159  1.00  0.00    -0.274 OA
ATOM      7  H   UNL A   1      33.559  30.015  28.863  1.00  0.00     0.163 HD
BRANCH   5   8
ATOM      8  C   UNL A   1      33.566  28.644  25.823  1.00  0.00     0.105 C 
ATOM      9  C   UNL A   1      33.086  29.309  24.521  1.00  0.00     0.023 C 
BRANCH   8  10
ATOM     10  C   UNL A   1      33.191  27.158  25.835  1.00  0.00    -0.035 A 
ATOM     11  C   UNL A   1      31.945  26.758  26.329  1.00  0.00     0.005 A 
ATOM     12  C   UNL A   1      34.046  26.144  25.378  1.00  0.00     0.013 A 
ATOM     13  C   UNL A   1      31.643  25.409  26.506  1.00  0.00     0.004 A 
ATOM     14  C   UNL A   1      33.792  24.769  25.588  1.00  0.00    -0.015 A 
ATOM     15  C   UNL A   1      32.582  24.404  26.216  1.00  0.00    -0.039 A 
BRANCH  14  16
ATOM     16  C   UNL A   1      34.843  23.806  25.197  1.00  0.00    -0.018 A 
ATOM     17  C   UNL A   1      35.311  23.717  23.874  1.00  0.00     0.012 A 
ATOM     18  C   UNL A   1      35.420  22.957  26.162  1.00  0.00     0.012 A 
ATOM     19  C   UNL A   1      36.272  22.768  23.516  1.00  0.00     0.040 A 
ATOM     20  C   UNL A   1      36.393  22.020  25.808  1.00  0.00     0.040 A 
ATOM     21  C   UNL A   1      36.799  21.925  24.485  1.00  0.00     0.123 A 
ATOM     22  F   UNL A   1      37.713  21.010  24.139  1.00  0.00    -0.207 F 
ENDBRANCH  14  16
BRANCH  15  23
ATOM     23  C   UNL A   1      32.249  22.989  26.649  1.00  0.00     0.047 C 
BRANCH  23  24
ATOM     24  C   UNL A   1      31.509  22.112  25.629  1.00  0.00     0.060 C 
ATOM     25  C   UNL A   1      30.975  22.804  24.372  1.00  0.00     0.012 C 
ATOM     26  C   UNL A   1      32.381  21.024  25.047  1.00  0.00     0.136 C 
ATOM     27  C   UNL A   1      31.983  22.526  23.263  1.00  0.00     0.009 C 
ATOM     28  C   UNL A   1      32.549  21.145  23.557  1.00  0.00     0.076 C 
ATOM     29  O   UNL A   1      32.885  20.126  25.713  1.00  0.00    -0.299 OA
ENDBRANCH  23  24
ENDBRANCH  15  23
ENDBRANCH   8  10
ENDBRANCH   5   8
ENDBRANCH   3   4
ENDBRANCH   2   3
ENDBRANCH   1   2
BRANCH   1  30
ATOM     30  C   UNL A   1      34.575  33.915  29.129  1.00  0.00     0.002 C 
BRANCH  30  31
ATOM     31  C   UNL A   1      33.274  34.717  29.103  1.00  0.00     0.021 C 
BRANCH  31  32
ATOM     32  C   UNL A   1      33.414  36.141  29.627  1.00  0.00     0.116 C 
BRANCH  32  33
ATOM     33  N   UNL A   1      32.494  36.409  30.722  1.00  0.00    -0.352 N 
ATOM     34  C   UNL A   1      32.504  35.895  31.994  1.00  0.00     0.251 C 
ATOM     35  H   UNL A   1      31.767  37.042  30.523  1.00  0.00     0.163 HD
ATOM     36  O   UNL A   1      31.540  36.051  32.739  1.00  0.00    -0.269 OA
BRANCH  34  37
ATOM     37  C   UNL A   1      33.683  35.136  32.453  1.00  0.00     0.039 A 
ATOM     38  C   UNL A   1      33.524  33.810  32.861  1.00  0.00     0.014 A 
ATOM     39  C   UNL A   1      34.945  35.735  32.465  1.00  0.00     0.014 A 
ATOM     40  C   UNL A   1      34.645  33.065  33.231  1.00  0.00     0.010 A 
ATOM     41  C   UNL A   1      36.068  34.970  32.755  1.00  0.00     0.010 A 
ATOM     42  C   UNL A   1      35.928  33.631  33.153  1.00  0.00    -0.014 A 
BRANCH  42  43
ATOM     43  C   UNL A   1      37.142  32.855  33.508  1.00  0.00     0.031 A 
ATOM     44  C   UNL A   1      37.873  33.158  34.787  1.00  0.00     0.074 A 
ATOM     45  C   UNL A   1      37.628  31.937  32.652  1.00  0.00     0.049 A 
ATOM     46  N   UNL A   1      39.004  32.673  35.229  1.00  0.00    -0.248 NA
ATOM     47  C   UNL A   1      37.264  34.166  35.669  1.00  0.00     0.031 C 
ATOM     48  C   UNL A   1      37.033  31.580  31.364  1.00  0.00     0.029 A 
ATOM     49  N   UNL A   1      38.748  31.147  32.731  1.00  0.00    -0.354 N 
ATOM     50  C   UNL A   1      39.251  33.330  36.428  1.00  0.00     0.074 A 
ATOM     51  C   UNL A   1      38.185  34.290  36.613  1.00  0.00     0.031 C 
ATOM     52  C   UNL A   1      37.781  30.629  30.782  1.00  0.00     0.029 A 
ATOM     53  C   UNL A   1      38.933  30.343  31.633  1.00  0.00     0.049 A 
ATOM     54  H   UNL A   1      39.360  31.157  33.502  1.00  0.00     0.167 HD
ATOM     55  C   UNL A   1      40.262  33.135  37.308  1.00  0.00     0.037 A 
ATOM     56  C   UNL A   1      39.925  29.481  31.341  1.00  0.00     0.037 A 
ATOM     57  C   UNL A   1      41.309  32.164  37.128  1.00  0.00     0.049 A 
ATOM     58  C   UNL A   1      41.048  29.293  32.323  1.00  0.00     0.074 A 
ATOM     59  C   UNL A   1      42.349  31.850  37.984  1.00  0.00     0.029 A 
ATOM     60  N   UNL A   1      41.452  31.355  36.010  1.00  0.00    -0.354 N 
ATOM     61  N   UNL A   1      41.240  29.876  33.482  1.00  0.00    -0.248 NA
ATOM     62  C   UNL A   1      42.091  28.324  31.960  1.00  0.00     0.031 C 
ATOM     63  C   UNL A   1      43.152  30.889  37.362  1.00  0.00     0.029 A 
ATOM     64  C   UNL A   1      42.578  30.559  36.144  1.00  0.00     0.049 A 
ATOM     65  H   UNL A   1      40.843  31.348  35.237  1.00  0.00     0.167 HD
ATOM     66  C   UNL A   1      42.402  29.321  34.002  1.00  0.00     0.074 A 
ATOM     67  C   UNL A   1      42.868  28.349  33.034  1.00  0.00     0.031 C 
ATOM     68  C   UNL A   1      43.024  29.588  35.176  1.00  0.00     0.037 A 
BRANCH  55  69
ATOM     69  C   UNL A   1      40.282  33.997  38.538  1.00  0.00     0.057 A 
ATOM     70  C   UNL A   1      41.006  35.196  38.595  1.00  0.00     0.134 A 
ATOM     71  C   UNL A   1      39.558  33.628  39.680  1.00  0.00     0.134 A 
ATOM     72  F   UNL A   1      41.732  35.602  37.542  1.00  0.00    -0.206 F 
ATOM     73  C   UNL A   1      41.040  35.976  39.752  1.00  0.00     0.040 A 
ATOM     74  C   UNL A   1      39.556  34.418  40.831  1.00  0.00     0.040 A 
ATOM     75  F   UNL A   1      38.836  32.498  39.695  1.00  0.00    -0.206 F 
ATOM     76  C   UNL A   1      40.308  35.591  40.873  1.00  0.00     0.006 A 
ENDBRANCH  55  69
BRANCH  56  77
ATOM     77  C   UNL A   1      39.889  28.715  30.068  1.00  0.00     0.057 A 
ATOM     78  C   UNL A   1      39.205  27.498  29.978  1.00  0.00     0.134 A 
ATOM     79  C   UNL A   1      40.532  29.180  28.915  1.00  0.00     0.134 A 
ATOM     80  F   UNL A   1      38.584  26.991  31.053  1.00  0.00    -0.206 F 
ATOM     81  C   UNL A   1      39.176  26.761  28.793  1.00  0.00     0.040 A 
ATOM     82  C   UNL A   1      40.489  28.468  27.715  1.00  0.00     0.040 A 
ATOM     83  F   UNL A   1      41.198  30.346  28.933  1.00  0.00    -0.206 F 
ATOM     84  C   UNL A   1      39.814  27.250  27.654  1.00  0.00     0.006 A 
ENDBRANCH  56  77
BRANCH  68  85
ATOM     85  C   UNL A   1      44.250  28.786  35.508  1.00  0.00     0.057 A 
ATOM     86  C   UNL A   1      45.531  29.182  35.102  1.00  0.00     0.134 A 
ATOM     87  C   UNL A   1      44.149  27.629  36.291  1.00  0.00     0.134 A 
ATOM     88  F   UNL A   1      45.697  30.274  34.341  1.00  0.00    -0.206 F 
ATOM     89  C   UNL A   1      46.665  28.441  35.444  1.00  0.00     0.040 A 
ATOM     90  C   UNL A   1      45.276  26.898  36.665  1.00  0.00     0.040 A 
ATOM     91  F   UNL A   1      42.952  27.199  36.722  1.00  0.00    -0.206 F 
ATOM     92  C   UNL A   1      46.539  27.301  36.237  1.00  0.00     0.006 A 
ENDBRANCH  68  85
ENDBRANCH  42  43
ENDBRANCH  34  37
ENDBRANCH  32  33
ENDBRANCH  31  32
ENDBRANCH  30  31
ENDBRANCH   1  30
TORSDOF 17
ENDMDL
MODEL 2
REMARK VINA RESULT:     -11.9      4.242     10.119
REMARK SMILES C[C@@H](C(=O)NCCCCCCNC(=O)c1ccc(-c2c3nc(c(-c4c(F)cccc4F)c4ccc([nH]4)c(-c4c(F)cccc4F)c4nc(c(-c5c(F)cccc5F)c5ccc2[nH]5)C=C4)C=C3)cc1)c1ccc(C[C@H]2CCCC2=O)c(-c2ccc(F)cc2)c1
REMARK SMILES IDX 8 1 7 2 6 3 5 4 3 5 4 6 2 8 1 9 69 10 70 11 88 12 71 13
REMARK SMILES IDX 80 14 72 15 81 16 82 17 87 18 83 19 86 20 84 21 85 22 73 23
REMARK SMILES IDX 74 24 75 25 78 26 76 27 77 28 79 29 9 30 10 31 11 32 12 33
REMARK SMILES IDX 13 34 14 36 15 37 16 38 68 39 17 40 67 41 18 42 19 43 20 44
REMARK SMILES IDX 61 45 21 46 66 47 60 48 62 49 22 50 65 51 59 52 58 53 23 55
REMARK SMILES IDX 49 56 32 57 48 58 33 59 36 60 47 61 63 62 34 63 35 64 46 66
REMARK SMILES IDX 64 67 37 68 24 69 25 70 30 71 26 72 27 73 29 74 31 75 28 76
REMARK SMILES IDX 50 77 51 78 56 79 52 80 53 81 55 82 57 83 54 84 38 85 39 86
REMARK SMILES IDX 44 87 40 88 41 89 43 90 45 91 42 92
REMARK H PARENT 5 7 12 35 62 54 36 65
REMARK Flexibility Score: inf
ROOT
ATOM      1  C   UNL A   1      34.375  34.376  33.096  1.00  0.00     0.002 C 
ENDROOT
BRANCH   1   2
ATOM      2  C   UNL A   1      35.179  34.251  34.399  1.00  0.00     0.021 C 
BRANCH   2   3
ATOM      3  C   UNL A   1      36.698  34.237  34.193  1.00  0.00     0.116 C 
BRANCH   3   4
ATOM      4  N   UNL A   1      37.320  33.414  35.207  1.00  0.00    -0.356 N 
ATOM      5  C   UNL A   1      37.677  32.098  35.112  1.00  0.00     0.227 C 
ATOM      6  O   UNL A   1      37.617  31.436  36.149  1.00  0.00    -0.274 OA
ATOM      7  H   UNL A   1      37.508  33.852  36.069  1.00  0.00     0.163 HD
BRANCH   5   8
ATOM      8  C   UNL A   1      38.109  31.538  33.744  1.00  0.00     0.105 C 
ATOM      9  C   UNL A   1      36.896  30.827  33.121  1.00  0.00     0.023 C 
BRANCH   8  10
ATOM     10  C   UNL A   1      39.326  30.606  33.759  1.00  0.00    -0.035 A 
ATOM     11  C   UNL A   1      39.326  29.448  32.976  1.00  0.00     0.005 A 
ATOM     12  C   UNL A   1      40.468  30.843  34.539  1.00  0.00     0.013 A 
ATOM     13  C   UNL A   1      40.342  28.501  33.095  1.00  0.00     0.004 A 
ATOM     14  C   UNL A   1      41.491  29.884  34.720  1.00  0.00    -0.015 A 
ATOM     15  C   UNL A   1      41.390  28.664  34.018  1.00  0.00    -0.039 A 
BRANCH  14  16
ATOM     16  C   UNL A   1      42.564  30.195  35.687  1.00  0.00    -0.018 A 
ATOM     17  C   UNL A   1      42.425  31.211  36.648  1.00  0.00     0.012 A 
ATOM     18  C   UNL A   1      43.763  29.452  35.678  1.00  0.00     0.012 A 
ATOM     19  C   UNL A   1      43.470  31.519  37.523  1.00  0.00     0.040 A 
ATOM     20  C   UNL A   1      44.801  29.748  36.562  1.00  0.00     0.040 A 
ATOM     21  C   UNL A   1      44.650  30.789  37.467  1.00  0.00     0.123 A 
ATOM     22  F   UNL A   1      45.655  31.092  38.299  1.00  0.00    -0.207 F 
ENDBRANCH  14  16
BRANCH  15  23
ATOM     23  C   UNL A   1      42.320  27.485  34.237  1.00  0.00     0.047 C 
BRANCH  23  24
ATOM     24  C   UNL A   1      41.762  26.310  35.053  1.00  0.00     0.060 C 
ATOM     25  C   UNL A   1      42.590  25.022  35.074  1.00  0.00     0.012 C 
ATOM     26  C   UNL A   1      41.629  26.625  36.524  1.00  0.00     0.136 C 
ATOM     27  C   UNL A   1      43.368  25.027  36.385  1.00  0.00     0.009 C 
ATOM     28  C   UNL A   1      42.471  25.732  37.393  1.00  0.00     0.076 C 
ATOM     29  O   UNL A   1      40.898  27.505  36.968  1.00  0.00    -0.299 OA
ENDBRANCH  23  24
ENDBRANCH  15  23
ENDBRANCH   8  10
ENDBRANCH   5   8
ENDBRANCH   3   4
ENDBRANCH   2   3
ENDBRANCH   1   2
BRANCH   1  30
ATOM     30  C   UNL A   1      34.094  35.815  32.656  1.00  0.00     0.002 C 
BRANCH  30  31
ATOM     31  C   UNL A   1      32.966  35.952  31.633  1.00  0.00     0.021 C 
BRANCH  31  32
ATOM     32  C   UNL A   1      33.448  36.077  30.193  1.00  0.00     0.116 C 
BRANCH  32  33
ATOM     33  N   UNL A   1      32.688  35.226  29.291  1.00  0.00    -0.352 N 
ATOM     34  C   UNL A   1      33.120  34.146  28.564  1.00  0.00     0.251 C 
ATOM     35  H   UNL A   1      31.737  35.457  29.187  1.00  0.00     0.163 HD
ATOM     36  O   UNL A   1      32.414  33.660  27.685  1.00  0.00    -0.269 OA
BRANCH  34  37
ATOM     37  C   UNL A   1      34.455  33.581  28.841  1.00  0.00     0.039 A 
ATOM     38  C   UNL A   1      35.526  33.925  28.013  1.00  0.00     0.014 A 
ATOM     39  C   UNL A   1      34.646  32.725  29.929  1.00  0.00     0.014 A 
ATOM     40  C   UNL A   1      36.805  33.450  28.310  1.00  0.00     0.010 A 
ATOM     41  C   UNL A   1      35.931  32.321  30.269  1.00  0.00     0.010 A 
ATOM     42  C   UNL A   1      37.021  32.668  29.456  1.00  0.00    -0.014 A 
BRANCH  42  43
ATOM     43  C   UNL A   1      38.374  32.175  29.816  1.00  0.00     0.031 A 
ATOM     44  C   UNL A   1      38.835  30.832  29.321  1.00  0.00     0.074 A 
ATOM     45  C   UNL A   1      39.154  32.896  30.645  1.00  0.00     0.049 A 
ATOM     46  N   UNL A   1      39.929  30.176  29.604  1.00  0.00    -0.248 NA
ATOM     47  C   UNL A   1      37.925  30.120  28.409  1.00  0.00     0.031 C 
ATOM     48  C   UNL A   1      38.805  34.193  31.223  1.00  0.00     0.029 A 
ATOM     49  N   UNL A   1      40.398  32.626  31.159  1.00  0.00    -0.354 N 
ATOM     50  C   UNL A   1      39.831  28.969  28.924  1.00  0.00     0.074 A 
ATOM     51  C   UNL A   1      38.545  28.959  28.264  1.00  0.00     0.031 C 
ATOM     52  C   UNL A   1      39.817  34.616  31.997  1.00  0.00     0.029 A 
ATOM     53  C   UNL A   1      40.866  33.601  32.006  1.00  0.00     0.049 A 
ATOM     54  H   UNL A   1      40.905  31.811  30.941  1.00  0.00     0.167 HD
ATOM     55  C   UNL A   1      40.740  27.969  28.838  1.00  0.00     0.037 A 
ATOM     56  C   UNL A   1      42.007  33.662  32.718  1.00  0.00     0.037 A 
ATOM     57  C   UNL A   1      42.027  27.994  29.481  1.00  0.00     0.049 A 
ATOM     58  C   UNL A   1      42.994  32.532  32.622  1.00  0.00     0.074 A 
ATOM     59  C   UNL A   1      43.043  27.057  29.413  1.00  0.00     0.029 A 
ATOM     60  N   UNL A   1      42.473  29.007  30.316  1.00  0.00    -0.354 N 
ATOM     61  N   UNL A   1      42.917  31.422  31.928  1.00  0.00    -0.248 NA
ATOM     62  C   UNL A   1      44.231  32.664  33.405  1.00  0.00     0.031 C 
ATOM     63  C   UNL A   1      44.081  27.477  30.250  1.00  0.00     0.029 A 
ATOM     64  C   UNL A   1      43.739  28.706  30.791  1.00  0.00     0.049 A 
ATOM     65  H   UNL A   1      41.964  29.820  30.539  1.00  0.00     0.167 HD
ATOM     66  C   UNL A   1      44.105  30.741  32.161  1.00  0.00     0.074 A 
ATOM     67  C   UNL A   1      44.889  31.568  33.056  1.00  0.00     0.031 C 
ATOM     68  C   UNL A   1      44.512  29.543  31.674  1.00  0.00     0.037 A 
BRANCH  55  69
ATOM     69  C   UNL A   1      40.365  26.764  28.023  1.00  0.00     0.057 A 
ATOM     70  C   UNL A   1      40.854  26.562  26.725  1.00  0.00     0.134 A 
ATOM     71  C   UNL A   1      39.512  25.784  28.548  1.00  0.00     0.134 A 
ATOM     72  F   UNL A   1      41.665  27.467  26.155  1.00  0.00    -0.206 F 
ATOM     73  C   UNL A   1      40.478  25.452  25.966  1.00  0.00     0.040 A 
ATOM     74  C   UNL A   1      39.156  24.652  27.811  1.00  0.00     0.040 A 
ATOM     75  F   UNL A   1      39.012  25.907  29.787  1.00  0.00    -0.206 F 
ATOM     76  C   UNL A   1      39.632  24.490  26.512  1.00  0.00     0.006 A 
ENDBRANCH  55  69
BRANCH  56  77
ATOM     77  C   UNL A   1      42.285  34.847  33.570  1.00  0.00     0.057 A 
ATOM     78  C   UNL A   1      43.028  35.927  33.082  1.00  0.00     0.134 A 
ATOM     79  C   UNL A   1      41.814  34.930  34.885  1.00  0.00     0.134 A 
ATOM     80  F   UNL A   1      43.522  35.899  31.835  1.00  0.00    -0.206 F 
ATOM     81  C   UNL A   1      43.309  37.040  33.876  1.00  0.00     0.040 A 
ATOM     82  C   UNL A   1      42.064  36.049  35.683  1.00  0.00     0.040 A 
ATOM     83  F   UNL A   1      41.086  33.932  35.410  1.00  0.00    -0.206 F 
ATOM     84  C   UNL A   1      42.820  37.106  35.179  1.00  0.00     0.006 A 
ENDBRANCH  56  77
BRANCH  68  85
ATOM     85  C   UNL A   1      45.886  29.072  32.056  1.00  0.00     0.057 A 
ATOM     86  C   UNL A   1      46.091  28.085  33.029  1.00  0.00     0.134 A 
ATOM     87  C   UNL A   1      47.016  29.578  31.401  1.00  0.00     0.134 A 
ATOM     88  F   UNL A   1      45.053  27.568  33.702  1.00  0.00    -0.206 F 
ATOM     89  C   UNL A   1      47.373  27.635  33.351  1.00  0.00     0.040 A 
ATOM     90  C   UNL A   1      48.299  29.115  31.692  1.00  0.00     0.040 A 
ATOM     91  F   UNL A   1      46.890  30.518  30.451  1.00  0.00    -0.206 F 
ATOM     92  C   UNL A   1      48.481  28.144  32.674  1.00  0.00     0.006 A 
ENDBRANCH  68  85
ENDBRANCH  42  43
ENDBRANCH  34  37
ENDBRANCH  32  33
ENDBRANCH  31  32
ENDBRANCH  30  31
ENDBRANCH   1  30
TORSDOF 17
ENDMDL
MODEL 3
REMARK VINA RESULT:     -11.9      4.298      8.501
REMARK SMILES C[C@@H](C(=O)NCCCCCCNC(=O)c1ccc(-c2c3nc(c(-c4c(F)cccc4F)c4ccc([nH]4)c(-c4c(F)cccc4F)c4nc(c(-c5c(F)cccc5F)c5ccc2[nH]5)C=C4)C=C3)cc1)c1ccc(C[C@H]2CCCC2=O)c(-c2ccc(F)cc2)c1
REMARK SMILES IDX 8 1 7 2 6 3 5 4 3 5 4 6 2 8 1 9 69 10 70 11 88 12 71 13
REMARK SMILES IDX 80 14 72 15 81 16 82 17 87 18 83 19 86 20 84 21 85 22 73 23
REMARK SMILES IDX 74 24 75 25 78 26 76 27 77 28 79 29 9 30 10 31 11 32 12 33
REMARK SMILES IDX 13 34 14 36 15 37 16 38 68 39 17 40 67 41 18 42 19 43 20 44
REMARK SMILES IDX 61 45 21 46 66 47 60 48 62 49 22 50 65 51 59 52 58 53 23 55
REMARK SMILES IDX 49 56 32 57 48 58 33 59 36 60 47 61 63 62 34 63 35 64 46 66
REMARK SMILES IDX 64 67 37 68 24 69 25 70 30 71 26 72 27 73 29 74 31 75 28 76
REMARK SMILES IDX 50 77 51 78 56 79 52 80 53 81 55 82 57 83 54 84 38 85 39 86
REMARK SMILES IDX 44 87 40 88 41 89 43 90 45 91 42 92
REMARK H PARENT 5 7 12 35 62 54 36 65
REMARK Flexibility Score: inf
ROOT
ATOM      1  C   UNL A   1      34.718  34.181  33.413  1.00  0.00     0.002 C 
ENDROOT
BRANCH   1   2
ATOM      2  C   UNL A   1      35.408  34.198  34.785  1.00  0.00     0.021 C 
BRANCH   2   3
ATOM      3  C   UNL A   1      36.939  34.243  34.711  1.00  0.00     0.116 C 
BRANCH   3   4
ATOM      4  N   UNL A   1      37.500  33.282  35.637  1.00  0.00    -0.356 N 
ATOM      5  C   UNL A   1      37.782  31.966  35.405  1.00  0.00     0.227 C 
ATOM      6  O   UNL A   1      37.670  31.203  36.367  1.00  0.00    -0.274 OA
ATOM      7  H   UNL A   1      37.702  33.617  36.540  1.00  0.00     0.163 HD
BRANCH   5   8
ATOM      8  C   UNL A   1      38.197  31.528  33.988  1.00  0.00     0.105 C 
ATOM      9  C   UNL A   1      36.970  30.891  33.314  1.00  0.00     0.023 C 
BRANCH   8  10
ATOM     10  C   UNL A   1      39.402  30.584  33.909  1.00  0.00    -0.035 A 
ATOM     11  C   UNL A   1      39.320  29.411  33.151  1.00  0.00     0.005 A 
ATOM     12  C   UNL A   1      40.613  30.823  34.576  1.00  0.00     0.013 A 
ATOM     13  C   UNL A   1      40.335  28.457  33.194  1.00  0.00     0.004 A 
ATOM     14  C   UNL A   1      41.640  29.857  34.680  1.00  0.00    -0.015 A 
ATOM     15  C   UNL A   1      41.465  28.626  34.013  1.00  0.00    -0.039 A 
BRANCH  14  16
ATOM     16  C   UNL A   1      42.801  30.174  35.537  1.00  0.00    -0.018 A 
ATOM     17  C   UNL A   1      43.926  29.333  35.603  1.00  0.00     0.012 A 
ATOM     18  C   UNL A   1      42.814  31.358  36.304  1.00  0.00     0.012 A 
ATOM     19  C   UNL A   1      44.993  29.629  36.456  1.00  0.00     0.040 A 
ATOM     20  C   UNL A   1      43.887  31.662  37.143  1.00  0.00     0.040 A 
ATOM     21  C   UNL A   1      44.961  30.787  37.221  1.00  0.00     0.123 A 
ATOM     22  F   UNL A   1      45.979  31.064  38.044  1.00  0.00    -0.207 F 
ENDBRANCH  14  16
BRANCH  15  23
ATOM     23  C   UNL A   1      42.401  27.442  34.167  1.00  0.00     0.047 C 
BRANCH  23  24
ATOM     24  C   UNL A   1      41.883  26.257  34.996  1.00  0.00     0.060 C 
ATOM     25  C   UNL A   1      42.726  24.979  34.986  1.00  0.00     0.012 C 
ATOM     26  C   UNL A   1      41.793  26.566  36.472  1.00  0.00     0.136 C 
ATOM     27  C   UNL A   1      43.545  24.989  36.271  1.00  0.00     0.009 C 
ATOM     28  C   UNL A   1      42.673  25.679  37.310  1.00  0.00     0.076 C 
ATOM     29  O   UNL A   1      41.067  27.435  36.942  1.00  0.00    -0.299 OA
ENDBRANCH  23  24
ENDBRANCH  15  23
ENDBRANCH   8  10
ENDBRANCH   5   8
ENDBRANCH   3   4
ENDBRANCH   2   3
ENDBRANCH   1   2
BRANCH   1  30
ATOM     30  C   UNL A   1      34.675  35.536  32.703  1.00  0.00     0.002 C 
BRANCH  30  31
ATOM     31  C   UNL A   1      33.380  35.805  31.936  1.00  0.00     0.021 C 
BRANCH  31  32
ATOM     32  C   UNL A   1      33.596  36.272  30.502  1.00  0.00     0.116 C 
BRANCH  32  33
ATOM     33  N   UNL A   1      32.782  35.522  29.558  1.00  0.00    -0.352 N 
ATOM     34  C   UNL A   1      33.136  34.443  28.789  1.00  0.00     0.251 C 
ATOM     35  H   UNL A   1      31.852  35.831  29.458  1.00  0.00     0.163 HD
ATOM     36  O   UNL A   1      32.403  34.052  27.885  1.00  0.00    -0.269 OA
BRANCH  34  37
ATOM     37  C   UNL A   1      34.420  33.765  29.050  1.00  0.00     0.039 A 
ATOM     38  C   UNL A   1      35.543  34.120  28.300  1.00  0.00     0.014 A 
ATOM     39  C   UNL A   1      34.512  32.791  30.047  1.00  0.00     0.014 A 
ATOM     40  C   UNL A   1      36.776  33.532  28.588  1.00  0.00     0.010 A 
ATOM     41  C   UNL A   1      35.754  32.269  30.386  1.00  0.00     0.010 A 
ATOM     42  C   UNL A   1      36.896  32.624  29.652  1.00  0.00    -0.014 A 
BRANCH  42  43
ATOM     43  C   UNL A   1      38.199  32.007  30.004  1.00  0.00     0.031 A 
ATOM     44  C   UNL A   1      39.174  32.763  30.864  1.00  0.00     0.074 A 
ATOM     45  C   UNL A   1      38.536  30.808  29.492  1.00  0.00     0.049 A 
ATOM     46  N   UNL A   1      40.399  32.450  31.198  1.00  0.00    -0.248 NA
ATOM     47  C   UNL A   1      38.719  34.059  31.390  1.00  0.00     0.031 C 
ATOM     48  C   UNL A   1      37.694  29.994  28.615  1.00  0.00     0.029 A 
ATOM     49  N   UNL A   1      39.688  30.073  29.625  1.00  0.00    -0.354 N 
ATOM     50  C   UNL A   1      40.866  33.517  31.955  1.00  0.00     0.074 A 
ATOM     51  C   UNL A   1      39.815  34.511  31.980  1.00  0.00     0.031 C 
ATOM     52  C   UNL A   1      38.348  28.864  28.303  1.00  0.00     0.029 A 
ATOM     53  C   UNL A   1      39.672  28.894  28.919  1.00  0.00     0.049 A 
ATOM     54  H   UNL A   1      40.452  30.363  30.173  1.00  0.00     0.167 HD
ATOM     55  C   UNL A   1      42.054  33.648  32.592  1.00  0.00     0.037 A 
ATOM     56  C   UNL A   1      40.621  27.951  28.777  1.00  0.00     0.037 A 
ATOM     57  C   UNL A   1      43.087  32.647  32.581  1.00  0.00     0.049 A 
ATOM     58  C   UNL A   1      41.941  28.125  29.478  1.00  0.00     0.074 A 
ATOM     59  C   UNL A   1      44.305  32.658  33.238  1.00  0.00     0.029 A 
ATOM     60  N   UNL A   1      43.027  31.458  31.869  1.00  0.00    -0.354 N 
ATOM     61  N   UNL A   1      42.348  29.110  30.240  1.00  0.00    -0.248 NA
ATOM     62  C   UNL A   1      42.931  27.053  29.303  1.00  0.00     0.031 C 
ATOM     63  C   UNL A   1      45.004  31.501  32.881  1.00  0.00     0.029 A 
ATOM     64  C   UNL A   1      44.197  30.738  32.051  1.00  0.00     0.049 A 
ATOM     65  H   UNL A   1      42.265  31.169  31.317  1.00  0.00     0.167 HD
ATOM     66  C   UNL A   1      43.625  28.763  30.664  1.00  0.00     0.074 A 
ATOM     67  C   UNL A   1      43.921  27.471  30.079  1.00  0.00     0.031 C 
ATOM     68  C   UNL A   1      44.473  29.449  31.470  1.00  0.00     0.037 A 
BRANCH  55  69
ATOM     69  C   UNL A   1      42.295  34.924  33.348  1.00  0.00     0.057 A 
ATOM     70  C   UNL A   1      41.836  35.111  34.659  1.00  0.00     0.134 A 
ATOM     71  C   UNL A   1      43.007  35.978  32.760  1.00  0.00     0.134 A 
ATOM     72  F   UNL A   1      41.137  34.148  35.278  1.00  0.00    -0.206 F 
ATOM     73  C   UNL A   1      42.042  36.310  35.343  1.00  0.00     0.040 A 
ATOM     74  C   UNL A   1      43.249  37.170  33.446  1.00  0.00     0.040 A 
ATOM     75  F   UNL A   1      43.483  35.867  31.510  1.00  0.00    -0.206 F 
ATOM     76  C   UNL A   1      42.757  37.342  34.738  1.00  0.00     0.006 A 
ENDBRANCH  55  69
BRANCH  56  77
ATOM     77  C   UNL A   1      40.351  26.747  27.950  1.00  0.00     0.057 A 
ATOM     78  C   UNL A   1      39.547  25.708  28.430  1.00  0.00     0.134 A 
ATOM     79  C   UNL A   1      40.884  26.607  26.663  1.00  0.00     0.134 A 
ATOM     80  F   UNL A   1      39.021  25.775  29.662  1.00  0.00    -0.206 F 
ATOM     81  C   UNL A   1      39.296  24.565  27.669  1.00  0.00     0.040 A 
ATOM     82  C   UNL A   1      40.620  25.482  25.880  1.00  0.00     0.040 A 
ATOM     83  F   UNL A   1      41.656  27.572  26.140  1.00  0.00    -0.206 F 
ATOM     84  C   UNL A   1      39.828  24.452  26.387  1.00  0.00     0.006 A 
ENDBRANCH  56  77
BRANCH  68  85
ATOM     85  C   UNL A   1      45.784  28.798  31.808  1.00  0.00     0.057 A 
ATOM     86  C   UNL A   1      45.882  27.770  32.755  1.00  0.00     0.134 A 
ATOM     87  C   UNL A   1      46.955  29.173  31.138  1.00  0.00     0.134 A 
ATOM     88  F   UNL A   1      44.800  27.371  33.441  1.00  0.00    -0.206 F 
ATOM     89  C   UNL A   1      47.103  27.154  33.037  1.00  0.00     0.040 A 
ATOM     90  C   UNL A   1      48.175  28.544  31.388  1.00  0.00     0.040 A 
ATOM     91  F   UNL A   1      46.930  30.145  30.212  1.00  0.00    -0.206 F 
ATOM     92  C   UNL A   1      48.252  27.535  32.345  1.00  0.00     0.006 A 
ENDBRANCH  68  85
ENDBRANCH  42  43
ENDBRANCH  34  37
ENDBRANCH  32  33
ENDBRANCH  31  32
ENDBRANCH  30  31
ENDBRANCH   1  30
TORSDOF 17
ENDMDL
