MODEL 1
REMARK VINA RESULT:     -11.8      0.000      0.000
REMARK SMILES COc1cc(/C=C2/S/C(=[NH+]\C(C)=O)NC2=O)cc(Br)c1OCC(=O)NCCCCCCNC(=O)c1ccc(-c2c3nc(c(-c4c(F)cccc4F)c4ccc([nH]4)c(-c4c(F)cccc4F)c4nc(c(-c5c(F)cccc5F)c5ccc2[nH]5)C=C4)C=C3)cc1
REMARK SMILES IDX 28 1 27 2 26 3 25 4 23 5 24 6 22 8 21 9 20 10 3 11 4 12 5 13
REMARK SMILES IDX 18 14 17 15 19 16 2 17 1 18 6 19 7 20 8 21 15 22 9 23 14 24
REMARK SMILES IDX 16 25 10 26 11 28 12 30 13 31 29 32 30 33 31 34 32 35 33 36
REMARK SMILES IDX 34 38 35 39 36 40 88 41 37 42 87 43 38 44 39 45 40 46 81 47
REMARK SMILES IDX 41 48 86 49 80 50 82 51 42 52 85 53 79 54 78 55 43 57 69 58
REMARK SMILES IDX 52 59 68 60 53 61 56 62 67 63 83 64 54 65 55 66 66 68 84 69
REMARK SMILES IDX 57 70 44 71 45 72 50 73 46 74 47 75 49 76 51 77 48 78 70 79
REMARK SMILES IDX 71 80 76 81 72 82 73 83 75 84 77 85 74 86 58 87 59 88 64 89
REMARK SMILES IDX 60 90 61 91 63 92 65 93 62 94
REMARK H PARENT 25 7 14 27 10 29 32 37 82 56 56 67
REMARK Flexibility Score: inf
ROOT
ATOM      1  C   UNL A   1      33.498  27.370  25.689  1.00  0.00     0.002 C 
ENDROOT
BRANCH   1   2
ATOM      2  C   UNL A   1      34.012  26.275  24.744  1.00  0.00     0.021 C 
BRANCH   2   3
ATOM      3  C   UNL A   1      34.731  25.116  25.429  1.00  0.00     0.116 C 
BRANCH   3   4
ATOM      4  N   UNL A   1      35.515  24.344  24.490  1.00  0.00    -0.353 N 
ATOM      5  C   UNL A   1      35.485  23.004  24.250  1.00  0.00     0.257 C 
ATOM      6  O   UNL A   1      36.198  22.563  23.347  1.00  0.00    -0.271 OA
ATOM      7  H   UNL A   1      36.158  24.859  23.951  1.00  0.00     0.163 HD
BRANCH   5   8
ATOM      8  C   UNL A   1      34.510  22.108  25.030  1.00  0.00     0.329 C 
BRANCH   8   9
ATOM      9  O   UNL A   1      33.178  21.896  24.609  1.00  0.00    -0.479 OA
BRANCH   9  10
ATOM     10  C   UNL A   1      32.268  22.921  24.578  1.00  0.00     0.176 A 
ATOM     11  C   UNL A   1      31.839  23.266  23.269  1.00  0.00     0.162 A 
ATOM     12  C   UNL A   1      30.885  24.273  23.071  1.00  0.00     0.058 A 
ATOM     13  C   UNL A   1      30.358  24.966  24.159  1.00  0.00    -0.019 A 
ATOM     14  C   UNL A   1      31.673  23.571  25.667  1.00  0.00     0.064 A 
ATOM     15  C   UNL A   1      30.745  24.603  25.450  1.00  0.00     0.028 A 
ATOM     16  Br  UNL A   1      31.876  23.075  27.491  1.00  0.00    -0.047 Br
BRANCH  11  17
ATOM     17  O   UNL A   1      32.394  22.539  22.238  1.00  0.00    -0.493 OA
ATOM     18  C   UNL A   1      33.220  23.237  21.313  1.00  0.00     0.278 C 
ENDBRANCH  11  17
BRANCH  13  19
ATOM     19  C   UNL A   1      29.383  26.040  23.941  1.00  0.00     0.032 C 
ATOM     20  C   UNL A   1      29.623  27.142  23.217  1.00  0.00     0.110 C 
ATOM     21  S   UNL A   1      28.514  28.469  23.075  1.00  0.00     0.007 SA
ATOM     22  C   UNL A   1      30.877  27.482  22.487  1.00  0.00     0.346 C 
ATOM     23  C   UNL A   1      29.741  29.534  22.458  1.00  0.00     0.324 C 
ATOM     24  N   UNL A   1      30.855  28.811  22.173  1.00  0.00    -0.199 N 
ATOM     25  O   UNL A   1      31.778  26.718  22.196  1.00  0.00    -0.240 OA
ATOM     26  N   UNL A   1      29.783  30.793  22.231  1.00  0.00    -0.204 N 
ATOM     27  H   UNL A   1      31.634  29.238  21.748  1.00  0.00     0.316 HD
ATOM     28  C   UNL A   1      28.796  31.731  22.365  1.00  0.00     0.304 C 
ATOM     29  H   UNL A   1      30.649  31.135  21.913  1.00  0.00     0.316 HD
ATOM     30  C   UNL A   1      27.695  31.627  23.385  1.00  0.00     0.144 C 
ATOM     31  O   UNL A   1      28.835  32.754  21.679  1.00  0.00    -0.247 OA
ENDBRANCH  13  19
ENDBRANCH   9  10
ENDBRANCH   8   9
ENDBRANCH   5   8
ENDBRANCH   3   4
ENDBRANCH   2   3
ENDBRANCH   1   2
BRANCH   1  32
ATOM     32  C   UNL A   1      33.307  28.755  25.063  1.00  0.00     0.002 C 
BRANCH  32  33
ATOM     33  C   UNL A   1      32.017  29.477  25.456  1.00  0.00     0.021 C 
BRANCH  33  34
ATOM     34  C   UNL A   1      32.021  30.072  26.859  1.00  0.00     0.116 C 
BRANCH  34  35
ATOM     35  N   UNL A   1      31.899  31.522  26.850  1.00  0.00    -0.352 N 
ATOM     36  C   UNL A   1      32.748  32.468  27.372  1.00  0.00     0.251 C 
ATOM     37  H   UNL A   1      31.093  31.875  26.409  1.00  0.00     0.163 HD
ATOM     38  O   UNL A   1      32.409  33.646  27.428  1.00  0.00    -0.269 OA
BRANCH  36  39
ATOM     39  C   UNL A   1      34.068  32.055  27.893  1.00  0.00     0.039 A 
ATOM     40  C   UNL A   1      35.055  33.025  28.083  1.00  0.00     0.014 A 
ATOM     41  C   UNL A   1      34.322  30.719  28.215  1.00  0.00     0.014 A 
ATOM     42  C   UNL A   1      36.271  32.668  28.671  1.00  0.00     0.010 A 
ATOM     43  C   UNL A   1      35.502  30.379  28.868  1.00  0.00     0.010 A 
ATOM     44  C   UNL A   1      36.486  31.351  29.108  1.00  0.00    -0.014 A 
BRANCH  44  45
ATOM     45  C   UNL A   1      37.721  30.971  29.840  1.00  0.00     0.031 A 
ATOM     46  C   UNL A   1      38.737  30.071  29.192  1.00  0.00     0.074 A 
ATOM     47  C   UNL A   1      37.890  31.369  31.116  1.00  0.00     0.049 A 
ATOM     48  N   UNL A   1      39.822  29.546  29.703  1.00  0.00    -0.248 NA
ATOM     49  C   UNL A   1      38.488  29.693  27.792  1.00  0.00     0.031 C 
ATOM     50  C   UNL A   1      36.960  32.215  31.869  1.00  0.00     0.029 A 
ATOM     51  N   UNL A   1      38.896  31.105  32.013  1.00  0.00    -0.354 N 
ATOM     52  C   UNL A   1      40.377  28.770  28.694  1.00  0.00     0.074 A 
ATOM     53  C   UNL A   1      39.482  28.849  27.560  1.00  0.00     0.031 C 
ATOM     54  C   UNL A   1      37.448  32.414  33.103  1.00  0.00     0.029 A 
ATOM     55  C   UNL A   1      38.696  31.672  33.248  1.00  0.00     0.049 A 
ATOM     56  H   UNL A   1      39.685  30.560  31.791  1.00  0.00     0.167 HD
ATOM     57  C   UNL A   1      41.538  28.074  28.704  1.00  0.00     0.037 A 
ATOM     58  C   UNL A   1      39.427  31.590  34.377  1.00  0.00     0.037 A 
ATOM     59  C   UNL A   1      42.433  28.009  29.831  1.00  0.00     0.049 A 
ATOM     60  C   UNL A   1      40.689  30.772  34.375  1.00  0.00     0.074 A 
ATOM     61  C   UNL A   1      43.659  27.374  29.922  1.00  0.00     0.029 A 
ATOM     62  N   UNL A   1      42.195  28.597  31.064  1.00  0.00    -0.354 N 
ATOM     63  N   UNL A   1      41.236  30.096  33.393  1.00  0.00    -0.248 NA
ATOM     64  C   UNL A   1      41.436  30.702  35.640  1.00  0.00     0.031 C 
ATOM     65  C   UNL A   1      44.135  27.529  31.227  1.00  0.00     0.029 A 
ATOM     66  C   UNL A   1      43.235  28.309  31.932  1.00  0.00     0.049 A 
ATOM     67  H   UNL A   1      41.403  29.138  31.290  1.00  0.00     0.167 HD
ATOM     68  C   UNL A   1      42.401  29.546  33.912  1.00  0.00     0.074 A 
ATOM     69  C   UNL A   1      42.491  29.979  35.291  1.00  0.00     0.031 C 
ATOM     70  C   UNL A   1      43.315  28.753  33.301  1.00  0.00     0.037 A 
BRANCH  57  71
ATOM     71  C   UNL A   1      41.910  27.324  27.458  1.00  0.00     0.057 A 
ATOM     72  C   UNL A   1      41.561  25.979  27.272  1.00  0.00     0.134 A 
ATOM     73  C   UNL A   1      42.586  27.964  26.412  1.00  0.00     0.134 A 
ATOM     74  F   UNL A   1      40.920  25.303  28.238  1.00  0.00    -0.206 F 
ATOM     75  C   UNL A   1      41.894  25.292  26.104  1.00  0.00     0.040 A 
ATOM     76  C   UNL A   1      42.899  27.296  25.227  1.00  0.00     0.040 A 
ATOM     77  F   UNL A   1      42.945  29.252  26.519  1.00  0.00    -0.206 F 
ATOM     78  C   UNL A   1      42.559  25.954  25.073  1.00  0.00     0.006 A 
ENDBRANCH  57  71
BRANCH  58  79
ATOM     79  C   UNL A   1      38.989  32.303  35.605  1.00  0.00     0.057 A 
ATOM     80  C   UNL A   1      38.220  31.656  36.579  1.00  0.00     0.134 A 
ATOM     81  C   UNL A   1      39.307  33.649  35.826  1.00  0.00     0.134 A 
ATOM     82  F   UNL A   1      37.865  30.373  36.416  1.00  0.00    -0.206 F 
ATOM     83  C   UNL A   1      37.765  32.325  37.717  1.00  0.00     0.040 A 
ATOM     84  C   UNL A   1      38.885  34.322  36.972  1.00  0.00     0.040 A 
ATOM     85  F   UNL A   1      40.047  34.326  34.934  1.00  0.00    -0.206 F 
ATOM     86  C   UNL A   1      38.102  33.662  37.917  1.00  0.00     0.006 A 
ENDBRANCH  58  79
BRANCH  70  87
ATOM     87  C   UNL A   1      44.509  28.326  34.105  1.00  0.00     0.057 A 
ATOM     88  C   UNL A   1      44.525  27.123  34.823  1.00  0.00     0.134 A 
ATOM     89  C   UNL A   1      45.676  29.100  34.114  1.00  0.00     0.134 A 
ATOM     90  F   UNL A   1      43.436  26.342  34.866  1.00  0.00    -0.206 F 
ATOM     91  C   UNL A   1      45.655  26.714  35.533  1.00  0.00     0.040 A 
ATOM     92  C   UNL A   1      46.821  28.688  34.796  1.00  0.00     0.040 A 
ATOM     93  F   UNL A   1      45.730  30.260  33.440  1.00  0.00    -0.206 F 
ATOM     94  C   UNL A   1      46.810  27.493  35.512  1.00  0.00     0.006 A 
ENDBRANCH  70  87
ENDBRANCH  44  45
ENDBRANCH  36  39
ENDBRANCH  34  35
ENDBRANCH  33  34
ENDBRANCH  32  33
ENDBRANCH   1  32
TORSDOF 17
ENDMDL
MODEL 2
REMARK VINA RESULT:     -11.6      2.310      7.879
REMARK SMILES COc1cc(/C=C2/S/C(=[NH+]\C(C)=O)NC2=O)cc(Br)c1OCC(=O)NCCCCCCNC(=O)c1ccc(-c2c3nc(c(-c4c(F)cccc4F)c4ccc([nH]4)c(-c4c(F)cccc4F)c4nc(c(-c5c(F)cccc5F)c5ccc2[nH]5)C=C4)C=C3)cc1
REMARK SMILES IDX 28 1 27 2 26 3 25 4 23 5 24 6 22 8 21 9 20 10 3 11 4 12 5 13
REMARK SMILES IDX 18 14 17 15 19 16 2 17 1 18 6 19 7 20 8 21 15 22 9 23 14 24
REMARK SMILES IDX 16 25 10 26 11 28 12 30 13 31 29 32 30 33 31 34 32 35 33 36
REMARK SMILES IDX 34 38 35 39 36 40 88 41 37 42 87 43 38 44 39 45 40 46 81 47
REMARK SMILES IDX 41 48 86 49 80 50 82 51 42 52 85 53 79 54 78 55 43 57 69 58
REMARK SMILES IDX 52 59 68 60 53 61 56 62 67 63 83 64 54 65 55 66 66 68 84 69
REMARK SMILES IDX 57 70 44 71 45 72 50 73 46 74 47 75 49 76 51 77 48 78 70 79
REMARK SMILES IDX 71 80 76 81 72 82 73 83 75 84 77 85 74 86 58 87 59 88 64 89
REMARK SMILES IDX 60 90 61 91 63 92 65 93 62 94
REMARK H PARENT 25 7 14 27 10 29 32 37 82 56 56 67
REMARK Flexibility Score: inf
ROOT
ATOM      1  C   UNL A   1      31.659  29.688  25.022  1.00  0.00     0.002 C 
ENDROOT
BRANCH   1   2
ATOM      2  C   UNL A   1      30.457  29.768  24.071  1.00  0.00     0.021 C 
BRANCH   2   3
ATOM      3  C   UNL A   1      30.359  28.629  23.059  1.00  0.00     0.116 C 
BRANCH   3   4
ATOM      4  N   UNL A   1      29.134  27.877  23.219  1.00  0.00    -0.353 N 
ATOM      5  C   UNL A   1      28.922  26.725  23.913  1.00  0.00     0.257 C 
ATOM      6  O   UNL A   1      27.771  26.290  23.973  1.00  0.00    -0.271 OA
ATOM      7  H   UNL A   1      28.344  28.250  22.763  1.00  0.00     0.163 HD
BRANCH   5   8
ATOM      8  C   UNL A   1      30.085  26.063  24.670  1.00  0.00     0.329 C 
BRANCH   8   9
ATOM      9  O   UNL A   1      30.851  25.015  24.110  1.00  0.00    -0.479 OA
BRANCH   9  10
ATOM     10  C   UNL A   1      32.091  24.697  24.600  1.00  0.00     0.176 A 
ATOM     11  C   UNL A   1      33.155  25.373  23.948  1.00  0.00     0.162 A 
ATOM     12  C   UNL A   1      34.482  25.179  24.356  1.00  0.00     0.058 A 
ATOM     13  C   UNL A   1      34.777  24.302  25.397  1.00  0.00    -0.019 A 
ATOM     14  C   UNL A   1      32.393  23.878  25.696  1.00  0.00     0.064 A 
ATOM     15  C   UNL A   1      33.731  23.666  26.069  1.00  0.00     0.028 A 
ATOM     16  Br  UNL A   1      31.122  23.115  26.886  1.00  0.00    -0.047 Br
BRANCH  11  17
ATOM     17  O   UNL A   1      32.796  26.231  22.931  1.00  0.00    -0.493 OA
ATOM     18  C   UNL A   1      32.906  25.749  21.597  1.00  0.00     0.278 C 
ENDBRANCH  11  17
BRANCH  13  19
ATOM     19  C   UNL A   1      36.171  24.081  25.797  1.00  0.00     0.032 C 
ATOM     20  C   UNL A   1      36.919  23.048  25.387  1.00  0.00     0.110 C 
ATOM     21  S   UNL A   1      38.520  22.719  25.969  1.00  0.00     0.007 SA
ATOM     22  C   UNL A   1      36.513  21.960  24.453  1.00  0.00     0.346 C 
ATOM     23  C   UNL A   1      38.497  21.093  25.356  1.00  0.00     0.324 C 
ATOM     24  N   UNL A   1      37.408  20.934  24.560  1.00  0.00    -0.199 N 
ATOM     25  O   UNL A   1      35.557  21.966  23.702  1.00  0.00    -0.240 OA
ATOM     26  N   UNL A   1      39.272  20.085  25.503  1.00  0.00    -0.204 N 
ATOM     27  H   UNL A   1      37.267  20.092  24.068  1.00  0.00     0.316 HD
ATOM     28  C   UNL A   1      40.452  19.991  26.188  1.00  0.00     0.304 C 
ATOM     29  H   UNL A   1      38.976  19.259  25.059  1.00  0.00     0.316 HD
ATOM     30  C   UNL A   1      40.762  20.812  27.409  1.00  0.00     0.144 C 
ATOM     31  O   UNL A   1      41.285  19.148  25.848  1.00  0.00    -0.247 OA
ENDBRANCH  13  19
ENDBRANCH   9  10
ENDBRANCH   8   9
ENDBRANCH   5   8
ENDBRANCH   3   4
ENDBRANCH   2   3
ENDBRANCH   1   2
BRANCH   1  32
ATOM     32  C   UNL A   1      31.453  30.305  26.409  1.00  0.00     0.002 C 
BRANCH  32  33
ATOM     33  C   UNL A   1      31.481  31.833  26.455  1.00  0.00     0.021 C 
BRANCH  33  34
ATOM     34  C   UNL A   1      32.702  32.429  27.148  1.00  0.00     0.116 C 
BRANCH  34  35
ATOM     35  N   UNL A   1      32.517  33.830  27.495  1.00  0.00    -0.352 N 
ATOM     36  C   UNL A   1      33.139  34.572  28.470  1.00  0.00     0.251 C 
ATOM     37  H   UNL A   1      31.852  34.315  26.956  1.00  0.00     0.163 HD
ATOM     38  O   UNL A   1      32.741  35.700  28.743  1.00  0.00    -0.269 OA
BRANCH  36  39
ATOM     39  C   UNL A   1      34.278  33.992  29.213  1.00  0.00     0.039 A 
ATOM     40  C   UNL A   1      34.021  33.130  30.282  1.00  0.00     0.014 A 
ATOM     41  C   UNL A   1      35.594  34.282  28.841  1.00  0.00     0.014 A 
ATOM     42  C   UNL A   1      35.084  32.495  30.928  1.00  0.00     0.010 A 
ATOM     43  C   UNL A   1      36.645  33.592  29.435  1.00  0.00     0.010 A 
ATOM     44  C   UNL A   1      36.402  32.687  30.480  1.00  0.00    -0.014 A 
BRANCH  44  45
ATOM     45  C   UNL A   1      37.538  31.936  31.072  1.00  0.00     0.031 A 
ATOM     46  C   UNL A   1      38.055  32.298  32.437  1.00  0.00     0.074 A 
ATOM     47  C   UNL A   1      38.157  30.983  30.348  1.00  0.00     0.049 A 
ATOM     48  N   UNL A   1      39.097  31.832  33.077  1.00  0.00    -0.248 NA
ATOM     49  C   UNL A   1      37.314  33.338  33.169  1.00  0.00     0.031 C 
ATOM     50  C   UNL A   1      37.775  30.563  28.998  1.00  0.00     0.029 A 
ATOM     51  N   UNL A   1      39.249  30.203  30.640  1.00  0.00    -0.354 N 
ATOM     52  C   UNL A   1      39.143  32.527  34.279  1.00  0.00     0.074 A 
ATOM     53  C   UNL A   1      38.058  33.483  34.256  1.00  0.00     0.031 C 
ATOM     54  C   UNL A   1      38.604  29.592  28.587  1.00  0.00     0.029 A 
ATOM     55  C   UNL A   1      39.607  29.354  29.620  1.00  0.00     0.049 A 
ATOM     56  H   UNL A   1      39.728  30.248  31.498  1.00  0.00     0.167 HD
ATOM     57  C   UNL A   1      39.998  32.366  35.317  1.00  0.00     0.037 A 
ATOM     58  C   UNL A   1      40.638  28.492  29.522  1.00  0.00     0.037 A 
ATOM     59  C   UNL A   1      41.068  31.403  35.341  1.00  0.00     0.049 A 
ATOM     60  C   UNL A   1      41.601  28.366  30.670  1.00  0.00     0.074 A 
ATOM     61  C   UNL A   1      41.956  31.127  36.367  1.00  0.00     0.029 A 
ATOM     62  N   UNL A   1      41.399  30.562  34.289  1.00  0.00    -0.354 N 
ATOM     63  N   UNL A   1      41.595  28.984  31.827  1.00  0.00    -0.248 NA
ATOM     64  C   UNL A   1      42.718  27.426  30.499  1.00  0.00     0.031 C 
ATOM     65  C   UNL A   1      42.859  30.161  35.915  1.00  0.00     0.029 A 
ATOM     66  C   UNL A   1      42.499  29.792  34.629  1.00  0.00     0.049 A 
ATOM     67  H   UNL A   1      40.924  30.519  33.427  1.00  0.00     0.167 HD
ATOM     68  C   UNL A   1      42.685  28.487  32.530  1.00  0.00     0.074 A 
ATOM     69  C   UNL A   1      43.322  27.506  31.676  1.00  0.00     0.031 C 
ATOM     70  C   UNL A   1      43.119  28.813  33.772  1.00  0.00     0.037 A 
BRANCH  57  71
ATOM     71  C   UNL A   1      39.813  33.253  36.514  1.00  0.00     0.057 A 
ATOM     72  C   UNL A   1      40.506  34.463  36.653  1.00  0.00     0.134 A 
ATOM     73  C   UNL A   1      38.897  32.915  37.520  1.00  0.00     0.134 A 
ATOM     74  F   UNL A   1      41.404  34.841  35.731  1.00  0.00    -0.206 F 
ATOM     75  C   UNL A   1      40.316  35.290  37.761  1.00  0.00     0.040 A 
ATOM     76  C   UNL A   1      38.677  33.749  38.617  1.00  0.00     0.040 A 
ATOM     77  F   UNL A   1      38.194  31.776  37.447  1.00  0.00    -0.206 F 
ATOM     78  C   UNL A   1      39.393  34.938  38.743  1.00  0.00     0.006 A 
ENDBRANCH  57  71
BRANCH  58  79
ATOM     79  C   UNL A   1      40.816  27.677  28.292  1.00  0.00     0.057 A 
ATOM     80  C   UNL A   1      41.607  28.133  27.232  1.00  0.00     0.134 A 
ATOM     81  C   UNL A   1      40.186  26.436  28.136  1.00  0.00     0.134 A 
ATOM     82  F   UNL A   1      42.221  29.324  27.311  1.00  0.00    -0.206 F 
ATOM     83  C   UNL A   1      41.748  27.398  26.053  1.00  0.00     0.040 A 
ATOM     84  C   UNL A   1      40.342  25.676  26.977  1.00  0.00     0.040 A 
ATOM     85  F   UNL A   1      39.418  25.938  29.118  1.00  0.00    -0.206 F 
ATOM     86  C   UNL A   1      41.117  26.162  25.926  1.00  0.00     0.006 A 
ENDBRANCH  58  79
BRANCH  70  87
ATOM     87  C   UNL A   1      44.322  28.085  34.299  1.00  0.00     0.057 A 
ATOM     88  C   UNL A   1      44.211  26.854  34.959  1.00  0.00     0.134 A 
ATOM     89  C   UNL A   1      45.610  28.594  34.092  1.00  0.00     0.134 A 
ATOM     90  F   UNL A   1      43.005  26.318  35.200  1.00  0.00    -0.206 F 
ATOM     91  C   UNL A   1      45.338  26.164  35.407  1.00  0.00     0.040 A 
ATOM     92  C   UNL A   1      46.745  27.900  34.511  1.00  0.00     0.040 A 
ATOM     93  F   UNL A   1      45.787  29.765  33.460  1.00  0.00    -0.206 F 
ATOM     94  C   UNL A   1      46.610  26.683  35.174  1.00  0.00     0.006 A 
ENDBRANCH  70  87
ENDBRANCH  44  45
ENDBRANCH  36  39
ENDBRANCH  34  35
ENDBRANCH  33  34
ENDBRANCH  32  33
ENDBRANCH   1  32
TORSDOF 17
ENDMDL
MODEL 3
REMARK VINA RESULT:     -11.4      2.566      5.617
REMARK SMILES COc1cc(/C=C2/S/C(=[NH+]\C(C)=O)NC2=O)cc(Br)c1OCC(=O)NCCCCCCNC(=O)c1ccc(-c2c3nc(c(-c4c(F)cccc4F)c4ccc([nH]4)c(-c4c(F)cccc4F)c4nc(c(-c5c(F)cccc5F)c5ccc2[nH]5)C=C4)C=C3)cc1
REMARK SMILES IDX 28 1 27 2 26 3 25 4 23 5 24 6 22 8 21 9 20 10 3 11 4 12 5 13
REMARK SMILES IDX 18 14 17 15 19 16 2 17 1 18 6 19 7 20 8 21 15 22 9 23 14 24
REMARK SMILES IDX 16 25 10 26 11 28 12 30 13 31 29 32 30 33 31 34 32 35 33 36
REMARK SMILES IDX 34 38 35 39 36 40 88 41 37 42 87 43 38 44 39 45 40 46 81 47
REMARK SMILES IDX 41 48 86 49 80 50 82 51 42 52 85 53 79 54 78 55 43 57 69 58
REMARK SMILES IDX 52 59 68 60 53 61 56 62 67 63 83 64 54 65 55 66 66 68 84 69
REMARK SMILES IDX 57 70 44 71 45 72 50 73 46 74 47 75 49 76 51 77 48 78 70 79
REMARK SMILES IDX 71 80 76 81 72 82 73 83 75 84 77 85 74 86 58 87 59 88 64 89
REMARK SMILES IDX 60 90 61 91 63 92 65 93 62 94
REMARK H PARENT 25 7 14 27 10 29 32 37 82 56 56 67
REMARK Flexibility Score: inf
ROOT
ATOM      1  C   UNL A   1      31.675  29.679  25.426  1.00  0.00     0.002 C 
ENDROOT
BRANCH   1   2
ATOM      2  C   UNL A   1      30.496  30.032  24.510  1.00  0.00     0.021 C 
BRANCH   2   3
ATOM      3  C   UNL A   1      30.429  29.236  23.209  1.00  0.00     0.116 C 
BRANCH   3   4
ATOM      4  N   UNL A   1      29.406  28.215  23.261  1.00  0.00    -0.353 N 
ATOM      5  C   UNL A   1      29.472  26.965  23.800  1.00  0.00     0.257 C 
ATOM      6  O   UNL A   1      28.448  26.279  23.794  1.00  0.00    -0.271 OA
ATOM      7  H   UNL A   1      28.544  28.455  22.850  1.00  0.00     0.163 HD
BRANCH   5   8
ATOM      8  C   UNL A   1      30.769  26.491  24.476  1.00  0.00     0.329 C 
BRANCH   8   9
ATOM      9  O   UNL A   1      31.184  25.141  24.446  1.00  0.00    -0.479 OA
BRANCH   9  10
ATOM     10  C   UNL A   1      32.419  24.764  24.906  1.00  0.00     0.176 A 
ATOM     11  C   UNL A   1      33.497  25.430  24.265  1.00  0.00     0.162 A 
ATOM     12  C   UNL A   1      34.822  25.179  24.646  1.00  0.00     0.058 A 
ATOM     13  C   UNL A   1      35.102  24.253  25.649  1.00  0.00    -0.019 A 
ATOM     14  C   UNL A   1      32.710  23.895  25.966  1.00  0.00     0.064 A 
ATOM     15  C   UNL A   1      34.045  23.626  26.311  1.00  0.00     0.028 A 
ATOM     16  Br  UNL A   1      31.430  23.128  27.144  1.00  0.00    -0.047 Br
BRANCH  11  17
ATOM     17  O   UNL A   1      33.152  26.338  23.286  1.00  0.00    -0.493 OA
ATOM     18  C   UNL A   1      33.373  25.959  21.933  1.00  0.00     0.278 C 
ENDBRANCH  11  17
BRANCH  13  19
ATOM     19  C   UNL A   1      36.493  23.973  26.020  1.00  0.00     0.032 C 
ATOM     20  C   UNL A   1      37.198  22.928  25.567  1.00  0.00     0.110 C 
ATOM     21  S   UNL A   1      38.796  22.527  26.113  1.00  0.00     0.007 SA
ATOM     22  C   UNL A   1      36.742  21.884  24.606  1.00  0.00     0.346 C 
ATOM     23  C   UNL A   1      38.708  20.922  25.452  1.00  0.00     0.324 C 
ATOM     24  N   UNL A   1      37.603  20.825  24.668  1.00  0.00    -0.199 N 
ATOM     25  O   UNL A   1      35.775  21.946  23.871  1.00  0.00    -0.240 OA
ATOM     26  N   UNL A   1      39.449  19.885  25.555  1.00  0.00    -0.204 N 
ATOM     27  H   UNL A   1      37.425  20.004  24.153  1.00  0.00     0.316 HD
ATOM     28  C   UNL A   1      40.636  19.730  26.218  1.00  0.00     0.304 C 
ATOM     29  H   UNL A   1      39.118  19.083  25.091  1.00  0.00     0.316 HD
ATOM     30  C   UNL A   1      40.992  20.501  27.460  1.00  0.00     0.144 C 
ATOM     31  O   UNL A   1      41.433  18.869  25.840  1.00  0.00    -0.247 OA
ENDBRANCH  13  19
ENDBRANCH   9  10
ENDBRANCH   8   9
ENDBRANCH   5   8
ENDBRANCH   3   4
ENDBRANCH   2   3
ENDBRANCH   1   2
BRANCH   1  32
ATOM     32  C   UNL A   1      31.739  30.440  26.754  1.00  0.00     0.002 C 
BRANCH  32  33
ATOM     33  C   UNL A   1      31.624  31.960  26.642  1.00  0.00     0.021 C 
BRANCH  33  34
ATOM     34  C   UNL A   1      32.784  32.735  27.257  1.00  0.00     0.116 C 
BRANCH  34  35
ATOM     35  N   UNL A   1      32.431  34.112  27.570  1.00  0.00    -0.352 N 
ATOM     36  C   UNL A   1      32.954  34.946  28.527  1.00  0.00     0.251 C 
ATOM     37  H   UNL A   1      31.716  34.501  27.016  1.00  0.00     0.163 HD
ATOM     38  O   UNL A   1      32.424  36.025  28.771  1.00  0.00    -0.269 OA
BRANCH  36  39
ATOM     39  C   UNL A   1      34.150  34.525  29.287  1.00  0.00     0.039 A 
ATOM     40  C   UNL A   1      33.987  34.002  30.572  1.00  0.00     0.014 A 
ATOM     41  C   UNL A   1      35.426  34.626  28.724  1.00  0.00     0.014 A 
ATOM     42  C   UNL A   1      35.095  33.506  31.262  1.00  0.00     0.010 A 
ATOM     43  C   UNL A   1      36.515  34.064  29.381  1.00  0.00     0.010 A 
ATOM     44  C   UNL A   1      36.361  33.492  30.654  1.00  0.00    -0.014 A 
BRANCH  44  45
ATOM     45  C   UNL A   1      37.533  32.866  31.317  1.00  0.00     0.031 A 
ATOM     46  C   UNL A   1      38.181  31.650  30.716  1.00  0.00     0.074 A 
ATOM     47  C   UNL A   1      37.963  33.343  32.502  1.00  0.00     0.049 A 
ATOM     48  N   UNL A   1      39.142  30.902  31.197  1.00  0.00    -0.248 NA
ATOM     49  C   UNL A   1      37.664  31.201  29.413  1.00  0.00     0.031 C 
ATOM     50  C   UNL A   1      37.395  34.495  33.207  1.00  0.00     0.029 A 
ATOM     51  N   UNL A   1      38.967  32.910  33.332  1.00  0.00    -0.354 N 
ATOM     52  C   UNL A   1      39.338  29.893  30.263  1.00  0.00     0.074 A 
ATOM     53  C   UNL A   1      38.360  30.091  29.216  1.00  0.00     0.031 C 
ATOM     54  C   UNL A   1      38.071  34.688  34.349  1.00  0.00     0.029 A 
ATOM     55  C   UNL A   1      39.084  33.647  34.485  1.00  0.00     0.049 A 
ATOM     56  H   UNL A   1      39.547  32.144  33.120  1.00  0.00     0.167 HD
ATOM     57  C   UNL A   1      40.263  28.903  30.268  1.00  0.00     0.037 A 
ATOM     58  C   UNL A   1      39.905  33.491  35.543  1.00  0.00     0.037 A 
ATOM     59  C   UNL A   1      41.243  28.719  31.306  1.00  0.00     0.049 A 
ATOM     60  C   UNL A   1      40.892  32.357  35.545  1.00  0.00     0.074 A 
ATOM     61  C   UNL A   1      42.257  27.779  31.376  1.00  0.00     0.029 A 
ATOM     62  N   UNL A   1      41.330  29.485  32.459  1.00  0.00    -0.354 N 
ATOM     63  N   UNL A   1      41.109  31.448  34.625  1.00  0.00    -0.248 NA
ATOM     64  C   UNL A   1      41.747  32.223  36.733  1.00  0.00     0.031 C 
ATOM     65  C   UNL A   1      42.919  27.940  32.596  1.00  0.00     0.029 A 
ATOM     66  C   UNL A   1      42.357  29.018  33.261  1.00  0.00     0.049 A 
ATOM     67  H   UNL A   1      40.746  30.249  32.675  1.00  0.00     0.167 HD
ATOM     68  C   UNL A   1      42.142  30.655  35.109  1.00  0.00     0.074 A 
ATOM     69  C   UNL A   1      42.519  31.199  36.397  1.00  0.00     0.031 C 
ATOM     70  C   UNL A   1      42.726  29.573  34.538  1.00  0.00     0.037 A 
BRANCH  57  71
ATOM     71  C   UNL A   1      40.259  27.943  29.115  1.00  0.00     0.057 A 
ATOM     72  C   UNL A   1      39.477  26.780  29.123  1.00  0.00     0.134 A 
ATOM     73  C   UNL A   1      41.012  28.205  27.963  1.00  0.00     0.134 A 
ATOM     74  F   UNL A   1      38.739  26.465  30.198  1.00  0.00    -0.206 F 
ATOM     75  C   UNL A   1      39.465  25.900  28.040  1.00  0.00     0.040 A 
ATOM     76  C   UNL A   1      40.985  27.347  26.862  1.00  0.00     0.040 A 
ATOM     77  F   UNL A   1      41.778  29.303  27.883  1.00  0.00    -0.206 F 
ATOM     78  C   UNL A   1      40.215  26.187  26.901  1.00  0.00     0.006 A 
ENDBRANCH  57  71
BRANCH  58  79
ATOM     79  C   UNL A   1      39.832  34.433  36.690  1.00  0.00     0.057 A 
ATOM     80  C   UNL A   1      40.547  35.636  36.683  1.00  0.00     0.134 A 
ATOM     81  C   UNL A   1      39.066  34.147  37.827  1.00  0.00     0.134 A 
ATOM     82  F   UNL A   1      41.315  35.958  35.631  1.00  0.00    -0.206 F 
ATOM     83  C   UNL A   1      40.521  36.510  37.771  1.00  0.00     0.040 A 
ATOM     84  C   UNL A   1      39.007  35.025  38.910  1.00  0.00     0.040 A 
ATOM     85  F   UNL A   1      38.351  33.014  37.896  1.00  0.00    -0.206 F 
ATOM     86  C   UNL A   1      39.745  36.206  38.888  1.00  0.00     0.006 A 
ENDBRANCH  58  79
BRANCH  70  87
ATOM     87  C   UNL A   1      43.855  28.922  35.283  1.00  0.00     0.057 A 
ATOM     88  C   UNL A   1      45.190  29.294  35.078  1.00  0.00     0.134 A 
ATOM     89  C   UNL A   1      43.597  27.951  36.259  1.00  0.00     0.134 A 
ATOM     90  F   UNL A   1      45.505  30.209  34.148  1.00  0.00    -0.206 F 
ATOM     91  C   UNL A   1      46.229  28.713  35.806  1.00  0.00     0.040 A 
ATOM     92  C   UNL A   1      44.625  27.383  37.013  1.00  0.00     0.040 A 
ATOM     93  F   UNL A   1      42.341  27.554  36.512  1.00  0.00    -0.206 F 
ATOM     94  C   UNL A   1      45.945  27.761  36.784  1.00  0.00     0.006 A 
ENDBRANCH  70  87
ENDBRANCH  44  45
ENDBRANCH  36  39
ENDBRANCH  34  35
ENDBRANCH  33  34
ENDBRANCH  32  33
ENDBRANCH   1  32
TORSDOF 17
ENDMDL
