MODEL 1
REMARK VINA RESULT:     -10.9      0.000      0.000
REMARK SMILES Cc1nsc(NCC(C)C)c1C(=O)NCCCCCCNC(=O)c1ccc(-c2c3nc(c(-c4c(F)cccc4F)c4ccc([nH]4)c(-c4c(F)cccc4F)c4nc(c(-c5c(F)cccc5F)c5ccc2[nH]5)C=C4)C=C3)cc1
REMARK SMILES IDX 17 1 16 2 15 3 14 4 12 5 13 6 11 8 1 9 2 10 3 11 4 12 5 13
REMARK SMILES IDX 6 14 7 16 8 17 9 18 10 19 18 20 19 21 20 22 21 23 22 24
REMARK SMILES IDX 23 26 24 27 25 28 77 29 26 30 76 31 27 32 28 33 29 34 70 35
REMARK SMILES IDX 30 36 75 37 69 38 71 39 31 40 74 41 68 42 67 43 32 45 58 46
REMARK SMILES IDX 41 47 57 48 42 49 45 50 56 51 72 52 43 53 44 54 55 56 73 57
REMARK SMILES IDX 46 58 33 59 34 60 39 61 35 62 36 63 38 64 40 65 37 66 59 67
REMARK SMILES IDX 60 68 65 69 61 70 62 71 64 72 66 73 63 74 47 75 48 76 53 77
REMARK SMILES IDX 49 78 50 79 52 80 54 81 51 82
REMARK H PARENT 14 7 6 15 21 25 71 44 45 55
REMARK Flexibility Score: inf
ROOT
ATOM      1  C   UNL A   1      39.623  21.927  26.121  1.00  0.00     0.002 C 
ENDROOT
BRANCH   1   2
ATOM      2  C   UNL A   1      38.497  21.193  25.414  1.00  0.00     0.021 C 
BRANCH   2   3
ATOM      3  C   UNL A   1      37.186  21.941  25.315  1.00  0.00     0.116 C 
BRANCH   3   4
ATOM      4  N   UNL A   1      36.270  21.772  26.390  1.00  0.00    -0.352 N 
ATOM      5  C   UNL A   1      34.911  21.586  26.350  1.00  0.00     0.256 C 
ATOM      6  O   UNL A   1      34.401  21.502  27.477  1.00  0.00    -0.269 OA
ATOM      7  H   UNL A   1      36.668  21.791  27.291  1.00  0.00     0.163 HD
BRANCH   5   8
ATOM      8  C   UNL A   1      34.079  21.538  25.113  1.00  0.00     0.097 A 
ATOM      9  C   UNL A   1      34.264  23.858  23.680  1.00  0.00     0.069 C 
ATOM     10  C   UNL A   1      33.791  22.473  24.003  1.00  0.00     0.066 A 
ATOM     11  N   UNL A   1      32.941  22.032  23.075  1.00  0.00    -0.195 NA
ATOM     12  S   UNL A   1      32.503  20.500  23.395  1.00  0.00    -0.018 S 
ATOM     13  C   UNL A   1      33.395  20.333  24.844  1.00  0.00     0.122 A 
BRANCH  13  14
ATOM     14  N   UNL A   1      33.414  19.204  25.608  1.00  0.00    -0.375 N 
ATOM     15  H   UNL A   1      33.991  19.216  26.405  1.00  0.00     0.161 HD
BRANCH  14  16
ATOM     16  C   UNL A   1      32.667  17.990  25.358  1.00  0.00     0.116 C 
BRANCH  16  17
ATOM     17  C   UNL A   1      33.612  16.834  24.984  1.00  0.00     0.002 C 
ATOM     18  C   UNL A   1      33.024  15.469  25.353  1.00  0.00     0.009 C 
ATOM     19  C   UNL A   1      33.904  16.883  23.484  1.00  0.00     0.009 C 
ENDBRANCH  16  17
ENDBRANCH  14  16
ENDBRANCH  13  14
ENDBRANCH   5   8
ENDBRANCH   3   4
ENDBRANCH   2   3
ENDBRANCH   1   2
BRANCH   1  20
ATOM     20  C   UNL A   1      40.648  21.037  26.838  1.00  0.00     0.002 C 
BRANCH  20  21
ATOM     21  C   UNL A   1      41.421  20.036  25.966  1.00  0.00     0.021 C 
BRANCH  21  22
ATOM     22  C   UNL A   1      42.586  19.386  26.685  1.00  0.00     0.116 C 
BRANCH  22  23
ATOM     23  N   UNL A   1      43.796  19.291  25.865  1.00  0.00    -0.352 N 
ATOM     24  C   UNL A   1      44.353  20.269  25.047  1.00  0.00     0.251 C 
ATOM     25  H   UNL A   1      44.272  18.430  25.896  1.00  0.00     0.163 HD
ATOM     26  O   UNL A   1      45.138  20.004  24.168  1.00  0.00    -0.269 OA
BRANCH  24  27
ATOM     27  C   UNL A   1      44.015  21.671  25.366  1.00  0.00     0.039 A 
ATOM     28  C   UNL A   1      43.398  22.581  24.510  1.00  0.00     0.014 A 
ATOM     29  C   UNL A   1      44.462  22.119  26.591  1.00  0.00     0.014 A 
ATOM     30  C   UNL A   1      43.289  23.907  24.956  1.00  0.00     0.010 A 
ATOM     31  C   UNL A   1      43.804  23.154  27.156  1.00  0.00     0.010 A 
ATOM     32  C   UNL A   1      43.622  24.199  26.294  1.00  0.00    -0.014 A 
BRANCH  32  33
ATOM     33  C   UNL A   1      43.376  25.445  26.997  1.00  0.00     0.031 A 
ATOM     34  C   UNL A   1      44.392  26.451  26.602  1.00  0.00     0.074 A 
ATOM     35  C   UNL A   1      42.260  25.683  27.739  1.00  0.00     0.049 A 
ATOM     36  N   UNL A   1      45.501  26.642  27.230  1.00  0.00    -0.248 NA
ATOM     37  C   UNL A   1      44.387  27.049  25.251  1.00  0.00     0.031 C 
ATOM     38  C   UNL A   1      41.086  24.837  28.013  1.00  0.00     0.029 A 
ATOM     39  N   UNL A   1      41.965  26.806  28.470  1.00  0.00    -0.354 N 
ATOM     40  C   UNL A   1      46.160  27.640  26.533  1.00  0.00     0.074 A 
ATOM     41  C   UNL A   1      45.586  27.641  25.218  1.00  0.00     0.031 C 
ATOM     42  C   UNL A   1      40.124  25.553  28.658  1.00  0.00     0.029 A 
ATOM     43  C   UNL A   1      40.652  26.865  28.981  1.00  0.00     0.049 A 
ATOM     44  H   UNL A   1      42.624  27.519  28.629  1.00  0.00     0.167 HD
ATOM     45  C   UNL A   1      46.860  28.576  27.232  1.00  0.00     0.037 A 
ATOM     46  C   UNL A   1      40.111  27.898  29.700  1.00  0.00     0.037 A 
ATOM     47  C   UNL A   1      47.015  28.140  28.605  1.00  0.00     0.049 A 
ATOM     48  C   UNL A   1      41.266  28.648  30.275  1.00  0.00     0.074 A 
ATOM     49  C   UNL A   1      47.626  27.065  29.219  1.00  0.00     0.029 A 
ATOM     50  N   UNL A   1      46.057  28.594  29.483  1.00  0.00    -0.354 N 
ATOM     51  N   UNL A   1      42.058  28.118  31.170  1.00  0.00    -0.248 NA
ATOM     52  C   UNL A   1      41.859  29.668  29.419  1.00  0.00     0.031 C 
ATOM     53  C   UNL A   1      46.707  26.643  30.227  1.00  0.00     0.029 A 
ATOM     54  C   UNL A   1      45.655  27.558  30.286  1.00  0.00     0.049 A 
ATOM     55  H   UNL A   1      45.716  29.516  29.527  1.00  0.00     0.167 HD
ATOM     56  C   UNL A   1      43.335  28.376  30.693  1.00  0.00     0.074 A 
ATOM     57  C   UNL A   1      43.144  29.344  29.604  1.00  0.00     0.031 C 
ATOM     58  C   UNL A   1      44.379  27.537  30.966  1.00  0.00     0.037 A 
BRANCH  45  59
ATOM     59  C   UNL A   1      46.963  30.034  26.859  1.00  0.00     0.057 A 
ATOM     60  C   UNL A   1      48.220  30.659  26.965  1.00  0.00     0.134 A 
ATOM     61  C   UNL A   1      45.870  30.910  26.710  1.00  0.00     0.134 A 
ATOM     62  F   UNL A   1      49.338  29.932  27.114  1.00  0.00    -0.206 F 
ATOM     63  C   UNL A   1      48.365  32.049  27.014  1.00  0.00     0.040 A 
ATOM     64  C   UNL A   1      46.010  32.301  26.714  1.00  0.00     0.040 A 
ATOM     65  F   UNL A   1      44.604  30.486  26.654  1.00  0.00    -0.206 F 
ATOM     66  C   UNL A   1      47.256  32.876  26.898  1.00  0.00     0.006 A 
ENDBRANCH  45  59
BRANCH  46  67
ATOM     67  C   UNL A   1      38.762  28.533  29.591  1.00  0.00     0.057 A 
ATOM     68  C   UNL A   1      37.893  28.680  30.693  1.00  0.00     0.134 A 
ATOM     69  C   UNL A   1      38.426  29.294  28.460  1.00  0.00     0.134 A 
ATOM     70  F   UNL A   1      38.141  28.046  31.849  1.00  0.00    -0.206 F 
ATOM     71  C   UNL A   1      36.774  29.538  30.668  1.00  0.00     0.040 A 
ATOM     72  C   UNL A   1      37.321  30.159  28.425  1.00  0.00     0.040 A 
ATOM     73  F   UNL A   1      39.217  29.293  27.380  1.00  0.00    -0.206 F 
ATOM     74  C   UNL A   1      36.494  30.291  29.533  1.00  0.00     0.006 A 
ENDBRANCH  46  67
BRANCH  58  75
ATOM     75  C   UNL A   1      44.157  26.422  31.958  1.00  0.00     0.057 A 
ATOM     76  C   UNL A   1      44.023  25.061  31.634  1.00  0.00     0.134 A 
ATOM     77  C   UNL A   1      44.242  26.732  33.316  1.00  0.00     0.134 A 
ATOM     78  F   UNL A   1      44.044  24.646  30.364  1.00  0.00    -0.206 F 
ATOM     79  C   UNL A   1      43.929  24.067  32.618  1.00  0.00     0.040 A 
ATOM     80  C   UNL A   1      44.180  25.751  34.308  1.00  0.00     0.040 A 
ATOM     81  F   UNL A   1      44.444  28.000  33.702  1.00  0.00    -0.206 F 
ATOM     82  C   UNL A   1      44.008  24.413  33.962  1.00  0.00     0.006 A 
ENDBRANCH  58  75
ENDBRANCH  32  33
ENDBRANCH  24  27
ENDBRANCH  22  23
ENDBRANCH  21  22
ENDBRANCH  20  21
ENDBRANCH   1  20
TORSDOF 16
ENDMDL
MODEL 2
REMARK VINA RESULT:     -10.5      5.054     10.012
REMARK SMILES Cc1nsc(NCC(C)C)c1C(=O)NCCCCCCNC(=O)c1ccc(-c2c3nc(c(-c4c(F)cccc4F)c4ccc([nH]4)c(-c4c(F)cccc4F)c4nc(c(-c5c(F)cccc5F)c5ccc2[nH]5)C=C4)C=C3)cc1
REMARK SMILES IDX 17 1 16 2 15 3 14 4 12 5 13 6 11 8 1 9 2 10 3 11 4 12 5 13
REMARK SMILES IDX 6 14 7 16 8 17 9 18 10 19 18 20 19 21 20 22 21 23 22 24
REMARK SMILES IDX 23 26 24 27 25 28 77 29 26 30 76 31 27 32 28 33 29 34 70 35
REMARK SMILES IDX 30 36 75 37 69 38 71 39 31 40 74 41 68 42 67 43 32 45 58 46
REMARK SMILES IDX 41 47 57 48 42 49 45 50 56 51 72 52 43 53 44 54 55 56 73 57
REMARK SMILES IDX 46 58 33 59 34 60 39 61 35 62 36 63 38 64 40 65 37 66 59 67
REMARK SMILES IDX 60 68 65 69 61 70 62 71 64 72 66 73 63 74 47 75 48 76 53 77
REMARK SMILES IDX 49 78 50 79 52 80 54 81 51 82
REMARK H PARENT 14 7 6 15 21 25 71 44 45 55
REMARK Flexibility Score: inf
ROOT
ATOM      1  C   UNL A   1      34.200  30.804  28.090  1.00  0.00     0.002 C 
ENDROOT
BRANCH   1   2
ATOM      2  C   UNL A   1      33.800  29.655  27.181  1.00  0.00     0.021 C 
BRANCH   2   3
ATOM      3  C   UNL A   1      32.752  29.976  26.138  1.00  0.00     0.116 C 
BRANCH   3   4
ATOM      4  N   UNL A   1      33.128  29.800  24.778  1.00  0.00    -0.352 N 
ATOM      5  C   UNL A   1      32.635  28.919  23.849  1.00  0.00     0.256 C 
ATOM      6  O   UNL A   1      33.206  29.003  22.752  1.00  0.00    -0.269 OA
ATOM      7  H   UNL A   1      33.845  30.395  24.457  1.00  0.00     0.163 HD
BRANCH   5   8
ATOM      8  C   UNL A   1      31.565  27.909  24.095  1.00  0.00     0.097 A 
ATOM      9  C   UNL A   1      32.321  26.072  25.972  1.00  0.00     0.069 C 
ATOM     10  C   UNL A   1      31.422  26.718  24.962  1.00  0.00     0.066 A 
ATOM     11  N   UNL A   1      30.270  26.054  24.856  1.00  0.00    -0.195 NA
ATOM     12  S   UNL A   1      29.276  26.815  23.820  1.00  0.00    -0.018 S 
ATOM     13  C   UNL A   1      30.348  28.077  23.398  1.00  0.00     0.122 A 
BRANCH  13  14
ATOM     14  N   UNL A   1      30.053  29.072  22.514  1.00  0.00    -0.375 N 
ATOM     15  H   UNL A   1      30.796  29.413  21.965  1.00  0.00     0.161 HD
BRANCH  14  16
ATOM     16  C   UNL A   1      28.754  29.674  22.306  1.00  0.00     0.116 C 
BRANCH  16  17
ATOM     17  C   UNL A   1      28.695  31.077  22.934  1.00  0.00     0.002 C 
ATOM     18  C   UNL A   1      28.784  32.183  21.879  1.00  0.00     0.009 C 
ATOM     19  C   UNL A   1      27.397  31.223  23.729  1.00  0.00     0.009 C 
ENDBRANCH  16  17
ENDBRANCH  14  16
ENDBRANCH  13  14
ENDBRANCH   5   8
ENDBRANCH   3   4
ENDBRANCH   2   3
ENDBRANCH   1   2
BRANCH   1  20
ATOM     20  C   UNL A   1      34.077  32.207  27.480  1.00  0.00     0.002 C 
BRANCH  20  21
ATOM     21  C   UNL A   1      32.946  33.097  28.018  1.00  0.00     0.021 C 
BRANCH  21  22
ATOM     22  C   UNL A   1      33.339  34.554  28.152  1.00  0.00     0.116 C 
BRANCH  22  23
ATOM     23  N   UNL A   1      33.059  35.112  29.476  1.00  0.00    -0.352 N 
ATOM     24  C   UNL A   1      33.507  34.651  30.711  1.00  0.00     0.251 C 
ATOM     25  H   UNL A   1      32.483  35.910  29.496  1.00  0.00     0.163 HD
ATOM     26  O   UNL A   1      32.968  34.958  31.748  1.00  0.00    -0.269 OA
BRANCH  24  27
ATOM     27  C   UNL A   1      34.742  33.841  30.707  1.00  0.00     0.039 A 
ATOM     28  C   UNL A   1      34.902  32.587  31.292  1.00  0.00     0.014 A 
ATOM     29  C   UNL A   1      35.848  34.457  30.160  1.00  0.00     0.014 A 
ATOM     30  C   UNL A   1      36.195  32.043  31.298  1.00  0.00     0.010 A 
ATOM     31  C   UNL A   1      36.828  33.666  29.675  1.00  0.00     0.010 A 
ATOM     32  C   UNL A   1      37.202  32.687  30.553  1.00  0.00    -0.014 A 
BRANCH  32  33
ATOM     33  C   UNL A   1      38.528  32.174  30.258  1.00  0.00     0.031 A 
ATOM     34  C   UNL A   1      38.415  30.907  29.496  1.00  0.00     0.074 A 
ATOM     35  C   UNL A   1      39.673  32.875  30.481  1.00  0.00     0.049 A 
ATOM     36  N   UNL A   1      38.389  29.739  30.038  1.00  0.00    -0.248 NA
ATOM     37  C   UNL A   1      37.946  30.900  28.095  1.00  0.00     0.031 C 
ATOM     38  C   UNL A   1      39.887  34.227  31.024  1.00  0.00     0.029 A 
ATOM     39  N   UNL A   1      40.964  32.456  30.276  1.00  0.00    -0.354 N 
ATOM     40  C   UNL A   1      38.255  28.841  28.992  1.00  0.00     0.074 A 
ATOM     41  C   UNL A   1      37.714  29.597  27.900  1.00  0.00     0.031 C 
ATOM     42  C   UNL A   1      41.193  34.590  30.898  1.00  0.00     0.029 A 
ATOM     43  C   UNL A   1      41.950  33.456  30.404  1.00  0.00     0.049 A 
ATOM     44  H   UNL A   1      41.186  31.522  30.057  1.00  0.00     0.167 HD
ATOM     45  C   UNL A   1      38.931  27.661  29.050  1.00  0.00     0.037 A 
ATOM     46  C   UNL A   1      43.296  33.292  30.205  1.00  0.00     0.037 A 
ATOM     47  C   UNL A   1      39.442  27.459  30.390  1.00  0.00     0.049 A 
ATOM     48  C   UNL A   1      43.560  31.833  30.362  1.00  0.00     0.074 A 
ATOM     49  C   UNL A   1      38.866  27.316  31.637  1.00  0.00     0.029 A 
ATOM     50  N   UNL A   1      40.729  27.894  30.607  1.00  0.00    -0.354 N 
ATOM     51  N   UNL A   1      43.409  31.222  31.508  1.00  0.00    -0.248 NA
ATOM     52  C   UNL A   1      43.373  31.014  29.170  1.00  0.00     0.031 C 
ATOM     53  C   UNL A   1      39.675  28.103  32.511  1.00  0.00     0.029 A 
ATOM     54  C   UNL A   1      40.782  28.567  31.801  1.00  0.00     0.049 A 
ATOM     55  H   UNL A   1      41.490  27.747  30.001  1.00  0.00     0.167 HD
ATOM     56  C   UNL A   1      42.657  30.097  31.200  1.00  0.00     0.074 A 
ATOM     57  C   UNL A   1      42.669  30.024  29.732  1.00  0.00     0.031 C 
ATOM     58  C   UNL A   1      41.806  29.538  32.113  1.00  0.00     0.037 A 
BRANCH  45  59
ATOM     59  C   UNL A   1      39.550  26.962  27.864  1.00  0.00     0.057 A 
ATOM     60  C   UNL A   1      39.454  25.559  27.796  1.00  0.00     0.134 A 
ATOM     61  C   UNL A   1      40.478  27.542  26.978  1.00  0.00     0.134 A 
ATOM     62  F   UNL A   1      38.607  24.889  28.593  1.00  0.00    -0.206 F 
ATOM     63  C   UNL A   1      40.286  24.789  26.977  1.00  0.00     0.040 A 
ATOM     64  C   UNL A   1      41.284  26.783  26.124  1.00  0.00     0.040 A 
ATOM     65  F   UNL A   1      40.736  28.853  26.954  1.00  0.00    -0.206 F 
ATOM     66  C   UNL A   1      41.212  25.400  26.144  1.00  0.00     0.006 A 
ENDBRANCH  45  59
BRANCH  46  67
ATOM     67  C   UNL A   1      44.269  34.177  29.494  1.00  0.00     0.057 A 
ATOM     68  C   UNL A   1      44.200  34.435  28.108  1.00  0.00     0.134 A 
ATOM     69  C   UNL A   1      45.105  35.039  30.221  1.00  0.00     0.134 A 
ATOM     70  F   UNL A   1      43.392  33.712  27.318  1.00  0.00    -0.206 F 
ATOM     71  C   UNL A   1      44.908  35.490  27.497  1.00  0.00     0.040 A 
ATOM     72  C   UNL A   1      45.807  36.099  29.626  1.00  0.00     0.040 A 
ATOM     73  F   UNL A   1      45.193  34.938  31.553  1.00  0.00    -0.206 F 
ATOM     74  C   UNL A   1      45.705  36.335  28.261  1.00  0.00     0.006 A 
ENDBRANCH  46  67
BRANCH  58  75
ATOM     75  C   UNL A   1      41.841  30.056  33.530  1.00  0.00     0.057 A 
ATOM     76  C   UNL A   1      40.996  31.049  34.054  1.00  0.00     0.134 A 
ATOM     77  C   UNL A   1      42.668  29.398  34.442  1.00  0.00     0.134 A 
ATOM     78  F   UNL A   1      40.088  31.660  33.288  1.00  0.00    -0.206 F 
ATOM     79  C   UNL A   1      41.012  31.401  35.410  1.00  0.00     0.040 A 
ATOM     80  C   UNL A   1      42.675  29.717  35.802  1.00  0.00     0.040 A 
ATOM     81  F   UNL A   1      43.451  28.390  34.031  1.00  0.00    -0.206 F 
ATOM     82  C   UNL A   1      41.856  30.732  36.290  1.00  0.00     0.006 A 
ENDBRANCH  58  75
ENDBRANCH  32  33
ENDBRANCH  24  27
ENDBRANCH  22  23
ENDBRANCH  21  22
ENDBRANCH  20  21
ENDBRANCH   1  20
TORSDOF 16
ENDMDL
MODEL 3
REMARK VINA RESULT:     -10.3      1.332      2.886
REMARK SMILES Cc1nsc(NCC(C)C)c1C(=O)NCCCCCCNC(=O)c1ccc(-c2c3nc(c(-c4c(F)cccc4F)c4ccc([nH]4)c(-c4c(F)cccc4F)c4nc(c(-c5c(F)cccc5F)c5ccc2[nH]5)C=C4)C=C3)cc1
REMARK SMILES IDX 17 1 16 2 15 3 14 4 12 5 13 6 11 8 1 9 2 10 3 11 4 12 5 13
REMARK SMILES IDX 6 14 7 16 8 17 9 18 10 19 18 20 19 21 20 22 21 23 22 24
REMARK SMILES IDX 23 26 24 27 25 28 77 29 26 30 76 31 27 32 28 33 29 34 70 35
REMARK SMILES IDX 30 36 75 37 69 38 71 39 31 40 74 41 68 42 67 43 32 45 58 46
REMARK SMILES IDX 41 47 57 48 42 49 45 50 56 51 72 52 43 53 44 54 55 56 73 57
REMARK SMILES IDX 46 58 33 59 34 60 39 61 35 62 36 63 38 64 40 65 37 66 59 67
REMARK SMILES IDX 60 68 65 69 61 70 62 71 64 72 66 73 63 74 47 75 48 76 53 77
REMARK SMILES IDX 49 78 50 79 52 80 54 81 51 82
REMARK H PARENT 14 7 6 15 21 25 71 44 45 55
REMARK Flexibility Score: inf
ROOT
ATOM      1  C   UNL A   1      40.511  21.197  26.569  1.00  0.00     0.002 C 
ENDROOT
BRANCH   1   2
ATOM      2  C   UNL A   1      39.455  22.250  26.277  1.00  0.00     0.021 C 
BRANCH   2   3
ATOM      3  C   UNL A   1      38.194  21.747  25.610  1.00  0.00     0.116 C 
BRANCH   3   4
ATOM      4  N   UNL A   1      37.803  22.397  24.407  1.00  0.00    -0.352 N 
ATOM      5  C   UNL A   1      36.553  22.528  23.858  1.00  0.00     0.256 C 
ATOM      6  O   UNL A   1      36.560  23.132  22.776  1.00  0.00    -0.269 OA
ATOM      7  H   UNL A   1      38.535  22.813  23.894  1.00  0.00     0.163 HD
BRANCH   5   8
ATOM      8  C   UNL A   1      35.292  21.974  24.432  1.00  0.00     0.097 A 
ATOM      9  C   UNL A   1      35.479  19.283  24.872  1.00  0.00     0.069 C 
ATOM     10  C   UNL A   1      34.827  20.632  24.848  1.00  0.00     0.066 A 
ATOM     11  N   UNL A   1      33.575  20.564  25.302  1.00  0.00    -0.195 NA
ATOM     12  S   UNL A   1      32.911  22.047  25.347  1.00  0.00    -0.018 S 
ATOM     13  C   UNL A   1      34.253  22.890  24.709  1.00  0.00     0.122 A 
BRANCH  13  14
ATOM     14  N   UNL A   1      34.285  24.237  24.497  1.00  0.00    -0.375 N 
ATOM     15  H   UNL A   1      34.372  24.538  23.564  1.00  0.00     0.161 HD
BRANCH  14  16
ATOM     16  C   UNL A   1      34.204  25.264  25.513  1.00  0.00     0.116 C 
BRANCH  16  17
ATOM     17  C   UNL A   1      32.977  26.163  25.284  1.00  0.00     0.002 C 
ATOM     18  C   UNL A   1      32.358  25.948  23.900  1.00  0.00     0.009 C 
ATOM     19  C   UNL A   1      31.934  25.885  26.367  1.00  0.00     0.009 C 
ENDBRANCH  16  17
ENDBRANCH  14  16
ENDBRANCH  13  14
ENDBRANCH   5   8
ENDBRANCH   3   4
ENDBRANCH   2   3
ENDBRANCH   1   2
BRANCH   1  20
ATOM     20  C   UNL A   1      40.202  19.786  26.050  1.00  0.00     0.002 C 
BRANCH  20  21
ATOM     21  C   UNL A   1      41.409  18.888  25.737  1.00  0.00     0.021 C 
BRANCH  21  22
ATOM     22  C   UNL A   1      42.668  19.293  26.476  1.00  0.00     0.116 C 
BRANCH  22  23
ATOM     23  N   UNL A   1      43.878  19.202  25.656  1.00  0.00    -0.352 N 
ATOM     24  C   UNL A   1      44.465  20.201  24.884  1.00  0.00     0.251 C 
ATOM     25  H   UNL A   1      44.331  18.328  25.650  1.00  0.00     0.163 HD
ATOM     26  O   UNL A   1      45.247  19.953  23.996  1.00  0.00    -0.269 OA
BRANCH  24  27
ATOM     27  C   UNL A   1      44.164  21.595  25.264  1.00  0.00     0.039 A 
ATOM     28  C   UNL A   1      43.376  22.490  24.543  1.00  0.00     0.014 A 
ATOM     29  C   UNL A   1      44.826  22.056  26.383  1.00  0.00     0.014 A 
ATOM     30  C   UNL A   1      43.325  23.814  25.004  1.00  0.00     0.010 A 
ATOM     31  C   UNL A   1      44.265  23.078  27.064  1.00  0.00     0.010 A 
ATOM     32  C   UNL A   1      43.900  24.117  26.254  1.00  0.00    -0.014 A 
BRANCH  32  33
ATOM     33  C   UNL A   1      43.765  25.359  26.994  1.00  0.00     0.031 A 
ATOM     34  C   UNL A   1      44.850  26.291  26.606  1.00  0.00     0.074 A 
ATOM     35  C   UNL A   1      42.684  25.664  27.762  1.00  0.00     0.049 A 
ATOM     36  N   UNL A   1      45.981  26.377  27.218  1.00  0.00    -0.248 NA
ATOM     37  C   UNL A   1      44.871  26.925  25.272  1.00  0.00     0.031 C 
ATOM     38  C   UNL A   1      41.451  24.906  28.037  1.00  0.00     0.029 A 
ATOM     39  N   UNL A   1      42.490  26.786  28.528  1.00  0.00    -0.354 N 
ATOM     40  C   UNL A   1      46.707  27.339  26.535  1.00  0.00     0.074 A 
ATOM     41  C   UNL A   1      46.113  27.421  25.231  1.00  0.00     0.031 C 
ATOM     42  C   UNL A   1      40.560  25.678  28.717  1.00  0.00     0.029 A 
ATOM     43  C   UNL A   1      41.195  26.935  29.064  1.00  0.00     0.049 A 
ATOM     44  H   UNL A   1      43.207  27.441  28.692  1.00  0.00     0.167 HD
ATOM     45  C   UNL A   1      47.489  28.197  27.245  1.00  0.00     0.037 A 
ATOM     46  C   UNL A   1      40.750  27.988  29.820  1.00  0.00     0.037 A 
ATOM     47  C   UNL A   1      47.632  27.714  28.603  1.00  0.00     0.049 A 
ATOM     48  C   UNL A   1      41.970  28.628  30.392  1.00  0.00     0.074 A 
ATOM     49  C   UNL A   1      48.166  26.577  29.178  1.00  0.00     0.029 A 
ATOM     50  N   UNL A   1      46.728  28.218  29.510  1.00  0.00    -0.354 N 
ATOM     51  N   UNL A   1      42.732  28.013  31.258  1.00  0.00    -0.248 NA
ATOM     52  C   UNL A   1      42.628  29.621  29.551  1.00  0.00     0.031 C 
ATOM     53  C   UNL A   1      47.234  26.202  30.191  1.00  0.00     0.029 A 
ATOM     54  C   UNL A   1      46.259  27.195  30.293  1.00  0.00     0.049 A 
ATOM     55  H   UNL A   1      46.462  29.162  29.584  1.00  0.00     0.167 HD
ATOM     56  C   UNL A   1      44.018  28.182  30.765  1.00  0.00     0.074 A 
ATOM     57  C   UNL A   1      43.886  29.192  29.704  1.00  0.00     0.031 C 
ATOM     58  C   UNL A   1      44.997  27.256  30.996  1.00  0.00     0.037 A 
BRANCH  45  59
ATOM     59  C   UNL A   1      47.702  29.652  26.907  1.00  0.00     0.057 A 
ATOM     60  C   UNL A   1      49.008  30.171  26.995  1.00  0.00     0.134 A 
ATOM     61  C   UNL A   1      46.680  30.618  26.811  1.00  0.00     0.134 A 
ATOM     62  F   UNL A   1      50.067  29.352  27.095  1.00  0.00    -0.206 F 
ATOM     63  C   UNL A   1      49.267  31.543  27.077  1.00  0.00     0.040 A 
ATOM     64  C   UNL A   1      46.933  31.992  26.848  1.00  0.00     0.040 A 
ATOM     65  F   UNL A   1      45.383  30.299  26.780  1.00  0.00    -0.206 F 
ATOM     66  C   UNL A   1      48.226  32.459  27.013  1.00  0.00     0.006 A 
ENDBRANCH  45  59
BRANCH  46  67
ATOM     67  C   UNL A   1      39.454  28.730  29.752  1.00  0.00     0.057 A 
ATOM     68  C   UNL A   1      38.917  29.228  28.546  1.00  0.00     0.134 A 
ATOM     69  C   UNL A   1      38.558  28.691  30.832  1.00  0.00     0.134 A 
ATOM     70  F   UNL A   1      39.661  29.262  27.430  1.00  0.00    -0.206 F 
ATOM     71  C   UNL A   1      37.576  29.646  28.427  1.00  0.00     0.040 A 
ATOM     72  C   UNL A   1      37.218  29.094  30.725  1.00  0.00     0.040 A 
ATOM     73  F   UNL A   1      38.932  28.169  32.008  1.00  0.00    -0.206 F 
ATOM     74  C   UNL A   1      36.718  29.566  29.518  1.00  0.00     0.006 A 
ENDBRANCH  46  67
BRANCH  58  75
ATOM     75  C   UNL A   1      44.703  26.136  31.963  1.00  0.00     0.057 A 
ATOM     76  C   UNL A   1      44.549  26.280  33.352  1.00  0.00     0.134 A 
ATOM     77  C   UNL A   1      44.404  24.880  31.431  1.00  0.00     0.134 A 
ATOM     78  F   UNL A   1      44.701  27.467  33.946  1.00  0.00    -0.206 F 
ATOM     79  C   UNL A   1      44.167  25.211  34.174  1.00  0.00     0.040 A 
ATOM     80  C   UNL A   1      43.993  23.813  32.233  1.00  0.00     0.040 A 
ATOM     81  F   UNL A   1      44.456  24.684  30.106  1.00  0.00    -0.206 F 
ATOM     82  C   UNL A   1      43.887  23.970  33.612  1.00  0.00     0.006 A 
ENDBRANCH  58  75
ENDBRANCH  32  33
ENDBRANCH  24  27
ENDBRANCH  22  23
ENDBRANCH  21  22
ENDBRANCH  20  21
ENDBRANCH   1  20
TORSDOF 16
ENDMDL
