MODEL 1
REMARK VINA RESULT:      -9.8      0.000      0.000
REMARK SMILES O=C(CNc1nc(-c2ccccc2)c(-c2ccccc2)s1)NCCCCCCNC(=O)c1ccc(-c2c3nc(c(-c4c(F)cccc4F)c4ccc([nH]4)c(-c4c(F)cccc4F)c4nc(c(-c5c(F)cccc5F)c5ccc2[nH]5)C=C4)C=C3)cc1
REMARK SMILES IDX 25 1 24 2 23 3 22 4 1 5 2 6 3 8 4 9 5 11 6 12 21 13 7 14
REMARK SMILES IDX 14 15 8 16 9 17 13 18 10 19 12 20 11 21 15 22 16 23 20 24
REMARK SMILES IDX 17 25 19 26 18 27 26 28 27 29 28 30 29 31 30 32 31 34 32 35
REMARK SMILES IDX 33 36 85 37 34 38 84 39 35 40 36 41 37 42 78 43 38 44 83 45
REMARK SMILES IDX 77 46 79 47 39 48 82 49 76 50 75 51 40 53 66 54 49 55 65 56
REMARK SMILES IDX 50 57 53 58 64 59 80 60 51 61 52 62 63 64 81 65 54 66 41 67
REMARK SMILES IDX 42 68 47 69 43 70 44 71 46 72 48 73 45 74 67 75 68 76 73 77
REMARK SMILES IDX 69 78 70 79 72 80 74 81 71 82 55 83 56 84 61 85 57 86 58 87
REMARK SMILES IDX 60 88 62 89 59 90
REMARK H PARENT 22 7 4 10 29 33 79 52 53 63
REMARK Flexibility Score: inf
ROOT
ATOM      1  C   UNL A   1      34.332  35.829  28.245  1.00  0.00     0.002 C 
ENDROOT
BRANCH   1   2
ATOM      2  C   UNL A   1      33.188  35.857  29.268  1.00  0.00     0.021 C 
BRANCH   2   3
ATOM      3  C   UNL A   1      33.171  37.079  30.186  1.00  0.00     0.116 C 
BRANCH   3   4
ATOM      4  N   UNL A   1      33.890  36.844  31.417  1.00  0.00    -0.355 N 
ATOM      5  O   UNL A   1      32.092  36.962  32.852  1.00  0.00    -0.273 OA
ATOM      6  C   UNL A   1      33.291  36.784  32.663  1.00  0.00     0.239 C 
ATOM      7  H   UNL A   1      34.865  36.718  31.367  1.00  0.00     0.163 HD
BRANCH   6   8
ATOM      8  C   UNL A   1      34.287  36.509  33.804  1.00  0.00     0.215 C 
BRANCH   8   9
ATOM      9  N   UNL A   1      34.493  35.071  33.934  1.00  0.00    -0.352 N 
ATOM     10  H   UNL A   1      33.769  34.517  34.308  1.00  0.00     0.163 HD
BRANCH   9  11
ATOM     11  C   UNL A   1      35.640  34.480  33.561  1.00  0.00     0.184 A 
ATOM     12  N   UNL A   1      36.426  34.875  32.589  1.00  0.00    -0.220 NA
ATOM     13  S   UNL A   1      36.146  33.052  34.375  1.00  0.00    -0.096 S 
ATOM     14  C   UNL A   1      37.491  33.998  32.450  1.00  0.00     0.091 A 
ATOM     15  C   UNL A   1      37.480  32.907  33.306  1.00  0.00     0.064 A 
BRANCH  14  16
ATOM     16  C   UNL A   1      38.547  34.247  31.480  1.00  0.00     0.002 A 
ATOM     17  C   UNL A   1      39.842  34.587  31.892  1.00  0.00     0.010 A 
ATOM     18  C   UNL A   1      38.248  34.207  30.113  1.00  0.00     0.010 A 
ATOM     19  C   UNL A   1      40.816  34.917  30.948  1.00  0.00     0.001 A 
ATOM     20  C   UNL A   1      39.223  34.543  29.170  1.00  0.00     0.001 A 
ATOM     21  C   UNL A   1      40.504  34.904  29.588  1.00  0.00     0.000 A 
ENDBRANCH  14  16
BRANCH  15  22
ATOM     22  C   UNL A   1      38.395  31.773  33.436  1.00  0.00    -0.006 A 
ATOM     23  C   UNL A   1      39.620  31.924  34.101  1.00  0.00     0.009 A 
ATOM     24  C   UNL A   1      38.039  30.510  32.944  1.00  0.00     0.009 A 
ATOM     25  C   UNL A   1      40.472  30.832  34.272  1.00  0.00     0.001 A 
ATOM     26  C   UNL A   1      38.892  29.418  33.117  1.00  0.00     0.001 A 
ATOM     27  C   UNL A   1      40.107  29.580  33.782  1.00  0.00     0.000 A 
ENDBRANCH  15  22
ENDBRANCH   9  11
ENDBRANCH   8   9
ENDBRANCH   6   8
ENDBRANCH   3   4
ENDBRANCH   2   3
ENDBRANCH   1   2
BRANCH   1  28
ATOM     28  C   UNL A   1      34.716  34.445  27.711  1.00  0.00     0.002 C 
BRANCH  28  29
ATOM     29  C   UNL A   1      35.597  33.596  28.632  1.00  0.00     0.021 C 
BRANCH  29  30
ATOM     30  C   UNL A   1      34.857  32.586  29.506  1.00  0.00     0.116 C 
BRANCH  30  31
ATOM     31  N   UNL A   1      34.138  31.588  28.733  1.00  0.00    -0.352 N 
ATOM     32  C   UNL A   1      34.585  30.423  28.163  1.00  0.00     0.251 C 
ATOM     33  H   UNL A   1      33.181  31.776  28.596  1.00  0.00     0.163 HD
ATOM     34  O   UNL A   1      33.832  29.779  27.427  1.00  0.00    -0.269 OA
BRANCH  32  35
ATOM     35  C   UNL A   1      35.965  29.937  28.391  1.00  0.00     0.039 A 
ATOM     36  C   UNL A   1      36.902  30.081  27.363  1.00  0.00     0.014 A 
ATOM     37  C   UNL A   1      36.338  29.312  29.585  1.00  0.00     0.014 A 
ATOM     38  C   UNL A   1      38.221  29.661  27.554  1.00  0.00     0.010 A 
ATOM     39  C   UNL A   1      37.669  28.950  29.799  1.00  0.00     0.010 A 
ATOM     40  C   UNL A   1      38.624  29.122  28.786  1.00  0.00    -0.014 A 
BRANCH  40  41
ATOM     41  C   UNL A   1      40.045  28.758  29.027  1.00  0.00     0.031 A 
ATOM     42  C   UNL A   1      40.971  29.699  29.742  1.00  0.00     0.074 A 
ATOM     43  C   UNL A   1      40.515  27.586  28.555  1.00  0.00     0.049 A 
ATOM     44  N   UNL A   1      42.238  29.545  30.040  1.00  0.00    -0.248 NA
ATOM     45  C   UNL A   1      40.411  30.993  30.159  1.00  0.00     0.031 C 
ATOM     46  C   UNL A   1      39.736  26.606  27.797  1.00  0.00     0.029 A 
ATOM     47  N   UNL A   1      41.763  27.023  28.645  1.00  0.00    -0.354 N 
ATOM     48  C   UNL A   1      42.629  30.725  30.660  1.00  0.00     0.074 A 
ATOM     49  C   UNL A   1      41.477  31.602  30.659  1.00  0.00     0.031 C 
ATOM     50  C   UNL A   1      40.513  25.546  27.523  1.00  0.00     0.029 A 
ATOM     51  C   UNL A   1      41.849  25.783  28.059  1.00  0.00     0.049 A 
ATOM     52  H   UNL A   1      42.524  27.464  29.087  1.00  0.00     0.167 HD
ATOM     53  C   UNL A   1      43.831  31.043  31.198  1.00  0.00     0.037 A 
ATOM     54  C   UNL A   1      42.886  24.930  27.971  1.00  0.00     0.037 A 
ATOM     55  C   UNL A   1      44.969  30.161  31.228  1.00  0.00     0.049 A 
ATOM     56  C   UNL A   1      44.204  25.299  28.589  1.00  0.00     0.074 A 
ATOM     57  C   UNL A   1      46.201  30.362  31.827  1.00  0.00     0.029 A 
ATOM     58  N   UNL A   1      45.018  28.914  30.626  1.00  0.00    -0.354 N 
ATOM     59  N   UNL A   1      44.533  26.383  29.248  1.00  0.00    -0.248 NA
ATOM     60  C   UNL A   1      45.292  24.321  28.455  1.00  0.00     0.031 C 
ATOM     61  C   UNL A   1      47.009  29.251  31.554  1.00  0.00     0.029 A 
ATOM     62  C   UNL A   1      46.266  28.343  30.817  1.00  0.00     0.049 A 
ATOM     63  H   UNL A   1      44.274  28.494  30.134  1.00  0.00     0.167 HD
ATOM     64  C   UNL A   1      45.858  26.208  29.626  1.00  0.00     0.074 A 
ATOM     65  C   UNL A   1      46.265  24.907  29.137  1.00  0.00     0.031 C 
ATOM     66  C   UNL A   1      46.663  27.050  30.320  1.00  0.00     0.037 A 
BRANCH  53  67
ATOM     67  C   UNL A   1      43.975  32.410  31.802  1.00  0.00     0.057 A 
ATOM     68  C   UNL A   1      43.808  32.633  33.176  1.00  0.00     0.134 A 
ATOM     69  C   UNL A   1      44.309  33.512  31.005  1.00  0.00     0.134 A 
ATOM     70  F   UNL A   1      43.476  31.622  33.993  1.00  0.00    -0.206 F 
ATOM     71  C   UNL A   1      43.937  33.908  33.729  1.00  0.00     0.040 A 
ATOM     72  C   UNL A   1      44.465  34.787  31.551  1.00  0.00     0.040 A 
ATOM     73  F   UNL A   1      44.490  33.367  29.683  1.00  0.00    -0.206 F 
ATOM     74  C   UNL A   1      44.272  34.988  32.915  1.00  0.00     0.006 A 
ENDBRANCH  53  67
BRANCH  54  75
ATOM     75  C   UNL A   1      42.706  23.613  27.311  1.00  0.00     0.057 A 
ATOM     76  C   UNL A   1      42.902  23.472  25.932  1.00  0.00     0.134 A 
ATOM     77  C   UNL A   1      42.337  22.473  28.034  1.00  0.00     0.134 A 
ATOM     78  F   UNL A   1      43.237  24.534  25.186  1.00  0.00    -0.206 F 
ATOM     79  C   UNL A   1      42.724  22.245  25.292  1.00  0.00     0.040 A 
ATOM     80  C   UNL A   1      42.177  21.236  27.409  1.00  0.00     0.040 A 
ATOM     81  F   UNL A   1      42.140  22.545  29.358  1.00  0.00    -0.206 F 
ATOM     82  C   UNL A   1      42.366  21.121  26.033  1.00  0.00     0.006 A 
ENDBRANCH  54  75
BRANCH  66  83
ATOM     83  C   UNL A   1      48.057  26.576  30.604  1.00  0.00     0.057 A 
ATOM     84  C   UNL A   1      49.119  26.840  29.729  1.00  0.00     0.134 A 
ATOM     85  C   UNL A   1      48.342  25.855  31.770  1.00  0.00     0.134 A 
ATOM     86  F   UNL A   1      48.907  27.512  28.587  1.00  0.00    -0.206 F 
ATOM     87  C   UNL A   1      50.409  26.379  29.990  1.00  0.00     0.040 A 
ATOM     88  C   UNL A   1      49.635  25.411  32.054  1.00  0.00     0.040 A 
ATOM     89  F   UNL A   1      47.373  25.574  32.653  1.00  0.00    -0.206 F 
ATOM     90  C   UNL A   1      50.671  25.665  31.158  1.00  0.00     0.006 A 
ENDBRANCH  66  83
ENDBRANCH  40  41
ENDBRANCH  32  35
ENDBRANCH  30  31
ENDBRANCH  29  30
ENDBRANCH  28  29
ENDBRANCH   1  28
TORSDOF 17
ENDMDL
MODEL 2
REMARK VINA RESULT:      -9.3      4.735     10.280
REMARK SMILES O=C(CNc1nc(-c2ccccc2)c(-c2ccccc2)s1)NCCCCCCNC(=O)c1ccc(-c2c3nc(c(-c4c(F)cccc4F)c4ccc([nH]4)c(-c4c(F)cccc4F)c4nc(c(-c5c(F)cccc5F)c5ccc2[nH]5)C=C4)C=C3)cc1
REMARK SMILES IDX 25 1 24 2 23 3 22 4 1 5 2 6 3 8 4 9 5 11 6 12 21 13 7 14
REMARK SMILES IDX 14 15 8 16 9 17 13 18 10 19 12 20 11 21 15 22 16 23 20 24
REMARK SMILES IDX 17 25 19 26 18 27 26 28 27 29 28 30 29 31 30 32 31 34 32 35
REMARK SMILES IDX 33 36 85 37 34 38 84 39 35 40 36 41 37 42 78 43 38 44 83 45
REMARK SMILES IDX 77 46 79 47 39 48 82 49 76 50 75 51 40 53 66 54 49 55 65 56
REMARK SMILES IDX 50 57 53 58 64 59 80 60 51 61 52 62 63 64 81 65 54 66 41 67
REMARK SMILES IDX 42 68 47 69 43 70 44 71 46 72 48 73 45 74 67 75 68 76 73 77
REMARK SMILES IDX 69 78 70 79 72 80 74 81 71 82 55 83 56 84 61 85 57 86 58 87
REMARK SMILES IDX 60 88 62 89 59 90
REMARK H PARENT 22 7 4 10 29 33 79 52 53 63
REMARK Flexibility Score: inf
ROOT
ATOM      1  C   UNL A   1      36.303  21.837  25.239  1.00  0.00     0.002 C 
ENDROOT
BRANCH   1   2
ATOM      2  C   UNL A   1      36.314  22.711  23.978  1.00  0.00     0.021 C 
BRANCH   2   3
ATOM      3  C   UNL A   1      34.966  22.843  23.270  1.00  0.00     0.116 C 
BRANCH   3   4
ATOM      4  N   UNL A   1      33.865  22.897  24.205  1.00  0.00    -0.355 N 
ATOM      5  O   UNL A   1      32.524  21.321  23.194  1.00  0.00    -0.273 OA
ATOM      6  C   UNL A   1      32.728  22.114  24.108  1.00  0.00     0.239 C 
ATOM      7  H   UNL A   1      33.927  23.528  24.958  1.00  0.00     0.163 HD
BRANCH   6   8
ATOM      8  C   UNL A   1      31.718  22.364  25.242  1.00  0.00     0.215 C 
BRANCH   8   9
ATOM      9  N   UNL A   1      30.655  23.240  24.762  1.00  0.00    -0.352 N 
ATOM     10  H   UNL A   1      29.828  22.838  24.410  1.00  0.00     0.163 HD
BRANCH   9  11
ATOM     11  C   UNL A   1      30.770  24.579  24.786  1.00  0.00     0.184 A 
ATOM     12  N   UNL A   1      30.177  25.415  23.970  1.00  0.00    -0.220 NA
ATOM     13  S   UNL A   1      31.808  25.306  25.949  1.00  0.00    -0.096 S 
ATOM     14  C   UNL A   1      30.567  26.715  24.251  1.00  0.00     0.091 A 
ATOM     15  C   UNL A   1      31.499  26.850  25.270  1.00  0.00     0.064 A 
BRANCH  14  16
ATOM     16  C   UNL A   1      30.000  27.843  23.527  1.00  0.00     0.002 A 
ATOM     17  C   UNL A   1      28.617  28.070  23.509  1.00  0.00     0.010 A 
ATOM     18  C   UNL A   1      30.843  28.678  22.785  1.00  0.00     0.010 A 
ATOM     19  C   UNL A   1      28.084  29.098  22.730  1.00  0.00     0.001 A 
ATOM     20  C   UNL A   1      30.306  29.703  22.003  1.00  0.00     0.001 A 
ATOM     21  C   UNL A   1      28.927  29.908  21.970  1.00  0.00     0.000 A 
ENDBRANCH  14  16
BRANCH  15  22
ATOM     22  C   UNL A   1      32.161  28.032  25.821  1.00  0.00    -0.006 A 
ATOM     23  C   UNL A   1      31.403  29.112  26.296  1.00  0.00     0.009 A 
ATOM     24  C   UNL A   1      33.557  28.081  25.929  1.00  0.00     0.009 A 
ATOM     25  C   UNL A   1      32.031  30.219  26.871  1.00  0.00     0.001 A 
ATOM     26  C   UNL A   1      34.183  29.189  26.504  1.00  0.00     0.001 A 
ATOM     27  C   UNL A   1      33.420  30.255  26.976  1.00  0.00     0.000 A 
ENDBRANCH  15  22
ENDBRANCH   9  11
ENDBRANCH   8   9
ENDBRANCH   6   8
ENDBRANCH   3   4
ENDBRANCH   2   3
ENDBRANCH   1   2
BRANCH   1  28
ATOM     28  C   UNL A   1      36.360  20.324  25.003  1.00  0.00     0.002 C 
BRANCH  28  29
ATOM     29  C   UNL A   1      37.753  19.742  24.747  1.00  0.00     0.021 C 
BRANCH  29  30
ATOM     30  C   UNL A   1      38.833  20.149  25.748  1.00  0.00     0.116 C 
BRANCH  30  31
ATOM     31  N   UNL A   1      39.950  19.220  25.784  1.00  0.00    -0.352 N 
ATOM     32  C   UNL A   1      41.273  19.441  26.072  1.00  0.00     0.251 C 
ATOM     33  H   UNL A   1      39.722  18.286  25.569  1.00  0.00     0.163 HD
ATOM     34  O   UNL A   1      42.089  18.529  25.915  1.00  0.00    -0.269 OA
BRANCH  32  35
ATOM     35  C   UNL A   1      41.745  20.763  26.541  1.00  0.00     0.039 A 
ATOM     36  C   UNL A   1      42.074  21.733  25.588  1.00  0.00     0.014 A 
ATOM     37  C   UNL A   1      41.901  21.050  27.901  1.00  0.00     0.014 A 
ATOM     38  C   UNL A   1      42.495  23.001  25.995  1.00  0.00     0.010 A 
ATOM     39  C   UNL A   1      42.261  22.335  28.308  1.00  0.00     0.010 A 
ATOM     40  C   UNL A   1      42.561  23.324  27.359  1.00  0.00    -0.014 A 
BRANCH  40  41
ATOM     41  C   UNL A   1      42.919  24.698  27.798  1.00  0.00     0.031 A 
ATOM     42  C   UNL A   1      44.356  25.122  27.910  1.00  0.00     0.074 A 
ATOM     43  C   UNL A   1      41.940  25.558  28.142  1.00  0.00     0.049 A 
ATOM     44  N   UNL A   1      44.851  26.280  28.275  1.00  0.00    -0.248 NA
ATOM     45  C   UNL A   1      45.374  24.108  27.596  1.00  0.00     0.031 C 
ATOM     46  C   UNL A   1      40.507  25.256  28.130  1.00  0.00     0.029 A 
ATOM     47  N   UNL A   1      42.002  26.860  28.568  1.00  0.00    -0.354 N 
ATOM     48  C   UNL A   1      46.231  26.128  28.250  1.00  0.00     0.074 A 
ATOM     49  C   UNL A   1      46.496  24.755  27.876  1.00  0.00     0.031 C 
ATOM     50  C   UNL A   1      39.825  26.353  28.496  1.00  0.00     0.029 A 
ATOM     51  C   UNL A   1      40.770  27.424  28.794  1.00  0.00     0.049 A 
ATOM     52  H   UNL A   1      42.849  27.345  28.700  1.00  0.00     0.167 HD
ATOM     53  C   UNL A   1      47.191  27.052  28.499  1.00  0.00     0.037 A 
ATOM     54  C   UNL A   1      40.438  28.667  29.188  1.00  0.00     0.037 A 
ATOM     55  C   UNL A   1      46.929  28.426  28.841  1.00  0.00     0.049 A 
ATOM     56  C   UNL A   1      41.520  29.678  29.442  1.00  0.00     0.074 A 
ATOM     57  C   UNL A   1      47.835  29.456  29.025  1.00  0.00     0.029 A 
ATOM     58  N   UNL A   1      45.669  28.960  29.059  1.00  0.00    -0.354 N 
ATOM     59  N   UNL A   1      42.819  29.544  29.331  1.00  0.00    -0.248 NA
ATOM     60  C   UNL A   1      41.086  31.014  29.871  1.00  0.00     0.031 C 
ATOM     61  C   UNL A   1      47.124  30.606  29.392  1.00  0.00     0.029 A 
ATOM     62  C   UNL A   1      45.774  30.299  29.400  1.00  0.00     0.049 A 
ATOM     63  H   UNL A   1      44.823  28.461  28.982  1.00  0.00     0.167 HD
ATOM     64  C   UNL A   1      43.356  30.782  29.653  1.00  0.00     0.074 A 
ATOM     65  C   UNL A   1      42.241  31.659  29.948  1.00  0.00     0.031 C 
ATOM     66  C   UNL A   1      44.658  31.160  29.698  1.00  0.00     0.037 A 
BRANCH  53  67
ATOM     67  C   UNL A   1      48.620  26.601  28.406  1.00  0.00     0.057 A 
ATOM     68  C   UNL A   1      49.311  26.099  29.517  1.00  0.00     0.134 A 
ATOM     69  C   UNL A   1      49.305  26.649  27.186  1.00  0.00     0.134 A 
ATOM     70  F   UNL A   1      48.714  26.037  30.717  1.00  0.00    -0.206 F 
ATOM     71  C   UNL A   1      50.641  25.688  29.424  1.00  0.00     0.040 A 
ATOM     72  C   UNL A   1      50.628  26.217  27.076  1.00  0.00     0.040 A 
ATOM     73  F   UNL A   1      48.701  27.112  26.081  1.00  0.00    -0.206 F 
ATOM     74  C   UNL A   1      51.302  25.742  28.199  1.00  0.00     0.006 A 
ENDBRANCH  53  67
BRANCH  54  75
ATOM     75  C   UNL A   1      39.009  29.044  29.320  1.00  0.00     0.057 A 
ATOM     76  C   UNL A   1      38.296  29.540  28.223  1.00  0.00     0.134 A 
ATOM     77  C   UNL A   1      38.326  28.919  30.535  1.00  0.00     0.134 A 
ATOM     78  F   UNL A   1      38.905  29.699  27.039  1.00  0.00    -0.206 F 
ATOM     79  C   UNL A   1      36.955  29.912  28.332  1.00  0.00     0.040 A 
ATOM     80  C   UNL A   1      36.980  29.268  30.652  1.00  0.00     0.040 A 
ATOM     81  F   UNL A   1      38.955  28.445  31.620  1.00  0.00    -0.206 F 
ATOM     82  C   UNL A   1      36.293  29.771  29.549  1.00  0.00     0.006 A 
ENDBRANCH  54  75
BRANCH  66  83
ATOM     83  C   UNL A   1      44.938  32.588  30.060  1.00  0.00     0.057 A 
ATOM     84  C   UNL A   1      44.886  33.615  29.108  1.00  0.00     0.134 A 
ATOM     85  C   UNL A   1      45.253  32.942  31.378  1.00  0.00     0.134 A 
ATOM     86  F   UNL A   1      44.606  33.338  27.826  1.00  0.00    -0.206 F 
ATOM     87  C   UNL A   1      45.167  34.938  29.448  1.00  0.00     0.040 A 
ATOM     88  C   UNL A   1      45.512  34.267  31.735  1.00  0.00     0.040 A 
ATOM     89  F   UNL A   1      45.313  32.008  32.339  1.00  0.00    -0.206 F 
ATOM     90  C   UNL A   1      45.477  35.267  30.767  1.00  0.00     0.006 A 
ENDBRANCH  66  83
ENDBRANCH  40  41
ENDBRANCH  32  35
ENDBRANCH  30  31
ENDBRANCH  29  30
ENDBRANCH  28  29
ENDBRANCH   1  28
TORSDOF 17
ENDMDL
MODEL 3
REMARK VINA RESULT:      -9.3      5.121     10.950
REMARK SMILES O=C(CNc1nc(-c2ccccc2)c(-c2ccccc2)s1)NCCCCCCNC(=O)c1ccc(-c2c3nc(c(-c4c(F)cccc4F)c4ccc([nH]4)c(-c4c(F)cccc4F)c4nc(c(-c5c(F)cccc5F)c5ccc2[nH]5)C=C4)C=C3)cc1
REMARK SMILES IDX 25 1 24 2 23 3 22 4 1 5 2 6 3 8 4 9 5 11 6 12 21 13 7 14
REMARK SMILES IDX 14 15 8 16 9 17 13 18 10 19 12 20 11 21 15 22 16 23 20 24
REMARK SMILES IDX 17 25 19 26 18 27 26 28 27 29 28 30 29 31 30 32 31 34 32 35
REMARK SMILES IDX 33 36 85 37 34 38 84 39 35 40 36 41 37 42 78 43 38 44 83 45
REMARK SMILES IDX 77 46 79 47 39 48 82 49 76 50 75 51 40 53 66 54 49 55 65 56
REMARK SMILES IDX 50 57 53 58 64 59 80 60 51 61 52 62 63 64 81 65 54 66 41 67
REMARK SMILES IDX 42 68 47 69 43 70 44 71 46 72 48 73 45 74 67 75 68 76 73 77
REMARK SMILES IDX 69 78 70 79 72 80 74 81 71 82 55 83 56 84 61 85 57 86 58 87
REMARK SMILES IDX 60 88 62 89 59 90
REMARK H PARENT 22 7 4 10 29 33 79 52 53 63
REMARK Flexibility Score: inf
ROOT
ATOM      1  C   UNL A   1      36.471  21.160  25.029  1.00  0.00     0.002 C 
ENDROOT
BRANCH   1   2
ATOM      2  C   UNL A   1      34.942  21.024  25.015  1.00  0.00     0.021 C 
BRANCH   2   3
ATOM      3  C   UNL A   1      34.276  21.079  26.390  1.00  0.00     0.116 C 
BRANCH   3   4
ATOM      4  N   UNL A   1      33.059  21.858  26.373  1.00  0.00    -0.355 N 
ATOM      5  O   UNL A   1      31.779  20.405  25.128  1.00  0.00    -0.273 OA
ATOM      6  C   UNL A   1      31.889  21.453  25.757  1.00  0.00     0.239 C 
ATOM      7  H   UNL A   1      33.062  22.730  26.829  1.00  0.00     0.163 HD
BRANCH   6   8
ATOM      8  C   UNL A   1      30.742  22.468  25.902  1.00  0.00     0.215 C 
BRANCH   8   9
ATOM      9  N   UNL A   1      30.677  23.303  24.707  1.00  0.00    -0.352 N 
ATOM     10  H   UNL A   1      30.516  22.876  23.835  1.00  0.00     0.163 HD
BRANCH   9  11
ATOM     11  C   UNL A   1      30.830  24.637  24.762  1.00  0.00     0.184 A 
ATOM     12  N   UNL A   1      30.307  25.504  23.931  1.00  0.00    -0.220 NA
ATOM     13  S   UNL A   1      31.824  25.311  25.993  1.00  0.00    -0.096 S 
ATOM     14  C   UNL A   1      30.720  26.787  24.256  1.00  0.00     0.091 A 
ATOM     15  C   UNL A   1      31.598  26.876  25.326  1.00  0.00     0.064 A 
BRANCH  14  16
ATOM     16  C   UNL A   1      30.226  27.944  23.524  1.00  0.00     0.002 A 
ATOM     17  C   UNL A   1      28.860  28.251  23.493  1.00  0.00     0.010 A 
ATOM     18  C   UNL A   1      31.124  28.725  22.788  1.00  0.00     0.010 A 
ATOM     19  C   UNL A   1      28.395  29.306  22.706  1.00  0.00     0.001 A 
ATOM     20  C   UNL A   1      30.656  29.778  21.998  1.00  0.00     0.001 A 
ATOM     21  C   UNL A   1      29.291  30.063  21.952  1.00  0.00     0.000 A 
ENDBRANCH  14  16
BRANCH  15  22
ATOM     22  C   UNL A   1      32.265  28.027  25.934  1.00  0.00    -0.006 A 
ATOM     23  C   UNL A   1      33.660  28.049  26.067  1.00  0.00     0.009 A 
ATOM     24  C   UNL A   1      31.525  29.144  26.346  1.00  0.00     0.009 A 
ATOM     25  C   UNL A   1      34.304  29.168  26.600  1.00  0.00     0.001 A 
ATOM     26  C   UNL A   1      32.169  30.262  26.879  1.00  0.00     0.001 A 
ATOM     27  C   UNL A   1      33.558  30.274  27.004  1.00  0.00     0.000 A 
ENDBRANCH  15  22
ENDBRANCH   9  11
ENDBRANCH   8   9
ENDBRANCH   6   8
ENDBRANCH   3   4
ENDBRANCH   2   3
ENDBRANCH   1   2
BRANCH   1  28
ATOM     28  C   UNL A   1      37.042  22.351  24.253  1.00  0.00     0.002 C 
BRANCH  28  29
ATOM     29  C   UNL A   1      36.932  23.712  24.948  1.00  0.00     0.021 C 
BRANCH  29  30
ATOM     30  C   UNL A   1      37.753  23.870  26.226  1.00  0.00     0.116 C 
BRANCH  30  31
ATOM     31  N   UNL A   1      39.157  23.542  26.040  1.00  0.00    -0.352 N 
ATOM     32  C   UNL A   1      40.281  24.175  26.508  1.00  0.00     0.251 C 
ATOM     33  H   UNL A   1      39.329  22.742  25.493  1.00  0.00     0.163 HD
ATOM     34  O   UNL A   1      41.392  23.805  26.120  1.00  0.00    -0.269 OA
BRANCH  32  35
ATOM     35  C   UNL A   1      40.184  25.314  27.449  1.00  0.00     0.039 A 
ATOM     36  C   UNL A   1      39.319  25.205  28.543  1.00  0.00     0.014 A 
ATOM     37  C   UNL A   1      40.905  26.495  27.252  1.00  0.00     0.014 A 
ATOM     38  C   UNL A   1      39.224  26.249  29.468  1.00  0.00     0.010 A 
ATOM     39  C   UNL A   1      40.858  27.511  28.209  1.00  0.00     0.010 A 
ATOM     40  C   UNL A   1      40.018  27.397  29.326  1.00  0.00    -0.014 A 
BRANCH  40  41
ATOM     41  C   UNL A   1      39.991  28.470  30.355  1.00  0.00     0.031 A 
ATOM     42  C   UNL A   1      38.996  29.592  30.273  1.00  0.00     0.074 A 
ATOM     43  C   UNL A   1      40.903  28.456  31.347  1.00  0.00     0.049 A 
ATOM     44  N   UNL A   1      38.829  30.610  31.081  1.00  0.00    -0.248 NA
ATOM     45  C   UNL A   1      38.082  29.587  29.120  1.00  0.00     0.031 C 
ATOM     46  C   UNL A   1      41.958  27.455  31.512  1.00  0.00     0.029 A 
ATOM     47  N   UNL A   1      41.087  29.312  32.403  1.00  0.00    -0.354 N 
ATOM     48  C   UNL A   1      37.808  31.372  30.527  1.00  0.00     0.074 A 
ATOM     49  C   UNL A   1      37.421  30.722  29.293  1.00  0.00     0.031 C 
ATOM     50  C   UNL A   1      42.656  27.733  32.625  1.00  0.00     0.029 A 
ATOM     51  C   UNL A   1      42.118  28.944  33.235  1.00  0.00     0.049 A 
ATOM     52  H   UNL A   1      40.534  30.113  32.552  1.00  0.00     0.167 HD
ATOM     53  C   UNL A   1      37.231  32.498  31.011  1.00  0.00     0.037 A 
ATOM     54  C   UNL A   1      42.572  29.514  34.366  1.00  0.00     0.037 A 
ATOM     55  C   UNL A   1      37.592  33.128  32.255  1.00  0.00     0.049 A 
ATOM     56  C   UNL A   1      41.906  30.754  34.891  1.00  0.00     0.074 A 
ATOM     57  C   UNL A   1      37.007  34.221  32.870  1.00  0.00     0.029 A 
ATOM     58  N   UNL A   1      38.639  32.726  33.070  1.00  0.00    -0.354 N 
ATOM     59  N   UNL A   1      40.885  31.414  34.401  1.00  0.00    -0.248 NA
ATOM     60  C   UNL A   1      42.454  31.323  36.129  1.00  0.00     0.031 C 
ATOM     61  C   UNL A   1      37.725  34.504  34.039  1.00  0.00     0.029 A 
ATOM     62  C   UNL A   1      38.733  33.564  34.169  1.00  0.00     0.049 A 
ATOM     63  H   UNL A   1      39.229  31.957  32.893  1.00  0.00     0.167 HD
ATOM     64  C   UNL A   1      40.654  32.462  35.282  1.00  0.00     0.074 A 
ATOM     65  C   UNL A   1      41.631  32.339  36.344  1.00  0.00     0.031 C 
ATOM     66  C   UNL A   1      39.714  33.436  35.217  1.00  0.00     0.037 A 
BRANCH  53  67
ATOM     67  C   UNL A   1      36.142  33.123  30.188  1.00  0.00     0.057 A 
ATOM     68  C   UNL A   1      34.786  32.900  30.463  1.00  0.00     0.134 A 
ATOM     69  C   UNL A   1      36.453  33.977  29.123  1.00  0.00     0.134 A 
ATOM     70  F   UNL A   1      34.421  32.083  31.463  1.00  0.00    -0.206 F 
ATOM     71  C   UNL A   1      33.780  33.479  29.689  1.00  0.00     0.040 A 
ATOM     72  C   UNL A   1      35.455  34.582  28.357  1.00  0.00     0.040 A 
ATOM     73  F   UNL A   1      37.732  34.239  28.810  1.00  0.00    -0.206 F 
ATOM     74  C   UNL A   1      34.114  34.327  28.635  1.00  0.00     0.006 A 
ENDBRANCH  53  67
BRANCH  54  75
ATOM     75  C   UNL A   1      43.691  28.887  35.111  1.00  0.00     0.057 A 
ATOM     76  C   UNL A   1      43.445  27.914  36.087  1.00  0.00     0.134 A 
ATOM     77  C   UNL A   1      45.023  29.241  34.870  1.00  0.00     0.134 A 
ATOM     78  F   UNL A   1      42.186  27.551  36.374  1.00  0.00    -0.206 F 
ATOM     79  C   UNL A   1      44.484  27.324  36.808  1.00  0.00     0.040 A 
ATOM     80  C   UNL A   1      46.073  28.643  35.569  1.00  0.00     0.040 A 
ATOM     81  F   UNL A   1      45.322  30.163  33.943  1.00  0.00    -0.206 F 
ATOM     82  C   UNL A   1      45.803  27.685  36.545  1.00  0.00     0.006 A 
ENDBRANCH  54  75
BRANCH  66  83
ATOM     83  C   UNL A   1      39.690  34.432  36.339  1.00  0.00     0.057 A 
ATOM     84  C   UNL A   1      40.399  35.638  36.270  1.00  0.00     0.134 A 
ATOM     85  C   UNL A   1      38.942  34.185  37.497  1.00  0.00     0.134 A 
ATOM     86  F   UNL A   1      41.147  35.926  35.195  1.00  0.00    -0.206 F 
ATOM     87  C   UNL A   1      40.387  36.551  37.326  1.00  0.00     0.040 A 
ATOM     88  C   UNL A   1      38.903  35.102  38.549  1.00  0.00     0.040 A 
ATOM     89  F   UNL A   1      38.235  33.052  37.624  1.00  0.00    -0.206 F 
ATOM     90  C   UNL A   1      39.634  36.285  38.468  1.00  0.00     0.006 A 
ENDBRANCH  66  83
ENDBRANCH  40  41
ENDBRANCH  32  35
ENDBRANCH  30  31
ENDBRANCH  29  30
ENDBRANCH  28  29
ENDBRANCH   1  28
TORSDOF 17
ENDMDL
