MODEL 1
REMARK VINA RESULT:     -11.9      0.000      0.000
REMARK SMILES CCN1C(=O)[C@@H](CC(=O)Nc2cccc(C(=O)NCCCCCCNC(=O)c3ccc(-c4c5nc(c(-c6c(F)cccc6F)c6ccc([nH]6)c(-c6c(F)cccc6F)c6nc(c(-c7c(F)cccc7F)c7ccc4[nH]7)C=C6)C=C5)cc3)c2)S/C1=[NH+]\c1cc(Cl)c(O)c(Cl)c1
REMARK SMILES IDX 20 1 19 2 18 3 16 4 17 5 15 7 11 8 12 9 82 10 13 11 14 12
REMARK SMILES IDX 10 13 8 14 9 15 7 17 6 18 3 19 4 20 84 21 5 22 83 23 85 24
REMARK SMILES IDX 2 26 1 27 86 28 87 29 94 30 88 31 92 32 89 33 90 34 93 35
REMARK SMILES IDX 91 36 21 38 22 39 23 40 24 41 25 42 26 43 27 45 28 46 29 47
REMARK SMILES IDX 81 48 30 49 80 50 31 51 32 52 33 53 74 54 34 55 79 56 73 57
REMARK SMILES IDX 75 58 35 59 78 60 72 61 71 62 36 64 62 65 45 66 61 67 46 68
REMARK SMILES IDX 49 69 60 70 76 71 47 72 48 73 59 75 77 76 50 77 37 78 38 79
REMARK SMILES IDX 43 80 39 81 40 82 42 83 44 84 41 85 63 86 64 87 69 88 65 89
REMARK SMILES IDX 66 90 68 91 70 92 67 93 51 94 52 95 57 96 53 97 54 98 56 99
REMARK SMILES IDX 58 100 55 101
REMARK H PARENT 18 6 10 16 85 25 91 37 25 44 75 63 49 74
REMARK Flexibility Score: inf
ROOT
ATOM      1  C   UNL A   1      34.993  31.688  28.259  1.00  0.00     0.021 C 
ENDROOT
BRANCH   1   2
ATOM      2  C   UNL A   1      33.931  31.164  27.297  1.00  0.00     0.116 C 
BRANCH   2   3
ATOM      3  N   UNL A   1      33.432  29.860  27.655  1.00  0.00    -0.352 N 
ATOM      4  C   UNL A   1      32.789  28.873  26.953  1.00  0.00     0.251 C 
ATOM      5  O   UNL A   1      32.680  27.786  27.524  1.00  0.00    -0.269 OA
ATOM      6  H   UNL A   1      33.584  29.630  28.601  1.00  0.00     0.163 HD
BRANCH   4   7
ATOM      7  C   UNL A   1      32.265  29.000  25.555  1.00  0.00     0.041 A 
ATOM      8  C   UNL A   1      32.197  28.529  23.160  1.00  0.00     0.041 A 
ATOM      9  C   UNL A   1      31.080  29.350  23.017  1.00  0.00     0.026 A 
ATOM     10  C   UNL A   1      32.850  28.457  24.401  1.00  0.00     0.040 A 
ATOM     11  C   UNL A   1      30.523  29.961  24.139  1.00  0.00     0.003 A 
ATOM     12  C   UNL A   1      31.092  29.759  25.398  1.00  0.00     0.014 A 
BRANCH   8  13
ATOM     13  N   UNL A   1      32.705  27.883  22.022  1.00  0.00    -0.326 N 
ATOM     14  C   UNL A   1      32.760  26.551  21.695  1.00  0.00     0.226 C 
ATOM     15  O   UNL A   1      33.712  26.165  21.011  1.00  0.00    -0.275 OA
ATOM     16  H   UNL A   1      33.087  28.487  21.345  1.00  0.00     0.169 HD
BRANCH  14  17
ATOM     17  C   UNL A   1      31.562  25.611  21.921  1.00  0.00     0.128 C 
BRANCH  17  18
ATOM     18  C   UNL A   1      31.690  24.642  23.070  1.00  0.00     0.183 C 
ATOM     19  N   UNL A   1      31.486  24.269  25.434  1.00  0.00    -0.190 N 
ATOM     20  C   UNL A   1      30.843  24.825  24.322  1.00  0.00     0.324 C 
ATOM     21  C   UNL A   1      32.825  23.998  25.284  1.00  0.00     0.319 C 
ATOM     22  O   UNL A   1      29.710  25.289  24.318  1.00  0.00    -0.245 OA
ATOM     23  S   UNL A   1      33.363  24.569  23.733  1.00  0.00    -0.022 SA
ATOM     24  N   UNL A   1      33.531  23.384  26.173  1.00  0.00    -0.235 N 
ATOM     25  H   UNL A   1      33.113  23.209  27.047  1.00  0.00     0.313 HD
BRANCH  19  26
ATOM     26  C   UNL A   1      30.751  24.136  26.696  1.00  0.00     0.243 C 
ATOM     27  C   UNL A   1      30.002  22.828  26.936  1.00  0.00     0.054 C 
ENDBRANCH  19  26
BRANCH  24  28
ATOM     28  C   UNL A   1      34.856  22.946  25.984  1.00  0.00     0.128 A 
ATOM     29  C   UNL A   1      35.037  21.633  25.531  1.00  0.00     0.076 A 
ATOM     30  C   UNL A   1      35.992  23.711  26.264  1.00  0.00     0.076 A 
ATOM     31  C   UNL A   1      36.318  21.115  25.309  1.00  0.00     0.088 A 
ATOM     32  C   UNL A   1      37.267  23.216  25.987  1.00  0.00     0.088 A 
ATOM     33  Cl  UNL A   1      36.467  19.473  24.797  1.00  0.00    -0.080 Cl
ATOM     34  C   UNL A   1      37.439  21.915  25.514  1.00  0.00     0.153 A 
ATOM     35  Cl  UNL A   1      38.633  24.246  26.226  1.00  0.00    -0.080 Cl
BRANCH  34  36
ATOM     36  O   UNL A   1      38.694  21.421  25.263  1.00  0.00    -0.505 OA
ATOM     37  H   UNL A   1      39.279  21.249  25.974  1.00  0.00     0.293 HD
ENDBRANCH  34  36
ENDBRANCH  24  28
ENDBRANCH  17  18
ENDBRANCH  14  17
ENDBRANCH   8  13
ENDBRANCH   4   7
ENDBRANCH   2   3
ENDBRANCH   1   2
BRANCH   1  38
ATOM     38  C   UNL A   1      34.427  32.665  29.292  1.00  0.00     0.002 C 
BRANCH  38  39
ATOM     39  C   UNL A   1      34.577  34.147  28.931  1.00  0.00     0.002 C 
BRANCH  39  40
ATOM     40  C   UNL A   1      33.297  34.980  28.964  1.00  0.00     0.021 C 
BRANCH  40  41
ATOM     41  C   UNL A   1      33.411  36.283  29.744  1.00  0.00     0.116 C 
BRANCH  41  42
ATOM     42  N   UNL A   1      32.472  36.340  30.855  1.00  0.00    -0.352 N 
ATOM     43  C   UNL A   1      32.517  35.718  32.074  1.00  0.00     0.251 C 
ATOM     44  H   UNL A   1      31.685  36.914  30.708  1.00  0.00     0.163 HD
ATOM     45  O   UNL A   1      31.529  35.730  32.807  1.00  0.00    -0.269 OA
BRANCH  43  46
ATOM     46  C   UNL A   1      33.745  35.020  32.502  1.00  0.00     0.039 A 
ATOM     47  C   UNL A   1      33.647  33.712  32.982  1.00  0.00     0.014 A 
ATOM     48  C   UNL A   1      34.987  35.659  32.444  1.00  0.00     0.014 A 
ATOM     49  C   UNL A   1      34.804  33.025  33.350  1.00  0.00     0.010 A 
ATOM     50  C   UNL A   1      36.145  34.945  32.727  1.00  0.00     0.010 A 
ATOM     51  C   UNL A   1      36.065  33.624  33.193  1.00  0.00    -0.014 A 
BRANCH  51  52
ATOM     52  C   UNL A   1      37.310  32.888  33.522  1.00  0.00     0.031 A 
ATOM     53  C   UNL A   1      38.062  33.203  34.785  1.00  0.00     0.074 A 
ATOM     54  C   UNL A   1      37.793  31.979  32.652  1.00  0.00     0.049 A 
ATOM     55  N   UNL A   1      39.195  32.711  35.218  1.00  0.00    -0.248 NA
ATOM     56  C   UNL A   1      37.478  34.226  35.667  1.00  0.00     0.031 C 
ATOM     57  C   UNL A   1      37.179  31.625  31.371  1.00  0.00     0.029 A 
ATOM     58  N   UNL A   1      38.916  31.194  32.713  1.00  0.00    -0.354 N 
ATOM     59  C   UNL A   1      39.462  33.372  36.410  1.00  0.00     0.074 A 
ATOM     60  C   UNL A   1      38.407  34.340  36.604  1.00  0.00     0.031 C 
ATOM     61  C   UNL A   1      37.919  30.673  30.779  1.00  0.00     0.029 A 
ATOM     62  C   UNL A   1      39.078  30.382  31.616  1.00  0.00     0.049 A 
ATOM     63  H   UNL A   1      39.546  31.211  33.468  1.00  0.00     0.167 HD
ATOM     64  C   UNL A   1      40.482  33.169  37.277  1.00  0.00     0.037 A 
ATOM     65  C   UNL A   1      40.057  29.508  31.316  1.00  0.00     0.037 A 
ATOM     66  C   UNL A   1      41.520  32.191  37.088  1.00  0.00     0.049 A 
ATOM     67  C   UNL A   1      41.188  29.315  32.288  1.00  0.00     0.074 A 
ATOM     68  C   UNL A   1      42.565  31.868  37.934  1.00  0.00     0.029 A 
ATOM     69  N   UNL A   1      41.645  31.380  35.969  1.00  0.00    -0.354 N 
ATOM     70  N   UNL A   1      41.389  29.893  33.449  1.00  0.00    -0.248 NA
ATOM     71  C   UNL A   1      42.225  28.345  31.913  1.00  0.00     0.031 C 
ATOM     72  C   UNL A   1      43.353  30.899  37.305  1.00  0.00     0.029 A 
ATOM     73  C   UNL A   1      42.767  30.576  36.091  1.00  0.00     0.049 A 
ATOM     74  H   UNL A   1      41.029  31.377  35.201  1.00  0.00     0.167 HD
ATOM     75  C   UNL A   1      42.558  29.337  33.953  1.00  0.00     0.074 A 
ATOM     76  C   UNL A   1      43.010  28.363  32.981  1.00  0.00     0.031 C 
ATOM     77  C   UNL A   1      43.200  29.608  35.116  1.00  0.00     0.037 A 
BRANCH  64  78
ATOM     78  C   UNL A   1      40.523  34.027  38.510  1.00  0.00     0.057 A 
ATOM     79  C   UNL A   1      41.262  35.217  38.560  1.00  0.00     0.134 A 
ATOM     80  C   UNL A   1      39.790  33.677  39.651  1.00  0.00     0.134 A 
ATOM     81  F   UNL A   1      41.997  35.606  37.507  1.00  0.00    -0.206 F 
ATOM     82  C   UNL A   1      41.293  36.012  39.708  1.00  0.00     0.040 A 
ATOM     83  C   UNL A   1      39.787  34.478  40.794  1.00  0.00     0.040 A 
ATOM     84  F   UNL A   1      39.055  32.554  39.672  1.00  0.00    -0.206 F 
ATOM     85  C   UNL A   1      40.547  35.646  40.827  1.00  0.00     0.006 A 
ENDBRANCH  64  78
BRANCH  65  86
ATOM     86  C   UNL A   1      40.005  28.736  30.048  1.00  0.00     0.057 A 
ATOM     87  C   UNL A   1      40.651  29.196  28.895  1.00  0.00     0.134 A 
ATOM     88  C   UNL A   1      39.302  27.529  29.954  1.00  0.00     0.134 A 
ATOM     89  F   UNL A   1      41.326  30.355  28.916  1.00  0.00    -0.206 F 
ATOM     90  C   UNL A   1      40.580  28.498  27.688  1.00  0.00     0.040 A 
ATOM     91  C   UNL A   1      39.247  26.805  28.762  1.00  0.00     0.040 A 
ATOM     92  F   UNL A   1      38.668  27.027  31.025  1.00  0.00    -0.206 F 
ATOM     93  C   UNL A   1      39.880  27.295  27.622  1.00  0.00     0.006 A 
ENDBRANCH  65  86
BRANCH  77  94
ATOM     94  C   UNL A   1      44.439  28.816  35.417  1.00  0.00     0.057 A 
ATOM     95  C   UNL A   1      45.713  29.260  35.041  1.00  0.00     0.134 A 
ATOM     96  C   UNL A   1      44.358  27.611  36.128  1.00  0.00     0.134 A 
ATOM     97  F   UNL A   1      45.860  30.399  34.348  1.00  0.00    -0.206 F 
ATOM     98  C   UNL A   1      46.859  28.520  35.338  1.00  0.00     0.040 A 
ATOM     99  C   UNL A   1      45.499  26.879  36.457  1.00  0.00     0.040 A 
ATOM    100  F   UNL A   1      43.169  27.134  36.527  1.00  0.00    -0.206 F 
ATOM    101  C   UNL A   1      46.754  27.330  36.055  1.00  0.00     0.006 A 
ENDBRANCH  77  94
ENDBRANCH  51  52
ENDBRANCH  43  46
ENDBRANCH  41  42
ENDBRANCH  40  41
ENDBRANCH  39  40
ENDBRANCH  38  39
ENDBRANCH   1  38
TORSDOF 19
ENDMDL
MODEL 2
REMARK VINA RESULT:     -11.8      1.703      2.200
REMARK SMILES CCN1C(=O)[C@@H](CC(=O)Nc2cccc(C(=O)NCCCCCCNC(=O)c3ccc(-c4c5nc(c(-c6c(F)cccc6F)c6ccc([nH]6)c(-c6c(F)cccc6F)c6nc(c(-c7c(F)cccc7F)c7ccc4[nH]7)C=C6)C=C5)cc3)c2)S/C1=[NH+]\c1cc(Cl)c(O)c(Cl)c1
REMARK SMILES IDX 20 1 19 2 18 3 16 4 17 5 15 7 11 8 12 9 82 10 13 11 14 12
REMARK SMILES IDX 10 13 8 14 9 15 7 17 6 18 3 19 4 20 84 21 5 22 83 23 85 24
REMARK SMILES IDX 2 26 1 27 86 28 87 29 94 30 88 31 92 32 89 33 90 34 93 35
REMARK SMILES IDX 91 36 21 38 22 39 23 40 24 41 25 42 26 43 27 45 28 46 29 47
REMARK SMILES IDX 81 48 30 49 80 50 31 51 32 52 33 53 74 54 34 55 79 56 73 57
REMARK SMILES IDX 75 58 35 59 78 60 72 61 71 62 36 64 62 65 45 66 61 67 46 68
REMARK SMILES IDX 49 69 60 70 76 71 47 72 48 73 59 75 77 76 50 77 37 78 38 79
REMARK SMILES IDX 43 80 39 81 40 82 42 83 44 84 41 85 63 86 64 87 69 88 65 89
REMARK SMILES IDX 66 90 68 91 70 92 67 93 51 94 52 95 57 96 53 97 54 98 56 99
REMARK SMILES IDX 58 100 55 101
REMARK H PARENT 18 6 10 16 85 25 91 37 25 44 75 63 49 74
REMARK Flexibility Score: inf
ROOT
ATOM      1  C   UNL A   1      34.939  31.772  28.297  1.00  0.00     0.021 C 
ENDROOT
BRANCH   1   2
ATOM      2  C   UNL A   1      33.928  31.212  27.302  1.00  0.00     0.116 C 
BRANCH   2   3
ATOM      3  N   UNL A   1      33.169  30.103  27.822  1.00  0.00    -0.352 N 
ATOM      4  C   UNL A   1      32.550  29.029  27.238  1.00  0.00     0.251 C 
ATOM      5  O   UNL A   1      32.154  28.148  28.005  1.00  0.00    -0.269 OA
ATOM      6  H   UNL A   1      33.075  30.122  28.803  1.00  0.00     0.163 HD
BRANCH   4   7
ATOM      7  C   UNL A   1      32.368  28.826  25.764  1.00  0.00     0.041 A 
ATOM      8  C   UNL A   1      32.790  27.776  23.601  1.00  0.00     0.041 A 
ATOM      9  C   UNL A   1      31.823  28.582  23.006  1.00  0.00     0.026 A 
ATOM     10  C   UNL A   1      33.138  27.987  24.945  1.00  0.00     0.040 A 
ATOM     11  C   UNL A   1      31.094  29.478  23.786  1.00  0.00     0.003 A 
ATOM     12  C   UNL A   1      31.343  29.572  25.157  1.00  0.00     0.014 A 
BRANCH   8  13
ATOM     13  N   UNL A   1      33.472  26.844  22.802  1.00  0.00    -0.326 N 
ATOM     14  C   UNL A   1      33.235  25.511  22.576  1.00  0.00     0.226 C 
ATOM     15  O   UNL A   1      34.209  24.781  22.364  1.00  0.00    -0.275 OA
ATOM     16  H   UNL A   1      34.251  27.208  22.323  1.00  0.00     0.169 HD
BRANCH  14  17
ATOM     17  C   UNL A   1      31.817  24.971  22.319  1.00  0.00     0.128 C 
BRANCH  17  18
ATOM     18  C   UNL A   1      31.335  23.901  23.266  1.00  0.00     0.183 C 
ATOM     19  N   UNL A   1      31.268  23.076  25.520  1.00  0.00    -0.190 N 
ATOM     20  C   UNL A   1      31.115  24.225  24.737  1.00  0.00     0.324 C 
ATOM     21  C   UNL A   1      31.897  22.013  24.916  1.00  0.00     0.319 C 
ATOM     22  O   UNL A   1      30.741  25.317  25.147  1.00  0.00    -0.245 OA
ATOM     23  S   UNL A   1      32.445  22.485  23.336  1.00  0.00    -0.022 SA
ATOM     24  N   UNL A   1      32.014  20.851  25.464  1.00  0.00    -0.235 N 
ATOM     25  H   UNL A   1      31.742  20.760  26.406  1.00  0.00     0.313 HD
BRANCH  19  26
ATOM     26  C   UNL A   1      30.882  23.114  26.935  1.00  0.00     0.243 C 
ATOM     27  C   UNL A   1      29.408  22.900  27.265  1.00  0.00     0.054 C 
ENDBRANCH  19  26
BRANCH  24  28
ATOM     28  C   UNL A   1      32.502  19.702  24.812  1.00  0.00     0.128 A 
ATOM     29  C   UNL A   1      32.187  19.553  23.455  1.00  0.00     0.076 A 
ATOM     30  C   UNL A   1      33.229  18.684  25.436  1.00  0.00     0.076 A 
ATOM     31  C   UNL A   1      32.635  18.447  22.725  1.00  0.00     0.088 A 
ATOM     32  C   UNL A   1      33.727  17.611  24.696  1.00  0.00     0.088 A 
ATOM     33  Cl  UNL A   1      32.168  18.306  21.069  1.00  0.00    -0.080 Cl
ATOM     34  C   UNL A   1      33.429  17.482  23.339  1.00  0.00     0.153 A 
ATOM     35  Cl  UNL A   1      34.732  16.447  25.484  1.00  0.00    -0.080 Cl
BRANCH  34  36
ATOM     36  O   UNL A   1      33.899  16.414  22.618  1.00  0.00    -0.505 OA
ATOM     37  H   UNL A   1      34.803  16.174  22.671  1.00  0.00     0.293 HD
ENDBRANCH  34  36
ENDBRANCH  24  28
ENDBRANCH  17  18
ENDBRANCH  14  17
ENDBRANCH   8  13
ENDBRANCH   4   7
ENDBRANCH   2   3
ENDBRANCH   1   2
BRANCH   1  38
ATOM     38  C   UNL A   1      34.344  32.850  29.205  1.00  0.00     0.002 C 
BRANCH  38  39
ATOM     39  C   UNL A   1      34.517  34.288  28.701  1.00  0.00     0.002 C 
BRANCH  39  40
ATOM     40  C   UNL A   1      33.286  35.189  28.801  1.00  0.00     0.021 C 
BRANCH  40  41
ATOM     41  C   UNL A   1      33.437  36.357  29.767  1.00  0.00     0.116 C 
BRANCH  41  42
ATOM     42  N   UNL A   1      32.454  36.311  30.839  1.00  0.00    -0.352 N 
ATOM     43  C   UNL A   1      32.473  35.608  32.015  1.00  0.00     0.251 C 
ATOM     44  H   UNL A   1      31.655  36.869  30.700  1.00  0.00     0.163 HD
ATOM     45  O   UNL A   1      31.458  35.541  32.707  1.00  0.00    -0.269 OA
BRANCH  43  46
ATOM     46  C   UNL A   1      33.705  34.920  32.445  1.00  0.00     0.039 A 
ATOM     47  C   UNL A   1      33.612  33.627  32.966  1.00  0.00     0.014 A 
ATOM     48  C   UNL A   1      34.948  35.552  32.348  1.00  0.00     0.014 A 
ATOM     49  C   UNL A   1      34.772  32.948  33.337  1.00  0.00     0.010 A 
ATOM     50  C   UNL A   1      36.109  34.843  32.635  1.00  0.00     0.010 A 
ATOM     51  C   UNL A   1      36.032  33.537  33.142  1.00  0.00    -0.014 A 
BRANCH  51  52
ATOM     52  C   UNL A   1      37.280  32.808  33.473  1.00  0.00     0.031 A 
ATOM     53  C   UNL A   1      38.027  33.126  34.738  1.00  0.00     0.074 A 
ATOM     54  C   UNL A   1      37.769  31.902  32.605  1.00  0.00     0.049 A 
ATOM     55  N   UNL A   1      39.162  32.640  35.174  1.00  0.00    -0.248 NA
ATOM     56  C   UNL A   1      37.436  34.146  35.619  1.00  0.00     0.031 C 
ATOM     57  C   UNL A   1      37.160  31.545  31.321  1.00  0.00     0.029 A 
ATOM     58  N   UNL A   1      38.896  31.122  32.667  1.00  0.00    -0.354 N 
ATOM     59  C   UNL A   1      39.423  33.302  36.366  1.00  0.00     0.074 A 
ATOM     60  C   UNL A   1      38.363  34.265  36.558  1.00  0.00     0.031 C 
ATOM     61  C   UNL A   1      37.906  30.596  30.731  1.00  0.00     0.029 A 
ATOM     62  C   UNL A   1      39.065  30.311  31.571  1.00  0.00     0.049 A 
ATOM     63  H   UNL A   1      39.524  31.142  33.424  1.00  0.00     0.167 HD
ATOM     64  C   UNL A   1      40.442  33.104  37.236  1.00  0.00     0.037 A 
ATOM     65  C   UNL A   1      40.049  29.442  31.273  1.00  0.00     0.037 A 
ATOM     66  C   UNL A   1      41.485  32.131  37.048  1.00  0.00     0.049 A 
ATOM     67  C   UNL A   1      41.178  29.255  32.248  1.00  0.00     0.074 A 
ATOM     68  C   UNL A   1      42.530  31.813  37.897  1.00  0.00     0.029 A 
ATOM     69  N   UNL A   1      41.617  31.321  35.929  1.00  0.00    -0.354 N 
ATOM     70  N   UNL A   1      41.374  29.833  33.408  1.00  0.00    -0.248 NA
ATOM     71  C   UNL A   1      42.221  28.290  31.874  1.00  0.00     0.031 C 
ATOM     72  C   UNL A   1      43.325  30.848  37.269  1.00  0.00     0.029 A 
ATOM     73  C   UNL A   1      42.742  30.523  36.054  1.00  0.00     0.049 A 
ATOM     74  H   UNL A   1      41.002  31.315  35.160  1.00  0.00     0.167 HD
ATOM     75  C   UNL A   1      42.544  29.283  33.915  1.00  0.00     0.074 A 
ATOM     76  C   UNL A   1      43.003  28.312  32.944  1.00  0.00     0.031 C 
ATOM     77  C   UNL A   1      43.182  29.557  35.079  1.00  0.00     0.037 A 
BRANCH  64  78
ATOM     78  C   UNL A   1      40.476  33.961  38.469  1.00  0.00     0.057 A 
ATOM     79  C   UNL A   1      39.851  33.569  39.661  1.00  0.00     0.134 A 
ATOM     80  C   UNL A   1      41.171  35.177  38.478  1.00  0.00     0.134 A 
ATOM     81  F   UNL A   1      39.157  32.422  39.719  1.00  0.00    -0.206 F 
ATOM     82  C   UNL A   1      39.889  34.368  40.806  1.00  0.00     0.040 A 
ATOM     83  C   UNL A   1      41.244  35.970  39.624  1.00  0.00     0.040 A 
ATOM     84  F   UNL A   1      41.799  35.611  37.375  1.00  0.00    -0.206 F 
ATOM     85  C   UNL A   1      40.595  35.569  40.791  1.00  0.00     0.006 A 
ENDBRANCH  64  78
BRANCH  65  86
ATOM     86  C   UNL A   1      40.003  28.670  30.005  1.00  0.00     0.057 A 
ATOM     87  C   UNL A   1      40.657  29.130  28.856  1.00  0.00     0.134 A 
ATOM     88  C   UNL A   1      39.299  27.464  29.906  1.00  0.00     0.134 A 
ATOM     89  F   UNL A   1      41.333  30.287  28.881  1.00  0.00    -0.206 F 
ATOM     90  C   UNL A   1      40.593  28.432  27.648  1.00  0.00     0.040 A 
ATOM     91  C   UNL A   1      39.251  26.740  28.713  1.00  0.00     0.040 A 
ATOM     92  F   UNL A   1      38.659  26.963  30.973  1.00  0.00    -0.206 F 
ATOM     93  C   UNL A   1      39.892  27.229  27.577  1.00  0.00     0.006 A 
ENDBRANCH  65  86
BRANCH  77  94
ATOM     94  C   UNL A   1      44.425  28.771  35.383  1.00  0.00     0.057 A 
ATOM     95  C   UNL A   1      45.697  29.219  35.005  1.00  0.00     0.134 A 
ATOM     96  C   UNL A   1      44.349  27.569  36.099  1.00  0.00     0.134 A 
ATOM     97  F   UNL A   1      45.839  30.355  34.307  1.00  0.00    -0.206 F 
ATOM     98  C   UNL A   1      46.846  28.485  35.305  1.00  0.00     0.040 A 
ATOM     99  C   UNL A   1      45.493  26.843  36.431  1.00  0.00     0.040 A 
ATOM    100  F   UNL A   1      43.162  27.088  36.501  1.00  0.00    -0.206 F 
ATOM    101  C   UNL A   1      46.746  27.297  36.026  1.00  0.00     0.006 A 
ENDBRANCH  77  94
ENDBRANCH  51  52
ENDBRANCH  43  46
ENDBRANCH  41  42
ENDBRANCH  40  41
ENDBRANCH  39  40
ENDBRANCH  38  39
ENDBRANCH   1  38
TORSDOF 19
ENDMDL
MODEL 3
REMARK VINA RESULT:     -10.9      7.046     13.832
REMARK SMILES CCN1C(=O)[C@@H](CC(=O)Nc2cccc(C(=O)NCCCCCCNC(=O)c3ccc(-c4c5nc(c(-c6c(F)cccc6F)c6ccc([nH]6)c(-c6c(F)cccc6F)c6nc(c(-c7c(F)cccc7F)c7ccc4[nH]7)C=C6)C=C5)cc3)c2)S/C1=[NH+]\c1cc(Cl)c(O)c(Cl)c1
REMARK SMILES IDX 20 1 19 2 18 3 16 4 17 5 15 7 11 8 12 9 82 10 13 11 14 12
REMARK SMILES IDX 10 13 8 14 9 15 7 17 6 18 3 19 4 20 84 21 5 22 83 23 85 24
REMARK SMILES IDX 2 26 1 27 86 28 87 29 94 30 88 31 92 32 89 33 90 34 93 35
REMARK SMILES IDX 91 36 21 38 22 39 23 40 24 41 25 42 26 43 27 45 28 46 29 47
REMARK SMILES IDX 81 48 30 49 80 50 31 51 32 52 33 53 74 54 34 55 79 56 73 57
REMARK SMILES IDX 75 58 35 59 78 60 72 61 71 62 36 64 62 65 45 66 61 67 46 68
REMARK SMILES IDX 49 69 60 70 76 71 47 72 48 73 59 75 77 76 50 77 37 78 38 79
REMARK SMILES IDX 43 80 39 81 40 82 42 83 44 84 41 85 63 86 64 87 69 88 65 89
REMARK SMILES IDX 66 90 68 91 70 92 67 93 51 94 52 95 57 96 53 97 54 98 56 99
REMARK SMILES IDX 58 100 55 101
REMARK H PARENT 18 6 10 16 85 25 91 37 25 44 75 63 49 74
REMARK Flexibility Score: inf
ROOT
ATOM      1  C   UNL A   1      45.838  22.408  25.057  1.00  0.00     0.021 C 
ENDROOT
BRANCH   1   2
ATOM      2  C   UNL A   1      46.165  23.771  24.455  1.00  0.00     0.116 C 
BRANCH   2   3
ATOM      3  N   UNL A   1      45.876  24.870  25.342  1.00  0.00    -0.352 N 
ATOM      4  C   UNL A   1      46.651  25.837  25.927  1.00  0.00     0.251 C 
ATOM      5  O   UNL A   1      46.045  26.758  26.477  1.00  0.00    -0.269 OA
ATOM      6  H   UNL A   1      44.922  24.941  25.576  1.00  0.00     0.163 HD
BRANCH   4   7
ATOM      7  C   UNL A   1      48.149  25.882  25.903  1.00  0.00     0.041 A 
ATOM      8  C   UNL A   1      50.332  26.730  25.211  1.00  0.00     0.041 A 
ATOM      9  C   UNL A   1      50.967  25.822  26.057  1.00  0.00     0.026 A 
ATOM     10  C   UNL A   1      48.938  26.671  25.053  1.00  0.00     0.040 A 
ATOM     11  C   UNL A   1      50.205  24.975  26.860  1.00  0.00     0.003 A 
ATOM     12  C   UNL A   1      48.810  25.031  26.806  1.00  0.00     0.014 A 
BRANCH   8  13
ATOM     13  N   UNL A   1      51.124  27.608  24.454  1.00  0.00    -0.326 N 
ATOM     14  C   UNL A   1      51.641  28.842  24.761  1.00  0.00     0.226 C 
ATOM     15  O   UNL A   1      51.768  29.657  23.843  1.00  0.00    -0.275 OA
ATOM     16  H   UNL A   1      51.344  27.285  23.551  1.00  0.00     0.169 HD
BRANCH  14  17
ATOM     17  C   UNL A   1      52.298  29.130  26.122  1.00  0.00     0.128 C 
BRANCH  17  18
ATOM     18  C   UNL A   1      51.595  30.138  26.996  1.00  0.00     0.183 C 
ATOM     19  N   UNL A   1      50.673  30.652  29.153  1.00  0.00    -0.190 N 
ATOM     20  C   UNL A   1      51.788  30.108  28.506  1.00  0.00     0.324 C 
ATOM     21  C   UNL A   1      49.534  30.777  28.392  1.00  0.00     0.319 C 
ATOM     22  O   UNL A   1      52.827  29.763  29.055  1.00  0.00    -0.245 OA
ATOM     23  S   UNL A   1      49.803  30.074  26.826  1.00  0.00    -0.022 SA
ATOM     24  N   UNL A   1      48.461  31.360  28.808  1.00  0.00    -0.235 N 
ATOM     25  H   UNL A   1      48.421  31.623  29.756  1.00  0.00     0.313 HD
BRANCH  19  26
ATOM     26  C   UNL A   1      50.740  30.925  30.593  1.00  0.00     0.243 C 
ATOM     27  C   UNL A   1      50.409  29.776  31.541  1.00  0.00     0.054 C 
ENDBRANCH  19  26
BRANCH  24  28
ATOM     28  C   UNL A   1      47.342  31.650  28.004  1.00  0.00     0.128 A 
ATOM     29  C   UNL A   1      46.313  30.700  27.974  1.00  0.00     0.076 A 
ATOM     30  C   UNL A   1      47.213  32.788  27.202  1.00  0.00     0.076 A 
ATOM     31  C   UNL A   1      45.160  30.905  27.208  1.00  0.00     0.088 A 
ATOM     32  C   UNL A   1      46.039  33.023  26.486  1.00  0.00     0.088 A 
ATOM     33  Cl  UNL A   1      43.955  29.670  27.181  1.00  0.00    -0.080 Cl
ATOM     34  C   UNL A   1      45.008  32.083  26.479  1.00  0.00     0.153 A 
ATOM     35  Cl  UNL A   1      45.874  34.506  25.615  1.00  0.00    -0.080 Cl
BRANCH  34  36
ATOM     36  O   UNL A   1      43.865  32.303  25.755  1.00  0.00    -0.505 OA
ATOM     37  H   UNL A   1      43.467  33.151  25.755  1.00  0.00     0.293 HD
ENDBRANCH  34  36
ENDBRANCH  24  28
ENDBRANCH  17  18
ENDBRANCH  14  17
ENDBRANCH   8  13
ENDBRANCH   4   7
ENDBRANCH   2   3
ENDBRANCH   1   2
BRANCH   1  38
ATOM     38  C   UNL A   1      46.459  21.250  24.274  1.00  0.00     0.002 C 
BRANCH  38  39
ATOM     39  C   UNL A   1      46.451  19.900  25.002  1.00  0.00     0.002 C 
BRANCH  39  40
ATOM     40  C   UNL A   1      45.177  19.068  24.861  1.00  0.00     0.021 C 
BRANCH  40  41
ATOM     41  C   UNL A   1      44.246  19.131  26.064  1.00  0.00     0.116 C 
BRANCH  41  42
ATOM     42  N   UNL A   1      42.857  18.897  25.694  1.00  0.00    -0.352 N 
ATOM     43  C   UNL A   1      41.741  19.644  25.964  1.00  0.00     0.251 C 
ATOM     44  H   UNL A   1      42.695  18.079  25.171  1.00  0.00     0.163 HD
ATOM     45  O   UNL A   1      40.623  19.181  25.740  1.00  0.00    -0.269 OA
BRANCH  43  46
ATOM     46  C   UNL A   1      41.878  20.996  26.537  1.00  0.00     0.039 A 
ATOM     47  C   UNL A   1      41.605  21.187  27.894  1.00  0.00     0.014 A 
ATOM     48  C   UNL A   1      42.260  22.076  25.737  1.00  0.00     0.014 A 
ATOM     49  C   UNL A   1      41.771  22.452  28.459  1.00  0.00     0.010 A 
ATOM     50  C   UNL A   1      42.510  23.314  26.318  1.00  0.00     0.010 A 
ATOM     51  C   UNL A   1      42.258  23.517  27.683  1.00  0.00    -0.014 A 
BRANCH  51  52
ATOM     52  C   UNL A   1      42.499  24.853  28.280  1.00  0.00     0.031 A 
ATOM     53  C   UNL A   1      43.848  25.193  28.850  1.00  0.00     0.074 A 
ATOM     54  C   UNL A   1      41.485  25.737  28.359  1.00  0.00     0.049 A 
ATOM     55  N   UNL A   1      44.237  26.282  29.463  1.00  0.00    -0.248 NA
ATOM     56  C   UNL A   1      44.892  24.161  28.744  1.00  0.00     0.031 C 
ATOM     57  C   UNL A   1      40.119  25.503  27.886  1.00  0.00     0.029 A 
ATOM     58  N   UNL A   1      41.446  27.007  28.875  1.00  0.00    -0.354 N 
ATOM     59  C   UNL A   1      45.559  26.062  29.823  1.00  0.00     0.074 A 
ATOM     60  C   UNL A   1      45.890  24.715  29.415  1.00  0.00     0.031 C 
ATOM     61  C   UNL A   1      39.383  26.604  28.109  1.00  0.00     0.029 A 
ATOM     62  C   UNL A   1      40.211  27.602  28.778  1.00  0.00     0.049 A 
ATOM     63  H   UNL A   1      42.227  27.450  29.277  1.00  0.00     0.167 HD
ATOM     64  C   UNL A   1      46.427  26.915  30.416  1.00  0.00     0.037 A 
ATOM     65  C   UNL A   1      39.792  28.814  29.189  1.00  0.00     0.037 A 
ATOM     66  C   UNL A   1      46.097  28.261  30.803  1.00  0.00     0.049 A 
ATOM     67  C   UNL A   1      40.772  29.735  29.862  1.00  0.00     0.074 A 
ATOM     68  C   UNL A   1      46.919  29.225  31.358  1.00  0.00     0.029 A 
ATOM     69  N   UNL A   1      44.838  28.831  30.680  1.00  0.00    -0.354 N 
ATOM     70  N   UNL A   1      42.041  29.542  30.129  1.00  0.00    -0.248 NA
ATOM     71  C   UNL A   1      40.263  31.046  30.285  1.00  0.00     0.031 C 
ATOM     72  C   UNL A   1      46.146  30.361  31.619  1.00  0.00     0.029 A 
ATOM     73  C   UNL A   1      44.855  30.125  31.173  1.00  0.00     0.049 A 
ATOM     74  H   UNL A   1      44.049  28.382  30.298  1.00  0.00     0.167 HD
ATOM     75  C   UNL A   1      42.488  30.714  30.725  1.00  0.00     0.074 A 
ATOM     76  C   UNL A   1      41.358  31.620  30.763  1.00  0.00     0.031 C 
ATOM     77  C   UNL A   1      43.722  31.015  31.198  1.00  0.00     0.037 A 
BRANCH  64  78
ATOM     78  C   UNL A   1      47.818  26.415  30.683  1.00  0.00     0.057 A 
ATOM     79  C   UNL A   1      48.899  26.759  29.859  1.00  0.00     0.134 A 
ATOM     80  C   UNL A   1      48.089  25.607  31.795  1.00  0.00     0.134 A 
ATOM     81  F   UNL A   1      48.710  27.519  28.770  1.00  0.00    -0.206 F 
ATOM     82  C   UNL A   1      50.191  26.294  30.115  1.00  0.00     0.040 A 
ATOM     83  C   UNL A   1      49.380  25.162  32.079  1.00  0.00     0.040 A 
ATOM     84  F   UNL A   1      47.103  25.245  32.630  1.00  0.00    -0.206 F 
ATOM     85  C   UNL A   1      50.435  25.499  31.232  1.00  0.00     0.006 A 
ENDBRANCH  64  78
BRANCH  65  86
ATOM     86  C   UNL A   1      38.386  29.233  28.964  1.00  0.00     0.057 A 
ATOM     87  C   UNL A   1      37.443  29.184  29.998  1.00  0.00     0.134 A 
ATOM     88  C   UNL A   1      37.946  29.681  27.713  1.00  0.00     0.134 A 
ATOM     89  F   UNL A   1      37.798  28.746  31.215  1.00  0.00    -0.206 F 
ATOM     90  C   UNL A   1      36.109  29.541  29.790  1.00  0.00     0.040 A 
ATOM     91  C   UNL A   1      36.623  30.070  27.498  1.00  0.00     0.040 A 
ATOM     92  F   UNL A   1      38.801  29.761  26.682  1.00  0.00    -0.206 F 
ATOM     93  C   UNL A   1      35.698  29.991  28.537  1.00  0.00     0.006 A 
ENDBRANCH  65  86
BRANCH  77  94
ATOM     94  C   UNL A   1      43.924  32.390  31.765  1.00  0.00     0.057 A 
ATOM     95  C   UNL A   1      43.717  32.672  33.121  1.00  0.00     0.134 A 
ATOM     96  C   UNL A   1      44.369  33.438  30.949  1.00  0.00     0.134 A 
ATOM     97  F   UNL A   1      43.279  31.717  33.956  1.00  0.00    -0.206 F 
ATOM     98  C   UNL A   1      43.920  33.953  33.640  1.00  0.00     0.040 A 
ATOM     99  C   UNL A   1      44.605  34.714  31.461  1.00  0.00     0.040 A 
ATOM    100  F   UNL A   1      44.596  33.235  29.642  1.00  0.00    -0.206 F 
ATOM    101  C   UNL A   1      44.373  34.975  32.809  1.00  0.00     0.006 A 
ENDBRANCH  77  94
ENDBRANCH  51  52
ENDBRANCH  43  46
ENDBRANCH  41  42
ENDBRANCH  40  41
ENDBRANCH  39  40
ENDBRANCH  38  39
ENDBRANCH   1  38
TORSDOF 19
ENDMDL
