MODEL 1
REMARK VINA RESULT:      -9.3      0.000      0.000
REMARK SMILES C[C@@H](C(=O)NCCCCCCNC(=O)c1ccc(-c2c3nc(c(-c4c(F)cccc4F)c4ccc([nH]4)c(-c4c(F)cccc4F)c4nc(c(-c5c(F)cccc5F)c5ccc2[nH]5)C=C4)C=C3)cc1)c1cccn(C(F)F)c1=O
REMARK SMILES IDX 8 1 7 2 6 3 5 4 3 5 4 6 2 8 1 9 69 10 70 11 77 12 71 13
REMARK SMILES IDX 73 14 78 15 72 16 74 17 75 18 76 19 9 20 10 21 11 22 12 23
REMARK SMILES IDX 13 24 14 26 15 27 16 28 68 29 17 30 67 31 18 32 19 33 20 34
REMARK SMILES IDX 61 35 21 36 66 37 60 38 62 39 22 40 65 41 59 42 58 43 23 45
REMARK SMILES IDX 49 46 32 47 48 48 33 49 36 50 47 51 63 52 34 53 35 54 46 56
REMARK SMILES IDX 64 57 37 58 24 59 25 60 30 61 26 62 27 63 29 64 31 65 28 66
REMARK SMILES IDX 50 67 51 68 56 69 52 70 53 71 55 72 57 73 54 74 38 75 39 76
REMARK SMILES IDX 44 77 40 78 41 79 43 80 45 81 42 82
REMARK H PARENT 5 7 12 25 62 44 36 55
REMARK Flexibility Score: inf
ROOT
ATOM      1  C   UNL A   1      46.442  20.785  24.615  1.00  0.00     0.002 C 
ENDROOT
BRANCH   1   2
ATOM      2  C   UNL A   1      45.199  21.506  24.077  1.00  0.00     0.021 C 
BRANCH   2   3
ATOM      3  C   UNL A   1      45.185  23.019  24.330  1.00  0.00     0.116 C 
BRANCH   3   4
ATOM      4  N   UNL A   1      45.965  23.336  25.510  1.00  0.00    -0.356 N 
ATOM      5  C   UNL A   1      46.747  24.426  25.760  1.00  0.00     0.227 C 
ATOM      6  O   UNL A   1      47.630  24.281  26.607  1.00  0.00    -0.274 OA
ATOM      7  H   UNL A   1      45.927  22.669  26.233  1.00  0.00     0.163 HD
BRANCH   5   8
ATOM      8  C   UNL A   1      46.495  25.751  24.999  1.00  0.00     0.111 C 
ATOM      9  C   UNL A   1      47.853  26.247  24.479  1.00  0.00     0.023 C 
BRANCH   8  10
ATOM     10  C   UNL A   1      45.735  26.785  25.836  1.00  0.00     0.030 A 
ATOM     11  C   UNL A   1      46.295  27.597  26.758  1.00  0.00     0.012 A 
ATOM     12  C   UNL A   1      44.241  26.919  25.639  1.00  0.00     0.258 A 
ATOM     13  C   UNL A   1      45.564  28.655  27.405  1.00  0.00     0.019 A 
ATOM     14  N   UNL A   1      43.629  28.012  26.229  1.00  0.00    -0.258 N 
ATOM     15  O   UNL A   1      43.615  26.088  24.987  1.00  0.00    -0.269 OA
ATOM     16  C   UNL A   1      44.282  28.856  27.101  1.00  0.00     0.095 A 
BRANCH  14  17
ATOM     17  C   UNL A   1      42.232  28.229  25.949  1.00  0.00     0.451 C 
ATOM     18  F   UNL A   1      41.782  29.289  26.674  1.00  0.00    -0.185 F 
ATOM     19  F   UNL A   1      42.080  28.574  24.641  1.00  0.00    -0.185 F 
ENDBRANCH  14  17
ENDBRANCH   8  10
ENDBRANCH   5   8
ENDBRANCH   3   4
ENDBRANCH   2   3
ENDBRANCH   1   2
BRANCH   1  20
ATOM     20  C   UNL A   1      46.170  19.424  25.259  1.00  0.00     0.002 C 
BRANCH  20  21
ATOM     21  C   UNL A   1      44.764  18.875  25.014  1.00  0.00     0.021 C 
BRANCH  21  22
ATOM     22  C   UNL A   1      43.801  19.088  26.174  1.00  0.00     0.116 C 
BRANCH  22  23
ATOM     23  N   UNL A   1      42.421  18.821  25.794  1.00  0.00    -0.352 N 
ATOM     24  C   UNL A   1      41.303  19.572  26.060  1.00  0.00     0.251 C 
ATOM     25  H   UNL A   1      42.271  17.995  25.280  1.00  0.00     0.163 HD
ATOM     26  O   UNL A   1      40.180  19.126  25.850  1.00  0.00    -0.269 OA
BRANCH  24  27
ATOM     27  C   UNL A   1      41.471  20.926  26.621  1.00  0.00     0.039 A 
ATOM     28  C   UNL A   1      41.272  21.133  27.988  1.00  0.00     0.014 A 
ATOM     29  C   UNL A   1      41.860  21.981  25.790  1.00  0.00     0.014 A 
ATOM     30  C   UNL A   1      41.521  22.394  28.535  1.00  0.00     0.010 A 
ATOM     31  C   UNL A   1      42.182  23.210  26.349  1.00  0.00     0.010 A 
ATOM     32  C   UNL A   1      42.006  23.432  27.725  1.00  0.00    -0.014 A 
BRANCH  32  33
ATOM     33  C   UNL A   1      42.308  24.779  28.267  1.00  0.00     0.031 A 
ATOM     34  C   UNL A   1      43.667  25.051  28.846  1.00  0.00     0.074 A 
ATOM     35  C   UNL A   1      41.341  25.713  28.341  1.00  0.00     0.049 A 
ATOM     36  N   UNL A   1      44.089  26.085  29.525  1.00  0.00    -0.248 NA
ATOM     37  C   UNL A   1      44.675  23.993  28.671  1.00  0.00     0.031 C 
ATOM     38  C   UNL A   1      39.974  25.559  27.843  1.00  0.00     0.029 A 
ATOM     39  N   UNL A   1      41.357  26.970  28.890  1.00  0.00    -0.354 N 
ATOM     40  C   UNL A   1      45.399  25.790  29.883  1.00  0.00     0.074 A 
ATOM     41  C   UNL A   1      45.681  24.458  29.394  1.00  0.00     0.031 C 
ATOM     42  C   UNL A   1      39.283  26.680  28.107  1.00  0.00     0.029 A 
ATOM     43  C   UNL A   1      40.144  27.610  28.833  1.00  0.00     0.049 A 
ATOM     44  H   UNL A   1      42.162  27.374  29.288  1.00  0.00     0.167 HD
ATOM     45  C   UNL A   1      46.290  26.565  30.545  1.00  0.00     0.037 A 
ATOM     46  C   UNL A   1      39.761  28.802  29.330  1.00  0.00     0.037 A 
ATOM     47  C   UNL A   1      46.007  27.898  31.007  1.00  0.00     0.049 A 
ATOM     48  C   UNL A   1      40.761  29.646  30.070  1.00  0.00     0.074 A 
ATOM     49  C   UNL A   1      46.856  28.791  31.636  1.00  0.00     0.029 A 
ATOM     50  N   UNL A   1      44.775  28.526  30.894  1.00  0.00    -0.354 N 
ATOM     51  N   UNL A   1      42.013  29.381  30.358  1.00  0.00    -0.248 NA
ATOM     52  C   UNL A   1      40.301  30.956  30.551  1.00  0.00     0.031 C 
ATOM     53  C   UNL A   1      46.124  29.940  31.950  1.00  0.00     0.029 A 
ATOM     54  C   UNL A   1      44.835  29.788  31.462  1.00  0.00     0.049 A 
ATOM     55  H   UNL A   1      43.976  28.133  30.474  1.00  0.00     0.167 HD
ATOM     56  C   UNL A   1      42.500  30.502  31.018  1.00  0.00     0.074 A 
ATOM     57  C   UNL A   1      41.407  31.450  31.091  1.00  0.00     0.031 C 
ATOM     58  C   UNL A   1      43.743  30.727  31.510  1.00  0.00     0.037 A 
BRANCH  45  59
ATOM     59  C   UNL A   1      47.644  25.976  30.817  1.00  0.00     0.057 A 
ATOM     60  C   UNL A   1      47.982  25.430  32.064  1.00  0.00     0.134 A 
ATOM     61  C   UNL A   1      48.629  25.959  29.821  1.00  0.00     0.134 A 
ATOM     62  F   UNL A   1      47.091  25.424  33.068  1.00  0.00    -0.206 F 
ATOM     63  C   UNL A   1      49.261  24.932  32.323  1.00  0.00     0.040 A 
ATOM     64  C   UNL A   1      49.899  25.433  30.057  1.00  0.00     0.040 A 
ATOM     65  F   UNL A   1      48.373  26.457  28.601  1.00  0.00    -0.206 F 
ATOM     66  C   UNL A   1      50.222  24.929  31.315  1.00  0.00     0.006 A 
ENDBRANCH  45  59
BRANCH  46  67
ATOM     67  C   UNL A   1      38.368  29.270  29.122  1.00  0.00     0.057 A 
ATOM     68  C   UNL A   1      37.943  29.739  27.875  1.00  0.00     0.134 A 
ATOM     69  C   UNL A   1      37.421  29.233  30.154  1.00  0.00     0.134 A 
ATOM     70  F   UNL A   1      38.808  29.814  26.853  1.00  0.00    -0.206 F 
ATOM     71  C   UNL A   1      36.630  30.164  27.661  1.00  0.00     0.040 A 
ATOM     72  C   UNL A   1      36.099  29.632  29.948  1.00  0.00     0.040 A 
ATOM     73  F   UNL A   1      37.762  28.783  31.370  1.00  0.00    -0.206 F 
ATOM     74  C   UNL A   1      35.703  30.104  28.699  1.00  0.00     0.006 A 
ENDBRANCH  46  67
BRANCH  58  75
ATOM     75  C   UNL A   1      44.017  32.070  32.122  1.00  0.00     0.057 A 
ATOM     76  C   UNL A   1      44.427  33.169  31.357  1.00  0.00     0.134 A 
ATOM     77  C   UNL A   1      43.790  32.281  33.489  1.00  0.00     0.134 A 
ATOM     78  F   UNL A   1      44.672  33.031  30.046  1.00  0.00    -0.206 F 
ATOM     79  C   UNL A   1      44.608  34.429  31.933  1.00  0.00     0.040 A 
ATOM     80  C   UNL A   1      43.943  33.540  34.070  1.00  0.00     0.040 A 
ATOM     81  F   UNL A   1      43.389  31.271  34.276  1.00  0.00    -0.206 F 
ATOM     82  C   UNL A   1      44.354  34.619  33.291  1.00  0.00     0.006 A 
ENDBRANCH  58  75
ENDBRANCH  32  33
ENDBRANCH  24  27
ENDBRANCH  22  23
ENDBRANCH  21  22
ENDBRANCH  20  21
ENDBRANCH   1  20
TORSDOF 15
ENDMDL
MODEL 2
REMARK VINA RESULT:      -9.0      6.280     12.311
REMARK SMILES C[C@@H](C(=O)NCCCCCCNC(=O)c1ccc(-c2c3nc(c(-c4c(F)cccc4F)c4ccc([nH]4)c(-c4c(F)cccc4F)c4nc(c(-c5c(F)cccc5F)c5ccc2[nH]5)C=C4)C=C3)cc1)c1cccn(C(F)F)c1=O
REMARK SMILES IDX 8 1 7 2 6 3 5 4 3 5 4 6 2 8 1 9 69 10 70 11 77 12 71 13
REMARK SMILES IDX 73 14 78 15 72 16 74 17 75 18 76 19 9 20 10 21 11 22 12 23
REMARK SMILES IDX 13 24 14 26 15 27 16 28 68 29 17 30 67 31 18 32 19 33 20 34
REMARK SMILES IDX 61 35 21 36 66 37 60 38 62 39 22 40 65 41 59 42 58 43 23 45
REMARK SMILES IDX 49 46 32 47 48 48 33 49 36 50 47 51 63 52 34 53 35 54 46 56
REMARK SMILES IDX 64 57 37 58 24 59 25 60 30 61 26 62 27 63 29 64 31 65 28 66
REMARK SMILES IDX 50 67 51 68 56 69 52 70 53 71 55 72 57 73 54 74 38 75 39 76
REMARK SMILES IDX 44 77 40 78 41 79 43 80 45 81 42 82
REMARK H PARENT 5 7 12 25 62 44 36 55
REMARK Flexibility Score: inf
ROOT
ATOM      1  C   UNL A   1      34.574  32.870  29.161  1.00  0.00     0.002 C 
ENDROOT
BRANCH   1   2
ATOM      2  C   UNL A   1      34.703  31.519  28.445  1.00  0.00     0.021 C 
BRANCH   2   3
ATOM      3  C   UNL A   1      33.517  31.168  27.537  1.00  0.00     0.116 C 
BRANCH   3   4
ATOM      4  N   UNL A   1      33.945  30.276  26.477  1.00  0.00    -0.356 N 
ATOM      5  C   UNL A   1      33.334  29.156  25.992  1.00  0.00     0.227 C 
ATOM      6  O   UNL A   1      34.062  28.342  25.421  1.00  0.00    -0.274 OA
ATOM      7  H   UNL A   1      34.799  30.511  26.048  1.00  0.00     0.163 HD
BRANCH   5   8
ATOM      8  C   UNL A   1      31.808  28.968  26.170  1.00  0.00     0.111 C 
ATOM      9  C   UNL A   1      31.588  27.604  26.841  1.00  0.00     0.023 C 
BRANCH   8  10
ATOM     10  C   UNL A   1      31.028  29.150  24.863  1.00  0.00     0.030 A 
ATOM     11  C   UNL A   1      30.898  28.212  23.902  1.00  0.00     0.012 A 
ATOM     12  C   UNL A   1      30.350  30.478  24.603  1.00  0.00     0.258 A 
ATOM     13  C   UNL A   1      30.029  28.379  22.767  1.00  0.00     0.019 A 
ATOM     14  N   UNL A   1      29.466  30.530  23.539  1.00  0.00    -0.258 N 
ATOM     15  O   UNL A   1      30.586  31.454  25.310  1.00  0.00    -0.269 OA
ATOM     16  C   UNL A   1      29.318  29.500  22.637  1.00  0.00     0.095 A 
BRANCH  14  17
ATOM     17  C   UNL A   1      28.714  31.745  23.352  1.00  0.00     0.451 C 
ATOM     18  F   UNL A   1      28.548  31.977  22.022  1.00  0.00    -0.185 F 
ATOM     19  F   UNL A   1      27.464  31.590  23.868  1.00  0.00    -0.185 F 
ENDBRANCH  14  17
ENDBRANCH   8  10
ENDBRANCH   5   8
ENDBRANCH   3   4
ENDBRANCH   2   3
ENDBRANCH   1   2
BRANCH   1  20
ATOM     20  C   UNL A   1      34.156  34.037  28.265  1.00  0.00     0.002 C 
BRANCH  20  21
ATOM     21  C   UNL A   1      33.010  34.885  28.816  1.00  0.00     0.021 C 
BRANCH  21  22
ATOM     22  C   UNL A   1      33.462  36.116  29.591  1.00  0.00     0.116 C 
BRANCH  22  23
ATOM     23  N   UNL A   1      32.528  36.467  30.650  1.00  0.00    -0.352 N 
ATOM     24  C   UNL A   1      32.488  36.001  31.941  1.00  0.00     0.251 C 
ATOM     25  H   UNL A   1      31.835  37.124  30.410  1.00  0.00     0.163 HD
ATOM     26  O   UNL A   1      31.527  36.234  32.666  1.00  0.00    -0.269 OA
BRANCH  24  27
ATOM     27  C   UNL A   1      33.618  35.196  32.443  1.00  0.00     0.039 A 
ATOM     28  C   UNL A   1      33.399  33.872  32.833  1.00  0.00     0.014 A 
ATOM     29  C   UNL A   1      34.901  35.749  32.491  1.00  0.00     0.014 A 
ATOM     30  C   UNL A   1      34.483  33.082  33.220  1.00  0.00     0.010 A 
ATOM     31  C   UNL A   1      35.985  34.939  32.799  1.00  0.00     0.010 A 
ATOM     32  C   UNL A   1      35.786  33.601  33.177  1.00  0.00    -0.014 A 
BRANCH  32  33
ATOM     33  C   UNL A   1      36.970  32.790  33.554  1.00  0.00     0.031 A 
ATOM     34  C   UNL A   1      37.687  33.090  34.839  1.00  0.00     0.074 A 
ATOM     35  C   UNL A   1      37.462  31.871  32.702  1.00  0.00     0.049 A 
ATOM     36  N   UNL A   1      38.830  32.633  35.278  1.00  0.00    -0.248 NA
ATOM     37  C   UNL A   1      37.046  34.070  35.732  1.00  0.00     0.031 C 
ATOM     38  C   UNL A   1      36.875  31.511  31.412  1.00  0.00     0.029 A 
ATOM     39  N   UNL A   1      38.587  31.090  32.787  1.00  0.00    -0.354 N 
ATOM     40  C   UNL A   1      39.060  33.292  36.480  1.00  0.00     0.074 A 
ATOM     41  C   UNL A   1      37.965  34.218  36.671  1.00  0.00     0.031 C 
ATOM     42  C   UNL A   1      37.643  30.578  30.826  1.00  0.00     0.029 A 
ATOM     43  C   UNL A   1      38.799  30.310  31.677  1.00  0.00     0.049 A 
ATOM     44  H   UNL A   1      39.186  31.090  33.568  1.00  0.00     0.167 HD
ATOM     45  C   UNL A   1      40.082  33.127  37.353  1.00  0.00     0.037 A 
ATOM     46  C   UNL A   1      39.822  29.489  31.369  1.00  0.00     0.037 A 
ATOM     47  C   UNL A   1      41.155  32.187  37.165  1.00  0.00     0.049 A 
ATOM     48  C   UNL A   1      40.952  29.325  32.346  1.00  0.00     0.074 A 
ATOM     49  C   UNL A   1      42.208  31.899  38.014  1.00  0.00     0.029 A 
ATOM     50  N   UNL A   1      41.312  31.385  36.043  1.00  0.00    -0.354 N 
ATOM     51  N   UNL A   1      41.135  29.912  33.504  1.00  0.00    -0.248 NA
ATOM     52  C   UNL A   1      42.018  28.382  31.979  1.00  0.00     0.031 C 
ATOM     53  C   UNL A   1      43.031  30.961  37.385  1.00  0.00     0.029 A 
ATOM     54  C   UNL A   1      42.458  30.618  36.169  1.00  0.00     0.049 A 
ATOM     55  H   UNL A   1      40.700  31.365  35.272  1.00  0.00     0.167 HD
ATOM     56  C   UNL A   1      42.312  29.384  34.020  1.00  0.00     0.074 A 
ATOM     57  C   UNL A   1      42.803  28.431  33.046  1.00  0.00     0.031 C 
ATOM     58  C   UNL A   1      42.924  29.659  35.198  1.00  0.00     0.037 A 
BRANCH  45  59
ATOM     59  C   UNL A   1      40.088  33.998  38.577  1.00  0.00     0.057 A 
ATOM     60  C   UNL A   1      40.763  35.227  38.613  1.00  0.00     0.134 A 
ATOM     61  C   UNL A   1      39.414  33.601  39.738  1.00  0.00     0.134 A 
ATOM     62  F   UNL A   1      41.440  35.663  37.539  1.00  0.00    -0.206 F 
ATOM     63  C   UNL A   1      40.807  36.004  39.772  1.00  0.00     0.040 A 
ATOM     64  C   UNL A   1      39.422  34.386  40.892  1.00  0.00     0.040 A 
ATOM     65  F   UNL A   1      38.740  32.441  39.773  1.00  0.00    -0.206 F 
ATOM     66  C   UNL A   1      40.130  35.585  40.915  1.00  0.00     0.006 A 
ENDBRANCH  45  59
BRANCH  46  67
ATOM     67  C   UNL A   1      39.805  28.746  30.084  1.00  0.00     0.057 A 
ATOM     68  C   UNL A   1      40.446  29.253  28.949  1.00  0.00     0.134 A 
ATOM     69  C   UNL A   1      39.173  27.502  29.966  1.00  0.00     0.134 A 
ATOM     70  F   UNL A   1      41.054  30.448  28.997  1.00  0.00    -0.206 F 
ATOM     71  C   UNL A   1      40.454  28.556  27.740  1.00  0.00     0.040 A 
ATOM     72  C   UNL A   1      39.193  26.783  28.770  1.00  0.00     0.040 A 
ATOM     73  F   UNL A   1      38.549  26.956  31.020  1.00  0.00    -0.206 F 
ATOM     74  C   UNL A   1      39.831  27.313  27.651  1.00  0.00     0.006 A 
ENDBRANCH  46  67
BRANCH  58  75
ATOM     75  C   UNL A   1      44.163  28.883  35.538  1.00  0.00     0.057 A 
ATOM     76  C   UNL A   1      44.115  27.664  36.224  1.00  0.00     0.134 A 
ATOM     77  C   UNL A   1      45.417  29.330  35.098  1.00  0.00     0.134 A 
ATOM     78  F   UNL A   1      42.948  27.186  36.682  1.00  0.00    -0.206 F 
ATOM     79  C   UNL A   1      45.272  26.920  36.469  1.00  0.00     0.040 A 
ATOM     80  C   UNL A   1      46.575  28.583  35.314  1.00  0.00     0.040 A 
ATOM     81  F   UNL A   1      45.531  30.487  34.428  1.00  0.00    -0.206 F 
ATOM     82  C   UNL A   1      46.505  27.375  36.002  1.00  0.00     0.006 A 
ENDBRANCH  58  75
ENDBRANCH  32  33
ENDBRANCH  24  27
ENDBRANCH  22  23
ENDBRANCH  21  22
ENDBRANCH  20  21
ENDBRANCH   1  20
TORSDOF 15
ENDMDL
MODEL 3
REMARK VINA RESULT:      -8.6      6.054     11.644
REMARK SMILES C[C@@H](C(=O)NCCCCCCNC(=O)c1ccc(-c2c3nc(c(-c4c(F)cccc4F)c4ccc([nH]4)c(-c4c(F)cccc4F)c4nc(c(-c5c(F)cccc5F)c5ccc2[nH]5)C=C4)C=C3)cc1)c1cccn(C(F)F)c1=O
REMARK SMILES IDX 8 1 7 2 6 3 5 4 3 5 4 6 2 8 1 9 69 10 70 11 77 12 71 13
REMARK SMILES IDX 73 14 78 15 72 16 74 17 75 18 76 19 9 20 10 21 11 22 12 23
REMARK SMILES IDX 13 24 14 26 15 27 16 28 68 29 17 30 67 31 18 32 19 33 20 34
REMARK SMILES IDX 61 35 21 36 66 37 60 38 62 39 22 40 65 41 59 42 58 43 23 45
REMARK SMILES IDX 49 46 32 47 48 48 33 49 36 50 47 51 63 52 34 53 35 54 46 56
REMARK SMILES IDX 64 57 37 58 24 59 25 60 30 61 26 62 27 63 29 64 31 65 28 66
REMARK SMILES IDX 50 67 51 68 56 69 52 70 53 71 55 72 57 73 54 74 38 75 39 76
REMARK SMILES IDX 44 77 40 78 41 79 43 80 45 81 42 82
REMARK H PARENT 5 7 12 25 62 44 36 55
REMARK Flexibility Score: inf
ROOT
ATOM      1  C   UNL A   1      32.721  29.688  26.847  1.00  0.00     0.002 C 
ENDROOT
BRANCH   1   2
ATOM      2  C   UNL A   1      32.071  28.408  27.389  1.00  0.00     0.021 C 
BRANCH   2   3
ATOM      3  C   UNL A   1      32.362  27.150  26.560  1.00  0.00     0.116 C 
BRANCH   3   4
ATOM      4  N   UNL A   1      31.362  26.135  26.823  1.00  0.00    -0.356 N 
ATOM      5  C   UNL A   1      30.461  25.568  25.968  1.00  0.00     0.227 C 
ATOM      6  O   UNL A   1      29.457  25.074  26.483  1.00  0.00    -0.274 OA
ATOM      7  H   UNL A   1      31.326  25.809  27.752  1.00  0.00     0.163 HD
BRANCH   5   8
ATOM      8  C   UNL A   1      30.735  25.569  24.444  1.00  0.00     0.111 C 
ATOM      9  C   UNL A   1      32.112  24.925  24.224  1.00  0.00     0.023 C 
BRANCH   8  10
ATOM     10  C   UNL A   1      30.590  26.958  23.813  1.00  0.00     0.030 A 
ATOM     11  C   UNL A   1      31.617  27.772  23.491  1.00  0.00     0.012 A 
ATOM     12  C   UNL A   1      29.200  27.482  23.527  1.00  0.00     0.258 A 
ATOM     13  C   UNL A   1      31.435  28.999  22.760  1.00  0.00     0.019 A 
ATOM     14  N   UNL A   1      29.111  28.623  22.747  1.00  0.00    -0.258 N 
ATOM     15  O   UNL A   1      28.208  26.914  23.975  1.00  0.00    -0.269 OA
ATOM     16  C   UNL A   1      30.210  29.367  22.380  1.00  0.00     0.095 A 
BRANCH  14  17
ATOM     17  C   UNL A   1      27.796  29.066  22.357  1.00  0.00     0.451 C 
ATOM     18  F   UNL A   1      27.211  29.723  23.394  1.00  0.00    -0.185 F 
ATOM     19  F   UNL A   1      27.904  29.973  21.348  1.00  0.00    -0.185 F 
ENDBRANCH  14  17
ENDBRANCH   8  10
ENDBRANCH   5   8
ENDBRANCH   3   4
ENDBRANCH   2   3
ENDBRANCH   1   2
BRANCH   1  20
ATOM     20  C   UNL A   1      31.779  30.606  26.064  1.00  0.00     0.002 C 
BRANCH  20  21
ATOM     21  C   UNL A   1      31.438  31.918  26.770  1.00  0.00     0.021 C 
BRANCH  21  22
ATOM     22  C   UNL A   1      32.644  32.647  27.349  1.00  0.00     0.116 C 
BRANCH  22  23
ATOM     23  N   UNL A   1      32.372  34.060  27.571  1.00  0.00    -0.352 N 
ATOM     24  C   UNL A   1      32.955  34.907  28.481  1.00  0.00     0.251 C 
ATOM     25  H   UNL A   1      31.681  34.459  26.995  1.00  0.00     0.163 HD
ATOM     26  O   UNL A   1      32.490  36.021  28.692  1.00  0.00    -0.269 OA
BRANCH  24  27
ATOM     27  C   UNL A   1      34.148  34.448  29.218  1.00  0.00     0.039 A 
ATOM     28  C   UNL A   1      33.991  33.803  30.448  1.00  0.00     0.014 A 
ATOM     29  C   UNL A   1      35.421  34.631  28.668  1.00  0.00     0.014 A 
ATOM     30  C   UNL A   1      35.111  33.287  31.101  1.00  0.00     0.010 A 
ATOM     31  C   UNL A   1      36.522  34.048  29.281  1.00  0.00     0.010 A 
ATOM     32  C   UNL A   1      36.380  33.380  30.508  1.00  0.00    -0.014 A 
BRANCH  32  33
ATOM     33  C   UNL A   1      37.594  32.824  31.153  1.00  0.00     0.031 A 
ATOM     34  C   UNL A   1      38.272  31.631  30.541  1.00  0.00     0.074 A 
ATOM     35  C   UNL A   1      38.019  33.313  32.333  1.00  0.00     0.049 A 
ATOM     36  N   UNL A   1      39.229  30.882  31.023  1.00  0.00    -0.248 NA
ATOM     37  C   UNL A   1      37.773  31.200  29.225  1.00  0.00     0.031 C 
ATOM     38  C   UNL A   1      37.427  34.447  33.043  1.00  0.00     0.029 A 
ATOM     39  N   UNL A   1      39.036  32.898  33.156  1.00  0.00    -0.354 N 
ATOM     40  C   UNL A   1      39.425  29.876  30.085  1.00  0.00     0.074 A 
ATOM     41  C   UNL A   1      38.451  30.080  29.035  1.00  0.00     0.031 C 
ATOM     42  C   UNL A   1      38.093  34.638  34.194  1.00  0.00     0.029 A 
ATOM     43  C   UNL A   1      39.125  33.614  34.324  1.00  0.00     0.049 A 
ATOM     44  H   UNL A   1      39.643  32.156  32.930  1.00  0.00     0.167 HD
ATOM     45  C   UNL A   1      40.344  28.882  30.090  1.00  0.00     0.037 A 
ATOM     46  C   UNL A   1      39.933  33.448  35.390  1.00  0.00     0.037 A 
ATOM     47  C   UNL A   1      41.325  28.701  31.128  1.00  0.00     0.049 A 
ATOM     48  C   UNL A   1      40.942  32.334  35.382  1.00  0.00     0.074 A 
ATOM     49  C   UNL A   1      42.339  27.763  31.201  1.00  0.00     0.029 A 
ATOM     50  N   UNL A   1      41.407  29.473  32.277  1.00  0.00    -0.354 N 
ATOM     51  N   UNL A   1      41.156  31.420  34.467  1.00  0.00    -0.248 NA
ATOM     52  C   UNL A   1      41.827  32.230  36.551  1.00  0.00     0.031 C 
ATOM     53  C   UNL A   1      43.003  27.935  32.419  1.00  0.00     0.029 A 
ATOM     54  C   UNL A   1      42.442  29.019  33.077  1.00  0.00     0.049 A 
ATOM     55  H   UNL A   1      40.817  30.232  32.492  1.00  0.00     0.167 HD
ATOM     56  C   UNL A   1      42.220  30.656  34.929  1.00  0.00     0.074 A 
ATOM     57  C   UNL A   1      42.607  31.213  36.210  1.00  0.00     0.031 C 
ATOM     58  C   UNL A   1      42.827  29.596  34.341  1.00  0.00     0.037 A 
BRANCH  45  59
ATOM     59  C   UNL A   1      40.314  27.912  28.944  1.00  0.00     0.057 A 
ATOM     60  C   UNL A   1      41.039  28.130  27.763  1.00  0.00     0.134 A 
ATOM     61  C   UNL A   1      39.545  26.743  29.018  1.00  0.00     0.134 A 
ATOM     62  F   UNL A   1      41.787  29.235  27.619  1.00  0.00    -0.206 F 
ATOM     63  C   UNL A   1      40.962  27.248  26.684  1.00  0.00     0.040 A 
ATOM     64  C   UNL A   1      39.488  25.837  27.959  1.00  0.00     0.040 A 
ATOM     65  F   UNL A   1      38.832  26.466  30.121  1.00  0.00    -0.206 F 
ATOM     66  C   UNL A   1      40.188  26.095  26.782  1.00  0.00     0.006 A 
ENDBRANCH  45  59
BRANCH  46  67
ATOM     67  C   UNL A   1      39.826  34.379  36.541  1.00  0.00     0.057 A 
ATOM     68  C   UNL A   1      39.089  34.037  37.680  1.00  0.00     0.134 A 
ATOM     69  C   UNL A   1      40.479  35.618  36.544  1.00  0.00     0.134 A 
ATOM     70  F   UNL A   1      38.427  32.871  37.728  1.00  0.00    -0.206 F 
ATOM     71  C   UNL A   1      38.996  34.894  38.777  1.00  0.00     0.040 A 
ATOM     72  C   UNL A   1      40.415  36.475  37.644  1.00  0.00     0.040 A 
ATOM     73  F   UNL A   1      41.211  36.000  35.488  1.00  0.00    -0.206 F 
ATOM     74  C   UNL A   1      39.668  36.115  38.762  1.00  0.00     0.006 A 
ENDBRANCH  46  67
BRANCH  58  75
ATOM     75  C   UNL A   1      44.012  28.995  35.039  1.00  0.00     0.057 A 
ATOM     76  C   UNL A   1      43.887  27.928  35.937  1.00  0.00     0.134 A 
ATOM     77  C   UNL A   1      45.306  29.445  34.744  1.00  0.00     0.134 A 
ATOM     78  F   UNL A   1      42.676  27.458  36.271  1.00  0.00    -0.206 F 
ATOM     79  C   UNL A   1      45.008  27.335  36.523  1.00  0.00     0.040 A 
ATOM     80  C   UNL A   1      46.434  28.844  35.303  1.00  0.00     0.040 A 
ATOM     81  F   UNL A   1      45.495  30.459  33.886  1.00  0.00    -0.206 F 
ATOM     82  C   UNL A   1      46.286  27.786  36.196  1.00  0.00     0.006 A 
ENDBRANCH  58  75
ENDBRANCH  32  33
ENDBRANCH  24  27
ENDBRANCH  22  23
ENDBRANCH  21  22
ENDBRANCH  20  21
ENDBRANCH   1  20
TORSDOF 15
ENDMDL
