MODEL 1
REMARK VINA RESULT:     -11.0      0.000      0.000
REMARK SMILES C[C@@](NC(=O)CCOC1CC[NH2+]CC1)(C(=O)NCCCCCCNC(=O)c1ccc(-c2c3nc(c(-c4c(F)cccc4F)c4ccc([nH]4)c(-c4c(F)cccc4F)c4nc(c(-c5c(F)cccc5F)c5ccc2[nH]5)C=C4)C=C3)cc1)C(F)(F)F
REMARK SMILES IDX 19 1 18 2 17 3 15 4 16 5 2 7 1 8 3 9 4 10 5 12 6 13 7 14
REMARK SMILES IDX 8 15 9 16 10 17 14 18 11 19 13 20 12 21 81 24 82 25 83 26
REMARK SMILES IDX 84 27 20 28 21 29 22 30 23 31 24 32 25 33 26 35 27 36 28 37
REMARK SMILES IDX 80 38 29 39 79 40 30 41 31 42 32 43 73 44 33 45 78 46 72 47
REMARK SMILES IDX 74 48 34 49 77 50 71 51 70 52 35 54 61 55 44 56 60 57 45 58
REMARK SMILES IDX 48 59 59 60 75 61 46 62 47 63 58 65 76 66 49 67 36 68 37 69
REMARK SMILES IDX 42 70 38 71 39 72 41 73 43 74 40 75 62 76 63 77 68 78 64 79
REMARK SMILES IDX 65 80 67 81 69 82 66 83 50 84 51 85 56 86 52 87 53 88 55 89
REMARK SMILES IDX 57 90 54 91
REMARK H PARENT 17 6 3 11 12 22 12 23 24 34 74 53 48 64
REMARK Flexibility Score: inf
ROOT
ATOM      1  C   UNL A   1      32.309  29.115  27.387  1.00  0.00     0.021 C 
ENDROOT
BRANCH   1   2
ATOM      2  C   UNL A   1      32.375  27.612  27.083  1.00  0.00     0.116 C 
BRANCH   2   3
ATOM      3  N   UNL A   1      31.114  26.984  26.733  1.00  0.00    -0.354 N 
ATOM      4  C   UNL A   1      30.846  25.819  26.066  1.00  0.00     0.254 C 
ATOM      5  O   UNL A   1      29.845  25.231  26.501  1.00  0.00    -0.272 OA
ATOM      6  H   UNL A   1      30.316  27.481  27.025  1.00  0.00     0.163 HD
BRANCH   4   7
ATOM      7  C   UNL A   1      31.700  25.168  24.927  1.00  0.00     0.212 C 
ATOM      8  C   UNL A   1      30.878  24.121  24.141  1.00  0.00     0.056 C 
BRANCH   7   9
ATOM      9  N   UNL A   1      32.376  26.033  23.899  1.00  0.00    -0.334 N 
ATOM     10  C   UNL A   1      32.008  27.235  23.384  1.00  0.00     0.223 C 
ATOM     11  H   UNL A   1      33.218  25.670  23.543  1.00  0.00     0.164 HD
ATOM     12  O   UNL A   1      32.850  28.127  23.298  1.00  0.00    -0.275 OA
BRANCH  10  13
ATOM     13  C   UNL A   1      30.683  27.339  22.701  1.00  0.00     0.128 C 
BRANCH  13  14
ATOM     14  C   UNL A   1      29.690  28.157  23.528  1.00  0.00     0.170 C 
BRANCH  14  15
ATOM     15  O   UNL A   1      29.379  29.490  23.140  1.00  0.00    -0.377 OA
BRANCH  15  16
ATOM     16  C   UNL A   1      28.087  29.902  22.687  1.00  0.00     0.129 C 
ATOM     17  C   UNL A   1      27.954  30.386  21.250  1.00  0.00     0.093 C 
ATOM     18  C   UNL A   1      27.653  31.042  23.615  1.00  0.00     0.093 C 
ATOM     19  C   UNL A   1      28.780  31.638  21.014  1.00  0.00     0.263 C 
ATOM     20  C   UNL A   1      28.521  32.269  23.351  1.00  0.00     0.263 C 
ATOM     21  N   UNL A   1      28.434  32.703  21.955  1.00  0.00    -0.346 N 
ATOM     22  H   UNL A   1      27.478  33.008  21.767  1.00  0.00     0.346 HD
ATOM     23  H   UNL A   1      29.103  33.461  21.825  1.00  0.00     0.346 HD
ENDBRANCH  15  16
ENDBRANCH  14  15
ENDBRANCH  13  14
ENDBRANCH  10  13
ENDBRANCH   7   9
BRANCH   7  24
ATOM     24  C   UNL A   1      32.807  24.365  25.674  1.00  0.00     0.420 C 
ATOM     25  F   UNL A   1      32.427  23.982  26.913  1.00  0.00    -0.168 F 
ATOM     26  F   UNL A   1      33.066  23.218  24.981  1.00  0.00    -0.168 F 
ATOM     27  F   UNL A   1      33.980  25.024  25.761  1.00  0.00    -0.168 F 
ENDBRANCH   7  24
ENDBRANCH   4   7
ENDBRANCH   2   3
ENDBRANCH   1   2
BRANCH   1  28
ATOM     28  C   UNL A   1      32.484  30.043  26.172  1.00  0.00     0.002 C 
BRANCH  28  29
ATOM     29  C   UNL A   1      31.287  30.921  25.773  1.00  0.00     0.002 C 
BRANCH  29  30
ATOM     30  C   UNL A   1      31.133  32.267  26.486  1.00  0.00     0.021 C 
BRANCH  30  31
ATOM     31  C   UNL A   1      32.392  32.852  27.122  1.00  0.00     0.116 C 
BRANCH  31  32
ATOM     32  N   UNL A   1      32.215  34.204  27.626  1.00  0.00    -0.352 N 
ATOM     33  C   UNL A   1      32.912  34.890  28.590  1.00  0.00     0.251 C 
ATOM     34  H   UNL A   1      31.479  34.709  27.211  1.00  0.00     0.163 HD
ATOM     35  O   UNL A   1      32.529  36.009  28.937  1.00  0.00    -0.269 OA
BRANCH  33  36
ATOM     36  C   UNL A   1      34.102  34.297  29.242  1.00  0.00     0.039 A 
ATOM     37  C   UNL A   1      33.936  33.622  30.456  1.00  0.00     0.014 A 
ATOM     38  C   UNL A   1      35.377  34.420  28.686  1.00  0.00     0.014 A 
ATOM     39  C   UNL A   1      35.033  33.017  31.076  1.00  0.00     0.010 A 
ATOM     40  C   UNL A   1      36.456  33.754  29.266  1.00  0.00     0.010 A 
ATOM     41  C   UNL A   1      36.297  33.046  30.467  1.00  0.00    -0.014 A 
BRANCH  41  42
ATOM     42  C   UNL A   1      37.460  32.341  31.068  1.00  0.00     0.031 A 
ATOM     43  C   UNL A   1      38.080  32.849  32.342  1.00  0.00     0.074 A 
ATOM     44  C   UNL A   1      37.997  31.280  30.433  1.00  0.00     0.049 A 
ATOM     45  N   UNL A   1      39.134  32.409  32.981  1.00  0.00    -0.248 NA
ATOM     46  C   UNL A   1      37.447  34.021  32.967  1.00  0.00     0.031 C 
ATOM     47  C   UNL A   1      37.516  30.718  29.169  1.00  0.00     0.029 A 
ATOM     48  N   UNL A   1      39.073  30.491  30.756  1.00  0.00    -0.354 N 
ATOM     49  C   UNL A   1      39.304  33.262  34.066  1.00  0.00     0.074 A 
ATOM     50  C   UNL A   1      38.271  34.271  33.974  1.00  0.00     0.031 C 
ATOM     51  C   UNL A   1      38.278  29.664  28.836  1.00  0.00     0.029 A 
ATOM     52  C   UNL A   1      39.328  29.500  29.837  1.00  0.00     0.049 A 
ATOM     53  H   UNL A   1      39.612  30.623  31.569  1.00  0.00     0.167 HD
ATOM     54  C   UNL A   1      40.223  33.197  35.059  1.00  0.00     0.037 A 
ATOM     55  C   UNL A   1      40.303  28.572  29.800  1.00  0.00     0.037 A 
ATOM     56  C   UNL A   1      41.229  32.171  35.162  1.00  0.00     0.049 A 
ATOM     57  C   UNL A   1      41.316  28.530  30.912  1.00  0.00     0.074 A 
ATOM     58  C   UNL A   1      42.156  31.973  36.171  1.00  0.00     0.029 A 
ATOM     59  N   UNL A   1      41.443  31.177  34.220  1.00  0.00    -0.354 N 
ATOM     60  N   UNL A   1      41.409  29.290  31.976  1.00  0.00    -0.248 NA
ATOM     61  C   UNL A   1      42.358  27.497  30.820  1.00  0.00     0.031 C 
ATOM     62  C   UNL A   1      42.970  30.896  35.810  1.00  0.00     0.029 A 
ATOM     63  C   UNL A   1      42.511  30.383  34.607  1.00  0.00     0.049 A 
ATOM     64  H   UNL A   1      40.917  31.053  33.397  1.00  0.00     0.167 HD
ATOM     65  C   UNL A   1      42.494  28.805  32.696  1.00  0.00     0.074 A 
ATOM     66  C   UNL A   1      43.017  27.676  31.955  1.00  0.00     0.031 C 
ATOM     67  C   UNL A   1      43.012  29.254  33.866  1.00  0.00     0.037 A 
BRANCH  54  68
ATOM     68  C   UNL A   1      40.193  34.265  36.114  1.00  0.00     0.057 A 
ATOM     69  C   UNL A   1      40.930  35.451  35.992  1.00  0.00     0.134 A 
ATOM     70  C   UNL A   1      39.372  34.130  37.241  1.00  0.00     0.134 A 
ATOM     71  F   UNL A   1      41.744  35.642  34.943  1.00  0.00    -0.206 F 
ATOM     72  C   UNL A   1      40.868  36.452  36.965  1.00  0.00     0.040 A 
ATOM     73  C   UNL A   1      39.279  35.137  38.203  1.00  0.00     0.040 A 
ATOM     74  F   UNL A   1      38.633  33.024  37.416  1.00  0.00    -0.206 F 
ATOM     75  C   UNL A   1      40.034  36.300  38.070  1.00  0.00     0.006 A 
ENDBRANCH  54  68
BRANCH  55  76
ATOM     76  C   UNL A   1      40.371  27.597  28.680  1.00  0.00     0.057 A 
ATOM     77  C   UNL A   1      41.134  27.861  27.536  1.00  0.00     0.134 A 
ATOM     78  C   UNL A   1      39.650  26.397  28.708  1.00  0.00     0.134 A 
ATOM     79  F   UNL A   1      41.833  29.002  27.439  1.00  0.00    -0.206 F 
ATOM     80  C   UNL A   1      41.154  26.985  26.449  1.00  0.00     0.040 A 
ATOM     81  C   UNL A   1      39.684  25.497  27.640  1.00  0.00     0.040 A 
ATOM     82  F   UNL A   1      38.905  26.078  29.777  1.00  0.00    -0.206 F 
ATOM     83  C   UNL A   1      40.428  25.796  26.502  1.00  0.00     0.006 A 
ENDBRANCH  55  76
BRANCH  67  84
ATOM     84  C   UNL A   1      44.173  28.497  34.442  1.00  0.00     0.057 A 
ATOM     85  C   UNL A   1      43.998  27.388  35.278  1.00  0.00     0.134 A 
ATOM     86  C   UNL A   1      45.488  28.861  34.120  1.00  0.00     0.134 A 
ATOM     87  F   UNL A   1      42.766  26.993  35.635  1.00  0.00    -0.206 F 
ATOM     88  C   UNL A   1      45.087  26.684  35.796  1.00  0.00     0.040 A 
ATOM     89  C   UNL A   1      46.584  28.147  34.605  1.00  0.00     0.040 A 
ATOM     90  F   UNL A   1      45.728  29.907  33.315  1.00  0.00    -0.206 F 
ATOM     91  C   UNL A   1      46.385  27.059  35.452  1.00  0.00     0.006 A 
ENDBRANCH  67  84
ENDBRANCH  41  42
ENDBRANCH  33  36
ENDBRANCH  31  32
ENDBRANCH  30  31
ENDBRANCH  29  30
ENDBRANCH  28  29
ENDBRANCH   1  28
TORSDOF 19
ENDMDL
MODEL 2
REMARK VINA RESULT:     -10.9      0.730      6.234
REMARK SMILES C[C@@](NC(=O)CCOC1CC[NH2+]CC1)(C(=O)NCCCCCCNC(=O)c1ccc(-c2c3nc(c(-c4c(F)cccc4F)c4ccc([nH]4)c(-c4c(F)cccc4F)c4nc(c(-c5c(F)cccc5F)c5ccc2[nH]5)C=C4)C=C3)cc1)C(F)(F)F
REMARK SMILES IDX 19 1 18 2 17 3 15 4 16 5 2 7 1 8 3 9 4 10 5 12 6 13 7 14
REMARK SMILES IDX 8 15 9 16 10 17 14 18 11 19 13 20 12 21 81 24 82 25 83 26
REMARK SMILES IDX 84 27 20 28 21 29 22 30 23 31 24 32 25 33 26 35 27 36 28 37
REMARK SMILES IDX 80 38 29 39 79 40 30 41 31 42 32 43 73 44 33 45 78 46 72 47
REMARK SMILES IDX 74 48 34 49 77 50 71 51 70 52 35 54 61 55 44 56 60 57 45 58
REMARK SMILES IDX 48 59 59 60 75 61 46 62 47 63 58 65 76 66 49 67 36 68 37 69
REMARK SMILES IDX 42 70 38 71 39 72 41 73 43 74 40 75 62 76 63 77 68 78 64 79
REMARK SMILES IDX 65 80 67 81 69 82 66 83 50 84 51 85 56 86 52 87 53 88 55 89
REMARK SMILES IDX 57 90 54 91
REMARK H PARENT 17 6 3 11 12 22 12 23 24 34 74 53 48 64
REMARK Flexibility Score: inf
ROOT
ATOM      1  C   UNL A   1      33.567  29.088  26.799  1.00  0.00     0.021 C 
ENDROOT
BRANCH   1   2
ATOM      2  C   UNL A   1      33.575  27.574  26.551  1.00  0.00     0.116 C 
BRANCH   2   3
ATOM      3  N   UNL A   1      32.294  26.906  26.688  1.00  0.00    -0.354 N 
ATOM      4  C   UNL A   1      31.767  25.828  26.028  1.00  0.00     0.254 C 
ATOM      5  O   UNL A   1      31.065  25.111  26.755  1.00  0.00    -0.272 OA
ATOM      6  H   UNL A   1      31.702  27.295  27.372  1.00  0.00     0.163 HD
BRANCH   4   7
ATOM      7  C   UNL A   1      32.036  25.410  24.544  1.00  0.00     0.212 C 
ATOM      8  C   UNL A   1      30.926  24.472  24.018  1.00  0.00     0.056 C 
BRANCH   7   9
ATOM      9  N   UNL A   1      32.238  26.460  23.486  1.00  0.00    -0.334 N 
ATOM     10  C   UNL A   1      31.973  27.792  23.509  1.00  0.00     0.223 C 
ATOM     11  H   UNL A   1      32.622  26.128  22.642  1.00  0.00     0.164 HD
ATOM     12  O   UNL A   1      32.828  28.574  23.097  1.00  0.00    -0.275 OA
BRANCH  10  13
ATOM     13  C   UNL A   1      30.571  28.233  23.776  1.00  0.00     0.128 C 
BRANCH  13  14
ATOM     14  C   UNL A   1      29.723  28.205  22.504  1.00  0.00     0.170 C 
BRANCH  14  15
ATOM     15  O   UNL A   1      29.423  29.421  21.830  1.00  0.00    -0.377 OA
BRANCH  15  16
ATOM     16  C   UNL A   1      28.107  29.974  21.742  1.00  0.00     0.129 C 
ATOM     17  C   UNL A   1      27.923  31.257  20.944  1.00  0.00     0.093 C 
ATOM     18  C   UNL A   1      27.658  30.241  23.183  1.00  0.00     0.093 C 
ATOM     19  C   UNL A   1      28.700  32.405  21.564  1.00  0.00     0.263 C 
ATOM     20  C   UNL A   1      28.478  31.388  23.765  1.00  0.00     0.263 C 
ATOM     21  N   UNL A   1      28.342  32.609  22.967  1.00  0.00    -0.346 N 
ATOM     22  H   UNL A   1      27.372  32.925  23.015  1.00  0.00     0.346 HD
ATOM     23  H   UNL A   1      28.982  33.303  23.352  1.00  0.00     0.346 HD
ENDBRANCH  15  16
ENDBRANCH  14  15
ENDBRANCH  13  14
ENDBRANCH  10  13
ENDBRANCH   7   9
BRANCH   7  24
ATOM     24  C   UNL A   1      33.330  24.544  24.606  1.00  0.00     0.420 C 
ATOM     25  F   UNL A   1      33.717  24.275  25.873  1.00  0.00    -0.168 F 
ATOM     26  F   UNL A   1      33.084  23.337  24.017  1.00  0.00    -0.168 F 
ATOM     27  F   UNL A   1      34.368  25.083  23.937  1.00  0.00    -0.168 F 
ENDBRANCH   7  24
ENDBRANCH   4   7
ENDBRANCH   2   3
ENDBRANCH   1   2
BRANCH   1  28
ATOM     28  C   UNL A   1      32.195  29.694  27.144  1.00  0.00     0.002 C 
BRANCH  28  29
ATOM     29  C   UNL A   1      31.590  30.692  26.142  1.00  0.00     0.002 C 
BRANCH  29  30
ATOM     30  C   UNL A   1      31.393  32.134  26.616  1.00  0.00     0.021 C 
BRANCH  30  31
ATOM     31  C   UNL A   1      32.624  32.843  27.177  1.00  0.00     0.116 C 
BRANCH  31  32
ATOM     32  N   UNL A   1      32.359  34.198  27.633  1.00  0.00    -0.352 N 
ATOM     33  C   UNL A   1      32.988  34.950  28.593  1.00  0.00     0.251 C 
ATOM     34  H   UNL A   1      31.609  34.648  27.180  1.00  0.00     0.163 HD
ATOM     35  O   UNL A   1      32.534  36.056  28.892  1.00  0.00    -0.269 OA
BRANCH  33  36
ATOM     36  C   UNL A   1      34.189  34.446  29.296  1.00  0.00     0.039 A 
ATOM     37  C   UNL A   1      34.029  33.835  30.545  1.00  0.00     0.014 A 
ATOM     38  C   UNL A   1      35.468  34.589  28.754  1.00  0.00     0.014 A 
ATOM     39  C   UNL A   1      35.138  33.312  31.215  1.00  0.00     0.010 A 
ATOM     40  C   UNL A   1      36.563  34.002  29.388  1.00  0.00     0.010 A 
ATOM     41  C   UNL A   1      36.411  33.358  30.625  1.00  0.00    -0.014 A 
BRANCH  41  42
ATOM     42  C   UNL A   1      37.590  32.736  31.284  1.00  0.00     0.031 A 
ATOM     43  C   UNL A   1      38.260  31.539  30.667  1.00  0.00     0.074 A 
ATOM     44  C   UNL A   1      38.017  33.211  32.472  1.00  0.00     0.049 A 
ATOM     45  N   UNL A   1      39.255  30.822  31.124  1.00  0.00    -0.248 NA
ATOM     46  C   UNL A   1      37.727  31.069  29.379  1.00  0.00     0.031 C 
ATOM     47  C   UNL A   1      37.423  34.337  33.196  1.00  0.00     0.029 A 
ATOM     48  N   UNL A   1      39.042  32.799  33.287  1.00  0.00    -0.354 N 
ATOM     49  C   UNL A   1      39.451  29.807  30.193  1.00  0.00     0.074 A 
ATOM     50  C   UNL A   1      38.443  29.974  29.170  1.00  0.00     0.031 C 
ATOM     51  C   UNL A   1      38.107  34.540  34.334  1.00  0.00     0.029 A 
ATOM     52  C   UNL A   1      39.158  33.534  34.443  1.00  0.00     0.049 A 
ATOM     53  H   UNL A   1      39.637  32.047  33.064  1.00  0.00     0.167 HD
ATOM     54  C   UNL A   1      40.397  28.838  30.184  1.00  0.00     0.037 A 
ATOM     55  C   UNL A   1      40.009  33.404  35.479  1.00  0.00     0.037 A 
ATOM     56  C   UNL A   1      41.418  28.696  31.189  1.00  0.00     0.049 A 
ATOM     57  C   UNL A   1      41.043  32.312  35.444  1.00  0.00     0.074 A 
ATOM     58  C   UNL A   1      42.469  27.795  31.227  1.00  0.00     0.029 A 
ATOM     59  N   UNL A   1      41.511  29.469  32.335  1.00  0.00    -0.354 N 
ATOM     60  N   UNL A   1      41.270  31.415  34.516  1.00  0.00    -0.248 NA
ATOM     61  C   UNL A   1      41.945  32.217  36.602  1.00  0.00     0.031 C 
ATOM     62  C   UNL A   1      43.162  27.984  32.427  1.00  0.00     0.029 A 
ATOM     63  C   UNL A   1      42.582  29.044  33.106  1.00  0.00     0.049 A 
ATOM     64  H   UNL A   1      40.907  30.211  32.569  1.00  0.00     0.167 HD
ATOM     65  C   UNL A   1      42.359  30.674  34.959  1.00  0.00     0.074 A 
ATOM     66  C   UNL A   1      42.757  31.237  36.232  1.00  0.00     0.031 C 
ATOM     67  C   UNL A   1      42.975  29.623  34.365  1.00  0.00     0.037 A 
BRANCH  54  68
ATOM     68  C   UNL A   1      40.375  27.847  29.055  1.00  0.00     0.057 A 
ATOM     69  C   UNL A   1      39.566  26.703  29.086  1.00  0.00     0.134 A 
ATOM     70  C   UNL A   1      41.131  28.070  27.896  1.00  0.00     0.134 A 
ATOM     71  F   UNL A   1      38.824  26.423  30.168  1.00  0.00    -0.206 F 
ATOM     72  C   UNL A   1      39.529  25.806  28.016  1.00  0.00     0.040 A 
ATOM     73  C   UNL A   1      41.078  27.197  26.809  1.00  0.00     0.040 A 
ATOM     74  F   UNL A   1      41.920  29.150  27.796  1.00  0.00    -0.206 F 
ATOM     75  C   UNL A   1      40.280  26.057  26.869  1.00  0.00     0.006 A 
ENDBRANCH  54  68
BRANCH  55  76
ATOM     76  C   UNL A   1      39.932  34.334  36.637  1.00  0.00     0.057 A 
ATOM     77  C   UNL A   1      39.219  33.993  37.793  1.00  0.00     0.134 A 
ATOM     78  C   UNL A   1      40.536  35.597  36.604  1.00  0.00     0.134 A 
ATOM     79  F   UNL A   1      38.601  32.805  37.880  1.00  0.00    -0.206 F 
ATOM     80  C   UNL A   1      39.082  34.883  38.860  1.00  0.00     0.040 A 
ATOM     81  C   UNL A   1      40.433  36.485  37.676  1.00  0.00     0.040 A 
ATOM     82  F   UNL A   1      41.241  35.984  35.531  1.00  0.00    -0.206 F 
ATOM     83  C   UNL A   1      39.694  36.134  38.803  1.00  0.00     0.006 A 
ENDBRANCH  55  76
BRANCH  67  84
ATOM     84  C   UNL A   1      44.171  29.042  35.061  1.00  0.00     0.057 A 
ATOM     85  C   UNL A   1      45.471  29.501  34.815  1.00  0.00     0.134 A 
ATOM     86  C   UNL A   1      44.014  28.033  36.021  1.00  0.00     0.134 A 
ATOM     87  F   UNL A   1      45.693  30.457  33.899  1.00  0.00    -0.206 F 
ATOM     88  C   UNL A   1      46.574  28.962  35.479  1.00  0.00     0.040 A 
ATOM     89  C   UNL A   1      45.104  27.508  36.715  1.00  0.00     0.040 A 
ATOM     90  F   UNL A   1      42.795  27.554  36.313  1.00  0.00    -0.206 F 
ATOM     91  C   UNL A   1      46.390  27.967  36.439  1.00  0.00     0.006 A 
ENDBRANCH  67  84
ENDBRANCH  41  42
ENDBRANCH  33  36
ENDBRANCH  31  32
ENDBRANCH  30  31
ENDBRANCH  29  30
ENDBRANCH  28  29
ENDBRANCH   1  28
TORSDOF 19
ENDMDL
MODEL 3
REMARK VINA RESULT:     -10.8      2.056      3.816
REMARK SMILES C[C@@](NC(=O)CCOC1CC[NH2+]CC1)(C(=O)NCCCCCCNC(=O)c1ccc(-c2c3nc(c(-c4c(F)cccc4F)c4ccc([nH]4)c(-c4c(F)cccc4F)c4nc(c(-c5c(F)cccc5F)c5ccc2[nH]5)C=C4)C=C3)cc1)C(F)(F)F
REMARK SMILES IDX 19 1 18 2 17 3 15 4 16 5 2 7 1 8 3 9 4 10 5 12 6 13 7 14
REMARK SMILES IDX 8 15 9 16 10 17 14 18 11 19 13 20 12 21 81 24 82 25 83 26
REMARK SMILES IDX 84 27 20 28 21 29 22 30 23 31 24 32 25 33 26 35 27 36 28 37
REMARK SMILES IDX 80 38 29 39 79 40 30 41 31 42 32 43 73 44 33 45 78 46 72 47
REMARK SMILES IDX 74 48 34 49 77 50 71 51 70 52 35 54 61 55 44 56 60 57 45 58
REMARK SMILES IDX 48 59 59 60 75 61 46 62 47 63 58 65 76 66 49 67 36 68 37 69
REMARK SMILES IDX 42 70 38 71 39 72 41 73 43 74 40 75 62 76 63 77 68 78 64 79
REMARK SMILES IDX 65 80 67 81 69 82 66 83 50 84 51 85 56 86 52 87 53 88 55 89
REMARK SMILES IDX 57 90 54 91
REMARK H PARENT 17 6 3 11 12 22 12 23 24 34 74 53 48 64
REMARK Flexibility Score: inf
ROOT
ATOM      1  C   UNL A   1      31.407  28.461  27.431  1.00  0.00     0.021 C 
ENDROOT
BRANCH   1   2
ATOM      2  C   UNL A   1      31.459  27.213  26.541  1.00  0.00     0.116 C 
BRANCH   2   3
ATOM      3  N   UNL A   1      31.043  27.404  25.164  1.00  0.00    -0.354 N 
ATOM      4  C   UNL A   1      31.623  27.012  23.987  1.00  0.00     0.254 C 
ATOM      5  O   UNL A   1      30.796  26.698  23.120  1.00  0.00    -0.272 OA
ATOM      6  H   UNL A   1      30.199  27.901  25.058  1.00  0.00     0.163 HD
BRANCH   4   7
ATOM      7  C   UNL A   1      33.154  26.858  23.698  1.00  0.00     0.212 C 
ATOM      8  C   UNL A   1      33.879  26.176  24.881  1.00  0.00     0.056 C 
BRANCH   7   9
ATOM      9  N   UNL A   1      33.622  26.155  22.454  1.00  0.00    -0.334 N 
ATOM     10  C   UNL A   1      33.028  25.179  21.720  1.00  0.00     0.223 C 
ATOM     11  H   UNL A   1      34.500  26.448  22.119  1.00  0.00     0.164 HD
ATOM     12  O   UNL A   1      32.997  25.293  20.495  1.00  0.00    -0.275 OA
BRANCH  10  13
ATOM     13  C   UNL A   1      32.678  23.894  22.396  1.00  0.00     0.128 C 
BRANCH  13  14
ATOM     14  C   UNL A   1      33.927  23.167  22.896  1.00  0.00     0.170 C 
BRANCH  14  15
ATOM     15  O   UNL A   1      33.896  22.493  24.149  1.00  0.00    -0.377 OA
BRANCH  15  16
ATOM     16  C   UNL A   1      32.729  22.399  24.969  1.00  0.00     0.129 C 
ATOM     17  C   UNL A   1      32.889  22.613  26.468  1.00  0.00     0.093 C 
ATOM     18  C   UNL A   1      32.163  20.992  24.748  1.00  0.00     0.093 C 
ATOM     19  C   UNL A   1      33.786  21.552  27.081  1.00  0.00     0.263 C 
ATOM     20  C   UNL A   1      33.105  19.964  25.365  1.00  0.00     0.263 C 
ATOM     21  N   UNL A   1      33.301  20.201  26.797  1.00  0.00    -0.346 N 
ATOM     22  H   UNL A   1      32.410  20.066  27.276  1.00  0.00     0.346 HD
ATOM     23  H   UNL A   1      34.008  19.543  27.126  1.00  0.00     0.346 HD
ENDBRANCH  15  16
ENDBRANCH  14  15
ENDBRANCH  13  14
ENDBRANCH  10  13
ENDBRANCH   7   9
BRANCH   7  24
ATOM     24  C   UNL A   1      33.696  28.317  23.653  1.00  0.00     0.420 C 
ATOM     25  F   UNL A   1      34.400  28.647  24.758  1.00  0.00    -0.168 F 
ATOM     26  F   UNL A   1      34.557  28.438  22.601  1.00  0.00    -0.168 F 
ATOM     27  F   UNL A   1      32.733  29.240  23.456  1.00  0.00    -0.168 F 
ENDBRANCH   7  24
ENDBRANCH   4   7
ENDBRANCH   2   3
ENDBRANCH   1   2
BRANCH   1  28
ATOM     28  C   UNL A   1      32.244  29.657  26.944  1.00  0.00     0.002 C 
BRANCH  28  29
ATOM     29  C   UNL A   1      31.519  30.744  26.132  1.00  0.00     0.002 C 
BRANCH  29  30
ATOM     30  C   UNL A   1      31.395  32.131  26.766  1.00  0.00     0.021 C 
BRANCH  30  31
ATOM     31  C   UNL A   1      32.696  32.896  26.999  1.00  0.00     0.116 C 
BRANCH  31  32
ATOM     32  N   UNL A   1      32.505  34.194  27.624  1.00  0.00    -0.352 N 
ATOM     33  C   UNL A   1      33.159  34.775  28.682  1.00  0.00     0.251 C 
ATOM     34  H   UNL A   1      31.793  34.746  27.225  1.00  0.00     0.163 HD
ATOM     35  O   UNL A   1      32.767  35.860  29.117  1.00  0.00    -0.269 OA
BRANCH  33  36
ATOM     36  C   UNL A   1      34.312  34.109  29.328  1.00  0.00     0.039 A 
ATOM     37  C   UNL A   1      34.070  33.216  30.378  1.00  0.00     0.014 A 
ATOM     38  C   UNL A   1      35.625  34.371  28.930  1.00  0.00     0.014 A 
ATOM     39  C   UNL A   1      35.135  32.541  30.981  1.00  0.00     0.010 A 
ATOM     40  C   UNL A   1      36.678  33.642  29.482  1.00  0.00     0.010 A 
ATOM     41  C   UNL A   1      36.446  32.720  30.514  1.00  0.00    -0.014 A 
BRANCH  41  42
ATOM     42  C   UNL A   1      37.582  31.951  31.087  1.00  0.00     0.031 A 
ATOM     43  C   UNL A   1      38.075  32.250  32.478  1.00  0.00     0.074 A 
ATOM     44  C   UNL A   1      38.209  31.027  30.332  1.00  0.00     0.049 A 
ATOM     45  N   UNL A   1      39.090  31.734  33.123  1.00  0.00    -0.248 NA
ATOM     46  C   UNL A   1      37.348  33.283  33.232  1.00  0.00     0.031 C 
ATOM     47  C   UNL A   1      37.856  30.677  28.955  1.00  0.00     0.029 A 
ATOM     48  N   UNL A   1      39.285  30.221  30.611  1.00  0.00    -0.354 N 
ATOM     49  C   UNL A   1      39.137  32.393  34.346  1.00  0.00     0.074 A 
ATOM     50  C   UNL A   1      38.077  33.378  34.335  1.00  0.00     0.031 C 
ATOM     51  C   UNL A   1      38.684  29.715  28.518  1.00  0.00     0.029 A 
ATOM     52  C   UNL A   1      39.653  29.408  29.565  1.00  0.00     0.049 A 
ATOM     53  H   UNL A   1      39.751  30.226  31.479  1.00  0.00     0.167 HD
ATOM     54  C   UNL A   1      39.974  32.182  35.390  1.00  0.00     0.037 A 
ATOM     55  C   UNL A   1      40.663  28.524  29.458  1.00  0.00     0.037 A 
ATOM     56  C   UNL A   1      41.007  31.179  35.407  1.00  0.00     0.049 A 
ATOM     57  C   UNL A   1      41.583  28.319  30.631  1.00  0.00     0.074 A 
ATOM     58  C   UNL A   1      41.855  30.835  36.446  1.00  0.00     0.029 A 
ATOM     59  N   UNL A   1      41.336  30.366  34.334  1.00  0.00    -0.354 N 
ATOM     60  N   UNL A   1      41.559  28.888  31.812  1.00  0.00    -0.248 NA
ATOM     61  C   UNL A   1      42.668  27.342  30.458  1.00  0.00     0.031 C 
ATOM     62  C   UNL A   1      42.738  29.855  35.982  1.00  0.00     0.029 A 
ATOM     63  C   UNL A   1      42.399  29.544  34.675  1.00  0.00     0.049 A 
ATOM     64  H   UNL A   1      40.884  30.371  33.460  1.00  0.00     0.167 HD
ATOM     65  C   UNL A   1      42.600  28.314  32.532  1.00  0.00     0.074 A 
ATOM     66  C   UNL A   1      43.225  27.341  31.661  1.00  0.00     0.031 C 
ATOM     67  C   UNL A   1      43.002  28.569  33.801  1.00  0.00     0.037 A 
BRANCH  54  68
ATOM     68  C   UNL A   1      39.816  33.054  36.603  1.00  0.00     0.057 A 
ATOM     69  C   UNL A   1      40.536  34.246  36.760  1.00  0.00     0.134 A 
ATOM     70  C   UNL A   1      38.889  32.725  37.601  1.00  0.00     0.134 A 
ATOM     71  F   UNL A   1      41.446  34.617  35.847  1.00  0.00    -0.206 F 
ATOM     72  C   UNL A   1      40.356  35.066  37.877  1.00  0.00     0.040 A 
ATOM     73  C   UNL A   1      38.680  33.552  38.706  1.00  0.00     0.040 A 
ATOM     74  F   UNL A   1      38.160  31.603  37.510  1.00  0.00    -0.206 F 
ATOM     75  C   UNL A   1      39.419  34.723  38.849  1.00  0.00     0.006 A 
ENDBRANCH  54  68
BRANCH  55  76
ATOM     76  C   UNL A   1      40.861  27.756  28.200  1.00  0.00     0.057 A 
ATOM     77  C   UNL A   1      41.635  28.270  27.153  1.00  0.00     0.134 A 
ATOM     78  C   UNL A   1      40.255  26.510  28.000  1.00  0.00     0.134 A 
ATOM     79  F   UNL A   1      42.227  29.468  27.275  1.00  0.00    -0.206 F 
ATOM     80  C   UNL A   1      41.773  27.590  25.941  1.00  0.00     0.040 A 
ATOM     81  C   UNL A   1      40.410  25.805  26.805  1.00  0.00     0.040 A 
ATOM     82  F   UNL A   1      39.507  25.956  28.966  1.00  0.00    -0.206 F 
ATOM     83  C   UNL A   1      41.161  26.350  25.767  1.00  0.00     0.006 A 
ENDBRANCH  55  76
BRANCH  67  84
ATOM     84  C   UNL A   1      44.141  27.754  34.341  1.00  0.00     0.057 A 
ATOM     85  C   UNL A   1      43.942  26.508  34.949  1.00  0.00     0.134 A 
ATOM     86  C   UNL A   1      45.461  28.207  34.214  1.00  0.00     0.134 A 
ATOM     87  F   UNL A   1      42.702  26.022  35.113  1.00  0.00    -0.206 F 
ATOM     88  C   UNL A   1      45.011  25.754  35.434  1.00  0.00     0.040 A 
ATOM     89  C   UNL A   1      46.541  27.448  34.666  1.00  0.00     0.040 A 
ATOM     90  F   UNL A   1      45.724  29.387  33.632  1.00  0.00    -0.206 F 
ATOM     91  C   UNL A   1      46.317  26.221  35.285  1.00  0.00     0.006 A 
ENDBRANCH  67  84
ENDBRANCH  41  42
ENDBRANCH  33  36
ENDBRANCH  31  32
ENDBRANCH  30  31
ENDBRANCH  29  30
ENDBRANCH  28  29
ENDBRANCH   1  28
TORSDOF 19
ENDMDL
