MODEL 1
REMARK VINA RESULT:     -12.2      0.000      0.000
REMARK SMILES O=C(COc1ccc(N2C[C@@H](C(=O)NCCCCCCNC(=O)c3ccc(-c4c5nc(c(-c6c(F)cccc6F)c6ccc([nH]6)c(-c6c(F)cccc6F)c6nc(c(-c7c(F)cccc7F)c7ccc4[nH]7)C=C6)C=C5)cc3)CC2=O)cc1)Nc1ccc(Cl)cc1Cl
REMARK SMILES IDX 16 1 15 2 14 3 12 4 13 5 11 7 9 8 10 9 79 10 78 11 80 12
REMARK SMILES IDX 8 13 5 14 6 15 82 16 7 17 81 18 4 19 3 20 2 21 1 22 83 23
REMARK SMILES IDX 84 25 85 26 90 27 86 28 89 29 91 30 87 31 88 32 17 33 18 34
REMARK SMILES IDX 19 35 20 36 21 37 22 38 23 40 24 41 25 42 77 43 26 44 76 45
REMARK SMILES IDX 27 46 28 47 29 48 70 49 30 50 75 51 69 52 71 53 31 54 74 55
REMARK SMILES IDX 68 56 67 57 32 59 58 60 41 61 57 62 42 63 45 64 56 65 72 66
REMARK SMILES IDX 43 67 44 68 55 70 73 71 46 72 33 73 34 74 39 75 35 76 36 77
REMARK SMILES IDX 38 78 40 79 37 80 59 81 60 82 65 83 61 84 62 85 64 86 66 87
REMARK SMILES IDX 63 88 47 89 48 90 53 91 49 92 50 93 52 94 54 95 51 96
REMARK H PARENT 14 6 83 24 21 39 71 58 45 69
REMARK Flexibility Score: inf
ROOT
ATOM      1  C   UNL A   1      34.308  20.581  24.778  1.00  0.00     0.021 C 
ENDROOT
BRANCH   1   2
ATOM      2  C   UNL A   1      33.845  21.100  26.140  1.00  0.00     0.116 C 
BRANCH   2   3
ATOM      3  N   UNL A   1      32.398  21.222  26.191  1.00  0.00    -0.356 N 
ATOM      4  C   UNL A   1      31.554  22.195  25.769  1.00  0.00     0.225 C 
ATOM      5  O   UNL A   1      30.350  22.031  25.982  1.00  0.00    -0.275 OA
ATOM      6  H   UNL A   1      31.946  20.454  26.609  1.00  0.00     0.163 HD
BRANCH   4   7
ATOM      7  C   UNL A   1      32.021  23.425  25.023  1.00  0.00     0.107 C 
ATOM      8  N   UNL A   1      31.855  25.753  25.353  1.00  0.00    -0.312 N 
ATOM      9  C   UNL A   1      32.392  24.561  25.960  1.00  0.00     0.139 C 
ATOM     10  C   UNL A   1      31.017  25.469  24.274  1.00  0.00     0.227 C 
ATOM     11  C   UNL A   1      31.036  23.988  24.015  1.00  0.00     0.116 C 
ATOM     12  O   UNL A   1      30.373  26.248  23.582  1.00  0.00    -0.274 OA
BRANCH   8  13
ATOM     13  C   UNL A   1      32.119  27.053  25.853  1.00  0.00     0.044 A 
ATOM     14  C   UNL A   1      32.759  29.579  26.929  1.00  0.00     0.120 A 
ATOM     15  C   UNL A   1      31.676  28.861  27.430  1.00  0.00     0.048 A 
ATOM     16  C   UNL A   1      33.518  29.043  25.894  1.00  0.00     0.048 A 
ATOM     17  C   UNL A   1      31.340  27.618  26.874  1.00  0.00     0.030 A 
ATOM     18  C   UNL A   1      33.200  27.791  25.364  1.00  0.00     0.030 A 
BRANCH  14  19
ATOM     19  O   UNL A   1      33.131  30.736  27.561  1.00  0.00    -0.484 OA
BRANCH  19  20
ATOM     20  C   UNL A   1      34.502  31.066  27.337  1.00  0.00     0.329 C 
BRANCH  20  21
ATOM     21  C   UNL A   1      35.102  32.016  28.379  1.00  0.00     0.262 C 
ATOM     22  O   UNL A   1      36.041  32.752  28.098  1.00  0.00    -0.271 OA
ATOM     23  N   UNL A   1      34.530  31.850  29.634  1.00  0.00    -0.322 N 
ATOM     24  H   UNL A   1      33.789  31.205  29.707  1.00  0.00     0.170 HD
BRANCH  23  25
ATOM     25  C   UNL A   1      34.915  32.524  30.817  1.00  0.00     0.060 A 
ATOM     26  C   UNL A   1      35.552  31.726  31.783  1.00  0.00     0.029 A 
ATOM     27  C   UNL A   1      34.719  33.891  31.096  1.00  0.00     0.066 A 
ATOM     28  C   UNL A   1      36.059  32.290  32.958  1.00  0.00     0.023 A 
ATOM     29  C   UNL A   1      35.238  34.452  32.269  1.00  0.00     0.043 A 
ATOM     30  Cl  UNL A   1      33.678  34.916  30.169  1.00  0.00    -0.082 Cl
ATOM     31  C   UNL A   1      35.914  33.654  33.187  1.00  0.00     0.042 A 
ATOM     32  Cl  UNL A   1      36.541  34.348  34.629  1.00  0.00    -0.084 Cl
ENDBRANCH  23  25
ENDBRANCH  20  21
ENDBRANCH  19  20
ENDBRANCH  14  19
ENDBRANCH   8  13
ENDBRANCH   4   7
ENDBRANCH   2   3
ENDBRANCH   1   2
BRANCH   1  33
ATOM     33  C   UNL A   1      35.542  19.670  24.834  1.00  0.00     0.002 C 
BRANCH  33  34
ATOM     34  C   UNL A   1      36.878  20.396  25.021  1.00  0.00     0.002 C 
BRANCH  34  35
ATOM     35  C   UNL A   1      38.115  19.497  24.972  1.00  0.00     0.021 C 
BRANCH  35  36
ATOM     36  C   UNL A   1      39.315  20.025  25.752  1.00  0.00     0.116 C 
BRANCH  36  37
ATOM     37  N   UNL A   1      40.355  19.021  25.903  1.00  0.00    -0.352 N 
ATOM     38  C   UNL A   1      41.704  19.184  26.094  1.00  0.00     0.251 C 
ATOM     39  H   UNL A   1      40.046  18.087  25.862  1.00  0.00     0.163 HD
ATOM     40  O   UNL A   1      42.457  18.219  26.000  1.00  0.00    -0.269 OA
BRANCH  38  41
ATOM     41  C   UNL A   1      42.255  20.522  26.397  1.00  0.00     0.039 A 
ATOM     42  C   UNL A   1      42.752  21.297  25.346  1.00  0.00     0.014 A 
ATOM     43  C   UNL A   1      42.303  21.005  27.707  1.00  0.00     0.014 A 
ATOM     44  C   UNL A   1      43.257  22.572  25.606  1.00  0.00     0.010 A 
ATOM     45  C   UNL A   1      42.729  22.309  27.953  1.00  0.00     0.010 A 
ATOM     46  C   UNL A   1      43.223  23.100  26.907  1.00  0.00    -0.014 A 
BRANCH  46  47
ATOM     47  C   UNL A   1      43.716  24.474  27.184  1.00  0.00     0.031 A 
ATOM     48  C   UNL A   1      42.765  25.547  27.640  1.00  0.00     0.074 A 
ATOM     49  C   UNL A   1      45.018  24.765  26.995  1.00  0.00     0.049 A 
ATOM     50  N   UNL A   1      43.008  26.801  27.929  1.00  0.00    -0.248 NA
ATOM     51  C   UNL A   1      41.348  25.168  27.764  1.00  0.00     0.031 C 
ATOM     52  C   UNL A   1      46.032  23.826  26.512  1.00  0.00     0.029 A 
ATOM     53  N   UNL A   1      45.711  25.933  27.190  1.00  0.00    -0.354 N 
ATOM     54  C   UNL A   1      41.779  27.358  28.260  1.00  0.00     0.074 A 
ATOM     55  C   UNL A   1      40.784  26.326  28.073  1.00  0.00     0.031 C 
ATOM     56  C   UNL A   1      47.224  24.442  26.486  1.00  0.00     0.029 A 
ATOM     57  C   UNL A   1      47.052  25.828  26.911  1.00  0.00     0.049 A 
ATOM     58  H   UNL A   1      45.288  26.765  27.498  1.00  0.00     0.167 HD
ATOM     59  C   UNL A   1      41.507  28.608  28.708  1.00  0.00     0.037 A 
ATOM     60  C   UNL A   1      48.034  26.747  26.992  1.00  0.00     0.037 A 
ATOM     61  C   UNL A   1      42.501  29.632  28.900  1.00  0.00     0.049 A 
ATOM     62  C   UNL A   1      47.701  28.134  27.468  1.00  0.00     0.074 A 
ATOM     63  C   UNL A   1      42.335  30.914  29.393  1.00  0.00     0.029 A 
ATOM     64  N   UNL A   1      43.848  29.489  28.602  1.00  0.00    -0.354 N 
ATOM     65  N   UNL A   1      46.548  28.626  27.850  1.00  0.00    -0.248 NA
ATOM     66  C   UNL A   1      48.814  29.092  27.531  1.00  0.00     0.031 C 
ATOM     67  C   UNL A   1      43.573  31.566  29.340  1.00  0.00     0.029 A 
ATOM     68  C   UNL A   1      44.521  30.671  28.874  1.00  0.00     0.049 A 
ATOM     69  H   UNL A   1      44.266  28.672  28.247  1.00  0.00     0.167 HD
ATOM     70  C   UNL A   1      46.802  29.938  28.233  1.00  0.00     0.074 A 
ATOM     71  C   UNL A   1      48.221  30.157  28.051  1.00  0.00     0.031 C 
ATOM     72  C   UNL A   1      45.937  30.875  28.695  1.00  0.00     0.037 A 
BRANCH  59  73
ATOM     73  C   UNL A   1      40.071  28.933  29.014  1.00  0.00     0.057 A 
ATOM     74  C   UNL A   1      39.168  29.317  28.012  1.00  0.00     0.134 A 
ATOM     75  C   UNL A   1      39.580  28.846  30.323  1.00  0.00     0.134 A 
ATOM     76  F   UNL A   1      39.573  29.433  26.739  1.00  0.00    -0.206 F 
ATOM     77  C   UNL A   1      37.841  29.638  28.307  1.00  0.00     0.040 A 
ATOM     78  C   UNL A   1      38.247  29.131  30.624  1.00  0.00     0.040 A 
ATOM     79  F   UNL A   1      40.385  28.477  31.330  1.00  0.00    -0.206 F 
ATOM     80  C   UNL A   1      37.376  29.538  29.616  1.00  0.00     0.006 A 
ENDBRANCH  59  73
BRANCH  60  81
ATOM     81  C   UNL A   1      49.431  26.378  26.650  1.00  0.00     0.057 A 
ATOM     82  C   UNL A   1      50.284  25.817  27.608  1.00  0.00     0.134 A 
ATOM     83  C   UNL A   1      49.953  26.591  25.369  1.00  0.00     0.134 A 
ATOM     84  F   UNL A   1      49.848  25.604  28.859  1.00  0.00    -0.206 F 
ATOM     85  C   UNL A   1      51.612  25.503  27.312  1.00  0.00     0.040 A 
ATOM     86  C   UNL A   1      51.271  26.256  25.051  1.00  0.00     0.040 A 
ATOM     87  F   UNL A   1      49.186  27.118  24.404  1.00  0.00    -0.206 F 
ATOM     88  C   UNL A   1      52.107  25.719  26.028  1.00  0.00     0.006 A 
ENDBRANCH  60  81
BRANCH  72  89
ATOM     89  C   UNL A   1      46.514  32.208  29.081  1.00  0.00     0.057 A 
ATOM     90  C   UNL A   1      46.948  32.483  30.384  1.00  0.00     0.134 A 
ATOM     91  C   UNL A   1      46.647  33.226  28.128  1.00  0.00     0.134 A 
ATOM     92  F   UNL A   1      46.837  31.556  31.349  1.00  0.00    -0.206 F 
ATOM     93  C   UNL A   1      47.461  33.734  30.734  1.00  0.00     0.040 A 
ATOM     94  C   UNL A   1      47.189  34.470  28.458  1.00  0.00     0.040 A 
ATOM     95  F   UNL A   1      46.262  33.028  26.858  1.00  0.00    -0.206 F 
ATOM     96  C   UNL A   1      47.588  34.730  29.767  1.00  0.00     0.006 A 
ENDBRANCH  72  89
ENDBRANCH  46  47
ENDBRANCH  38  41
ENDBRANCH  36  37
ENDBRANCH  35  36
ENDBRANCH  34  35
ENDBRANCH  33  34
ENDBRANCH   1  33
TORSDOF 18
ENDMDL
MODEL 2
REMARK VINA RESULT:     -12.0      4.410     10.325
REMARK SMILES O=C(COc1ccc(N2C[C@@H](C(=O)NCCCCCCNC(=O)c3ccc(-c4c5nc(c(-c6c(F)cccc6F)c6ccc([nH]6)c(-c6c(F)cccc6F)c6nc(c(-c7c(F)cccc7F)c7ccc4[nH]7)C=C6)C=C5)cc3)CC2=O)cc1)Nc1ccc(Cl)cc1Cl
REMARK SMILES IDX 16 1 15 2 14 3 12 4 13 5 11 7 9 8 10 9 79 10 78 11 80 12
REMARK SMILES IDX 8 13 5 14 6 15 82 16 7 17 81 18 4 19 3 20 2 21 1 22 83 23
REMARK SMILES IDX 84 25 85 26 90 27 86 28 89 29 91 30 87 31 88 32 17 33 18 34
REMARK SMILES IDX 19 35 20 36 21 37 22 38 23 40 24 41 25 42 77 43 26 44 76 45
REMARK SMILES IDX 27 46 28 47 29 48 70 49 30 50 75 51 69 52 71 53 31 54 74 55
REMARK SMILES IDX 68 56 67 57 32 59 58 60 41 61 57 62 42 63 45 64 56 65 72 66
REMARK SMILES IDX 43 67 44 68 55 70 73 71 46 72 33 73 34 74 39 75 35 76 36 77
REMARK SMILES IDX 38 78 40 79 37 80 59 81 60 82 65 83 61 84 62 85 64 86 66 87
REMARK SMILES IDX 63 88 47 89 48 90 53 91 49 92 50 93 52 94 54 95 51 96
REMARK H PARENT 14 6 83 24 21 39 71 58 45 69
REMARK Flexibility Score: inf
ROOT
ATOM      1  C   UNL A   1      32.107  28.991  27.146  1.00  0.00     0.021 C 
ENDROOT
BRANCH   1   2
ATOM      2  C   UNL A   1      31.151  27.876  26.718  1.00  0.00     0.116 C 
BRANCH   2   3
ATOM      3  N   UNL A   1      31.510  27.350  25.413  1.00  0.00    -0.356 N 
ATOM      4  C   UNL A   1      32.359  26.363  25.034  1.00  0.00     0.225 C 
ATOM      5  O   UNL A   1      32.484  26.158  23.824  1.00  0.00    -0.275 OA
ATOM      6  H   UNL A   1      31.049  27.791  24.663  1.00  0.00     0.163 HD
BRANCH   4   7
ATOM      7  C   UNL A   1      33.108  25.496  26.022  1.00  0.00     0.107 C 
ATOM      8  N   UNL A   1      34.627  23.701  25.866  1.00  0.00    -0.312 N 
ATOM      9  C   UNL A   1      34.478  25.090  25.510  1.00  0.00     0.139 C 
ATOM     10  C   UNL A   1      33.439  23.143  26.341  1.00  0.00     0.227 C 
ATOM     11  C   UNL A   1      32.395  24.222  26.438  1.00  0.00     0.116 C 
ATOM     12  O   UNL A   1      33.220  21.986  26.678  1.00  0.00    -0.274 OA
BRANCH   8  13
ATOM     13  C   UNL A   1      35.841  22.991  25.690  1.00  0.00     0.044 A 
ATOM     14  C   UNL A   1      38.224  21.501  25.468  1.00  0.00     0.120 A 
ATOM     15  C   UNL A   1      38.260  22.804  25.956  1.00  0.00     0.048 A 
ATOM     16  C   UNL A   1      37.008  20.943  25.088  1.00  0.00     0.048 A 
ATOM     17  C   UNL A   1      37.078  23.556  26.038  1.00  0.00     0.030 A 
ATOM     18  C   UNL A   1      35.829  21.682  25.201  1.00  0.00     0.030 A 
BRANCH  14  19
ATOM     19  O   UNL A   1      39.371  20.755  25.500  1.00  0.00    -0.484 OA
BRANCH  19  20
ATOM     20  C   UNL A   1      40.107  20.933  26.711  1.00  0.00     0.329 C 
BRANCH  20  21
ATOM     21  C   UNL A   1      41.617  21.107  26.514  1.00  0.00     0.262 C 
ATOM     22  O   UNL A   1      42.403  20.223  26.835  1.00  0.00    -0.271 OA
ATOM     23  N   UNL A   1      41.945  22.374  26.050  1.00  0.00    -0.322 N 
ATOM     24  H   UNL A   1      41.199  22.986  25.850  1.00  0.00     0.170 HD
BRANCH  23  25
ATOM     25  C   UNL A   1      43.254  22.867  25.838  1.00  0.00     0.060 A 
ATOM     26  C   UNL A   1      43.710  22.810  24.511  1.00  0.00     0.029 A 
ATOM     27  C   UNL A   1      44.112  23.398  26.822  1.00  0.00     0.066 A 
ATOM     28  C   UNL A   1      44.952  23.345  24.155  1.00  0.00     0.023 A 
ATOM     29  C   UNL A   1      45.350  23.942  26.459  1.00  0.00     0.043 A 
ATOM     30  Cl  UNL A   1      43.831  23.238  28.523  1.00  0.00    -0.082 Cl
ATOM     31  C   UNL A   1      45.758  23.925  25.129  1.00  0.00     0.042 A 
ATOM     32  Cl  UNL A   1      47.283  24.587  24.690  1.00  0.00    -0.084 Cl
ENDBRANCH  23  25
ENDBRANCH  20  21
ENDBRANCH  19  20
ENDBRANCH  14  19
ENDBRANCH   8  13
ENDBRANCH   4   7
ENDBRANCH   2   3
ENDBRANCH   1   2
BRANCH   1  33
ATOM     33  C   UNL A   1      32.348  30.064  26.075  1.00  0.00     0.002 C 
BRANCH  33  34
ATOM     34  C   UNL A   1      31.153  30.978  25.789  1.00  0.00     0.002 C 
BRANCH  34  35
ATOM     35  C   UNL A   1      31.193  32.335  26.495  1.00  0.00     0.021 C 
BRANCH  35  36
ATOM     36  C   UNL A   1      32.561  32.724  27.045  1.00  0.00     0.116 C 
BRANCH  36  37
ATOM     37  N   UNL A   1      32.558  34.052  27.635  1.00  0.00    -0.352 N 
ATOM     38  C   UNL A   1      33.325  34.557  28.654  1.00  0.00     0.251 C 
ATOM     39  H   UNL A   1      31.909  34.683  27.245  1.00  0.00     0.163 HD
ATOM     40  O   UNL A   1      33.044  35.643  29.152  1.00  0.00    -0.269 OA
BRANCH  38  41
ATOM     41  C   UNL A   1      34.479  33.788  29.166  1.00  0.00     0.039 A 
ATOM     42  C   UNL A   1      35.767  34.180  28.792  1.00  0.00     0.014 A 
ATOM     43  C   UNL A   1      34.298  32.675  29.991  1.00  0.00     0.014 A 
ATOM     44  C   UNL A   1      36.872  33.482  29.282  1.00  0.00     0.010 A 
ATOM     45  C   UNL A   1      35.403  32.033  30.545  1.00  0.00     0.010 A 
ATOM     46  C   UNL A   1      36.701  32.420  30.185  1.00  0.00    -0.014 A 
BRANCH  46  47
ATOM     47  C   UNL A   1      37.873  31.702  30.746  1.00  0.00     0.031 A 
ATOM     48  C   UNL A   1      38.339  31.983  32.148  1.00  0.00     0.074 A 
ATOM     49  C   UNL A   1      38.540  30.816  29.981  1.00  0.00     0.049 A 
ATOM     50  N   UNL A   1      39.341  31.459  32.809  1.00  0.00    -0.248 NA
ATOM     51  C   UNL A   1      37.598  33.009  32.900  1.00  0.00     0.031 C 
ATOM     52  C   UNL A   1      38.217  30.488  28.591  1.00  0.00     0.029 A 
ATOM     53  N   UNL A   1      39.625  30.027  30.265  1.00  0.00    -0.354 N 
ATOM     54  C   UNL A   1      39.352  32.093  34.046  1.00  0.00     0.074 A 
ATOM     55  C   UNL A   1      38.302  33.086  34.019  1.00  0.00     0.031 C 
ATOM     56  C   UNL A   1      39.059  29.538  28.156  1.00  0.00     0.029 A 
ATOM     57  C   UNL A   1      40.005  29.218  29.221  1.00  0.00     0.049 A 
ATOM     58  H   UNL A   1      40.089  30.040  31.133  1.00  0.00     0.167 HD
ATOM     59  C   UNL A   1      40.147  31.851  35.117  1.00  0.00     0.037 A 
ATOM     60  C   UNL A   1      41.004  28.318  29.133  1.00  0.00     0.037 A 
ATOM     61  C   UNL A   1      41.187  30.855  35.142  1.00  0.00     0.049 A 
ATOM     62  C   UNL A   1      41.887  28.086  30.328  1.00  0.00     0.074 A 
ATOM     63  C   UNL A   1      42.016  30.500  36.192  1.00  0.00     0.029 A 
ATOM     64  N   UNL A   1      41.545  30.060  34.063  1.00  0.00    -0.354 N 
ATOM     65  N   UNL A   1      41.839  28.638  31.516  1.00  0.00    -0.248 NA
ATOM     66  C   UNL A   1      42.960  27.095  30.170  1.00  0.00     0.031 C 
ATOM     67  C   UNL A   1      42.913  29.529  35.732  1.00  0.00     0.029 A 
ATOM     68  C   UNL A   1      42.601  29.234  34.415  1.00  0.00     0.049 A 
ATOM     69  H   UNL A   1      41.115  30.080  33.179  1.00  0.00     0.167 HD
ATOM     70  C   UNL A   1      42.849  28.037  32.256  1.00  0.00     0.074 A 
ATOM     71  C   UNL A   1      43.482  27.067  31.387  1.00  0.00     0.031 C 
ATOM     72  C   UNL A   1      43.219  28.267  33.541  1.00  0.00     0.037 A 
BRANCH  59  73
ATOM     73  C   UNL A   1      39.919  32.685  36.347  1.00  0.00     0.057 A 
ATOM     74  C   UNL A   1      40.702  33.811  36.635  1.00  0.00     0.134 A 
ATOM     75  C   UNL A   1      38.893  32.368  37.247  1.00  0.00     0.134 A 
ATOM     76  F   UNL A   1      41.709  34.166  35.823  1.00  0.00    -0.206 F 
ATOM     77  C   UNL A   1      40.498  34.569  37.790  1.00  0.00     0.040 A 
ATOM     78  C   UNL A   1      38.657  33.138  38.387  1.00  0.00     0.040 A 
ATOM     79  F   UNL A   1      38.099  31.309  37.032  1.00  0.00    -0.206 F 
ATOM     80  C   UNL A   1      39.468  34.237  38.666  1.00  0.00     0.006 A 
ENDBRANCH  59  73
BRANCH  60  81
ATOM     81  C   UNL A   1      41.201  27.542  27.883  1.00  0.00     0.057 A 
ATOM     82  C   UNL A   1      40.549  26.319  27.682  1.00  0.00     0.134 A 
ATOM     83  C   UNL A   1      42.054  27.991  26.868  1.00  0.00     0.134 A 
ATOM     84  F   UNL A   1      39.733  25.827  28.626  1.00  0.00    -0.206 F 
ATOM     85  C   UNL A   1      40.757  25.559  26.531  1.00  0.00     0.040 A 
ATOM     86  C   UNL A   1      42.249  27.254  25.698  1.00  0.00     0.040 A 
ATOM     87  F   UNL A   1      42.701  29.158  26.994  1.00  0.00    -0.206 F 
ATOM     88  C   UNL A   1      41.606  26.030  25.531  1.00  0.00     0.006 A 
ENDBRANCH  60  81
BRANCH  72  89
ATOM     89  C   UNL A   1      44.329  27.420  34.096  1.00  0.00     0.057 A 
ATOM     90  C   UNL A   1      45.670  27.825  34.053  1.00  0.00     0.134 A 
ATOM     91  C   UNL A   1      44.048  26.185  34.695  1.00  0.00     0.134 A 
ATOM     92  F   UNL A   1      46.010  28.991  33.482  1.00  0.00    -0.206 F 
ATOM     93  C   UNL A   1      46.693  27.017  34.553  1.00  0.00     0.040 A 
ATOM     94  C   UNL A   1      45.059  25.383  35.228  1.00  0.00     0.040 A 
ATOM     95  F   UNL A   1      42.785  25.739  34.780  1.00  0.00    -0.206 F 
ATOM     96  C   UNL A   1      46.387  25.794  35.148  1.00  0.00     0.006 A 
ENDBRANCH  72  89
ENDBRANCH  46  47
ENDBRANCH  38  41
ENDBRANCH  36  37
ENDBRANCH  35  36
ENDBRANCH  34  35
ENDBRANCH  33  34
ENDBRANCH   1  33
TORSDOF 18
ENDMDL
MODEL 3
REMARK VINA RESULT:     -12.0      1.265      6.022
REMARK SMILES O=C(COc1ccc(N2C[C@@H](C(=O)NCCCCCCNC(=O)c3ccc(-c4c5nc(c(-c6c(F)cccc6F)c6ccc([nH]6)c(-c6c(F)cccc6F)c6nc(c(-c7c(F)cccc7F)c7ccc4[nH]7)C=C6)C=C5)cc3)CC2=O)cc1)Nc1ccc(Cl)cc1Cl
REMARK SMILES IDX 16 1 15 2 14 3 12 4 13 5 11 7 9 8 10 9 79 10 78 11 80 12
REMARK SMILES IDX 8 13 5 14 6 15 82 16 7 17 81 18 4 19 3 20 2 21 1 22 83 23
REMARK SMILES IDX 84 25 85 26 90 27 86 28 89 29 91 30 87 31 88 32 17 33 18 34
REMARK SMILES IDX 19 35 20 36 21 37 22 38 23 40 24 41 25 42 77 43 26 44 76 45
REMARK SMILES IDX 27 46 28 47 29 48 70 49 30 50 75 51 69 52 71 53 31 54 74 55
REMARK SMILES IDX 68 56 67 57 32 59 58 60 41 61 57 62 42 63 45 64 56 65 72 66
REMARK SMILES IDX 43 67 44 68 55 70 73 71 46 72 33 73 34 74 39 75 35 76 36 77
REMARK SMILES IDX 38 78 40 79 37 80 59 81 60 82 65 83 61 84 62 85 64 86 66 87
REMARK SMILES IDX 63 88 47 89 48 90 53 91 49 92 50 93 52 94 54 95 51 96
REMARK H PARENT 14 6 83 24 21 39 71 58 45 69
REMARK Flexibility Score: inf
ROOT
ATOM      1  C   UNL A   1      33.721  19.291  24.979  1.00  0.00     0.021 C 
ENDROOT
BRANCH   1   2
ATOM      2  C   UNL A   1      33.402  20.783  24.869  1.00  0.00     0.116 C 
BRANCH   2   3
ATOM      3  N   UNL A   1      32.112  21.089  25.463  1.00  0.00    -0.356 N 
ATOM      4  C   UNL A   1      31.384  22.232  25.513  1.00  0.00     0.225 C 
ATOM      5  O   UNL A   1      30.316  22.196  26.128  1.00  0.00    -0.275 OA
ATOM      6  H   UNL A   1      31.686  20.324  25.912  1.00  0.00     0.163 HD
BRANCH   4   7
ATOM      7  C   UNL A   1      31.805  23.508  24.818  1.00  0.00     0.107 C 
ATOM      8  N   UNL A   1      31.872  25.792  25.396  1.00  0.00    -0.312 N 
ATOM      9  C   UNL A   1      32.416  24.513  25.778  1.00  0.00     0.139 C 
ATOM     10  C   UNL A   1      30.841  25.674  24.463  1.00  0.00     0.227 C 
ATOM     11  C   UNL A   1      30.704  24.231  24.063  1.00  0.00     0.116 C 
ATOM     12  O   UNL A   1      30.146  26.558  23.977  1.00  0.00    -0.274 OA
BRANCH   8  13
ATOM     13  C   UNL A   1      32.315  27.013  25.963  1.00  0.00     0.044 A 
ATOM     14  C   UNL A   1      33.256  29.362  27.207  1.00  0.00     0.120 A 
ATOM     15  C   UNL A   1      31.914  29.006  27.312  1.00  0.00     0.048 A 
ATOM     16  C   UNL A   1      34.125  28.553  26.482  1.00  0.00     0.048 A 
ATOM     17  C   UNL A   1      31.440  27.853  26.668  1.00  0.00     0.030 A 
ATOM     18  C   UNL A   1      33.657  27.390  25.868  1.00  0.00     0.030 A 
BRANCH  14  19
ATOM     19  O   UNL A   1      33.713  30.429  27.933  1.00  0.00    -0.484 OA
BRANCH  19  20
ATOM     20  C   UNL A   1      33.625  31.660  27.214  1.00  0.00     0.329 C 
BRANCH  20  21
ATOM     21  C   UNL A   1      34.180  32.873  27.967  1.00  0.00     0.262 C 
ATOM     22  O   UNL A   1      35.295  33.318  27.714  1.00  0.00    -0.271 OA
ATOM     23  N   UNL A   1      33.334  33.295  28.983  1.00  0.00    -0.322 N 
ATOM     24  H   UNL A   1      32.473  32.825  29.074  1.00  0.00     0.170 HD
BRANCH  23  25
ATOM     25  C   UNL A   1      33.595  34.340  29.900  1.00  0.00     0.060 A 
ATOM     26  C   UNL A   1      33.146  35.612  29.507  1.00  0.00     0.029 A 
ATOM     27  C   UNL A   1      34.248  34.212  31.142  1.00  0.00     0.066 A 
ATOM     28  C   UNL A   1      33.265  36.712  30.362  1.00  0.00     0.023 A 
ATOM     29  C   UNL A   1      34.355  35.314  31.999  1.00  0.00     0.043 A 
ATOM     30  Cl  UNL A   1      35.136  32.803  31.614  1.00  0.00    -0.082 Cl
ATOM     31  C   UNL A   1      33.854  36.553  31.612  1.00  0.00     0.042 A 
ATOM     32  Cl  UNL A   1      33.996  37.904  32.665  1.00  0.00    -0.084 Cl
ENDBRANCH  23  25
ENDBRANCH  20  21
ENDBRANCH  19  20
ENDBRANCH  14  19
ENDBRANCH   8  13
ENDBRANCH   4   7
ENDBRANCH   2   3
ENDBRANCH   1   2
BRANCH   1  33
ATOM     33  C   UNL A   1      35.172  18.927  24.637  1.00  0.00     0.002 C 
BRANCH  33  34
ATOM     34  C   UNL A   1      36.215  19.979  25.027  1.00  0.00     0.002 C 
BRANCH  34  35
ATOM     35  C   UNL A   1      37.661  19.617  24.678  1.00  0.00     0.021 C 
BRANCH  35  36
ATOM     36  C   UNL A   1      38.686  20.012  25.735  1.00  0.00     0.116 C 
BRANCH  36  37
ATOM     37  N   UNL A   1      39.788  19.066  25.810  1.00  0.00    -0.352 N 
ATOM     38  C   UNL A   1      41.119  19.294  26.048  1.00  0.00     0.251 C 
ATOM     39  H   UNL A   1      39.541  18.123  25.670  1.00  0.00     0.163 HD
ATOM     40  O   UNL A   1      41.935  18.393  25.877  1.00  0.00    -0.269 OA
BRANCH  38  41
ATOM     41  C   UNL A   1      41.577  20.627  26.493  1.00  0.00     0.039 A 
ATOM     42  C   UNL A   1      42.184  21.475  25.564  1.00  0.00     0.014 A 
ATOM     43  C   UNL A   1      41.430  21.035  27.822  1.00  0.00     0.014 A 
ATOM     44  C   UNL A   1      42.603  22.746  25.957  1.00  0.00     0.010 A 
ATOM     45  C   UNL A   1      41.772  22.334  28.192  1.00  0.00     0.010 A 
ATOM     46  C   UNL A   1      42.375  23.198  27.268  1.00  0.00    -0.014 A 
BRANCH  46  47
ATOM     47  C   UNL A   1      42.777  24.567  27.682  1.00  0.00     0.031 A 
ATOM     48  C   UNL A   1      44.226  24.968  27.682  1.00  0.00     0.074 A 
ATOM     49  C   UNL A   1      41.836  25.441  28.090  1.00  0.00     0.049 A 
ATOM     50  N   UNL A   1      44.768  26.114  28.011  1.00  0.00    -0.248 NA
ATOM     51  C   UNL A   1      45.199  23.938  27.283  1.00  0.00     0.031 C 
ATOM     52  C   UNL A   1      40.402  25.160  28.180  1.00  0.00     0.029 A 
ATOM     53  N   UNL A   1      41.946  26.745  28.501  1.00  0.00    -0.354 N 
ATOM     54  C   UNL A   1      46.140  25.940  27.866  1.00  0.00     0.074 A 
ATOM     55  C   UNL A   1      46.351  24.561  27.483  1.00  0.00     0.031 C 
ATOM     56  C   UNL A   1      39.761  26.269  28.580  1.00  0.00     0.029 A 
ATOM     57  C   UNL A   1      40.741  27.326  28.813  1.00  0.00     0.049 A 
ATOM     58  H   UNL A   1      42.806  27.219  28.568  1.00  0.00     0.167 HD
ATOM     59  C   UNL A   1      47.131  26.852  28.009  1.00  0.00     0.037 A 
ATOM     60  C   UNL A   1      40.457  28.573  29.237  1.00  0.00     0.037 A 
ATOM     61  C   UNL A   1      46.916  28.226  28.382  1.00  0.00     0.049 A 
ATOM     62  C   UNL A   1      41.578  29.559  29.412  1.00  0.00     0.074 A 
ATOM     63  C   UNL A   1      47.849  29.242  28.509  1.00  0.00     0.029 A 
ATOM     64  N   UNL A   1      45.682  28.775  28.696  1.00  0.00    -0.354 N 
ATOM     65  N   UNL A   1      42.862  29.404  29.199  1.00  0.00    -0.248 NA
ATOM     66  C   UNL A   1      41.206  30.902  29.881  1.00  0.00     0.031 C 
ATOM     67  C   UNL A   1      47.185  30.391  28.953  1.00  0.00     0.029 A 
ATOM     68  C   UNL A   1      45.831  30.109  29.042  1.00  0.00     0.049 A 
ATOM     69  H   UNL A   1      44.826  28.290  28.676  1.00  0.00     0.167 HD
ATOM     70  C   UNL A   1      43.446  30.635  29.471  1.00  0.00     0.074 A 
ATOM     71  C   UNL A   1      42.372  31.529  29.850  1.00  0.00     0.031 C 
ATOM     72  C   UNL A   1      44.752  30.993  29.412  1.00  0.00     0.037 A 
BRANCH  59  73
ATOM     73  C   UNL A   1      48.539  26.385  27.765  1.00  0.00     0.057 A 
ATOM     74  C   UNL A   1      49.146  26.488  26.505  1.00  0.00     0.134 A 
ATOM     75  C   UNL A   1      49.304  25.839  28.804  1.00  0.00     0.134 A 
ATOM     76  F   UNL A   1      48.469  26.989  25.462  1.00  0.00    -0.206 F 
ATOM     77  C   UNL A   1      50.447  26.033  26.280  1.00  0.00     0.040 A 
ATOM     78  C   UNL A   1      50.617  25.412  28.599  1.00  0.00     0.040 A 
ATOM     79  F   UNL A   1      48.791  25.717  30.037  1.00  0.00    -0.206 F 
ATOM     80  C   UNL A   1      51.188  25.499  27.331  1.00  0.00     0.006 A 
ENDBRANCH  59  73
BRANCH  60  81
ATOM     81  C   UNL A   1      39.050  28.972  29.491  1.00  0.00     0.057 A 
ATOM     82  C   UNL A   1      38.262  29.526  28.474  1.00  0.00     0.134 A 
ATOM     83  C   UNL A   1      38.463  28.829  30.753  1.00  0.00     0.134 A 
ATOM     84  F   UNL A   1      38.774  29.706  27.247  1.00  0.00    -0.206 F 
ATOM     85  C   UNL A   1      36.952  29.944  28.708  1.00  0.00     0.040 A 
ATOM     86  C   UNL A   1      37.143  29.216  30.995  1.00  0.00     0.040 A 
ATOM     87  F   UNL A   1      39.160  28.298  31.768  1.00  0.00    -0.206 F 
ATOM     88  C   UNL A   1      36.387  29.785  29.972  1.00  0.00     0.006 A 
ENDBRANCH  60  81
BRANCH  72  89
ATOM     89  C   UNL A   1      45.085  32.425  29.718  1.00  0.00     0.057 A 
ATOM     90  C   UNL A   1      45.437  32.851  31.006  1.00  0.00     0.134 A 
ATOM     91  C   UNL A   1      45.065  33.391  28.704  1.00  0.00     0.134 A 
ATOM     92  F   UNL A   1      45.465  31.979  32.026  1.00  0.00    -0.206 F 
ATOM     93  C   UNL A   1      45.722  34.189  31.280  1.00  0.00     0.040 A 
ATOM     94  C   UNL A   1      45.380  34.727  28.958  1.00  0.00     0.040 A 
ATOM     95  F   UNL A   1      44.747  33.053  27.445  1.00  0.00    -0.206 F 
ATOM     96  C   UNL A   1      45.699  35.131  30.253  1.00  0.00     0.006 A 
ENDBRANCH  72  89
ENDBRANCH  46  47
ENDBRANCH  38  41
ENDBRANCH  36  37
ENDBRANCH  35  36
ENDBRANCH  34  35
ENDBRANCH  33  34
ENDBRANCH   1  33
TORSDOF 18
ENDMDL
