MODEL 1
REMARK VINA RESULT:     -11.9      0.000      0.000
REMARK SMILES COc1ccc(-c2noc(CC(=O)NCCCCCCNC(=O)c3ccc(-c4c5nc(c(-c6c(F)cccc6F)c6ccc([nH]6)c(-c6c(F)cccc6F)c6nc(c(-c7c(F)cccc7F)c7ccc4[nH]7)C=C6)C=C5)cc3)c2-c2ccc(OC)cc2)cc1
REMARK SMILES IDX 17 1 16 2 15 3 14 4 12 5 13 6 11 8 10 9 7 10 8 11 78 12 9 13
REMARK SMILES IDX 6 14 3 15 4 16 88 17 5 18 87 19 2 20 1 21 79 22 80 23 86 24
REMARK SMILES IDX 81 25 85 26 82 27 83 28 84 29 18 30 19 31 20 32 21 33 22 34
REMARK SMILES IDX 23 36 24 37 25 38 77 39 26 40 76 41 27 42 28 43 29 44 70 45
REMARK SMILES IDX 30 46 75 47 69 48 71 49 31 50 74 51 68 52 67 53 32 55 58 56
REMARK SMILES IDX 41 57 57 58 42 59 45 60 56 61 72 62 43 63 44 64 55 66 73 67
REMARK SMILES IDX 46 68 33 69 34 70 39 71 35 72 36 73 38 74 40 75 37 76 59 77
REMARK SMILES IDX 60 78 65 79 61 80 62 81 64 82 66 83 63 84 47 85 48 86 53 87
REMARK SMILES IDX 49 88 50 89 52 90 54 91 51 92
REMARK H PARENT 14 7 21 35 71 54 45 65
REMARK Flexibility Score: inf
ROOT
ATOM      1  C   UNL A   1      34.744  20.624  25.000  1.00  0.00     0.002 C 
ENDROOT
BRANCH   1   2
ATOM      2  C   UNL A   1      33.331  20.217  25.437  1.00  0.00     0.021 C 
BRANCH   2   3
ATOM      3  C   UNL A   1      32.238  21.141  24.901  1.00  0.00     0.116 C 
BRANCH   3   4
ATOM      4  N   UNL A   1      31.412  21.642  25.981  1.00  0.00    -0.356 N 
ATOM      5  C   UNL A   1      31.438  22.866  26.582  1.00  0.00     0.227 C 
ATOM      6  O   UNL A   1      30.713  23.048  27.563  1.00  0.00    -0.275 OA
ATOM      7  H   UNL A   1      30.740  21.011  26.328  1.00  0.00     0.163 HD
BRANCH   5   8
ATOM      8  C   UNL A   1      32.249  23.997  25.982  1.00  0.00     0.179 C 
BRANCH   8   9
ATOM      9  C   UNL A   1      31.445  24.883  25.105  1.00  0.00     0.154 A 
ATOM     10  C   UNL A   1      30.389  26.408  23.890  1.00  0.00     0.122 A 
ATOM     11  N   UNL A   1      29.890  25.220  23.522  1.00  0.00    -0.079 NA
ATOM     12  C   UNL A   1      31.366  26.247  24.917  1.00  0.00     0.053 A 
ATOM     13  O   UNL A   1      30.568  24.271  24.263  1.00  0.00    -0.360 OA
BRANCH  10  14
ATOM     14  C   UNL A   1      29.957  27.654  23.274  1.00  0.00     0.005 A 
ATOM     15  C   UNL A   1      29.068  29.984  21.996  1.00  0.00     0.118 A 
ATOM     16  C   UNL A   1      30.419  29.633  21.960  1.00  0.00     0.047 A 
ATOM     17  C   UNL A   1      28.153  29.159  22.649  1.00  0.00     0.047 A 
ATOM     18  C   UNL A   1      30.869  28.481  22.610  1.00  0.00     0.014 A 
ATOM     19  C   UNL A   1      28.598  28.000  23.289  1.00  0.00     0.014 A 
BRANCH  15  20
ATOM     20  O   UNL A   1      28.724  31.123  21.320  1.00  0.00    -0.497 OA
ATOM     21  C   UNL A   1      28.458  32.241  22.163  1.00  0.00     0.278 C 
ENDBRANCH  15  20
ENDBRANCH  10  14
BRANCH  12  22
ATOM     22  C   UNL A   1      32.080  27.251  25.683  1.00  0.00    -0.012 A 
ATOM     23  C   UNL A   1      33.384  27.602  25.310  1.00  0.00     0.013 A 
ATOM     24  C   UNL A   1      31.505  27.864  26.801  1.00  0.00     0.013 A 
ATOM     25  C   UNL A   1      34.096  28.554  26.041  1.00  0.00     0.047 A 
ATOM     26  C   UNL A   1      32.223  28.820  27.533  1.00  0.00     0.047 A 
ATOM     27  C   UNL A   1      33.522  29.165  27.157  1.00  0.00     0.118 A 
BRANCH  27  28
ATOM     28  O   UNL A   1      34.330  30.072  27.783  1.00  0.00    -0.497 OA
ATOM     29  C   UNL A   1      34.025  31.447  27.595  1.00  0.00     0.278 C 
ENDBRANCH  27  28
ENDBRANCH  12  22
ENDBRANCH   8   9
ENDBRANCH   5   8
ENDBRANCH   3   4
ENDBRANCH   2   3
ENDBRANCH   1   2
BRANCH   1  30
ATOM     30  C   UNL A   1      35.418  21.676  25.890  1.00  0.00     0.002 C 
BRANCH  30  31
ATOM     31  C   UNL A   1      35.627  23.043  25.234  1.00  0.00     0.021 C 
BRANCH  31  32
ATOM     32  C   UNL A   1      37.063  23.556  25.283  1.00  0.00     0.116 C 
BRANCH  32  33
ATOM     33  N   UNL A   1      37.969  22.580  25.870  1.00  0.00    -0.352 N 
ATOM     34  C   UNL A   1      39.139  22.781  26.556  1.00  0.00     0.251 C 
ATOM     35  H   UNL A   1      37.704  21.639  25.759  1.00  0.00     0.163 HD
ATOM     36  O   UNL A   1      39.877  21.829  26.806  1.00  0.00    -0.269 OA
BRANCH  34  37
ATOM     37  C   UNL A   1      39.528  24.141  26.983  1.00  0.00     0.039 A 
ATOM     38  C   UNL A   1      39.328  24.514  28.315  1.00  0.00     0.014 A 
ATOM     39  C   UNL A   1      40.063  25.055  26.070  1.00  0.00     0.014 A 
ATOM     40  C   UNL A   1      39.715  25.785  28.744  1.00  0.00     0.010 A 
ATOM     41  C   UNL A   1      40.507  26.299  26.513  1.00  0.00     0.010 A 
ATOM     42  C   UNL A   1      40.333  26.676  27.854  1.00  0.00    -0.014 A 
BRANCH  42  43
ATOM     43  C   UNL A   1      40.800  28.010  28.305  1.00  0.00     0.031 A 
ATOM     44  C   UNL A   1      42.265  28.346  28.288  1.00  0.00     0.074 A 
ATOM     45  C   UNL A   1      39.910  28.899  28.787  1.00  0.00     0.049 A 
ATOM     46  N   UNL A   1      42.870  29.432  28.700  1.00  0.00    -0.248 NA
ATOM     47  C   UNL A   1      43.175  27.315  27.764  1.00  0.00     0.031 C 
ATOM     48  C   UNL A   1      38.467  28.676  28.899  1.00  0.00     0.029 A 
ATOM     49  N   UNL A   1      40.090  30.165  29.284  1.00  0.00    -0.354 N 
ATOM     50  C   UNL A   1      44.226  29.209  28.500  1.00  0.00     0.074 A 
ATOM     51  C   UNL A   1      44.361  27.867  27.974  1.00  0.00     0.031 C 
ATOM     52  C   UNL A   1      37.891  29.774  29.412  1.00  0.00     0.029 A 
ATOM     53  C   UNL A   1      38.926  30.765  29.696  1.00  0.00     0.049 A 
ATOM     54  H   UNL A   1      40.971  30.603  29.338  1.00  0.00     0.167 HD
ATOM     55  C   UNL A   1      45.263  30.053  28.714  1.00  0.00     0.037 A 
ATOM     56  C   UNL A   1      38.715  31.976  30.245  1.00  0.00     0.037 A 
ATOM     57  C   UNL A   1      45.126  31.396  29.211  1.00  0.00     0.049 A 
ATOM     58  C   UNL A   1      39.882  32.896  30.468  1.00  0.00     0.074 A 
ATOM     59  C   UNL A   1      46.110  32.350  29.402  1.00  0.00     0.029 A 
ATOM     60  N   UNL A   1      43.927  31.975  29.597  1.00  0.00    -0.354 N 
ATOM     61  N   UNL A   1      41.152  32.697  30.211  1.00  0.00    -0.248 NA
ATOM     62  C   UNL A   1      39.586  34.212  31.050  1.00  0.00     0.031 C 
ATOM     63  C   UNL A   1      45.511  33.495  29.940  1.00  0.00     0.029 A 
ATOM     64  C   UNL A   1      44.149  33.269  30.042  1.00  0.00     0.049 A 
ATOM     65  H   UNL A   1      43.047  31.534  29.559  1.00  0.00     0.167 HD
ATOM     66  C   UNL A   1      41.802  33.868  30.575  1.00  0.00     0.074 A 
ATOM     67  C   UNL A   1      40.785  34.779  31.059  1.00  0.00     0.031 C 
ATOM     68  C   UNL A   1      43.123  34.164  30.514  1.00  0.00     0.037 A 
BRANCH  55  69
ATOM     69  C   UNL A   1      46.641  29.545  28.406  1.00  0.00     0.057 A 
ATOM     70  C   UNL A   1      47.422  28.896  29.372  1.00  0.00     0.134 A 
ATOM     71  C   UNL A   1      47.181  29.675  27.120  1.00  0.00     0.134 A 
ATOM     72  F   UNL A   1      46.968  28.749  30.626  1.00  0.00    -0.206 F 
ATOM     73  C   UNL A   1      48.701  28.419  29.078  1.00  0.00     0.040 A 
ATOM     74  C   UNL A   1      48.449  29.180  26.808  1.00  0.00     0.040 A 
ATOM     75  F   UNL A   1      46.485  30.279  26.146  1.00  0.00    -0.206 F 
ATOM     76  C   UNL A   1      49.215  28.555  27.791  1.00  0.00     0.006 A 
ENDBRANCH  55  69
BRANCH  56  77
ATOM     77  C   UNL A   1      37.338  32.400  30.601  1.00  0.00     0.057 A 
ATOM     78  C   UNL A   1      36.582  33.194  29.731  1.00  0.00     0.134 A 
ATOM     79  C   UNL A   1      36.747  32.028  31.814  1.00  0.00     0.134 A 
ATOM     80  F   UNL A   1      37.102  33.597  28.562  1.00  0.00    -0.206 F 
ATOM     81  C   UNL A   1      35.295  33.618  30.062  1.00  0.00     0.040 A 
ATOM     82  C   UNL A   1      35.452  32.425  32.148  1.00  0.00     0.040 A 
ATOM     83  F   UNL A   1      37.418  31.262  32.687  1.00  0.00    -0.206 F 
ATOM     84  C   UNL A   1      34.725  33.229  31.272  1.00  0.00     0.006 A 
ENDBRANCH  56  77
BRANCH  68  85
ATOM     85  C   UNL A   1      43.539  35.538  30.950  1.00  0.00     0.057 A 
ATOM     86  C   UNL A   1      43.602  36.610  30.052  1.00  0.00     0.134 A 
ATOM     87  C   UNL A   1      43.844  35.797  32.293  1.00  0.00     0.134 A 
ATOM     88  F   UNL A   1      43.335  36.424  28.750  1.00  0.00    -0.206 F 
ATOM     89  C   UNL A   1      43.975  37.888  30.471  1.00  0.00     0.040 A 
ATOM     90  C   UNL A   1      44.194  37.076  32.726  1.00  0.00     0.040 A 
ATOM     91  F   UNL A   1      43.794  34.814  33.205  1.00  0.00    -0.206 F 
ATOM     92  C   UNL A   1      44.266  38.125  31.812  1.00  0.00     0.006 A 
ENDBRANCH  68  85
ENDBRANCH  42  43
ENDBRANCH  34  37
ENDBRANCH  32  33
ENDBRANCH  31  32
ENDBRANCH  30  31
ENDBRANCH   1  30
TORSDOF 18
ENDMDL
MODEL 2
REMARK VINA RESULT:     -11.8      3.605      8.138
REMARK SMILES COc1ccc(-c2noc(CC(=O)NCCCCCCNC(=O)c3ccc(-c4c5nc(c(-c6c(F)cccc6F)c6ccc([nH]6)c(-c6c(F)cccc6F)c6nc(c(-c7c(F)cccc7F)c7ccc4[nH]7)C=C6)C=C5)cc3)c2-c2ccc(OC)cc2)cc1
REMARK SMILES IDX 17 1 16 2 15 3 14 4 12 5 13 6 11 8 10 9 7 10 8 11 78 12 9 13
REMARK SMILES IDX 6 14 3 15 4 16 88 17 5 18 87 19 2 20 1 21 79 22 80 23 86 24
REMARK SMILES IDX 81 25 85 26 82 27 83 28 84 29 18 30 19 31 20 32 21 33 22 34
REMARK SMILES IDX 23 36 24 37 25 38 77 39 26 40 76 41 27 42 28 43 29 44 70 45
REMARK SMILES IDX 30 46 75 47 69 48 71 49 31 50 74 51 68 52 67 53 32 55 58 56
REMARK SMILES IDX 41 57 57 58 42 59 45 60 56 61 72 62 43 63 44 64 55 66 73 67
REMARK SMILES IDX 46 68 33 69 34 70 39 71 35 72 36 73 38 74 40 75 37 76 59 77
REMARK SMILES IDX 60 78 65 79 61 80 62 81 64 82 66 83 63 84 47 85 48 86 53 87
REMARK SMILES IDX 49 88 50 89 52 90 54 91 51 92
REMARK H PARENT 14 7 21 35 71 54 45 65
REMARK Flexibility Score: inf
ROOT
ATOM      1  C   UNL A   1      32.673  29.839  25.351  1.00  0.00     0.002 C 
ENDROOT
BRANCH   1   2
ATOM      2  C   UNL A   1      32.419  29.277  23.946  1.00  0.00     0.021 C 
BRANCH   2   3
ATOM      3  C   UNL A   1      33.700  29.023  23.152  1.00  0.00     0.116 C 
BRANCH   3   4
ATOM      4  N   UNL A   1      33.478  28.029  22.121  1.00  0.00    -0.356 N 
ATOM      5  C   UNL A   1      33.394  26.673  22.244  1.00  0.00     0.227 C 
ATOM      6  O   UNL A   1      33.306  26.000  21.214  1.00  0.00    -0.275 OA
ATOM      7  H   UNL A   1      33.372  28.382  21.208  1.00  0.00     0.163 HD
BRANCH   5   8
ATOM      8  C   UNL A   1      33.295  26.033  23.614  1.00  0.00     0.179 C 
BRANCH   8   9
ATOM      9  C   UNL A   1      32.829  24.625  23.561  1.00  0.00     0.154 A 
ATOM     10  C   UNL A   1      32.361  22.458  23.605  1.00  0.00     0.122 A 
ATOM     11  N   UNL A   1      31.285  23.066  23.086  1.00  0.00    -0.079 NA
ATOM     12  C   UNL A   1      33.383  23.408  23.899  1.00  0.00     0.053 A 
ATOM     13  O   UNL A   1      31.571  24.418  23.084  1.00  0.00    -0.360 OA
BRANCH  10  14
ATOM     14  C   UNL A   1      32.406  21.019  23.824  1.00  0.00     0.005 A 
ATOM     15  C   UNL A   1      32.619  18.260  24.262  1.00  0.00     0.118 A 
ATOM     16  C   UNL A   1      32.364  18.751  22.980  1.00  0.00     0.047 A 
ATOM     17  C   UNL A   1      32.794  19.147  25.324  1.00  0.00     0.047 A 
ATOM     18  C   UNL A   1      32.241  20.126  22.761  1.00  0.00     0.014 A 
ATOM     19  C   UNL A   1      32.684  20.522  25.105  1.00  0.00     0.014 A 
BRANCH  15  20
ATOM     20  O   UNL A   1      32.735  16.902  24.373  1.00  0.00    -0.497 OA
ATOM     21  C   UNL A   1      33.909  16.366  23.769  1.00  0.00     0.278 C 
ENDBRANCH  15  20
ENDBRANCH  10  14
BRANCH  12  22
ATOM     22  C   UNL A   1      34.740  23.195  24.366  1.00  0.00    -0.012 A 
ATOM     23  C   UNL A   1      35.099  23.614  25.654  1.00  0.00     0.013 A 
ATOM     24  C   UNL A   1      35.708  22.597  23.552  1.00  0.00     0.013 A 
ATOM     25  C   UNL A   1      36.402  23.434  26.118  1.00  0.00     0.047 A 
ATOM     26  C   UNL A   1      37.016  22.417  24.022  1.00  0.00     0.047 A 
ATOM     27  C   UNL A   1      37.368  22.838  25.306  1.00  0.00     0.118 A 
BRANCH  27  28
ATOM     28  O   UNL A   1      38.602  22.729  25.882  1.00  0.00    -0.497 OA
ATOM     29  C   UNL A   1      39.154  21.423  25.984  1.00  0.00     0.278 C 
ENDBRANCH  27  28
ENDBRANCH  12  22
ENDBRANCH   8   9
ENDBRANCH   5   8
ENDBRANCH   3   4
ENDBRANCH   2   3
ENDBRANCH   1   2
BRANCH   1  30
ATOM     30  C   UNL A   1      31.417  30.306  26.098  1.00  0.00     0.002 C 
BRANCH  30  31
ATOM     31  C   UNL A   1      31.334  31.814  26.348  1.00  0.00     0.021 C 
BRANCH  31  32
ATOM     32  C   UNL A   1      32.540  32.403  27.073  1.00  0.00     0.116 C 
BRANCH  32  33
ATOM     33  N   UNL A   1      32.319  33.787  27.463  1.00  0.00    -0.352 N 
ATOM     34  C   UNL A   1      32.971  34.541  28.404  1.00  0.00     0.251 C 
ATOM     35  H   UNL A   1      31.596  34.249  26.982  1.00  0.00     0.163 HD
ATOM     36  O   UNL A   1      32.516  35.634  28.740  1.00  0.00    -0.269 OA
BRANCH  34  37
ATOM     37  C   UNL A   1      34.211  34.040  29.031  1.00  0.00     0.039 A 
ATOM     38  C   UNL A   1      34.114  33.192  30.138  1.00  0.00     0.014 A 
ATOM     39  C   UNL A   1      35.466  34.424  28.547  1.00  0.00     0.014 A 
ATOM     40  C   UNL A   1      35.275  32.687  30.727  1.00  0.00     0.010 A 
ATOM     41  C   UNL A   1      36.620  33.868  29.095  1.00  0.00     0.010 A 
ATOM     42  C   UNL A   1      36.535  32.998  30.192  1.00  0.00    -0.014 A 
BRANCH  42  43
ATOM     43  C   UNL A   1      37.775  32.425  30.771  1.00  0.00     0.031 A 
ATOM     44  C   UNL A   1      38.429  31.231  30.133  1.00  0.00     0.074 A 
ATOM     45  C   UNL A   1      38.281  32.944  31.906  1.00  0.00     0.049 A 
ATOM     46  N   UNL A   1      39.478  30.554  30.526  1.00  0.00    -0.248 NA
ATOM     47  C   UNL A   1      37.805  30.713  28.905  1.00  0.00     0.031 C 
ATOM     48  C   UNL A   1      37.713  34.073  32.648  1.00  0.00     0.029 A 
ATOM     49  N   UNL A   1      39.380  32.583  32.643  1.00  0.00    -0.354 N 
ATOM     50  C   UNL A   1      39.630  29.524  29.607  1.00  0.00     0.074 A 
ATOM     51  C   UNL A   1      38.539  29.636  28.663  1.00  0.00     0.031 C 
ATOM     52  C   UNL A   1      38.478  34.323  33.721  1.00  0.00     0.029 A 
ATOM     53  C   UNL A   1      39.571  33.354  33.763  1.00  0.00     0.049 A 
ATOM     54  H   UNL A   1      39.977  31.841  32.392  1.00  0.00     0.167 HD
ATOM     55  C   UNL A   1      40.602  28.584  29.542  1.00  0.00     0.037 A 
ATOM     56  C   UNL A   1      40.515  33.286  34.719  1.00  0.00     0.037 A 
ATOM     57  C   UNL A   1      41.702  28.491  30.465  1.00  0.00     0.049 A 
ATOM     58  C   UNL A   1      41.587  32.237  34.621  1.00  0.00     0.074 A 
ATOM     59  C   UNL A   1      42.772  27.613  30.447  1.00  0.00     0.029 A 
ATOM     60  N   UNL A   1      41.872  29.305  31.575  1.00  0.00    -0.354 N 
ATOM     61  N   UNL A   1      41.756  31.311  33.709  1.00  0.00    -0.248 NA
ATOM     62  C   UNL A   1      42.603  32.227  35.683  1.00  0.00     0.031 C 
ATOM     63  C   UNL A   1      43.570  27.871  31.567  1.00  0.00     0.029 A 
ATOM     64  C   UNL A   1      43.020  28.938  32.258  1.00  0.00     0.049 A 
ATOM     65  H   UNL A   1      41.267  30.036  31.838  1.00  0.00     0.167 HD
ATOM     66  C   UNL A   1      42.909  30.627  34.070  1.00  0.00     0.074 A 
ATOM     67  C   UNL A   1      43.406  31.252  35.279  1.00  0.00     0.031 C 
ATOM     68  C   UNL A   1      43.503  29.576  33.457  1.00  0.00     0.037 A 
BRANCH  55  69
ATOM     69  C   UNL A   1      40.521  27.582  28.428  1.00  0.00     0.057 A 
ATOM     70  C   UNL A   1      41.225  27.753  27.229  1.00  0.00     0.134 A 
ATOM     71  C   UNL A   1      39.758  26.416  28.568  1.00  0.00     0.134 A 
ATOM     72  F   UNL A   1      41.965  28.853  27.026  1.00  0.00    -0.206 F 
ATOM     73  C   UNL A   1      41.151  26.814  26.198  1.00  0.00     0.040 A 
ATOM     74  C   UNL A   1      39.696  25.458  27.555  1.00  0.00     0.040 A 
ATOM     75  F   UNL A   1      39.065  26.186  29.694  1.00  0.00    -0.206 F 
ATOM     76  C   UNL A   1      40.390  25.659  26.362  1.00  0.00     0.006 A 
ENDBRANCH  55  69
BRANCH  56  77
ATOM     77  C   UNL A   1      40.507  34.257  35.841  1.00  0.00     0.057 A 
ATOM     78  C   UNL A   1      41.185  35.477  35.743  1.00  0.00     0.134 A 
ATOM     79  C   UNL A   1      39.828  33.991  37.036  1.00  0.00     0.134 A 
ATOM     80  F   UNL A   1      41.868  35.781  34.629  1.00  0.00    -0.206 F 
ATOM     81  C   UNL A   1      41.204  36.391  36.797  1.00  0.00     0.040 A 
ATOM     82  C   UNL A   1      39.818  34.905  38.091  1.00  0.00     0.040 A 
ATOM     83  F   UNL A   1      39.153  32.842  37.189  1.00  0.00    -0.206 F 
ATOM     84  C   UNL A   1      40.514  36.106  37.975  1.00  0.00     0.006 A 
ENDBRANCH  56  77
BRANCH  68  85
ATOM     85  C   UNL A   1      44.773  29.057  34.063  1.00  0.00     0.057 A 
ATOM     86  C   UNL A   1      44.777  27.983  34.962  1.00  0.00     0.134 A 
ATOM     87  C   UNL A   1      46.010  29.615  33.714  1.00  0.00     0.134 A 
ATOM     88  F   UNL A   1      43.625  27.414  35.347  1.00  0.00    -0.206 F 
ATOM     89  C   UNL A   1      45.965  27.498  35.510  1.00  0.00     0.040 A 
ATOM     90  C   UNL A   1      47.206  29.122  34.237  1.00  0.00     0.040 A 
ATOM     91  F   UNL A   1      46.076  30.640  32.851  1.00  0.00    -0.206 F 
ATOM     92  C   UNL A   1      47.184  28.063  35.143  1.00  0.00     0.006 A 
ENDBRANCH  68  85
ENDBRANCH  42  43
ENDBRANCH  34  37
ENDBRANCH  32  33
ENDBRANCH  31  32
ENDBRANCH  30  31
ENDBRANCH   1  30
TORSDOF 18
ENDMDL
MODEL 3
REMARK VINA RESULT:     -11.7      2.443      7.040
REMARK SMILES COc1ccc(-c2noc(CC(=O)NCCCCCCNC(=O)c3ccc(-c4c5nc(c(-c6c(F)cccc6F)c6ccc([nH]6)c(-c6c(F)cccc6F)c6nc(c(-c7c(F)cccc7F)c7ccc4[nH]7)C=C6)C=C5)cc3)c2-c2ccc(OC)cc2)cc1
REMARK SMILES IDX 17 1 16 2 15 3 14 4 12 5 13 6 11 8 10 9 7 10 8 11 78 12 9 13
REMARK SMILES IDX 6 14 3 15 4 16 88 17 5 18 87 19 2 20 1 21 79 22 80 23 86 24
REMARK SMILES IDX 81 25 85 26 82 27 83 28 84 29 18 30 19 31 20 32 21 33 22 34
REMARK SMILES IDX 23 36 24 37 25 38 77 39 26 40 76 41 27 42 28 43 29 44 70 45
REMARK SMILES IDX 30 46 75 47 69 48 71 49 31 50 74 51 68 52 67 53 32 55 58 56
REMARK SMILES IDX 41 57 57 58 42 59 45 60 56 61 72 62 43 63 44 64 55 66 73 67
REMARK SMILES IDX 46 68 33 69 34 70 39 71 35 72 36 73 38 74 40 75 37 76 59 77
REMARK SMILES IDX 60 78 65 79 61 80 62 81 64 82 66 83 63 84 47 85 48 86 53 87
REMARK SMILES IDX 49 88 50 89 52 90 54 91 51 92
REMARK H PARENT 14 7 21 35 71 54 45 65
REMARK Flexibility Score: inf
ROOT
ATOM      1  C   UNL A   1      35.812  21.058  25.478  1.00  0.00     0.002 C 
ENDROOT
BRANCH   1   2
ATOM      2  C   UNL A   1      35.514  22.087  24.379  1.00  0.00     0.021 C 
BRANCH   2   3
ATOM      3  C   UNL A   1      34.049  22.101  23.941  1.00  0.00     0.116 C 
BRANCH   3   4
ATOM      4  N   UNL A   1      33.169  21.997  25.087  1.00  0.00    -0.356 N 
ATOM      5  C   UNL A   1      32.823  22.958  25.991  1.00  0.00     0.227 C 
ATOM      6  O   UNL A   1      32.137  22.625  26.961  1.00  0.00    -0.275 OA
ATOM      7  H   UNL A   1      32.765  21.111  25.231  1.00  0.00     0.163 HD
BRANCH   5   8
ATOM      8  C   UNL A   1      33.179  24.409  25.740  1.00  0.00     0.179 C 
BRANCH   8   9
ATOM      9  C   UNL A   1      32.145  25.131  24.958  1.00  0.00     0.154 A 
ATOM     10  C   UNL A   1      30.706  26.433  23.885  1.00  0.00     0.122 A 
ATOM     11  N   UNL A   1      30.446  25.178  23.491  1.00  0.00    -0.079 NA
ATOM     12  C   UNL A   1      31.764  26.452  24.841  1.00  0.00     0.053 A 
ATOM     13  O   UNL A   1      31.361  24.373  24.142  1.00  0.00    -0.360 OA
BRANCH  10  14
ATOM     14  C   UNL A   1      29.976  27.577  23.357  1.00  0.00     0.005 A 
ATOM     15  C   UNL A   1      28.522  29.701  22.252  1.00  0.00     0.118 A 
ATOM     16  C   UNL A   1      29.907  29.636  22.087  1.00  0.00     0.047 A 
ATOM     17  C   UNL A   1      27.856  28.692  22.947  1.00  0.00     0.047 A 
ATOM     18  C   UNL A   1      30.638  28.587  22.651  1.00  0.00     0.014 A 
ATOM     19  C   UNL A   1      28.583  27.636  23.500  1.00  0.00     0.014 A 
BRANCH  15  20
ATOM     20  O   UNL A   1      27.895  30.759  21.653  1.00  0.00    -0.497 OA
ATOM     21  C   UNL A   1      28.077  32.002  22.328  1.00  0.00     0.278 C 
ENDBRANCH  15  20
ENDBRANCH  10  14
BRANCH  12  22
ATOM     22  C   UNL A   1      32.301  27.559  25.609  1.00  0.00    -0.012 A 
ATOM     23  C   UNL A   1      33.651  27.905  25.466  1.00  0.00     0.013 A 
ATOM     24  C   UNL A   1      31.506  28.279  26.506  1.00  0.00     0.013 A 
ATOM     25  C   UNL A   1      34.192  28.957  26.206  1.00  0.00     0.047 A 
ATOM     26  C   UNL A   1      32.053  29.336  27.248  1.00  0.00     0.047 A 
ATOM     27  C   UNL A   1      33.399  29.676  27.102  1.00  0.00     0.118 A 
BRANCH  27  28
ATOM     28  O   UNL A   1      34.057  30.674  27.764  1.00  0.00    -0.497 OA
ATOM     29  C   UNL A   1      33.543  31.991  27.621  1.00  0.00     0.278 C 
ENDBRANCH  27  28
ENDBRANCH  12  22
ENDBRANCH   8   9
ENDBRANCH   5   8
ENDBRANCH   3   4
ENDBRANCH   2   3
ENDBRANCH   1   2
BRANCH   1  30
ATOM     30  C   UNL A   1      36.477  19.765  24.990  1.00  0.00     0.002 C 
BRANCH  30  31
ATOM     31  C   UNL A   1      37.955  19.896  24.615  1.00  0.00     0.021 C 
BRANCH  31  32
ATOM     32  C   UNL A   1      38.889  20.132  25.799  1.00  0.00     0.116 C 
BRANCH  32  33
ATOM     33  N   UNL A   1      39.931  19.119  25.880  1.00  0.00    -0.352 N 
ATOM     34  C   UNL A   1      41.283  19.272  26.047  1.00  0.00     0.251 C 
ATOM     35  H   UNL A   1      39.620  18.189  25.804  1.00  0.00     0.163 HD
ATOM     36  O   UNL A   1      42.035  18.311  25.891  1.00  0.00    -0.269 OA
BRANCH  34  37
ATOM     37  C   UNL A   1      41.845  20.593  26.396  1.00  0.00     0.039 A 
ATOM     38  C   UNL A   1      42.072  21.522  25.377  1.00  0.00     0.014 A 
ATOM     39  C   UNL A   1      42.171  20.907  27.719  1.00  0.00     0.014 A 
ATOM     40  C   UNL A   1      42.577  22.785  25.691  1.00  0.00     0.010 A 
ATOM     41  C   UNL A   1      42.613  22.189  28.038  1.00  0.00     0.010 A 
ATOM     42  C   UNL A   1      42.824  23.138  27.026  1.00  0.00    -0.014 A 
BRANCH  42  43
ATOM     43  C   UNL A   1      43.309  24.494  27.384  1.00  0.00     0.031 A 
ATOM     44  C   UNL A   1      42.338  25.553  27.826  1.00  0.00     0.074 A 
ATOM     45  C   UNL A   1      44.616  24.790  27.252  1.00  0.00     0.049 A 
ATOM     46  N   UNL A   1      42.561  26.810  28.120  1.00  0.00    -0.248 NA
ATOM     47  C   UNL A   1      40.925  25.156  27.928  1.00  0.00     0.031 C 
ATOM     48  C   UNL A   1      45.651  23.864  26.788  1.00  0.00     0.029 A 
ATOM     49  N   UNL A   1      45.297  25.958  27.486  1.00  0.00    -0.354 N 
ATOM     50  C   UNL A   1      41.320  27.354  28.423  1.00  0.00     0.074 A 
ATOM     51  C   UNL A   1      40.341  26.305  28.233  1.00  0.00     0.031 C 
ATOM     52  C   UNL A   1      46.837  24.493  26.789  1.00  0.00     0.029 A 
ATOM     53  C   UNL A   1      46.642  25.874  27.222  1.00  0.00     0.049 A 
ATOM     54  H   UNL A   1      44.862  26.779  27.813  1.00  0.00     0.167 HD
ATOM     55  C   UNL A   1      41.025  28.608  28.843  1.00  0.00     0.037 A 
ATOM     56  C   UNL A   1      47.609  26.806  27.314  1.00  0.00     0.037 A 
ATOM     57  C   UNL A   1      42.003  29.641  29.058  1.00  0.00     0.049 A 
ATOM     58  C   UNL A   1      47.256  28.188  27.788  1.00  0.00     0.074 A 
ATOM     59  C   UNL A   1      41.811  30.923  29.542  1.00  0.00     0.029 A 
ATOM     60  N   UNL A   1      43.359  29.510  28.800  1.00  0.00    -0.354 N 
ATOM     61  N   UNL A   1      46.088  28.669  28.135  1.00  0.00    -0.248 NA
ATOM     62  C   UNL A   1      48.359  29.155  27.888  1.00  0.00     0.031 C 
ATOM     63  C   UNL A   1      43.046  31.582  29.542  1.00  0.00     0.029 A 
ATOM     64  C   UNL A   1      44.013  30.695  29.099  1.00  0.00     0.049 A 
ATOM     65  H   UNL A   1      43.793  28.696  28.456  1.00  0.00     0.167 HD
ATOM     66  C   UNL A   1      46.317  29.984  28.520  1.00  0.00     0.074 A 
ATOM     67  C   UNL A   1      47.739  30.221  28.375  1.00  0.00     0.031 C 
ATOM     68  C   UNL A   1      45.430  30.911  28.955  1.00  0.00     0.037 A 
BRANCH  55  69
ATOM     69  C   UNL A   1      39.582  28.927  29.102  1.00  0.00     0.057 A 
ATOM     70  C   UNL A   1      38.741  29.411  28.091  1.00  0.00     0.134 A 
ATOM     71  C   UNL A   1      39.018  28.716  30.366  1.00  0.00     0.134 A 
ATOM     72  F   UNL A   1      39.222  29.646  26.861  1.00  0.00    -0.206 F 
ATOM     73  C   UNL A   1      37.397  29.701  28.336  1.00  0.00     0.040 A 
ATOM     74  C   UNL A   1      37.669  28.978  30.616  1.00  0.00     0.040 A 
ATOM     75  F   UNL A   1      39.765  28.248  31.377  1.00  0.00    -0.206 F 
ATOM     76  C   UNL A   1      36.856  29.478  29.600  1.00  0.00     0.006 A 
ENDBRANCH  55  69
BRANCH  56  77
ATOM     77  C   UNL A   1      49.010  26.456  26.974  1.00  0.00     0.057 A 
ATOM     78  C   UNL A   1      49.865  25.896  27.930  1.00  0.00     0.134 A 
ATOM     79  C   UNL A   1      49.530  26.676  25.692  1.00  0.00     0.134 A 
ATOM     80  F   UNL A   1      49.429  25.679  29.179  1.00  0.00    -0.206 F 
ATOM     81  C   UNL A   1      51.191  25.583  27.630  1.00  0.00     0.040 A 
ATOM     82  C   UNL A   1      50.847  26.346  25.371  1.00  0.00     0.040 A 
ATOM     83  F   UNL A   1      48.758  27.204  24.730  1.00  0.00    -0.206 F 
ATOM     84  C   UNL A   1      51.684  25.804  26.345  1.00  0.00     0.006 A 
ENDBRANCH  56  77
BRANCH  68  85
ATOM     85  C   UNL A   1      45.976  32.256  29.335  1.00  0.00     0.057 A 
ATOM     86  C   UNL A   1      46.426  32.530  30.632  1.00  0.00     0.134 A 
ATOM     87  C   UNL A   1      46.086  33.276  28.381  1.00  0.00     0.134 A 
ATOM     88  F   UNL A   1      46.334  31.599  31.595  1.00  0.00    -0.206 F 
ATOM     89  C   UNL A   1      46.946  33.779  30.973  1.00  0.00     0.040 A 
ATOM     90  C   UNL A   1      46.627  34.520  28.705  1.00  0.00     0.040 A 
ATOM     91  F   UNL A   1      45.681  33.074  27.118  1.00  0.00    -0.206 F 
ATOM     92  C   UNL A   1      47.054  34.776  30.006  1.00  0.00     0.006 A 
ENDBRANCH  68  85
ENDBRANCH  42  43
ENDBRANCH  34  37
ENDBRANCH  32  33
ENDBRANCH  31  32
ENDBRANCH  30  31
ENDBRANCH   1  30
TORSDOF 18
ENDMDL
