MODEL 1
REMARK VINA RESULT:     -11.6      0.000      0.000
REMARK SMILES COc1ccccc1CNC(=O)[C@@H]1[C@H]2CC[C@H](CC2)[C@@H]1C(=O)NCCCCCCNC(=O)c1ccc(-c2c3nc(c(-c4c(F)cccc4F)c4ccc([nH]4)c(-c4c(F)cccc4F)c4nc(c(-c5c(F)cccc5F)c5ccc2[nH]5)C=C4)C=C3)cc1
REMARK SMILES IDX 25 1 24 2 23 3 21 4 22 5 20 7 13 8 14 9 15 10 19 11 17 12
REMARK SMILES IDX 16 13 18 14 11 15 10 16 12 18 9 19 8 20 3 21 4 22 5 23 7 24
REMARK SMILES IDX 6 25 2 26 1 27 26 28 27 29 28 30 29 31 30 32 31 33 32 35
REMARK SMILES IDX 33 36 34 37 86 38 35 39 85 40 36 41 37 42 38 43 79 44 39 45
REMARK SMILES IDX 84 46 78 47 80 48 40 49 83 50 77 51 76 52 41 54 67 55 50 56
REMARK SMILES IDX 66 57 51 58 54 59 65 60 81 61 52 62 53 63 64 65 82 66 55 67
REMARK SMILES IDX 42 68 43 69 48 70 44 71 45 72 47 73 49 74 46 75 68 76 69 77
REMARK SMILES IDX 74 78 70 79 71 80 73 81 75 82 72 83 56 84 57 85 62 86 58 87
REMARK SMILES IDX 59 88 61 89 63 90 60 91
REMARK H PARENT 23 6 10 17 30 34 80 53 54 64
REMARK Flexibility Score: inf
ROOT
ATOM      1  C   UNL A   1      33.350  28.425  26.974  1.00  0.00     0.021 C 
ENDROOT
BRANCH   1   2
ATOM      2  C   UNL A   1      33.653  27.350  25.934  1.00  0.00     0.116 C 
BRANCH   2   3
ATOM      3  N   UNL A   1      33.150  26.058  26.355  1.00  0.00    -0.356 N 
ATOM      4  C   UNL A   1      33.511  24.809  25.950  1.00  0.00     0.224 C 
ATOM      5  O   UNL A   1      32.943  23.845  26.463  1.00  0.00    -0.275 OA
ATOM      6  H   UNL A   1      32.440  26.089  27.037  1.00  0.00     0.163 HD
BRANCH   4   7
ATOM      7  C   UNL A   1      34.705  24.664  25.003  1.00  0.00     0.094 C 
ATOM      8  C   UNL A   1      34.401  24.066  23.590  1.00  0.00     0.094 C 
ATOM      9  C   UNL A   1      35.126  22.704  23.490  1.00  0.00     0.002 C 
ATOM     10  C   UNL A   1      36.652  22.974  23.564  1.00  0.00     0.005 C 
ATOM     11  C   UNL A   1      34.734  21.808  24.676  1.00  0.00     0.005 C 
ATOM     12  C   UNL A   1      35.772  23.810  25.755  1.00  0.00     0.002 C 
ATOM     13  C   UNL A   1      37.019  23.683  24.875  1.00  0.00     0.005 C 
ATOM     14  C   UNL A   1      35.247  22.383  25.994  1.00  0.00     0.005 C 
BRANCH   8  15
ATOM     15  C   UNL A   1      32.916  24.211  23.220  1.00  0.00     0.224 C 
ATOM     16  N   UNL A   1      32.417  25.282  22.551  1.00  0.00    -0.352 N 
ATOM     17  H   UNL A   1      31.896  25.095  21.736  1.00  0.00     0.163 HD
ATOM     18  O   UNL A   1      32.105  23.353  23.590  1.00  0.00    -0.275 OA
BRANCH  16  19
ATOM     19  C   UNL A   1      32.578  26.673  22.921  1.00  0.00     0.155 C 
BRANCH  19  20
ATOM     20  C   UNL A   1      31.326  27.512  22.863  1.00  0.00     0.013 A 
ATOM     21  C   UNL A   1      30.134  27.084  23.468  1.00  0.00     0.123 A 
ATOM     22  C   UNL A   1      29.005  27.912  23.500  1.00  0.00     0.047 A 
ATOM     23  C   UNL A   1      29.051  29.190  22.947  1.00  0.00     0.004 A 
ATOM     24  C   UNL A   1      31.320  28.776  22.251  1.00  0.00     0.009 A 
ATOM     25  C   UNL A   1      30.206  29.617  22.308  1.00  0.00     0.001 A 
BRANCH  21  26
ATOM     26  O   UNL A   1      29.950  25.795  23.898  1.00  0.00    -0.496 OA
ATOM     27  C   UNL A   1      29.902  25.676  25.317  1.00  0.00     0.278 C 
ENDBRANCH  21  26
ENDBRANCH  19  20
ENDBRANCH  16  19
ENDBRANCH   8  15
ENDBRANCH   4   7
ENDBRANCH   2   3
ENDBRANCH   1   2
BRANCH   1  28
ATOM     28  C   UNL A   1      31.919  28.974  26.899  1.00  0.00     0.002 C 
BRANCH  28  29
ATOM     29  C   UNL A   1      31.667  29.972  25.764  1.00  0.00     0.002 C 
BRANCH  29  30
ATOM     30  C   UNL A   1      31.393  31.407  26.218  1.00  0.00     0.021 C 
BRANCH  30  31
ATOM     31  C   UNL A   1      32.548  32.059  26.966  1.00  0.00     0.116 C 
BRANCH  31  32
ATOM     32  N   UNL A   1      32.291  33.461  27.252  1.00  0.00    -0.352 N 
ATOM     33  C   UNL A   1      32.912  34.294  28.149  1.00  0.00     0.251 C 
ATOM     34  H   UNL A   1      31.566  33.872  26.727  1.00  0.00     0.163 HD
ATOM     35  O   UNL A   1      32.439  35.393  28.406  1.00  0.00    -0.269 OA
BRANCH  33  36
ATOM     36  C   UNL A   1      34.150  33.846  28.823  1.00  0.00     0.039 A 
ATOM     37  C   UNL A   1      34.044  33.068  29.978  1.00  0.00     0.014 A 
ATOM     38  C   UNL A   1      35.407  34.191  28.317  1.00  0.00     0.014 A 
ATOM     39  C   UNL A   1      35.201  32.587  30.594  1.00  0.00     0.010 A 
ATOM     40  C   UNL A   1      36.553  33.645  28.884  1.00  0.00     0.010 A 
ATOM     41  C   UNL A   1      36.463  32.843  30.032  1.00  0.00    -0.014 A 
BRANCH  41  42
ATOM     42  C   UNL A   1      37.698  32.278  30.632  1.00  0.00     0.031 A 
ATOM     43  C   UNL A   1      38.322  31.039  30.054  1.00  0.00     0.074 A 
ATOM     44  C   UNL A   1      38.219  32.843  31.738  1.00  0.00     0.049 A 
ATOM     45  N   UNL A   1      39.363  30.365  30.473  1.00  0.00    -0.248 NA
ATOM     46  C   UNL A   1      37.674  30.464  28.866  1.00  0.00     0.031 C 
ATOM     47  C   UNL A   1      37.674  34.014  32.426  1.00  0.00     0.029 A 
ATOM     48  N   UNL A   1      39.318  32.500  32.485  1.00  0.00    -0.354 N 
ATOM     49  C   UNL A   1      39.486  29.284  29.608  1.00  0.00     0.074 A 
ATOM     50  C   UNL A   1      38.378  29.358  28.681  1.00  0.00     0.031 C 
ATOM     51  C   UNL A   1      38.448  34.302  33.484  1.00  0.00     0.029 A 
ATOM     52  C   UNL A   1      39.519  33.314  33.573  1.00  0.00     0.049 A 
ATOM     53  H   UNL A   1      39.905  31.741  32.263  1.00  0.00     0.167 HD
ATOM     54  C   UNL A   1      40.449  28.332  29.574  1.00  0.00     0.037 A 
ATOM     55  C   UNL A   1      40.453  33.264  34.542  1.00  0.00     0.037 A 
ATOM     56  C   UNL A   1      41.555  28.269  30.493  1.00  0.00     0.049 A 
ATOM     57  C   UNL A   1      41.506  32.192  34.491  1.00  0.00     0.074 A 
ATOM     58  C   UNL A   1      42.615  27.380  30.507  1.00  0.00     0.029 A 
ATOM     59  N   UNL A   1      41.737  29.124  31.571  1.00  0.00    -0.354 N 
ATOM     60  N   UNL A   1      41.658  31.223  33.621  1.00  0.00    -0.248 NA
ATOM     61  C   UNL A   1      42.523  32.212  35.550  1.00  0.00     0.031 C 
ATOM     62  C   UNL A   1      43.407  27.662  31.625  1.00  0.00     0.029 A 
ATOM     63  C   UNL A   1      42.876  28.765  32.274  1.00  0.00     0.049 A 
ATOM     64  H   UNL A   1      41.145  29.876  31.800  1.00  0.00     0.167 HD
ATOM     65  C   UNL A   1      42.798  30.533  34.011  1.00  0.00     0.074 A 
ATOM     66  C   UNL A   1      43.307  31.207  35.188  1.00  0.00     0.031 C 
ATOM     67  C   UNL A   1      43.372  29.442  33.446  1.00  0.00     0.037 A 
BRANCH  54  68
ATOM     68  C   UNL A   1      40.335  27.277  28.509  1.00  0.00     0.057 A 
ATOM     69  C   UNL A   1      41.003  27.386  27.280  1.00  0.00     0.134 A 
ATOM     70  C   UNL A   1      39.561  26.128  28.718  1.00  0.00     0.134 A 
ATOM     71  F   UNL A   1      41.754  28.465  27.009  1.00  0.00    -0.206 F 
ATOM     72  C   UNL A   1      40.870  26.416  26.286  1.00  0.00     0.040 A 
ATOM     73  C   UNL A   1      39.448  25.135  27.745  1.00  0.00     0.040 A 
ATOM     74  F   UNL A   1      38.903  25.951  29.874  1.00  0.00    -0.206 F 
ATOM     75  C   UNL A   1      40.094  25.283  26.519  1.00  0.00     0.006 A 
ENDBRANCH  54  68
BRANCH  55  76
ATOM     76  C   UNL A   1      40.436  34.269  35.635  1.00  0.00     0.057 A 
ATOM     77  C   UNL A   1      41.077  35.505  35.496  1.00  0.00     0.134 A 
ATOM     78  C   UNL A   1      39.768  34.021  36.840  1.00  0.00     0.134 A 
ATOM     79  F   UNL A   1      41.747  35.794  34.370  1.00  0.00    -0.206 F 
ATOM     80  C   UNL A   1      41.070  36.451  36.521  1.00  0.00     0.040 A 
ATOM     81  C   UNL A   1      39.730  34.969  37.864  1.00  0.00     0.040 A 
ATOM     82  F   UNL A   1      39.125  32.860  37.033  1.00  0.00    -0.206 F 
ATOM     83  C   UNL A   1      40.389  36.186  37.708  1.00  0.00     0.006 A 
ENDBRANCH  55  76
BRANCH  67  84
ATOM     84  C   UNL A   1      44.633  28.925  34.075  1.00  0.00     0.057 A 
ATOM     85  C   UNL A   1      44.622  27.902  35.031  1.00  0.00     0.134 A 
ATOM     86  C   UNL A   1      45.881  29.433  33.688  1.00  0.00     0.134 A 
ATOM     87  F   UNL A   1      43.461  27.380  35.455  1.00  0.00    -0.206 F 
ATOM     88  C   UNL A   1      45.803  27.419  35.598  1.00  0.00     0.040 A 
ATOM     89  C   UNL A   1      47.071  28.938  34.226  1.00  0.00     0.040 A 
ATOM     90  F   UNL A   1      45.965  30.408  32.771  1.00  0.00    -0.206 F 
ATOM     91  C   UNL A   1      47.033  27.934  35.189  1.00  0.00     0.006 A 
ENDBRANCH  67  84
ENDBRANCH  41  42
ENDBRANCH  33  36
ENDBRANCH  31  32
ENDBRANCH  30  31
ENDBRANCH  29  30
ENDBRANCH  28  29
ENDBRANCH   1  28
TORSDOF 17
ENDMDL
MODEL 2
REMARK VINA RESULT:     -11.6      3.798      8.774
REMARK SMILES COc1ccccc1CNC(=O)[C@@H]1[C@H]2CC[C@H](CC2)[C@@H]1C(=O)NCCCCCCNC(=O)c1ccc(-c2c3nc(c(-c4c(F)cccc4F)c4ccc([nH]4)c(-c4c(F)cccc4F)c4nc(c(-c5c(F)cccc5F)c5ccc2[nH]5)C=C4)C=C3)cc1
REMARK SMILES IDX 25 1 24 2 23 3 21 4 22 5 20 7 13 8 14 9 15 10 19 11 17 12
REMARK SMILES IDX 16 13 18 14 11 15 10 16 12 18 9 19 8 20 3 21 4 22 5 23 7 24
REMARK SMILES IDX 6 25 2 26 1 27 26 28 27 29 28 30 29 31 30 32 31 33 32 35
REMARK SMILES IDX 33 36 34 37 86 38 35 39 85 40 36 41 37 42 38 43 79 44 39 45
REMARK SMILES IDX 84 46 78 47 80 48 40 49 83 50 77 51 76 52 41 54 67 55 50 56
REMARK SMILES IDX 66 57 51 58 54 59 65 60 81 61 52 62 53 63 64 65 82 66 55 67
REMARK SMILES IDX 42 68 43 69 48 70 44 71 45 72 47 73 49 74 46 75 68 76 69 77
REMARK SMILES IDX 74 78 70 79 71 80 73 81 75 82 72 83 56 84 57 85 62 86 58 87
REMARK SMILES IDX 59 88 61 89 63 90 60 91
REMARK H PARENT 23 6 10 17 30 34 80 53 54 64
REMARK Flexibility Score: inf
ROOT
ATOM      1  C   UNL A   1      35.799  22.767  23.788  1.00  0.00     0.021 C 
ENDROOT
BRANCH   1   2
ATOM      2  C   UNL A   1      35.314  24.081  24.397  1.00  0.00     0.116 C 
BRANCH   2   3
ATOM      3  N   UNL A   1      34.247  24.661  23.607  1.00  0.00    -0.356 N 
ATOM      4  C   UNL A   1      33.273  25.540  23.973  1.00  0.00     0.224 C 
ATOM      5  O   UNL A   1      32.470  25.907  23.115  1.00  0.00    -0.275 OA
ATOM      6  H   UNL A   1      34.223  24.378  22.664  1.00  0.00     0.163 HD
BRANCH   4   7
ATOM      7  C   UNL A   1      33.324  26.145  25.379  1.00  0.00     0.094 C 
ATOM      8  C   UNL A   1      32.069  25.905  26.283  1.00  0.00     0.094 C 
ATOM      9  C   UNL A   1      31.407  27.277  26.539  1.00  0.00     0.002 C 
ATOM     10  C   UNL A   1      32.408  28.142  27.351  1.00  0.00     0.005 C 
ATOM     11  C   UNL A   1      31.123  27.987  25.205  1.00  0.00     0.005 C 
ATOM     12  C   UNL A   1      33.603  27.669  25.200  1.00  0.00     0.002 C 
ATOM     13  C   UNL A   1      33.725  28.318  26.583  1.00  0.00     0.005 C 
ATOM     14  C   UNL A   1      32.421  28.353  24.490  1.00  0.00     0.005 C 
BRANCH   8  15
ATOM     15  C   UNL A   1      31.249  24.696  25.804  1.00  0.00     0.224 C 
ATOM     16  N   UNL A   1      31.444  23.434  26.266  1.00  0.00    -0.352 N 
ATOM     17  H   UNL A   1      30.655  22.963  26.621  1.00  0.00     0.163 HD
ATOM     18  O   UNL A   1      30.404  24.843  24.912  1.00  0.00    -0.275 OA
BRANCH  16  19
ATOM     19  C   UNL A   1      32.701  22.716  26.288  1.00  0.00     0.155 C 
BRANCH  19  20
ATOM     20  C   UNL A   1      32.703  21.384  25.581  1.00  0.00     0.013 A 
ATOM     21  C   UNL A   1      32.550  21.299  24.188  1.00  0.00     0.123 A 
ATOM     22  C   UNL A   1      32.655  20.070  23.525  1.00  0.00     0.047 A 
ATOM     23  C   UNL A   1      32.937  18.906  24.237  1.00  0.00     0.004 A 
ATOM     24  C   UNL A   1      32.914  20.184  26.280  1.00  0.00     0.009 A 
ATOM     25  C   UNL A   1      33.052  18.961  25.620  1.00  0.00     0.001 A 
BRANCH  21  26
ATOM     26  O   UNL A   1      32.123  22.359  23.430  1.00  0.00    -0.496 OA
ATOM     27  C   UNL A   1      32.256  22.140  22.029  1.00  0.00     0.278 C 
ENDBRANCH  21  26
ENDBRANCH  19  20
ENDBRANCH  16  19
ENDBRANCH   8  15
ENDBRANCH   4   7
ENDBRANCH   2   3
ENDBRANCH   1   2
BRANCH   1  28
ATOM     28  C   UNL A   1      36.855  22.044  24.635  1.00  0.00     0.002 C 
BRANCH  28  29
ATOM     29  C   UNL A   1      36.542  20.576  24.943  1.00  0.00     0.002 C 
BRANCH  29  30
ATOM     30  C   UNL A   1      37.760  19.649  24.963  1.00  0.00     0.021 C 
BRANCH  30  31
ATOM     31  C   UNL A   1      38.989  20.245  25.634  1.00  0.00     0.116 C 
BRANCH  31  32
ATOM     32  N   UNL A   1      40.066  19.277  25.757  1.00  0.00    -0.352 N 
ATOM     33  C   UNL A   1      41.382  19.478  26.096  1.00  0.00     0.251 C 
ATOM     34  H   UNL A   1      39.817  18.342  25.570  1.00  0.00     0.163 HD
ATOM     35  O   UNL A   1      42.202  18.579  25.958  1.00  0.00    -0.269 OA
BRANCH  33  36
ATOM     36  C   UNL A   1      41.809  20.796  26.610  1.00  0.00     0.039 A 
ATOM     37  C   UNL A   1      42.310  21.740  25.712  1.00  0.00     0.014 A 
ATOM     38  C   UNL A   1      41.714  21.099  27.972  1.00  0.00     0.014 A 
ATOM     39  C   UNL A   1      42.662  23.011  26.171  1.00  0.00     0.010 A 
ATOM     40  C   UNL A   1      41.989  22.389  28.414  1.00  0.00     0.010 A 
ATOM     41  C   UNL A   1      42.473  23.356  27.519  1.00  0.00    -0.014 A 
BRANCH  41  42
ATOM     42  C   UNL A   1      42.773  24.725  28.009  1.00  0.00     0.031 A 
ATOM     43  C   UNL A   1      44.175  25.099  28.400  1.00  0.00     0.074 A 
ATOM     44  C   UNL A   1      41.770  25.610  28.164  1.00  0.00     0.049 A 
ATOM     45  N   UNL A   1      44.621  26.221  28.904  1.00  0.00    -0.248 NA
ATOM     46  C   UNL A   1      45.207  24.064  28.231  1.00  0.00     0.031 C 
ATOM     47  C   UNL A   1      40.360  25.350  27.872  1.00  0.00     0.029 A 
ATOM     48  N   UNL A   1      41.783  26.906  28.618  1.00  0.00    -0.354 N 
ATOM     49  C   UNL A   1      45.980  26.024  29.121  1.00  0.00     0.074 A 
ATOM     50  C   UNL A   1      46.271  24.655  28.754  1.00  0.00     0.031 C 
ATOM     51  C   UNL A   1      39.646  26.455  28.139  1.00  0.00     0.029 A 
ATOM     52  C   UNL A   1      40.538  27.487  28.657  1.00  0.00     0.049 A 
ATOM     53  H   UNL A   1      42.606  27.373  28.890  1.00  0.00     0.167 HD
ATOM     54  C   UNL A   1      46.905  26.910  29.562  1.00  0.00     0.037 A 
ATOM     55  C   UNL A   1      40.157  28.708  29.076  1.00  0.00     0.037 A 
ATOM     56  C   UNL A   1      46.612  28.274  29.915  1.00  0.00     0.049 A 
ATOM     57  C   UNL A   1      41.199  29.673  29.572  1.00  0.00     0.074 A 
ATOM     58  C   UNL A   1      47.486  29.268  30.316  1.00  0.00     0.029 A 
ATOM     59  N   UNL A   1      45.342  28.833  29.923  1.00  0.00    -0.354 N 
ATOM     60  N   UNL A   1      42.493  29.500  29.697  1.00  0.00    -0.248 NA
ATOM     61  C   UNL A   1      40.730  31.004  29.976  1.00  0.00     0.031 C 
ATOM     62  C   UNL A   1      46.740  30.411  30.620  1.00  0.00     0.029 A 
ATOM     63  C   UNL A   1      45.406  30.150  30.351  1.00  0.00     0.049 A 
ATOM     64  H   UNL A   1      44.517  28.364  29.662  1.00  0.00     0.167 HD
ATOM     65  C   UNL A   1      42.996  30.705  30.169  1.00  0.00     0.074 A 
ATOM     66  C   UNL A   1      41.868  31.605  30.292  1.00  0.00     0.031 C 
ATOM     67  C   UNL A   1      44.276  31.036  30.472  1.00  0.00     0.037 A 
BRANCH  54  68
ATOM     68  C   UNL A   1      48.320  26.420  29.692  1.00  0.00     0.057 A 
ATOM     69  C   UNL A   1      49.248  26.541  28.647  1.00  0.00     0.134 A 
ATOM     70  C   UNL A   1      48.768  25.831  30.881  1.00  0.00     0.134 A 
ATOM     71  F   UNL A   1      48.885  27.086  27.475  1.00  0.00    -0.206 F 
ATOM     72  C   UNL A   1      50.552  26.058  28.765  1.00  0.00     0.040 A 
ATOM     73  C   UNL A   1      50.079  25.375  31.024  1.00  0.00     0.040 A 
ATOM     74  F   UNL A   1      47.938  25.691  31.927  1.00  0.00    -0.206 F 
ATOM     75  C   UNL A   1      50.972  25.477  29.959  1.00  0.00     0.006 A 
ENDBRANCH  54  68
BRANCH  55  76
ATOM     76  C   UNL A   1      38.722  29.087  29.033  1.00  0.00     0.057 A 
ATOM     77  C   UNL A   1      37.907  28.978  30.165  1.00  0.00     0.134 A 
ATOM     78  C   UNL A   1      38.135  29.579  27.861  1.00  0.00     0.134 A 
ATOM     79  F   UNL A   1      38.408  28.498  31.313  1.00  0.00    -0.206 F 
ATOM     80  C   UNL A   1      36.556  29.326  30.129  1.00  0.00     0.040 A 
ATOM     81  C   UNL A   1      36.793  29.958  27.818  1.00  0.00     0.040 A 
ATOM     82  F   UNL A   1      38.865  29.718  26.744  1.00  0.00    -0.206 F 
ATOM     83  C   UNL A   1      35.997  29.825  28.954  1.00  0.00     0.006 A 
ENDBRANCH  55  76
BRANCH  67  84
ATOM     84  C   UNL A   1      44.530  32.440  30.938  1.00  0.00     0.057 A 
ATOM     85  C   UNL A   1      44.578  32.775  32.297  1.00  0.00     0.134 A 
ATOM     86  C   UNL A   1      44.771  33.465  30.013  1.00  0.00     0.134 A 
ATOM     87  F   UNL A   1      44.344  31.845  33.236  1.00  0.00    -0.206 F 
ATOM     88  C   UNL A   1      44.830  34.082  32.719  1.00  0.00     0.040 A 
ATOM     89  C   UNL A   1      45.054  34.769  30.422  1.00  0.00     0.040 A 
ATOM     90  F   UNL A   1      44.749  33.212  28.696  1.00  0.00    -0.206 F 
ATOM     91  C   UNL A   1      45.076  35.082  31.779  1.00  0.00     0.006 A 
ENDBRANCH  67  84
ENDBRANCH  41  42
ENDBRANCH  33  36
ENDBRANCH  31  32
ENDBRANCH  30  31
ENDBRANCH  29  30
ENDBRANCH  28  29
ENDBRANCH   1  28
TORSDOF 17
ENDMDL
MODEL 3
REMARK VINA RESULT:     -11.5      4.343      9.444
REMARK SMILES COc1ccccc1CNC(=O)[C@@H]1[C@H]2CC[C@H](CC2)[C@@H]1C(=O)NCCCCCCNC(=O)c1ccc(-c2c3nc(c(-c4c(F)cccc4F)c4ccc([nH]4)c(-c4c(F)cccc4F)c4nc(c(-c5c(F)cccc5F)c5ccc2[nH]5)C=C4)C=C3)cc1
REMARK SMILES IDX 25 1 24 2 23 3 21 4 22 5 20 7 13 8 14 9 15 10 19 11 17 12
REMARK SMILES IDX 16 13 18 14 11 15 10 16 12 18 9 19 8 20 3 21 4 22 5 23 7 24
REMARK SMILES IDX 6 25 2 26 1 27 26 28 27 29 28 30 29 31 30 32 31 33 32 35
REMARK SMILES IDX 33 36 34 37 86 38 35 39 85 40 36 41 37 42 38 43 79 44 39 45
REMARK SMILES IDX 84 46 78 47 80 48 40 49 83 50 77 51 76 52 41 54 67 55 50 56
REMARK SMILES IDX 66 57 51 58 54 59 65 60 81 61 52 62 53 63 64 65 82 66 55 67
REMARK SMILES IDX 42 68 43 69 48 70 44 71 45 72 47 73 49 74 46 75 68 76 69 77
REMARK SMILES IDX 74 78 70 79 71 80 73 81 75 82 72 83 56 84 57 85 62 86 58 87
REMARK SMILES IDX 59 88 61 89 63 90 60 91
REMARK H PARENT 23 6 10 17 30 34 80 53 54 64
REMARK Flexibility Score: inf
ROOT
ATOM      1  C   UNL A   1      36.578  23.366  24.699  1.00  0.00     0.021 C 
ENDROOT
BRANCH   1   2
ATOM      2  C   UNL A   1      35.528  24.283  25.319  1.00  0.00     0.116 C 
BRANCH   2   3
ATOM      3  N   UNL A   1      34.775  24.982  24.297  1.00  0.00    -0.356 N 
ATOM      4  C   UNL A   1      33.750  25.870  24.426  1.00  0.00     0.224 C 
ATOM      5  O   UNL A   1      33.266  26.351  23.401  1.00  0.00    -0.275 OA
ATOM      6  H   UNL A   1      35.046  24.787  23.371  1.00  0.00     0.163 HD
BRANCH   4   7
ATOM      7  C   UNL A   1      33.364  26.343  25.829  1.00  0.00     0.094 C 
ATOM      8  C   UNL A   1      31.877  26.107  26.256  1.00  0.00     0.094 C 
ATOM      9  C   UNL A   1      31.213  27.491  26.431  1.00  0.00     0.002 C 
ATOM     10  C   UNL A   1      31.926  28.213  27.605  1.00  0.00     0.005 C 
ATOM     11  C   UNL A   1      31.400  28.333  25.158  1.00  0.00     0.005 C 
ATOM     12  C   UNL A   1      33.736  27.856  25.911  1.00  0.00     0.002 C 
ATOM     13  C   UNL A   1      33.426  28.370  27.320  1.00  0.00     0.005 C 
ATOM     14  C   UNL A   1      32.871  28.676  24.936  1.00  0.00     0.005 C 
BRANCH   8  15
ATOM     15  C   UNL A   1      31.215  25.002  25.416  1.00  0.00     0.224 C 
ATOM     16  N   UNL A   1      31.277  23.684  25.740  1.00  0.00    -0.352 N 
ATOM     17  H   UNL A   1      30.421  23.201  25.803  1.00  0.00     0.163 HD
ATOM     18  O   UNL A   1      30.644  25.294  24.359  1.00  0.00    -0.275 OA
BRANCH  16  19
ATOM     19  C   UNL A   1      32.480  22.922  26.002  1.00  0.00     0.155 C 
BRANCH  19  20
ATOM     20  C   UNL A   1      32.542  21.560  25.358  1.00  0.00     0.013 A 
ATOM     21  C   UNL A   1      32.329  21.396  23.980  1.00  0.00     0.123 A 
ATOM     22  C   UNL A   1      32.490  20.145  23.370  1.00  0.00     0.047 A 
ATOM     23  C   UNL A   1      32.886  19.040  24.120  1.00  0.00     0.004 A 
ATOM     24  C   UNL A   1      32.870  20.413  26.099  1.00  0.00     0.009 A 
ATOM     25  C   UNL A   1      33.062  19.171  25.490  1.00  0.00     0.001 A 
BRANCH  21  26
ATOM     26  O   UNL A   1      31.794  22.385  23.196  1.00  0.00    -0.496 OA
ATOM     27  C   UNL A   1      32.732  22.958  22.291  1.00  0.00     0.278 C 
ENDBRANCH  21  26
ENDBRANCH  19  20
ENDBRANCH  16  19
ENDBRANCH   8  15
ENDBRANCH   4   7
ENDBRANCH   2   3
ENDBRANCH   1   2
BRANCH   1  28
ATOM     28  C   UNL A   1      36.919  22.143  25.561  1.00  0.00     0.002 C 
BRANCH  28  29
ATOM     29  C   UNL A   1      36.597  20.789  24.920  1.00  0.00     0.002 C 
BRANCH  29  30
ATOM     30  C   UNL A   1      37.736  19.768  24.966  1.00  0.00     0.021 C 
BRANCH  30  31
ATOM     31  C   UNL A   1      38.977  20.246  25.706  1.00  0.00     0.116 C 
BRANCH  31  32
ATOM     32  N   UNL A   1      39.976  19.198  25.832  1.00  0.00    -0.352 N 
ATOM     33  C   UNL A   1      41.319  19.303  26.097  1.00  0.00     0.251 C 
ATOM     34  H   UNL A   1      39.641  18.280  25.709  1.00  0.00     0.163 HD
ATOM     35  O   UNL A   1      42.054  18.332  25.970  1.00  0.00    -0.269 OA
BRANCH  33  36
ATOM     36  C   UNL A   1      41.879  20.605  26.516  1.00  0.00     0.039 A 
ATOM     37  C   UNL A   1      42.341  21.487  25.537  1.00  0.00     0.014 A 
ATOM     38  C   UNL A   1      41.948  20.954  27.868  1.00  0.00     0.014 A 
ATOM     39  C   UNL A   1      42.819  22.745  25.911  1.00  0.00     0.010 A 
ATOM     40  C   UNL A   1      42.347  22.236  28.232  1.00  0.00     0.010 A 
ATOM     41  C   UNL A   1      42.794  23.142  27.258  1.00  0.00    -0.014 A 
BRANCH  41  42
ATOM     42  C   UNL A   1      43.229  24.502  27.664  1.00  0.00     0.031 A 
ATOM     43  C   UNL A   1      42.210  25.552  28.005  1.00  0.00     0.074 A 
ATOM     44  C   UNL A   1      44.539  24.809  27.660  1.00  0.00     0.049 A 
ATOM     45  N   UNL A   1      42.392  26.809  28.324  1.00  0.00    -0.248 NA
ATOM     46  C   UNL A   1      40.797  25.145  27.954  1.00  0.00     0.031 C 
ATOM     47  C   UNL A   1      45.622  23.895  27.294  1.00  0.00     0.029 A 
ATOM     48  N   UNL A   1      45.184  25.983  27.963  1.00  0.00    -0.354 N 
ATOM     49  C   UNL A   1      41.121  27.343  28.499  1.00  0.00     0.074 A 
ATOM     50  C   UNL A   1      40.176  26.291  28.190  1.00  0.00     0.031 C 
ATOM     51  C   UNL A   1      46.796  24.535  27.409  1.00  0.00     0.029 A 
ATOM     52  C   UNL A   1      46.548  25.914  27.816  1.00  0.00     0.049 A 
ATOM     53  H   UNL A   1      44.713  26.796  28.256  1.00  0.00     0.167 HD
ATOM     54  C   UNL A   1      40.773  28.587  28.905  1.00  0.00     0.037 A 
ATOM     55  C   UNL A   1      47.493  26.860  27.979  1.00  0.00     0.037 A 
ATOM     56  C   UNL A   1      41.717  29.626  29.221  1.00  0.00     0.049 A 
ATOM     57  C   UNL A   1      47.084  28.238  28.420  1.00  0.00     0.074 A 
ATOM     58  C   UNL A   1      41.470  30.902  29.697  1.00  0.00     0.029 A 
ATOM     59  N   UNL A   1      43.094  29.514  29.080  1.00  0.00    -0.354 N 
ATOM     60  N   UNL A   1      45.884  28.707  28.659  1.00  0.00    -0.248 NA
ATOM     61  C   UNL A   1      48.162  29.216  28.621  1.00  0.00     0.031 C 
ATOM     62  C   UNL A   1      42.690  31.578  29.790  1.00  0.00     0.029 A 
ATOM     63  C   UNL A   1      43.705  30.706  29.432  1.00  0.00     0.049 A 
ATOM     64  H   UNL A   1      43.565  28.705  28.777  1.00  0.00     0.167 HD
ATOM     65  C   UNL A   1      46.061  30.024  29.063  1.00  0.00     0.074 A 
ATOM     66  C   UNL A   1      47.488  30.273  29.051  1.00  0.00     0.031 C 
ATOM     67  C   UNL A   1      45.127  30.943  29.413  1.00  0.00     0.037 A 
BRANCH  54  68
ATOM     68  C   UNL A   1      39.305  28.889  29.019  1.00  0.00     0.057 A 
ATOM     69  C   UNL A   1      38.556  29.358  27.930  1.00  0.00     0.134 A 
ATOM     70  C   UNL A   1      38.626  28.695  30.228  1.00  0.00     0.134 A 
ATOM     71  F   UNL A   1      39.144  29.575  26.743  1.00  0.00    -0.206 F 
ATOM     72  C   UNL A   1      37.199  29.662  28.051  1.00  0.00     0.040 A 
ATOM     73  C   UNL A   1      37.262  28.964  30.353  1.00  0.00     0.040 A 
ATOM     74  F   UNL A   1      39.276  28.239  31.310  1.00  0.00    -0.206 F 
ATOM     75  C   UNL A   1      36.547  29.461  29.265  1.00  0.00     0.006 A 
ENDBRANCH  54  68
BRANCH  55  76
ATOM     76  C   UNL A   1      48.919  26.526  27.733  1.00  0.00     0.057 A 
ATOM     77  C   UNL A   1      49.723  25.981  28.740  1.00  0.00     0.134 A 
ATOM     78  C   UNL A   1      49.509  26.735  26.480  1.00  0.00     0.134 A 
ATOM     79  F   UNL A   1      49.219  25.773  29.967  1.00  0.00    -0.206 F 
ATOM     80  C   UNL A   1      51.065  25.671  28.518  1.00  0.00     0.040 A 
ATOM     81  C   UNL A   1      50.843  26.404  26.235  1.00  0.00     0.040 A 
ATOM     82  F   UNL A   1      48.790  27.245  25.469  1.00  0.00    -0.206 F 
ATOM     83  C   UNL A   1      51.626  25.877  27.259  1.00  0.00     0.006 A 
ENDBRANCH  55  76
BRANCH  67  84
ATOM     84  C   UNL A   1      45.621  32.295  29.841  1.00  0.00     0.057 A 
ATOM     85  C   UNL A   1      45.997  32.565  31.162  1.00  0.00     0.134 A 
ATOM     86  C   UNL A   1      45.760  33.330  28.906  1.00  0.00     0.134 A 
ATOM     87  F   UNL A   1      45.878  31.623  32.110  1.00  0.00    -0.206 F 
ATOM     88  C   UNL A   1      46.469  33.823  31.544  1.00  0.00     0.040 A 
ATOM     89  C   UNL A   1      46.259  34.582  29.269  1.00  0.00     0.040 A 
ATOM     90  F   UNL A   1      45.426  33.137  27.621  1.00  0.00    -0.206 F 
ATOM     91  C   UNL A   1      46.607  34.833  30.594  1.00  0.00     0.006 A 
ENDBRANCH  67  84
ENDBRANCH  41  42
ENDBRANCH  33  36
ENDBRANCH  31  32
ENDBRANCH  30  31
ENDBRANCH  29  30
ENDBRANCH  28  29
ENDBRANCH   1  28
TORSDOF 17
ENDMDL
