MODEL 1
REMARK VINA RESULT:     -12.6      0.000      0.000
REMARK SMILES CC(C)=C1[C@H]2CC[C@@H]1[C@H](C(=O)NNC(=O)c1ccoc1C)[C@H]2C(=O)NCCCCCCNC(=O)c1ccc(-c2c3nc(c(-c4c(F)cccc4F)c4ccc([nH]4)c(-c4c(F)cccc4F)c4nc(c(-c5c(F)cccc5F)c5ccc2[nH]5)C=C4)C=C3)cc1
REMARK SMILES IDX 28 1 27 2 26 3 25 4 23 5 24 6 22 8 1 9 2 10 3 11 4 12 5 13
REMARK SMILES IDX 8 14 6 15 7 16 9 17 10 18 11 19 12 20 13 22 14 23 15 25
REMARK SMILES IDX 16 26 17 27 20 28 18 29 19 30 21 31 29 32 30 33 31 34 32 35
REMARK SMILES IDX 33 36 34 38 35 39 36 40 88 41 37 42 87 43 38 44 39 45 40 46
REMARK SMILES IDX 81 47 41 48 86 49 80 50 82 51 42 52 85 53 79 54 78 55 43 57
REMARK SMILES IDX 69 58 52 59 68 60 53 61 56 62 67 63 83 64 54 65 55 66 66 68
REMARK SMILES IDX 84 69 57 70 44 71 45 72 50 73 46 74 47 75 49 76 51 77 48 78
REMARK SMILES IDX 70 79 71 80 76 81 72 82 73 83 75 84 77 85 74 86 58 87 59 88
REMARK SMILES IDX 64 89 60 90 61 91 63 92 65 93 62 94
REMARK H PARENT 25 7 12 21 13 24 32 37 82 56 56 67
REMARK Flexibility Score: inf
ROOT
ATOM      1  C   UNL A   1      34.411  31.872  28.287  1.00  0.00     0.002 C 
ENDROOT
BRANCH   1   2
ATOM      2  C   UNL A   1      35.606  30.937  28.088  1.00  0.00     0.021 C 
BRANCH   2   3
ATOM      3  C   UNL A   1      35.287  29.638  27.347  1.00  0.00     0.116 C 
BRANCH   3   4
ATOM      4  N   UNL A   1      33.982  29.119  27.716  1.00  0.00    -0.356 N 
ATOM      5  C   UNL A   1      33.044  28.389  27.069  1.00  0.00     0.224 C 
ATOM      6  O   UNL A   1      32.006  28.172  27.706  1.00  0.00    -0.275 OA
ATOM      7  H   UNL A   1      33.724  29.347  28.638  1.00  0.00     0.163 HD
BRANCH   5   8
ATOM      8  C   UNL A   1      33.167  27.798  25.669  1.00  0.00     0.098 C 
ATOM      9  C   UNL A   1      30.365  23.985  25.684  1.00  0.00     0.039 C 
ATOM     10  C   UNL A   1      31.699  24.563  26.068  1.00  0.00    -0.077 C 
ATOM     11  C   UNL A   1      32.430  23.794  27.139  1.00  0.00     0.039 C 
ATOM     12  C   UNL A   1      32.227  25.641  25.462  1.00  0.00    -0.064 C 
ATOM     13  C   UNL A   1      33.559  26.309  25.657  1.00  0.00     0.028 C 
ATOM     14  C   UNL A   1      31.786  26.426  24.245  1.00  0.00     0.028 C 
ATOM     15  C   UNL A   1      34.170  25.968  24.285  1.00  0.00     0.009 C 
ATOM     16  C   UNL A   1      32.951  25.964  23.343  1.00  0.00     0.009 C 
ATOM     17  C   UNL A   1      31.940  27.895  24.736  1.00  0.00     0.100 C 
BRANCH  17  18
ATOM     18  C   UNL A   1      32.151  28.889  23.594  1.00  0.00     0.242 C 
ATOM     19  O   UNL A   1      33.262  29.164  23.142  1.00  0.00    -0.273 OA
ATOM     20  N   UNL A   1      31.061  29.485  23.016  1.00  0.00    -0.267 N 
ATOM     21  H   UNL A   1      31.176  30.386  22.636  1.00  0.00     0.191 HD
BRANCH  20  22
ATOM     22  N   UNL A   1      29.800  28.899  22.928  1.00  0.00    -0.263 N 
ATOM     23  C   UNL A   1      28.610  29.595  22.794  1.00  0.00     0.273 C 
ATOM     24  H   UNL A   1      29.750  27.916  22.965  1.00  0.00     0.191 HD
ATOM     25  O   UNL A   1      27.550  28.974  22.821  1.00  0.00    -0.267 OA
BRANCH  23  26
ATOM     26  C   UNL A   1      28.631  31.046  22.690  1.00  0.00     0.082 A 
ATOM     27  C   UNL A   1      28.910  31.952  23.759  1.00  0.00     0.056 A 
ATOM     28  C   UNL A   1      28.317  31.852  21.604  1.00  0.00     0.113 A 
ATOM     29  C   UNL A   1      28.821  33.220  23.240  1.00  0.00     0.196 A 
ATOM     30  O   UNL A   1      28.467  33.167  21.934  1.00  0.00    -0.469 OA
ATOM     31  C   UNL A   1      27.853  31.609  20.219  1.00  0.00     0.088 C 
ENDBRANCH  23  26
ENDBRANCH  20  22
ENDBRANCH  17  18
ENDBRANCH   5   8
ENDBRANCH   3   4
ENDBRANCH   2   3
ENDBRANCH   1   2
BRANCH   1  32
ATOM     32  C   UNL A   1      34.750  33.274  28.812  1.00  0.00     0.002 C 
BRANCH  32  33
ATOM     33  C   UNL A   1      34.570  33.500  30.318  1.00  0.00     0.021 C 
BRANCH  33  34
ATOM     34  C   UNL A   1      34.637  32.249  31.195  1.00  0.00     0.116 C 
BRANCH  34  35
ATOM     35  N   UNL A   1      35.157  32.529  32.522  1.00  0.00    -0.352 N 
ATOM     36  C   UNL A   1      36.385  32.277  33.076  1.00  0.00     0.251 C 
ATOM     37  H   UNL A   1      34.519  32.975  33.126  1.00  0.00     0.163 HD
ATOM     38  O   UNL A   1      36.549  32.453  34.281  1.00  0.00    -0.269 OA
BRANCH  36  39
ATOM     39  C   UNL A   1      37.518  31.783  32.257  1.00  0.00     0.039 A 
ATOM     40  C   UNL A   1      38.523  31.046  32.896  1.00  0.00     0.014 A 
ATOM     41  C   UNL A   1      37.648  32.100  30.903  1.00  0.00     0.014 A 
ATOM     42  C   UNL A   1      39.628  30.592  32.173  1.00  0.00     0.010 A 
ATOM     43  C   UNL A   1      38.728  31.602  30.168  1.00  0.00     0.010 A 
ATOM     44  C   UNL A   1      39.731  30.850  30.797  1.00  0.00    -0.014 A 
BRANCH  44  45
ATOM     45  C   UNL A   1      40.892  30.350  30.017  1.00  0.00     0.031 A 
ATOM     46  C   UNL A   1      42.051  31.257  29.705  1.00  0.00     0.074 A 
ATOM     47  C   UNL A   1      40.891  29.084  29.557  1.00  0.00     0.049 A 
ATOM     48  N   UNL A   1      43.134  31.005  29.014  1.00  0.00    -0.248 NA
ATOM     49  C   UNL A   1      41.973  32.632  30.222  1.00  0.00     0.031 C 
ATOM     50  C   UNL A   1      39.814  28.113  29.756  1.00  0.00     0.029 A 
ATOM     51  N   UNL A   1      41.826  28.399  28.823  1.00  0.00    -0.354 N 
ATOM     52  C   UNL A   1      43.857  32.191  28.998  1.00  0.00     0.074 A 
ATOM     53  C   UNL A   1      43.074  33.172  29.719  1.00  0.00     0.031 C 
ATOM     54  C   UNL A   1      40.158  26.952  29.175  1.00  0.00     0.029 A 
ATOM     55  C   UNL A   1      41.466  27.104  28.545  1.00  0.00     0.049 A 
ATOM     56  H   UNL A   1      42.676  28.798  28.525  1.00  0.00     0.167 HD
ATOM     57  C   UNL A   1      45.071  32.437  28.449  1.00  0.00     0.037 A 
ATOM     58  C   UNL A   1      42.117  26.144  27.861  1.00  0.00     0.037 A 
ATOM     59  C   UNL A   1      45.870  31.458  27.760  1.00  0.00     0.049 A 
ATOM     60  C   UNL A   1      43.473  26.434  27.283  1.00  0.00     0.074 A 
ATOM     61  C   UNL A   1      47.136  31.601  27.219  1.00  0.00     0.029 A 
ATOM     62  N   UNL A   1      45.480  30.149  27.522  1.00  0.00    -0.354 N 
ATOM     63  N   UNL A   1      44.166  27.546  27.322  1.00  0.00    -0.248 NA
ATOM     64  C   UNL A   1      44.140  25.333  26.574  1.00  0.00     0.031 C 
ATOM     65  C   UNL A   1      47.503  30.385  26.631  1.00  0.00     0.029 A 
ATOM     66  C   UNL A   1      46.476  29.476  26.833  1.00  0.00     0.049 A 
ATOM     67  H   UNL A   1      44.622  29.755  27.801  1.00  0.00     0.167 HD
ATOM     68  C   UNL A   1      45.358  27.273  26.663  1.00  0.00     0.074 A 
ATOM     69  C   UNL A   1      45.299  25.888  26.245  1.00  0.00     0.031 C 
ATOM     70  C   UNL A   1      46.406  28.097  26.429  1.00  0.00     0.037 A 
BRANCH  57  71
ATOM     71  C   UNL A   1      45.614  33.828  28.576  1.00  0.00     0.057 A 
ATOM     72  C   UNL A   1      46.413  34.208  29.662  1.00  0.00     0.134 A 
ATOM     73  C   UNL A   1      45.363  34.788  27.589  1.00  0.00     0.134 A 
ATOM     74  F   UNL A   1      46.679  33.338  30.647  1.00  0.00    -0.206 F 
ATOM     75  C   UNL A   1      46.926  35.502  29.772  1.00  0.00     0.040 A 
ATOM     76  C   UNL A   1      45.887  36.079  27.677  1.00  0.00     0.040 A 
ATOM     77  F   UNL A   1      44.609  34.487  26.521  1.00  0.00    -0.206 F 
ATOM     78  C   UNL A   1      46.667  36.440  28.775  1.00  0.00     0.006 A 
ENDBRANCH  57  71
BRANCH  58  79
ATOM     79  C   UNL A   1      41.507  24.802  27.714  1.00  0.00     0.057 A 
ATOM     80  C   UNL A   1      41.920  23.733  28.518  1.00  0.00     0.134 A 
ATOM     81  C   UNL A   1      40.504  24.555  26.771  1.00  0.00     0.134 A 
ATOM     82  F   UNL A   1      42.892  23.908  29.425  1.00  0.00    -0.206 F 
ATOM     83  C   UNL A   1      41.365  22.460  28.382  1.00  0.00     0.040 A 
ATOM     84  C   UNL A   1      39.926  23.291  26.636  1.00  0.00     0.040 A 
ATOM     85  F   UNL A   1      40.065  25.541  25.976  1.00  0.00    -0.206 F 
ATOM     86  C   UNL A   1      40.361  22.239  27.441  1.00  0.00     0.006 A 
ENDBRANCH  58  79
BRANCH  70  87
ATOM     87  C   UNL A   1      47.584  27.514  25.708  1.00  0.00     0.057 A 
ATOM     88  C   UNL A   1      48.649  26.923  26.398  1.00  0.00     0.134 A 
ATOM     89  C   UNL A   1      47.640  27.522  24.310  1.00  0.00     0.134 A 
ATOM     90  F   UNL A   1      48.660  26.898  27.740  1.00  0.00    -0.206 F 
ATOM     91  C   UNL A   1      49.739  26.373  25.721  1.00  0.00     0.040 A 
ATOM     92  C   UNL A   1      48.715  26.959  23.621  1.00  0.00     0.040 A 
ATOM     93  F   UNL A   1      46.648  28.070  23.591  1.00  0.00    -0.206 F 
ATOM     94  C   UNL A   1      49.771  26.387  24.328  1.00  0.00     0.006 A 
ENDBRANCH  70  87
ENDBRANCH  44  45
ENDBRANCH  36  39
ENDBRANCH  34  35
ENDBRANCH  33  34
ENDBRANCH  32  33
ENDBRANCH   1  32
TORSDOF 16
ENDMDL
MODEL 2
REMARK VINA RESULT:     -12.4      5.323     10.566
REMARK SMILES CC(C)=C1[C@H]2CC[C@@H]1[C@H](C(=O)NNC(=O)c1ccoc1C)[C@H]2C(=O)NCCCCCCNC(=O)c1ccc(-c2c3nc(c(-c4c(F)cccc4F)c4ccc([nH]4)c(-c4c(F)cccc4F)c4nc(c(-c5c(F)cccc5F)c5ccc2[nH]5)C=C4)C=C3)cc1
REMARK SMILES IDX 28 1 27 2 26 3 25 4 23 5 24 6 22 8 1 9 2 10 3 11 4 12 5 13
REMARK SMILES IDX 8 14 6 15 7 16 9 17 10 18 11 19 12 20 13 22 14 23 15 25
REMARK SMILES IDX 16 26 17 27 20 28 18 29 19 30 21 31 29 32 30 33 31 34 32 35
REMARK SMILES IDX 33 36 34 38 35 39 36 40 88 41 37 42 87 43 38 44 39 45 40 46
REMARK SMILES IDX 81 47 41 48 86 49 80 50 82 51 42 52 85 53 79 54 78 55 43 57
REMARK SMILES IDX 69 58 52 59 68 60 53 61 56 62 67 63 83 64 54 65 55 66 66 68
REMARK SMILES IDX 84 69 57 70 44 71 45 72 50 73 46 74 47 75 49 76 51 77 48 78
REMARK SMILES IDX 70 79 71 80 76 81 72 82 73 83 75 84 77 85 74 86 58 87 59 88
REMARK SMILES IDX 64 89 60 90 61 91 63 92 65 93 62 94
REMARK H PARENT 25 7 12 21 13 24 32 37 82 56 56 67
REMARK Flexibility Score: inf
ROOT
ATOM      1  C   UNL A   1      39.861  22.045  26.516  1.00  0.00     0.002 C 
ENDROOT
BRANCH   1   2
ATOM      2  C   UNL A   1      39.569  23.486  26.941  1.00  0.00     0.021 C 
BRANCH   2   3
ATOM      3  C   UNL A   1      38.173  23.992  26.575  1.00  0.00     0.116 C 
BRANCH   3   4
ATOM      4  N   UNL A   1      37.783  23.566  25.242  1.00  0.00    -0.356 N 
ATOM      5  C   UNL A   1      36.608  23.206  24.677  1.00  0.00     0.224 C 
ATOM      6  O   UNL A   1      36.673  22.847  23.495  1.00  0.00    -0.275 OA
ATOM      7  H   UNL A   1      38.539  23.533  24.612  1.00  0.00     0.163 HD
BRANCH   5   8
ATOM      8  C   UNL A   1      35.238  23.237  25.347  1.00  0.00     0.098 C 
ATOM      9  C   UNL A   1      32.203  24.390  21.904  1.00  0.00     0.039 C 
ATOM     10  C   UNL A   1      33.220  24.881  22.896  1.00  0.00    -0.077 C 
ATOM     11  C   UNL A   1      33.795  26.239  22.583  1.00  0.00     0.039 C 
ATOM     12  C   UNL A   1      33.546  24.195  24.006  1.00  0.00    -0.064 C 
ATOM     13  C   UNL A   1      34.472  24.555  25.132  1.00  0.00     0.028 C 
ATOM     14  C   UNL A   1      32.955  22.946  24.624  1.00  0.00     0.028 C 
ATOM     15  C   UNL A   1      33.413  24.699  26.241  1.00  0.00     0.009 C 
ATOM     16  C   UNL A   1      32.341  23.665  25.846  1.00  0.00     0.009 C 
ATOM     17  C   UNL A   1      34.231  22.126  24.976  1.00  0.00     0.100 C 
BRANCH  17  18
ATOM     18  C   UNL A   1      34.009  21.133  26.116  1.00  0.00     0.242 C 
ATOM     19  O   UNL A   1      34.156  21.431  27.301  1.00  0.00    -0.273 OA
ATOM     20  N   UNL A   1      33.597  19.859  25.823  1.00  0.00    -0.267 N 
ATOM     21  H   UNL A   1      33.870  19.136  26.434  1.00  0.00     0.191 HD
BRANCH  20  22
ATOM     22  N   UNL A   1      32.817  19.520  24.720  1.00  0.00    -0.263 N 
ATOM     23  C   UNL A   1      32.830  18.287  24.089  1.00  0.00     0.273 C 
ATOM     24  H   UNL A   1      32.210  20.208  24.362  1.00  0.00     0.191 HD
ATOM     25  O   UNL A   1      32.167  18.135  23.066  1.00  0.00    -0.267 OA
BRANCH  23  26
ATOM     26  C   UNL A   1      33.676  17.222  24.605  1.00  0.00     0.082 A 
ATOM     27  C   UNL A   1      35.097  17.154  24.480  1.00  0.00     0.056 A 
ATOM     28  C   UNL A   1      33.310  16.039  25.231  1.00  0.00     0.113 A 
ATOM     29  C   UNL A   1      35.496  15.994  25.094  1.00  0.00     0.196 A 
ATOM     30  O   UNL A   1      34.419  15.315  25.556  1.00  0.00    -0.469 OA
ATOM     31  C   UNL A   1      32.025  15.401  25.597  1.00  0.00     0.088 C 
ENDBRANCH  23  26
ENDBRANCH  20  22
ENDBRANCH  17  18
ENDBRANCH   5   8
ENDBRANCH   3   4
ENDBRANCH   2   3
ENDBRANCH   1   2
BRANCH   1  32
ATOM     32  C   UNL A   1      41.188  21.464  27.022  1.00  0.00     0.002 C 
BRANCH  32  33
ATOM     33  C   UNL A   1      42.399  21.625  26.096  1.00  0.00     0.021 C 
BRANCH  33  34
ATOM     34  C   UNL A   1      42.335  22.787  25.105  1.00  0.00     0.116 C 
BRANCH  34  35
ATOM     35  N   UNL A   1      43.646  23.336  24.807  1.00  0.00    -0.352 N 
ATOM     36  C   UNL A   1      44.280  24.453  25.285  1.00  0.00     0.251 C 
ATOM     37  H   UNL A   1      44.167  22.819  24.151  1.00  0.00     0.163 HD
ATOM     38  O   UNL A   1      45.330  24.818  24.762  1.00  0.00    -0.269 OA
BRANCH  36  39
ATOM     39  C   UNL A   1      43.721  25.242  26.409  1.00  0.00     0.039 A 
ATOM     40  C   UNL A   1      43.967  26.620  26.437  1.00  0.00     0.014 A 
ATOM     41  C   UNL A   1      43.035  24.641  27.468  1.00  0.00     0.014 A 
ATOM     42  C   UNL A   1      43.492  27.397  27.496  1.00  0.00     0.010 A 
ATOM     43  C   UNL A   1      42.516  25.425  28.501  1.00  0.00     0.010 A 
ATOM     44  C   UNL A   1      42.746  26.809  28.529  1.00  0.00    -0.014 A 
BRANCH  44  45
ATOM     45  C   UNL A   1      42.217  27.633  29.646  1.00  0.00     0.031 A 
ATOM     46  C   UNL A   1      42.883  27.610  30.994  1.00  0.00     0.074 A 
ATOM     47  C   UNL A   1      41.112  28.380  29.458  1.00  0.00     0.049 A 
ATOM     48  N   UNL A   1      42.546  28.239  32.092  1.00  0.00    -0.248 NA
ATOM     49  C   UNL A   1      44.072  26.755  31.130  1.00  0.00     0.031 C 
ATOM     50  C   UNL A   1      40.348  28.463  28.213  1.00  0.00     0.029 A 
ATOM     51  N   UNL A   1      40.438  29.210  30.319  1.00  0.00    -0.354 N 
ATOM     52  C   UNL A   1      43.469  27.843  33.053  1.00  0.00     0.074 A 
ATOM     53  C   UNL A   1      44.358  26.894  32.417  1.00  0.00     0.031 C 
ATOM     54  C   UNL A   1      39.321  29.311  28.383  1.00  0.00     0.029 A 
ATOM     55  C   UNL A   1      39.341  29.813  29.754  1.00  0.00     0.049 A 
ATOM     56  H   UNL A   1      40.714  29.359  31.252  1.00  0.00     0.167 HD
ATOM     57  C   UNL A   1      43.577  28.246  34.341  1.00  0.00     0.037 A 
ATOM     58  C   UNL A   1      38.453  30.677  30.280  1.00  0.00     0.037 A 
ATOM     59  C   UNL A   1      42.718  29.214  34.970  1.00  0.00     0.049 A 
ATOM     60  C   UNL A   1      38.609  31.128  31.704  1.00  0.00     0.074 A 
ATOM     61  C   UNL A   1      42.786  29.726  36.255  1.00  0.00     0.029 A 
ATOM     62  N   UNL A   1      41.634  29.822  34.356  1.00  0.00    -0.354 N 
ATOM     63  N   UNL A   1      39.518  30.784  32.584  1.00  0.00    -0.248 NA
ATOM     64  C   UNL A   1      37.621  32.094  32.206  1.00  0.00     0.031 C 
ATOM     65  C   UNL A   1      41.727  30.626  36.426  1.00  0.00     0.029 A 
ATOM     66  C   UNL A   1      41.018  30.696  35.238  1.00  0.00     0.049 A 
ATOM     67  H   UNL A   1      41.344  29.658  33.430  1.00  0.00     0.167 HD
ATOM     68  C   UNL A   1      39.225  31.506  33.733  1.00  0.00     0.074 A 
ATOM     69  C   UNL A   1      38.062  32.315  33.437  1.00  0.00     0.031 C 
ATOM     70  C   UNL A   1      39.866  31.498  34.927  1.00  0.00     0.037 A 
BRANCH  57  71
ATOM     71  C   UNL A   1      44.676  27.639  35.161  1.00  0.00     0.057 A 
ATOM     72  C   UNL A   1      45.923  28.262  35.295  1.00  0.00     0.134 A 
ATOM     73  C   UNL A   1      44.475  26.437  35.850  1.00  0.00     0.134 A 
ATOM     74  F   UNL A   1      46.182  29.410  34.651  1.00  0.00    -0.206 F 
ATOM     75  C   UNL A   1      46.939  27.700  36.068  1.00  0.00     0.040 A 
ATOM     76  C   UNL A   1      45.476  25.875  36.642  1.00  0.00     0.040 A 
ATOM     77  F   UNL A   1      43.301  25.792  35.767  1.00  0.00    -0.206 F 
ATOM     78  C   UNL A   1      46.716  26.504  36.749  1.00  0.00     0.006 A 
ENDBRANCH  57  71
BRANCH  58  79
ATOM     79  C   UNL A   1      37.349  31.201  29.441  1.00  0.00     0.057 A 
ATOM     80  C   UNL A   1      37.418  32.481  28.881  1.00  0.00     0.134 A 
ATOM     81  C   UNL A   1      36.204  30.440  29.182  1.00  0.00     0.134 A 
ATOM     82  F   UNL A   1      38.484  33.263  29.113  1.00  0.00    -0.206 F 
ATOM     83  C   UNL A   1      36.382  32.994  28.100  1.00  0.00     0.040 A 
ATOM     84  C   UNL A   1      35.167  30.932  28.387  1.00  0.00     0.040 A 
ATOM     85  F   UNL A   1      36.083  29.205  29.688  1.00  0.00    -0.206 F 
ATOM     86  C   UNL A   1      35.254  32.215  27.848  1.00  0.00     0.006 A 
ENDBRANCH  58  79
BRANCH  70  87
ATOM     87  C   UNL A   1      39.336  32.412  35.991  1.00  0.00     0.057 A 
ATOM     88  C   UNL A   1      39.785  33.731  36.117  1.00  0.00     0.134 A 
ATOM     89  C   UNL A   1      38.348  31.973  36.880  1.00  0.00     0.134 A 
ATOM     90  F   UNL A   1      40.742  34.205  35.304  1.00  0.00    -0.206 F 
ATOM     91  C   UNL A   1      39.282  34.580  37.105  1.00  0.00     0.040 A 
ATOM     92  C   UNL A   1      37.822  32.817  37.859  1.00  0.00     0.040 A 
ATOM     93  F   UNL A   1      37.872  30.720  36.807  1.00  0.00    -0.206 F 
ATOM     94  C   UNL A   1      38.294  34.124  37.976  1.00  0.00     0.006 A 
ENDBRANCH  70  87
ENDBRANCH  44  45
ENDBRANCH  36  39
ENDBRANCH  34  35
ENDBRANCH  33  34
ENDBRANCH  32  33
ENDBRANCH   1  32
TORSDOF 16
ENDMDL
MODEL 3
REMARK VINA RESULT:     -12.4      4.296      6.442
REMARK SMILES CC(C)=C1[C@H]2CC[C@@H]1[C@H](C(=O)NNC(=O)c1ccoc1C)[C@H]2C(=O)NCCCCCCNC(=O)c1ccc(-c2c3nc(c(-c4c(F)cccc4F)c4ccc([nH]4)c(-c4c(F)cccc4F)c4nc(c(-c5c(F)cccc5F)c5ccc2[nH]5)C=C4)C=C3)cc1
REMARK SMILES IDX 28 1 27 2 26 3 25 4 23 5 24 6 22 8 1 9 2 10 3 11 4 12 5 13
REMARK SMILES IDX 8 14 6 15 7 16 9 17 10 18 11 19 12 20 13 22 14 23 15 25
REMARK SMILES IDX 16 26 17 27 20 28 18 29 19 30 21 31 29 32 30 33 31 34 32 35
REMARK SMILES IDX 33 36 34 38 35 39 36 40 88 41 37 42 87 43 38 44 39 45 40 46
REMARK SMILES IDX 81 47 41 48 86 49 80 50 82 51 42 52 85 53 79 54 78 55 43 57
REMARK SMILES IDX 69 58 52 59 68 60 53 61 56 62 67 63 83 64 54 65 55 66 66 68
REMARK SMILES IDX 84 69 57 70 44 71 45 72 50 73 46 74 47 75 49 76 51 77 48 78
REMARK SMILES IDX 70 79 71 80 76 81 72 82 73 83 75 84 77 85 74 86 58 87 59 88
REMARK SMILES IDX 64 89 60 90 61 91 63 92 65 93 62 94
REMARK H PARENT 25 7 12 21 13 24 32 37 82 56 56 67
REMARK Flexibility Score: inf
ROOT
ATOM      1  C   UNL A   1      34.887  30.159  28.061  1.00  0.00     0.002 C 
ENDROOT
BRANCH   1   2
ATOM      2  C   UNL A   1      35.228  29.207  26.912  1.00  0.00     0.021 C 
BRANCH   2   3
ATOM      3  C   UNL A   1      34.022  28.537  26.254  1.00  0.00     0.116 C 
BRANCH   3   4
ATOM      4  N   UNL A   1      32.877  28.505  27.146  1.00  0.00    -0.356 N 
ATOM      5  C   UNL A   1      31.758  27.746  27.213  1.00  0.00     0.224 C 
ATOM      6  O   UNL A   1      30.960  28.051  28.109  1.00  0.00    -0.275 OA
ATOM      7  H   UNL A   1      32.925  29.182  27.859  1.00  0.00     0.163 HD
BRANCH   5   8
ATOM      8  C   UNL A   1      31.421  26.556  26.321  1.00  0.00     0.098 C 
ATOM      9  C   UNL A   1      33.515  27.482  22.179  1.00  0.00     0.039 C 
ATOM     10  C   UNL A   1      32.337  27.744  23.076  1.00  0.00    -0.077 C 
ATOM     11  C   UNL A   1      31.574  29.004  22.754  1.00  0.00     0.039 C 
ATOM     12  C   UNL A   1      31.955  26.893  24.045  1.00  0.00    -0.064 C 
ATOM     13  C   UNL A   1      30.779  26.951  24.978  1.00  0.00     0.028 C 
ATOM     14  C   UNL A   1      32.424  25.498  24.399  1.00  0.00     0.028 C 
ATOM     15  C   UNL A   1      30.008  25.739  24.422  1.00  0.00     0.009 C 
ATOM     16  C   UNL A   1      31.127  24.790  23.950  1.00  0.00     0.009 C 
ATOM     17  C   UNL A   1      32.566  25.590  25.946  1.00  0.00     0.100 C 
BRANCH  17  18
ATOM     18  C   UNL A   1      32.437  24.234  26.640  1.00  0.00     0.242 C 
ATOM     19  O   UNL A   1      31.396  23.851  27.173  1.00  0.00    -0.273 OA
ATOM     20  N   UNL A   1      33.511  23.383  26.651  1.00  0.00    -0.267 N 
ATOM     21  H   UNL A   1      33.602  22.766  27.412  1.00  0.00     0.191 HD
BRANCH  20  22
ATOM     22  N   UNL A   1      34.482  23.332  25.653  1.00  0.00    -0.263 N 
ATOM     23  C   UNL A   1      34.630  22.299  24.742  1.00  0.00     0.273 C 
ATOM     24  H   UNL A   1      35.111  24.087  25.590  1.00  0.00     0.191 HD
ATOM     25  O   UNL A   1      35.583  22.320  23.967  1.00  0.00    -0.267 OA
BRANCH  23  26
ATOM     26  C   UNL A   1      33.700  21.181  24.763  1.00  0.00     0.082 A 
ATOM     27  C   UNL A   1      33.740  20.082  25.676  1.00  0.00     0.056 A 
ATOM     28  C   UNL A   1      32.660  20.890  23.892  1.00  0.00     0.113 A 
ATOM     29  C   UNL A   1      32.696  19.254  25.349  1.00  0.00     0.196 A 
ATOM     30  O   UNL A   1      32.033  19.739  24.272  1.00  0.00    -0.469 OA
ATOM     31  C   UNL A   1      32.109  21.520  22.671  1.00  0.00     0.088 C 
ENDBRANCH  23  26
ENDBRANCH  20  22
ENDBRANCH  17  18
ENDBRANCH   5   8
ENDBRANCH   3   4
ENDBRANCH   2   3
ENDBRANCH   1   2
BRANCH   1  32
ATOM     32  C   UNL A   1      34.832  31.647  27.692  1.00  0.00     0.002 C 
BRANCH  32  33
ATOM     33  C   UNL A   1      33.528  32.382  28.021  1.00  0.00     0.021 C 
BRANCH  33  34
ATOM     34  C   UNL A   1      33.553  33.901  27.850  1.00  0.00     0.116 C 
BRANCH  34  35
ATOM     35  N   UNL A   1      33.180  34.604  29.064  1.00  0.00    -0.352 N 
ATOM     36  C   UNL A   1      33.689  34.533  30.334  1.00  0.00     0.251 C 
ATOM     37  H   UNL A   1      32.435  35.240  28.957  1.00  0.00     0.163 HD
ATOM     38  O   UNL A   1      33.102  35.104  31.250  1.00  0.00    -0.269 OA
BRANCH  36  39
ATOM     39  C   UNL A   1      34.925  33.771  30.633  1.00  0.00     0.039 A 
ATOM     40  C   UNL A   1      36.119  34.184  30.028  1.00  0.00     0.014 A 
ATOM     41  C   UNL A   1      34.914  32.620  31.425  1.00  0.00     0.014 A 
ATOM     42  C   UNL A   1      37.301  33.474  30.250  1.00  0.00     0.010 A 
ATOM     43  C   UNL A   1      36.106  31.941  31.689  1.00  0.00     0.010 A 
ATOM     44  C   UNL A   1      37.309  32.356  31.098  1.00  0.00    -0.014 A 
BRANCH  44  45
ATOM     45  C   UNL A   1      38.568  31.611  31.358  1.00  0.00     0.031 A 
ATOM     46  C   UNL A   1      39.483  32.026  32.477  1.00  0.00     0.074 A 
ATOM     47  C   UNL A   1      38.908  30.578  30.564  1.00  0.00     0.049 A 
ATOM     48  N   UNL A   1      40.635  31.515  32.834  1.00  0.00    -0.248 NA
ATOM     49  C   UNL A   1      39.057  33.176  33.289  1.00  0.00     0.031 C 
ATOM     50  C   UNL A   1      38.129  30.097  29.422  1.00  0.00     0.029 A 
ATOM     51  N   UNL A   1      40.000  29.749  30.595  1.00  0.00    -0.354 N 
ATOM     52  C   UNL A   1      41.079  32.290  33.899  1.00  0.00     0.074 A 
ATOM     53  C   UNL A   1      40.090  33.326  34.107  1.00  0.00     0.031 C 
ATOM     54  C   UNL A   1      38.758  29.046  28.873  1.00  0.00     0.029 A 
ATOM     55  C   UNL A   1      39.994  28.794  29.609  1.00  0.00     0.049 A 
ATOM     56  H   UNL A   1      40.720  29.830  31.262  1.00  0.00     0.167 HD
ATOM     57  C   UNL A   1      42.199  32.142  34.646  1.00  0.00     0.037 A 
ATOM     58  C   UNL A   1      40.882  27.822  29.330  1.00  0.00     0.037 A 
ATOM     59  C   UNL A   1      43.169  31.095  34.466  1.00  0.00     0.049 A 
ATOM     60  C   UNL A   1      42.104  27.663  30.189  1.00  0.00     0.074 A 
ATOM     61  C   UNL A   1      44.307  30.832  35.211  1.00  0.00     0.029 A 
ATOM     62  N   UNL A   1      43.113  30.131  33.471  1.00  0.00    -0.354 N 
ATOM     63  N   UNL A   1      42.483  28.371  31.224  1.00  0.00    -0.248 NA
ATOM     64  C   UNL A   1      43.017  26.562  29.845  1.00  0.00     0.031 C 
ATOM     65  C   UNL A   1      44.953  29.724  34.651  1.00  0.00     0.029 A 
ATOM     66  C   UNL A   1      44.200  29.279  33.576  1.00  0.00     0.049 A 
ATOM     67  H   UNL A   1      42.405  30.062  32.790  1.00  0.00     0.167 HD
ATOM     68  C   UNL A   1      43.664  27.792  31.669  1.00  0.00     0.074 A 
ATOM     69  C   UNL A   1      43.933  26.667  30.798  1.00  0.00     0.031 C 
ATOM     70  C   UNL A   1      44.452  28.160  32.707  1.00  0.00     0.037 A 
BRANCH  57  71
ATOM     71  C   UNL A   1      42.433  33.142  35.738  1.00  0.00     0.057 A 
ATOM     72  C   UNL A   1      41.937  32.946  37.033  1.00  0.00     0.134 A 
ATOM     73  C   UNL A   1      43.190  34.296  35.502  1.00  0.00     0.134 A 
ATOM     74  F   UNL A   1      41.195  31.866  37.320  1.00  0.00    -0.206 F 
ATOM     75  C   UNL A   1      42.166  33.873  38.050  1.00  0.00     0.040 A 
ATOM     76  C   UNL A   1      43.443  35.221  36.516  1.00  0.00     0.040 A 
ATOM     77  F   UNL A   1      43.697  34.541  34.285  1.00  0.00    -0.206 F 
ATOM     78  C   UNL A   1      42.926  35.013  37.794  1.00  0.00     0.006 A 
ENDBRANCH  57  71
BRANCH  58  79
ATOM     79  C   UNL A   1      40.631  26.896  28.200  1.00  0.00     0.057 A 
ATOM     80  C   UNL A   1      39.726  25.837  28.327  1.00  0.00     0.134 A 
ATOM     81  C   UNL A   1      41.286  27.046  26.973  1.00  0.00     0.134 A 
ATOM     82  F   UNL A   1      39.083  25.633  29.487  1.00  0.00    -0.206 F 
ATOM     83  C   UNL A   1      39.488  24.949  27.276  1.00  0.00     0.040 A 
ATOM     84  C   UNL A   1      41.045  26.178  25.907  1.00  0.00     0.040 A 
ATOM     85  F   UNL A   1      42.161  28.046  26.791  1.00  0.00    -0.206 F 
ATOM     86  C   UNL A   1      40.146  25.123  26.060  1.00  0.00     0.006 A 
ENDBRANCH  58  79
BRANCH  70  87
ATOM     87  C   UNL A   1      45.666  27.322  32.972  1.00  0.00     0.057 A 
ATOM     88  C   UNL A   1      46.909  27.630  32.406  1.00  0.00     0.134 A 
ATOM     89  C   UNL A   1      45.595  26.212  33.821  1.00  0.00     0.134 A 
ATOM     90  F   UNL A   1      47.037  28.673  31.571  1.00  0.00    -0.206 F 
ATOM     91  C   UNL A   1      48.039  26.851  32.663  1.00  0.00     0.040 A 
ATOM     92  C   UNL A   1      46.721  25.437  34.102  1.00  0.00     0.040 A 
ATOM     93  F   UNL A   1      44.434  25.868  34.398  1.00  0.00    -0.206 F 
ATOM     94  C   UNL A   1      47.946  25.753  33.518  1.00  0.00     0.006 A 
ENDBRANCH  70  87
ENDBRANCH  44  45
ENDBRANCH  36  39
ENDBRANCH  34  35
ENDBRANCH  33  34
ENDBRANCH  32  33
ENDBRANCH   1  32
TORSDOF 16
ENDMDL
