MODEL 1
REMARK VINA RESULT:     -10.6      0.000      0.000
REMARK SMILES [NH3+]C1CC[NH+](CC(=O)N2CCO[C@H](CC(=O)NCCCCCCNC(=O)c3ccc(-c4c5nc(c(-c6c(F)cccc6F)c6ccc([nH]6)c(-c6c(F)cccc6F)c6nc(c(-c7c(F)cccc7F)c7ccc4[nH]7)C=C6)C=C5)cc3)C2)CC1
REMARK SMILES IDX 19 1 18 2 17 3 15 4 16 5 14 7 13 8 9 9 10 10 81 11 11 12
REMARK SMILES IDX 12 13 7 14 8 15 6 16 5 17 2 18 3 19 83 20 4 21 82 22 1 24
REMARK SMILES IDX 20 28 21 29 22 30 23 31 24 32 25 33 26 35 27 36 28 37 80 38
REMARK SMILES IDX 29 39 79 40 30 41 31 42 32 43 73 44 33 45 78 46 72 47 74 48
REMARK SMILES IDX 34 49 77 50 71 51 70 52 35 54 61 55 44 56 60 57 45 58 48 59
REMARK SMILES IDX 59 60 75 61 46 62 47 63 58 65 76 66 49 67 36 68 37 69 42 70
REMARK SMILES IDX 38 71 39 72 41 73 43 74 40 75 62 76 63 77 68 78 64 79 65 80
REMARK SMILES IDX 67 81 69 82 66 83 50 84 51 85 56 86 52 87 53 88 55 89 57 90
REMARK SMILES IDX 54 91
REMARK H PARENT 17 6 5 23 1 25 1 26 1 27 24 34 74 53 48 64
REMARK Flexibility Score: inf
ROOT
ATOM      1  C   UNL A   1      34.830  31.496  28.088  1.00  0.00     0.021 C 
ENDROOT
BRANCH   1   2
ATOM      2  C   UNL A   1      33.734  30.979  27.161  1.00  0.00     0.116 C 
BRANCH   2   3
ATOM      3  N   UNL A   1      33.154  29.779  27.715  1.00  0.00    -0.356 N 
ATOM      4  C   UNL A   1      32.136  29.059  27.173  1.00  0.00     0.222 C 
ATOM      5  O   UNL A   1      31.574  28.195  27.843  1.00  0.00    -0.275 OA
ATOM      6  H   UNL A   1      33.530  29.452  28.563  1.00  0.00     0.163 HD
BRANCH   4   7
ATOM      7  C   UNL A   1      31.747  29.327  25.743  1.00  0.00     0.133 C 
BRANCH   7   8
ATOM      8  C   UNL A   1      31.285  28.070  24.982  1.00  0.00     0.147 C 
ATOM      9  N   UNL A   1      32.309  26.505  23.288  1.00  0.00    -0.333 N 
ATOM     10  C   UNL A   1      31.193  26.787  22.385  1.00  0.00     0.148 C 
ATOM     11  C   UNL A   1      32.514  27.525  24.277  1.00  0.00     0.152 C 
ATOM     12  C   UNL A   1      29.966  27.315  23.146  1.00  0.00     0.182 C 
ATOM     13  O   UNL A   1      30.294  28.431  23.997  1.00  0.00    -0.374 OA
BRANCH   9  14
ATOM     14  C   UNL A   1      33.417  25.789  22.823  1.00  0.00     0.277 C 
ATOM     15  O   UNL A   1      33.698  25.757  21.622  1.00  0.00    -0.268 OA
BRANCH  14  16
ATOM     16  C   UNL A   1      34.222  24.958  23.853  1.00  0.00     0.363 C 
BRANCH  16  17
ATOM     17  N   UNL A   1      33.526  23.880  24.565  1.00  0.00    -0.327 N 
ATOM     18  C   UNL A   1      30.749  23.916  25.530  1.00  0.00     0.192 C 
ATOM     19  C   UNL A   1      31.907  24.580  26.294  1.00  0.00     0.126 C 
ATOM     20  C   UNL A   1      31.100  23.398  24.133  1.00  0.00     0.126 C 
ATOM     21  C   UNL A   1      33.288  24.011  25.987  1.00  0.00     0.268 C 
ATOM     22  C   UNL A   1      32.562  23.025  23.902  1.00  0.00     0.268 C 
ATOM     23  H   UNL A   1      34.371  23.319  24.471  1.00  0.00     0.348 HD
BRANCH  18  24
ATOM     24  N   UNL A   1      30.121  22.829  26.283  1.00  0.00    -0.355 N 
ATOM     25  H   UNL A   1      30.819  22.378  26.876  1.00  0.00     0.344 HD
ATOM     26  H   UNL A   1      29.734  22.144  25.633  1.00  0.00     0.344 HD
ATOM     27  H   UNL A   1      29.373  23.205  26.866  1.00  0.00     0.344 HD
ENDBRANCH  18  24
ENDBRANCH  16  17
ENDBRANCH  14  16
ENDBRANCH   9  14
ENDBRANCH   7   8
ENDBRANCH   4   7
ENDBRANCH   2   3
ENDBRANCH   1   2
BRANCH   1  28
ATOM     28  C   UNL A   1      34.967  33.018  28.060  1.00  0.00     0.002 C 
BRANCH  28  29
ATOM     29  C   UNL A   1      34.491  33.705  29.342  1.00  0.00     0.002 C 
BRANCH  29  30
ATOM     30  C   UNL A   1      33.235  34.561  29.161  1.00  0.00     0.021 C 
BRANCH  30  31
ATOM     31  C   UNL A   1      33.392  35.992  29.662  1.00  0.00     0.116 C 
BRANCH  31  32
ATOM     32  N   UNL A   1      32.529  36.241  30.805  1.00  0.00    -0.352 N 
ATOM     33  C   UNL A   1      32.596  35.690  32.051  1.00  0.00     0.251 C 
ATOM     34  H   UNL A   1      31.805  36.893  30.662  1.00  0.00     0.163 HD
ATOM     35  O   UNL A   1      31.636  35.767  32.823  1.00  0.00    -0.269 OA
BRANCH  33  36
ATOM     36  C   UNL A   1      33.827  34.999  32.469  1.00  0.00     0.039 A 
ATOM     37  C   UNL A   1      33.746  33.695  32.955  1.00  0.00     0.014 A 
ATOM     38  C   UNL A   1      35.061  35.656  32.389  1.00  0.00     0.014 A 
ATOM     39  C   UNL A   1      34.911  33.035  33.340  1.00  0.00     0.010 A 
ATOM     40  C   UNL A   1      36.228  34.969  32.699  1.00  0.00     0.010 A 
ATOM     41  C   UNL A   1      36.162  33.661  33.200  1.00  0.00    -0.014 A 
BRANCH  41  42
ATOM     42  C   UNL A   1      37.409  32.973  33.610  1.00  0.00     0.031 A 
ATOM     43  C   UNL A   1      38.021  31.935  32.711  1.00  0.00     0.074 A 
ATOM     44  C   UNL A   1      37.961  33.253  34.805  1.00  0.00     0.049 A 
ATOM     45  N   UNL A   1      39.084  31.197  32.906  1.00  0.00    -0.248 NA
ATOM     46  C   UNL A   1      37.333  31.671  31.437  1.00  0.00     0.031 C 
ATOM     47  C   UNL A   1      37.429  34.206  35.781  1.00  0.00     0.029 A 
ATOM     48  N   UNL A   1      39.090  32.757  35.403  1.00  0.00    -0.354 N 
ATOM     49  C   UNL A   1      39.182  30.377  31.789  1.00  0.00     0.074 A 
ATOM     50  C   UNL A   1      38.040  30.664  30.950  1.00  0.00     0.031 C 
ATOM     51  C   UNL A   1      38.248  34.246  36.845  1.00  0.00     0.029 A 
ATOM     52  C   UNL A   1      39.339  33.298  36.641  1.00  0.00     0.049 A 
ATOM     53  H   UNL A   1      39.668  32.078  34.986  1.00  0.00     0.167 HD
ATOM     54  C   UNL A   1      40.151  29.484  31.478  1.00  0.00     0.037 A 
ATOM     55  C   UNL A   1      40.336  33.055  37.511  1.00  0.00     0.037 A 
ATOM     56  C   UNL A   1      41.299  29.222  32.306  1.00  0.00     0.049 A 
ATOM     57  C   UNL A   1      41.401  32.060  37.142  1.00  0.00     0.074 A 
ATOM     58  C   UNL A   1      42.366  28.376  32.060  1.00  0.00     0.029 A 
ATOM     59  N   UNL A   1      41.527  29.805  33.544  1.00  0.00    -0.354 N 
ATOM     60  N   UNL A   1      41.519  31.339  36.053  1.00  0.00    -0.248 NA
ATOM     61  C   UNL A   1      42.480  31.854  38.117  1.00  0.00     0.031 C 
ATOM     62  C   UNL A   1      43.218  28.414  33.168  1.00  0.00     0.029 A 
ATOM     63  C   UNL A   1      42.709  29.324  34.082  1.00  0.00     0.049 A 
ATOM     64  H   UNL A   1      40.936  30.463  33.977  1.00  0.00     0.167 HD
ATOM     65  C   UNL A   1      42.698  30.620  36.197  1.00  0.00     0.074 A 
ATOM     66  C   UNL A   1      43.266  31.003  37.474  1.00  0.00     0.031 C 
ATOM     67  C   UNL A   1      43.263  29.725  35.350  1.00  0.00     0.037 A 
BRANCH  54  68
ATOM     68  C   UNL A   1      40.012  28.732  30.186  1.00  0.00     0.057 A 
ATOM     69  C   UNL A   1      40.602  29.185  28.998  1.00  0.00     0.134 A 
ATOM     70  C   UNL A   1      39.301  27.527  30.132  1.00  0.00     0.134 A 
ATOM     71  F   UNL A   1      41.285  30.340  28.975  1.00  0.00    -0.206 F 
ATOM     72  C   UNL A   1      40.467  28.482  27.800  1.00  0.00     0.040 A 
ATOM     73  C   UNL A   1      39.185  26.799  28.947  1.00  0.00     0.040 A 
ATOM     74  F   UNL A   1      38.715  27.032  31.233  1.00  0.00    -0.206 F 
ATOM     75  C   UNL A   1      39.763  27.280  27.774  1.00  0.00     0.006 A 
ENDBRANCH  54  68
BRANCH  55  76
ATOM     76  C   UNL A   1      40.392  33.785  38.802  1.00  0.00     0.057 A 
ATOM     77  C   UNL A   1      41.200  34.918  38.956  1.00  0.00     0.134 A 
ATOM     78  C   UNL A   1      39.648  33.368  39.912  1.00  0.00     0.134 A 
ATOM     79  F   UNL A   1      41.949  35.357  37.934  1.00  0.00    -0.206 F 
ATOM     80  C   UNL A   1      41.286  35.594  40.174  1.00  0.00     0.040 A 
ATOM     81  C   UNL A   1      39.704  34.052  41.128  1.00  0.00     0.040 A 
ATOM     82  F   UNL A   1      38.845  32.297  39.827  1.00  0.00    -0.206 F 
ATOM     83  C   UNL A   1      40.532  35.163  41.263  1.00  0.00     0.006 A 
ENDBRANCH  55  76
BRANCH  67  84
ATOM     84  C   UNL A   1      44.581  29.134  35.756  1.00  0.00     0.057 A 
ATOM     85  C   UNL A   1      44.668  27.946  36.493  1.00  0.00     0.134 A 
ATOM     86  C   UNL A   1      45.781  29.749  35.377  1.00  0.00     0.134 A 
ATOM     87  F   UNL A   1      43.556  27.314  36.897  1.00  0.00    -0.206 F 
ATOM     88  C   UNL A   1      45.901  27.406  36.862  1.00  0.00     0.040 A 
ATOM     89  C   UNL A   1      47.020  29.204  35.715  1.00  0.00     0.040 A 
ATOM     90  F   UNL A   1      45.769  30.884  34.663  1.00  0.00    -0.206 F 
ATOM     91  C   UNL A   1      47.082  28.032  36.466  1.00  0.00     0.006 A 
ENDBRANCH  67  84
ENDBRANCH  41  42
ENDBRANCH  33  36
ENDBRANCH  31  32
ENDBRANCH  30  31
ENDBRANCH  29  30
ENDBRANCH  28  29
ENDBRANCH   1  28
TORSDOF 18
ENDMDL
MODEL 2
REMARK VINA RESULT:     -10.6      1.019      6.351
REMARK SMILES [NH3+]C1CC[NH+](CC(=O)N2CCO[C@H](CC(=O)NCCCCCCNC(=O)c3ccc(-c4c5nc(c(-c6c(F)cccc6F)c6ccc([nH]6)c(-c6c(F)cccc6F)c6nc(c(-c7c(F)cccc7F)c7ccc4[nH]7)C=C6)C=C5)cc3)C2)CC1
REMARK SMILES IDX 19 1 18 2 17 3 15 4 16 5 14 7 13 8 9 9 10 10 81 11 11 12
REMARK SMILES IDX 12 13 7 14 8 15 6 16 5 17 2 18 3 19 83 20 4 21 82 22 1 24
REMARK SMILES IDX 20 28 21 29 22 30 23 31 24 32 25 33 26 35 27 36 28 37 80 38
REMARK SMILES IDX 29 39 79 40 30 41 31 42 32 43 73 44 33 45 78 46 72 47 74 48
REMARK SMILES IDX 34 49 77 50 71 51 70 52 35 54 61 55 44 56 60 57 45 58 48 59
REMARK SMILES IDX 59 60 75 61 46 62 47 63 58 65 76 66 49 67 36 68 37 69 42 70
REMARK SMILES IDX 38 71 39 72 41 73 43 74 40 75 62 76 63 77 68 78 64 79 65 80
REMARK SMILES IDX 67 81 69 82 66 83 50 84 51 85 56 86 52 87 53 88 55 89 57 90
REMARK SMILES IDX 54 91
REMARK H PARENT 17 6 5 23 1 25 1 26 1 27 24 34 74 53 48 64
REMARK Flexibility Score: inf
ROOT
ATOM      1  C   UNL A   1      34.702  31.533  28.271  1.00  0.00     0.021 C 
ENDROOT
BRANCH   1   2
ATOM      2  C   UNL A   1      33.821  30.911  27.192  1.00  0.00     0.116 C 
BRANCH   2   3
ATOM      3  N   UNL A   1      33.197  29.714  27.704  1.00  0.00    -0.356 N 
ATOM      4  C   UNL A   1      32.116  29.086  27.171  1.00  0.00     0.222 C 
ATOM      5  O   UNL A   1      31.536  28.215  27.817  1.00  0.00    -0.275 OA
ATOM      6  H   UNL A   1      33.592  29.316  28.512  1.00  0.00     0.163 HD
BRANCH   4   7
ATOM      7  C   UNL A   1      31.679  29.460  25.779  1.00  0.00     0.133 C 
BRANCH   7   8
ATOM      8  C   UNL A   1      31.234  28.258  24.926  1.00  0.00     0.147 C 
ATOM      9  N   UNL A   1      32.365  26.644  23.350  1.00  0.00    -0.333 N 
ATOM     10  C   UNL A   1      31.416  27.031  22.307  1.00  0.00     0.148 C 
ATOM     11  C   UNL A   1      32.506  27.627  24.387  1.00  0.00     0.152 C 
ATOM     12  C   UNL A   1      30.137  27.643  22.902  1.00  0.00     0.182 C 
ATOM     13  O   UNL A   1      30.425  28.715  23.822  1.00  0.00    -0.374 OA
BRANCH   9  14
ATOM     14  C   UNL A   1      33.469  25.848  23.027  1.00  0.00     0.277 C 
ATOM     15  O   UNL A   1      33.804  25.668  21.853  1.00  0.00    -0.268 OA
BRANCH  14  16
ATOM     16  C   UNL A   1      34.198  25.122  24.185  1.00  0.00     0.363 C 
BRANCH  16  17
ATOM     17  N   UNL A   1      34.908  23.875  23.878  1.00  0.00    -0.327 N 
ATOM     18  C   UNL A   1      35.237  21.555  25.654  1.00  0.00     0.192 C 
ATOM     19  C   UNL A   1      36.114  22.814  25.754  1.00  0.00     0.126 C 
ATOM     20  C   UNL A   1      34.049  21.661  24.693  1.00  0.00     0.126 C 
ATOM     21  C   UNL A   1      36.206  23.636  24.473  1.00  0.00     0.268 C 
ATOM     22  C   UNL A   1      34.200  22.655  23.545  1.00  0.00     0.268 C 
ATOM     23  H   UNL A   1      35.089  24.247  22.947  1.00  0.00     0.348 HD
BRANCH  18  24
ATOM     24  N   UNL A   1      36.002  20.354  25.313  1.00  0.00    -0.355 N 
ATOM     25  H   UNL A   1      36.835  20.304  25.900  1.00  0.00     0.344 HD
ATOM     26  H   UNL A   1      36.280  20.396  24.332  1.00  0.00     0.344 HD
ATOM     27  H   UNL A   1      35.427  19.527  25.468  1.00  0.00     0.344 HD
ENDBRANCH  18  24
ENDBRANCH  16  17
ENDBRANCH  14  16
ENDBRANCH   9  14
ENDBRANCH   7   8
ENDBRANCH   4   7
ENDBRANCH   2   3
ENDBRANCH   1   2
BRANCH   1  28
ATOM     28  C   UNL A   1      34.756  33.059  28.193  1.00  0.00     0.002 C 
BRANCH  28  29
ATOM     29  C   UNL A   1      34.252  33.760  29.455  1.00  0.00     0.002 C 
BRANCH  29  30
ATOM     30  C   UNL A   1      33.098  34.736  29.209  1.00  0.00     0.021 C 
BRANCH  30  31
ATOM     31  C   UNL A   1      33.340  36.128  29.778  1.00  0.00     0.116 C 
BRANCH  31  32
ATOM     32  N   UNL A   1      32.531  36.355  30.964  1.00  0.00    -0.352 N 
ATOM     33  C   UNL A   1      32.631  35.750  32.183  1.00  0.00     0.251 C 
ATOM     34  H   UNL A   1      31.822  37.032  30.877  1.00  0.00     0.163 HD
ATOM     35  O   UNL A   1      31.705  35.823  32.997  1.00  0.00    -0.269 OA
BRANCH  33  36
ATOM     36  C   UNL A   1      33.856  35.008  32.523  1.00  0.00     0.039 A 
ATOM     37  C   UNL A   1      33.757  33.684  32.946  1.00  0.00     0.014 A 
ATOM     38  C   UNL A   1      35.105  35.636  32.432  1.00  0.00     0.014 A 
ATOM     39  C   UNL A   1      34.916  32.975  33.256  1.00  0.00     0.010 A 
ATOM     40  C   UNL A   1      36.262  34.905  32.665  1.00  0.00     0.010 A 
ATOM     41  C   UNL A   1      36.177  33.576  33.103  1.00  0.00    -0.014 A 
BRANCH  41  42
ATOM     42  C   UNL A   1      37.418  32.837  33.434  1.00  0.00     0.031 A 
ATOM     43  C   UNL A   1      38.151  33.138  34.712  1.00  0.00     0.074 A 
ATOM     44  C   UNL A   1      37.904  31.930  32.566  1.00  0.00     0.049 A 
ATOM     45  N   UNL A   1      39.270  32.630  35.162  1.00  0.00    -0.248 NA
ATOM     46  C   UNL A   1      37.564  34.167  35.586  1.00  0.00     0.031 C 
ATOM     47  C   UNL A   1      37.306  31.590  31.273  1.00  0.00     0.029 A 
ATOM     48  N   UNL A   1      39.017  31.133  32.639  1.00  0.00    -0.354 N 
ATOM     49  C   UNL A   1      39.524  33.284  36.361  1.00  0.00     0.074 A 
ATOM     50  C   UNL A   1      38.479  34.267  36.538  1.00  0.00     0.031 C 
ATOM     51  C   UNL A   1      38.043  30.632  30.688  1.00  0.00     0.029 A 
ATOM     52  C   UNL A   1      39.183  30.319  31.545  1.00  0.00     0.049 A 
ATOM     53  H   UNL A   1      39.639  31.143  33.402  1.00  0.00     0.167 HD
ATOM     54  C   UNL A   1      40.525  33.067  37.247  1.00  0.00     0.037 A 
ATOM     55  C   UNL A   1      40.146  29.420  31.269  1.00  0.00     0.037 A 
ATOM     56  C   UNL A   1      41.548  32.069  37.076  1.00  0.00     0.049 A 
ATOM     57  C   UNL A   1      41.244  29.196  32.270  1.00  0.00     0.074 A 
ATOM     58  C   UNL A   1      42.576  31.732  37.938  1.00  0.00     0.029 A 
ATOM     59  N   UNL A   1      41.670  31.248  35.964  1.00  0.00    -0.354 N 
ATOM     60  N   UNL A   1      41.437  29.774  33.431  1.00  0.00    -0.248 NA
ATOM     61  C   UNL A   1      42.254  28.185  31.927  1.00  0.00     0.031 C 
ATOM     62  C   UNL A   1      43.347  30.736  37.328  1.00  0.00     0.029 A 
ATOM     63  C   UNL A   1      42.768  30.417  36.110  1.00  0.00     0.049 A 
ATOM     64  H   UNL A   1      41.067  31.256  35.186  1.00  0.00     0.167 HD
ATOM     65  C   UNL A   1      42.568  29.176  33.971  1.00  0.00     0.074 A 
ATOM     66  C   UNL A   1      43.010  28.180  33.016  1.00  0.00     0.031 C 
ATOM     67  C   UNL A   1      43.185  29.425  35.152  1.00  0.00     0.037 A 
BRANCH  54  68
ATOM     68  C   UNL A   1      40.554  33.921  38.482  1.00  0.00     0.057 A 
ATOM     69  C   UNL A   1      39.858  33.566  39.645  1.00  0.00     0.134 A 
ATOM     70  C   UNL A   1      41.308  35.100  38.518  1.00  0.00     0.134 A 
ATOM     71  F   UNL A   1      39.104  32.456  39.674  1.00  0.00    -0.206 F 
ATOM     72  C   UNL A   1      39.889  34.365  40.789  1.00  0.00     0.040 A 
ATOM     73  C   UNL A   1      41.371  35.892  39.665  1.00  0.00     0.040 A 
ATOM     74  F   UNL A   1      42.003  35.498  37.441  1.00  0.00    -0.206 F 
ATOM     75  C   UNL A   1      40.654  35.529  40.803  1.00  0.00     0.006 A 
ENDBRANCH  54  68
BRANCH  55  76
ATOM     76  C   UNL A   1      40.099  28.645  30.004  1.00  0.00     0.057 A 
ATOM     77  C   UNL A   1      39.377  27.449  29.917  1.00  0.00     0.134 A 
ATOM     78  C   UNL A   1      40.777  29.074  28.856  1.00  0.00     0.134 A 
ATOM     79  F   UNL A   1      38.720  26.977  30.987  1.00  0.00    -0.206 F 
ATOM     80  C   UNL A   1      39.351  26.694  28.743  1.00  0.00     0.040 A 
ATOM     81  C   UNL A   1      40.736  28.343  27.668  1.00  0.00     0.040 A 
ATOM     82  F   UNL A   1      41.476  30.218  28.870  1.00  0.00    -0.206 F 
ATOM     83  C   UNL A   1      40.029  27.144  27.613  1.00  0.00     0.006 A 
ENDBRANCH  55  76
BRANCH  67  84
ATOM     84  C   UNL A   1      44.375  28.577  35.496  1.00  0.00     0.057 A 
ATOM     85  C   UNL A   1      45.679  28.948  35.142  1.00  0.00     0.134 A 
ATOM     86  C   UNL A   1      44.214  27.388  36.219  1.00  0.00     0.134 A 
ATOM     87  F   UNL A   1      45.900  30.069  34.439  1.00  0.00    -0.206 F 
ATOM     88  C   UNL A   1      46.777  28.151  35.471  1.00  0.00     0.040 A 
ATOM     89  C   UNL A   1      45.307  26.598  36.578  1.00  0.00     0.040 A 
ATOM     90  F   UNL A   1      42.993  26.980  36.597  1.00  0.00    -0.206 F 
ATOM     91  C   UNL A   1      46.592  26.976  36.197  1.00  0.00     0.006 A 
ENDBRANCH  67  84
ENDBRANCH  41  42
ENDBRANCH  33  36
ENDBRANCH  31  32
ENDBRANCH  30  31
ENDBRANCH  29  30
ENDBRANCH  28  29
ENDBRANCH   1  28
TORSDOF 18
ENDMDL
MODEL 3
REMARK VINA RESULT:     -10.5      5.536     10.531
REMARK SMILES [NH3+]C1CC[NH+](CC(=O)N2CCO[C@H](CC(=O)NCCCCCCNC(=O)c3ccc(-c4c5nc(c(-c6c(F)cccc6F)c6ccc([nH]6)c(-c6c(F)cccc6F)c6nc(c(-c7c(F)cccc7F)c7ccc4[nH]7)C=C6)C=C5)cc3)C2)CC1
REMARK SMILES IDX 19 1 18 2 17 3 15 4 16 5 14 7 13 8 9 9 10 10 81 11 11 12
REMARK SMILES IDX 12 13 7 14 8 15 6 16 5 17 2 18 3 19 83 20 4 21 82 22 1 24
REMARK SMILES IDX 20 28 21 29 22 30 23 31 24 32 25 33 26 35 27 36 28 37 80 38
REMARK SMILES IDX 29 39 79 40 30 41 31 42 32 43 73 44 33 45 78 46 72 47 74 48
REMARK SMILES IDX 34 49 77 50 71 51 70 52 35 54 61 55 44 56 60 57 45 58 48 59
REMARK SMILES IDX 59 60 75 61 46 62 47 63 58 65 76 66 49 67 36 68 37 69 42 70
REMARK SMILES IDX 38 71 39 72 41 73 43 74 40 75 62 76 63 77 68 78 64 79 65 80
REMARK SMILES IDX 67 81 69 82 66 83 50 84 51 85 56 86 52 87 53 88 55 89 57 90
REMARK SMILES IDX 54 91
REMARK H PARENT 17 6 5 23 1 25 1 26 1 27 24 34 74 53 48 64
REMARK Flexibility Score: inf
ROOT
ATOM      1  C   UNL A   1      35.937  22.643  25.443  1.00  0.00     0.021 C 
ENDROOT
BRANCH   1   2
ATOM      2  C   UNL A   1      34.969  21.927  26.379  1.00  0.00     0.116 C 
BRANCH   2   3
ATOM      3  N   UNL A   1      33.856  21.405  25.622  1.00  0.00    -0.356 N 
ATOM      4  C   UNL A   1      32.544  21.692  25.827  1.00  0.00     0.222 C 
ATOM      5  O   UNL A   1      31.676  21.017  25.277  1.00  0.00    -0.275 OA
ATOM      6  H   UNL A   1      34.068  20.784  24.888  1.00  0.00     0.163 HD
BRANCH   4   7
ATOM      7  C   UNL A   1      32.192  22.862  26.709  1.00  0.00     0.133 C 
BRANCH   7   8
ATOM      8  C   UNL A   1      31.601  24.059  25.941  1.00  0.00     0.147 C 
ATOM      9  N   UNL A   1      32.203  26.492  25.647  1.00  0.00    -0.333 N 
ATOM     10  C   UNL A   1      30.875  26.858  26.137  1.00  0.00     0.148 C 
ATOM     11  C   UNL A   1      32.620  25.180  26.053  1.00  0.00     0.152 C 
ATOM     12  C   UNL A   1      29.874  25.701  25.983  1.00  0.00     0.182 C 
ATOM     13  O   UNL A   1      30.367  24.476  26.562  1.00  0.00    -0.374 OA
BRANCH   9  14
ATOM     14  C   UNL A   1      33.177  27.481  25.471  1.00  0.00     0.277 C 
ATOM     15  O   UNL A   1      34.271  27.406  26.037  1.00  0.00    -0.268 OA
BRANCH  14  16
ATOM     16  C   UNL A   1      32.801  28.721  24.623  1.00  0.00     0.363 C 
BRANCH  16  17
ATOM     17  N   UNL A   1      32.589  28.533  23.183  1.00  0.00    -0.327 N 
ATOM     18  C   UNL A   1      32.142  25.983  21.788  1.00  0.00     0.192 C 
ATOM     19  C   UNL A   1      33.540  26.479  22.197  1.00  0.00     0.126 C 
ATOM     20  C   UNL A   1      30.973  26.812  22.326  1.00  0.00     0.126 C 
ATOM     21  C   UNL A   1      33.660  27.988  22.376  1.00  0.00     0.268 C 
ATOM     22  C   UNL A   1      31.272  28.278  22.632  1.00  0.00     0.268 C 
ATOM     23  H   UNL A   1      32.643  29.545  23.078  1.00  0.00     0.348 HD
BRANCH  18  24
ATOM     24  N   UNL A   1      31.988  25.850  20.339  1.00  0.00    -0.355 N 
ATOM     25  H   UNL A   1      32.553  25.067  20.007  1.00  0.00     0.344 HD
ATOM     26  H   UNL A   1      32.297  26.709  19.883  1.00  0.00     0.344 HD
ATOM     27  H   UNL A   1      31.008  25.680  20.114  1.00  0.00     0.344 HD
ENDBRANCH  18  24
ENDBRANCH  16  17
ENDBRANCH  14  16
ENDBRANCH   9  14
ENDBRANCH   7   8
ENDBRANCH   4   7
ENDBRANCH   2   3
ENDBRANCH   1   2
BRANCH   1  28
ATOM     28  C   UNL A   1      37.226  21.858  25.202  1.00  0.00     0.002 C 
BRANCH  28  29
ATOM     29  C   UNL A   1      36.996  20.435  24.691  1.00  0.00     0.002 C 
BRANCH  29  30
ATOM     30  C   UNL A   1      38.147  19.471  24.991  1.00  0.00     0.021 C 
BRANCH  30  31
ATOM     31  C   UNL A   1      39.268  20.092  25.815  1.00  0.00     0.116 C 
BRANCH  31  32
ATOM     32  N   UNL A   1      40.383  19.171  25.956  1.00  0.00    -0.352 N 
ATOM     33  C   UNL A   1      41.702  19.463  26.146  1.00  0.00     0.251 C 
ATOM     34  H   UNL A   1      40.158  18.213  25.910  1.00  0.00     0.163 HD
ATOM     35  O   UNL A   1      42.569  18.604  25.955  1.00  0.00    -0.269 OA
BRANCH  33  36
ATOM     36  C   UNL A   1      42.086  20.815  26.583  1.00  0.00     0.039 A 
ATOM     37  C   UNL A   1      42.066  21.125  27.943  1.00  0.00     0.014 A 
ATOM     38  C   UNL A   1      42.455  21.780  25.638  1.00  0.00     0.014 A 
ATOM     39  C   UNL A   1      42.441  22.400  28.360  1.00  0.00     0.010 A 
ATOM     40  C   UNL A   1      42.903  23.024  26.062  1.00  0.00     0.010 A 
ATOM     41  C   UNL A   1      42.878  23.353  27.424  1.00  0.00    -0.014 A 
BRANCH  41  42
ATOM     42  C   UNL A   1      43.275  24.715  27.853  1.00  0.00     0.031 A 
ATOM     43  C   UNL A   1      42.219  25.744  28.151  1.00  0.00     0.074 A 
ATOM     44  C   UNL A   1      44.580  25.034  27.932  1.00  0.00     0.049 A 
ATOM     45  N   UNL A   1      42.363  26.997  28.501  1.00  0.00    -0.248 NA
ATOM     46  C   UNL A   1      40.818  25.317  28.008  1.00  0.00     0.031 C 
ATOM     47  C   UNL A   1      45.692  24.133  27.621  1.00  0.00     0.029 A 
ATOM     48  N   UNL A   1      45.192  26.206  28.293  1.00  0.00    -0.354 N 
ATOM     49  C   UNL A   1      41.075  27.506  28.608  1.00  0.00     0.074 A 
ATOM     50  C   UNL A   1      40.166  26.448  28.227  1.00  0.00     0.031 C 
ATOM     51  C   UNL A   1      46.850  24.778  27.832  1.00  0.00     0.029 A 
ATOM     52  C   UNL A   1      46.563  26.144  28.257  1.00  0.00     0.049 A 
ATOM     53  H   UNL A   1      44.696  27.016  28.553  1.00  0.00     0.167 HD
ATOM     54  C   UNL A   1      40.684  28.738  29.012  1.00  0.00     0.037 A 
ATOM     55  C   UNL A   1      47.483  27.086  28.538  1.00  0.00     0.037 A 
ATOM     56  C   UNL A   1      41.593  29.779  29.415  1.00  0.00     0.049 A 
ATOM     57  C   UNL A   1      47.023  28.445  28.988  1.00  0.00     0.074 A 
ATOM     58  C   UNL A   1      41.300  31.044  29.891  1.00  0.00     0.029 A 
ATOM     59  N   UNL A   1      42.976  29.672  29.385  1.00  0.00    -0.354 N 
ATOM     60  N   UNL A   1      45.802  28.894  29.148  1.00  0.00    -0.248 NA
ATOM     61  C   UNL A   1      48.070  29.425  29.306  1.00  0.00     0.031 C 
ATOM     62  C   UNL A   1      42.506  31.718  30.109  1.00  0.00     0.029 A 
ATOM     63  C   UNL A   1      43.550  30.855  29.819  1.00  0.00     0.049 A 
ATOM     64  H   UNL A   1      43.475  28.873  29.098  1.00  0.00     0.167 HD
ATOM     65  C   UNL A   1      45.934  30.195  29.617  1.00  0.00     0.074 A 
ATOM     66  C   UNL A   1      47.354  30.457  29.727  1.00  0.00     0.031 C 
ATOM     67  C   UNL A   1      44.967  31.093  29.931  1.00  0.00     0.037 A 
BRANCH  54  68
ATOM     68  C   UNL A   1      39.209  29.021  29.045  1.00  0.00     0.057 A 
ATOM     69  C   UNL A   1      38.516  29.462  27.909  1.00  0.00     0.134 A 
ATOM     70  C   UNL A   1      38.469  28.828  30.217  1.00  0.00     0.134 A 
ATOM     71  F   UNL A   1      39.166  29.682  26.757  1.00  0.00    -0.206 F 
ATOM     72  C   UNL A   1      37.145  29.725  27.946  1.00  0.00     0.040 A 
ATOM     73  C   UNL A   1      37.093  29.059  30.259  1.00  0.00     0.040 A 
ATOM     74  F   UNL A   1      39.069  28.403  31.340  1.00  0.00    -0.206 F 
ATOM     75  C   UNL A   1      36.429  29.515  29.122  1.00  0.00     0.006 A 
ENDBRANCH  54  68
BRANCH  55  76
ATOM     76  C   UNL A   1      48.929  26.768  28.432  1.00  0.00     0.057 A 
ATOM     77  C   UNL A   1      49.625  26.205  29.508  1.00  0.00     0.134 A 
ATOM     78  C   UNL A   1      49.650  27.024  27.259  1.00  0.00     0.134 A 
ATOM     79  F   UNL A   1      48.993  25.952  30.663  1.00  0.00    -0.206 F 
ATOM     80  C   UNL A   1      50.992  25.932  29.432  1.00  0.00     0.040 A 
ATOM     81  C   UNL A   1      51.011  26.730  27.161  1.00  0.00     0.040 A 
ATOM     82  F   UNL A   1      49.039  27.551  26.189  1.00  0.00    -0.206 F 
ATOM     83  C   UNL A   1      51.688  26.191  28.253  1.00  0.00     0.006 A 
ENDBRANCH  55  76
BRANCH  67  84
ATOM     84  C   UNL A   1      45.413  32.422  30.465  1.00  0.00     0.057 A 
ATOM     85  C   UNL A   1      45.633  33.524  29.628  1.00  0.00     0.134 A 
ATOM     86  C   UNL A   1      45.596  32.609  31.841  1.00  0.00     0.134 A 
ATOM     87  F   UNL A   1      45.487  33.408  28.299  1.00  0.00    -0.206 F 
ATOM     88  C   UNL A   1      46.046  34.755  30.139  1.00  0.00     0.040 A 
ATOM     89  C   UNL A   1      45.980  33.843  32.366  1.00  0.00     0.040 A 
ATOM     90  F   UNL A   1      45.394  31.598  32.699  1.00  0.00    -0.206 F 
ATOM     91  C   UNL A   1      46.213  34.919  31.512  1.00  0.00     0.006 A 
ENDBRANCH  67  84
ENDBRANCH  41  42
ENDBRANCH  33  36
ENDBRANCH  31  32
ENDBRANCH  30  31
ENDBRANCH  29  30
ENDBRANCH  28  29
ENDBRANCH   1  28
TORSDOF 18
ENDMDL
