MODEL 1
REMARK VINA RESULT:     -10.5      0.000      0.000
REMARK SMILES O=C(CCCCc1nc(-c2ccccc2)no1)NCCCCCCNC(=O)c1ccc(-c2c3nc(c(-c4c(F)cccc4F)c4ccc([nH]4)c(-c4c(F)cccc4F)c4nc(c(-c5c(F)cccc5F)c5ccc2[nH]5)C=C4)C=C3)cc1
REMARK SMILES IDX 20 1 19 2 18 3 1 4 2 5 3 7 4 8 5 9 6 10 7 11 8 12 17 13 9 14
REMARK SMILES IDX 16 15 10 16 11 17 15 18 12 19 14 20 13 21 21 22 22 23 23 24
REMARK SMILES IDX 24 25 25 26 26 27 27 29 28 30 29 31 81 32 30 33 80 34 31 35
REMARK SMILES IDX 32 36 33 37 74 38 34 39 79 40 73 41 75 42 35 43 78 44 72 45
REMARK SMILES IDX 71 46 36 48 62 49 45 50 61 51 46 52 49 53 60 54 76 55 47 56
REMARK SMILES IDX 48 57 59 59 77 60 50 61 37 62 38 63 43 64 39 65 40 66 42 67
REMARK SMILES IDX 44 68 41 69 63 70 64 71 69 72 65 73 66 74 68 75 70 76 67 77
REMARK SMILES IDX 51 78 52 79 57 80 53 81 54 82 56 83 58 84 55 85
REMARK H PARENT 18 6 25 28 75 47 49 58
REMARK Flexibility Score: inf
ROOT
ATOM      1  C   UNL A   1      33.027  27.888  26.632  1.00  0.00     0.021 C 
ENDROOT
BRANCH   1   2
ATOM      2  C   UNL A   1      32.033  26.757  26.362  1.00  0.00     0.116 C 
BRANCH   2   3
ATOM      3  N   UNL A   1      32.714  25.546  25.960  1.00  0.00    -0.356 N 
ATOM      4  O   UNL A   1      31.484  24.092  27.242  1.00  0.00    -0.275 OA
ATOM      5  C   UNL A   1      32.376  24.299  26.427  1.00  0.00     0.219 C 
ATOM      6  H   UNL A   1      33.458  25.619  25.321  1.00  0.00     0.163 HD
BRANCH   5   7
ATOM      7  C   UNL A   1      33.214  23.186  25.829  1.00  0.00     0.100 C 
BRANCH   7   8
ATOM      8  C   UNL A   1      34.535  23.687  25.246  1.00  0.00     0.010 C 
BRANCH   8   9
ATOM      9  C   UNL A   1      34.886  23.218  23.823  1.00  0.00     0.010 C 
BRANCH   9  10
ATOM     10  C   UNL A   1      33.762  23.289  22.787  1.00  0.00     0.100 C 
BRANCH  10  11
ATOM     11  C   UNL A   1      33.251  24.662  22.585  1.00  0.00     0.226 A 
ATOM     12  N   UNL A   1      32.123  25.193  22.991  1.00  0.00    -0.191 NA
ATOM     13  O   UNL A   1      34.022  25.511  21.852  1.00  0.00    -0.339 OA
ATOM     14  C   UNL A   1      32.189  26.463  22.457  1.00  0.00     0.202 A 
ATOM     15  N   UNL A   1      33.311  26.705  21.759  1.00  0.00    -0.057 NA
BRANCH  14  16
ATOM     16  C   UNL A   1      31.120  27.433  22.639  1.00  0.00     0.023 A 
ATOM     17  C   UNL A   1      29.889  27.048  23.188  1.00  0.00     0.012 A 
ATOM     18  C   UNL A   1      31.313  28.772  22.271  1.00  0.00     0.012 A 
ATOM     19  C   UNL A   1      28.871  27.987  23.369  1.00  0.00     0.001 A 
ATOM     20  C   UNL A   1      30.289  29.707  22.440  1.00  0.00     0.001 A 
ATOM     21  C   UNL A   1      29.070  29.313  22.991  1.00  0.00     0.000 A 
ENDBRANCH  14  16
ENDBRANCH  10  11
ENDBRANCH   9  10
ENDBRANCH   8   9
ENDBRANCH   7   8
ENDBRANCH   5   7
ENDBRANCH   2   3
ENDBRANCH   1   2
BRANCH   1  22
ATOM     22  C   UNL A   1      32.400  29.205  27.113  1.00  0.00     0.002 C 
BRANCH  22  23
ATOM     23  C   UNL A   1      31.497  29.914  26.100  1.00  0.00     0.002 C 
BRANCH  23  24
ATOM     24  C   UNL A   1      31.385  31.430  26.275  1.00  0.00     0.021 C 
BRANCH  24  25
ATOM     25  C   UNL A   1      32.609  32.108  26.884  1.00  0.00     0.116 C 
BRANCH  25  26
ATOM     26  N   UNL A   1      32.331  33.453  27.365  1.00  0.00    -0.352 N 
ATOM     27  C   UNL A   1      33.033  34.224  28.256  1.00  0.00     0.251 C 
ATOM     28  H   UNL A   1      31.520  33.871  26.995  1.00  0.00     0.163 HD
ATOM     29  O   UNL A   1      32.561  35.294  28.642  1.00  0.00    -0.269 OA
BRANCH  27  30
ATOM     30  C   UNL A   1      34.336  33.765  28.785  1.00  0.00     0.039 A 
ATOM     31  C   UNL A   1      34.348  32.988  29.948  1.00  0.00     0.014 A 
ATOM     32  C   UNL A   1      35.538  34.099  28.155  1.00  0.00     0.014 A 
ATOM     33  C   UNL A   1      35.558  32.490  30.436  1.00  0.00     0.010 A 
ATOM     34  C   UNL A   1      36.736  33.545  28.606  1.00  0.00     0.010 A 
ATOM     35  C   UNL A   1      36.758  32.733  29.749  1.00  0.00    -0.014 A 
BRANCH  35  36
ATOM     36  C   UNL A   1      38.029  32.110  30.200  1.00  0.00     0.031 A 
ATOM     37  C   UNL A   1      38.865  32.753  31.271  1.00  0.00     0.074 A 
ATOM     38  C   UNL A   1      38.457  30.980  29.605  1.00  0.00     0.049 A 
ATOM     39  N   UNL A   1      39.996  32.345  31.792  1.00  0.00    -0.248 NA
ATOM     40  C   UNL A   1      38.384  34.034  31.810  1.00  0.00     0.031 C 
ATOM     41  C   UNL A   1      37.769  30.289  28.512  1.00  0.00     0.029 A 
ATOM     42  N   UNL A   1      39.570  30.212  29.835  1.00  0.00    -0.354 N 
ATOM     43  C   UNL A   1      40.364  33.320  32.709  1.00  0.00     0.074 A 
ATOM     44  C   UNL A   1      39.364  34.364  32.638  1.00  0.00     0.031 C 
ATOM     45  C   UNL A   1      38.455  29.180  28.194  1.00  0.00     0.029 A 
ATOM     46  C   UNL A   1      39.644  29.097  29.036  1.00  0.00     0.049 A 
ATOM     47  H   UNL A   1      40.251  30.439  30.509  1.00  0.00     0.167 HD
ATOM     48  C   UNL A   1      41.427  33.335  33.550  1.00  0.00     0.037 A 
ATOM     49  C   UNL A   1      40.562  28.114  28.992  1.00  0.00     0.037 A 
ATOM     50  C   UNL A   1      42.411  32.286  33.636  1.00  0.00     0.049 A 
ATOM     51  C   UNL A   1      41.728  28.151  29.937  1.00  0.00     0.074 A 
ATOM     52  C   UNL A   1      43.476  32.171  34.512  1.00  0.00     0.029 A 
ATOM     53  N   UNL A   1      42.454  31.174  32.808  1.00  0.00    -0.354 N 
ATOM     54  N   UNL A   1      42.016  29.034  30.862  1.00  0.00    -0.248 NA
ATOM     55  C   UNL A   1      42.696  27.049  29.835  1.00  0.00     0.031 C 
ATOM     56  C   UNL A   1      44.192  31.014  34.184  1.00  0.00     0.029 A 
ATOM     57  C   UNL A   1      43.545  30.383  33.132  1.00  0.00     0.049 A 
ATOM     58  H   UNL A   1      41.805  30.975  32.094  1.00  0.00     0.167 HD
ATOM     59  C   UNL A   1      43.183  28.585  31.465  1.00  0.00     0.074 A 
ATOM     60  C   UNL A   1      43.538  27.340  30.815  1.00  0.00     0.031 C 
ATOM     61  C   UNL A   1      43.897  29.153  32.469  1.00  0.00     0.037 A 
BRANCH  48  62
ATOM     62  C   UNL A   1      41.582  34.531  34.445  1.00  0.00     0.057 A 
ATOM     63  C   UNL A   1      42.264  35.684  34.029  1.00  0.00     0.134 A 
ATOM     64  C   UNL A   1      41.020  34.543  35.728  1.00  0.00     0.134 A 
ATOM     65  F   UNL A   1      42.834  35.735  32.816  1.00  0.00    -0.206 F 
ATOM     66  C   UNL A   1      42.410  36.789  34.869  1.00  0.00     0.040 A 
ATOM     67  C   UNL A   1      41.136  35.653  36.566  1.00  0.00     0.040 A 
ATOM     68  F   UNL A   1      40.348  33.477  36.186  1.00  0.00    -0.206 F 
ATOM     69  C   UNL A   1      41.840  36.777  36.141  1.00  0.00     0.006 A 
ENDBRANCH  48  62
BRANCH  49  70
ATOM     70  C   UNL A   1      40.391  26.986  28.043  1.00  0.00     0.057 A 
ATOM     71  C   UNL A   1      39.595  25.884  28.375  1.00  0.00     0.134 A 
ATOM     72  C   UNL A   1      41.009  26.982  26.787  1.00  0.00     0.134 A 
ATOM     73  F   UNL A   1      38.993  25.824  29.572  1.00  0.00    -0.206 F 
ATOM     74  C   UNL A   1      39.430  24.811  27.499  1.00  0.00     0.040 A 
ATOM     75  C   UNL A   1      40.835  25.926  25.891  1.00  0.00     0.040 A 
ATOM     76  F   UNL A   1      41.778  28.013  26.407  1.00  0.00    -0.206 F 
ATOM     77  C   UNL A   1      40.047  24.833  26.250  1.00  0.00     0.006 A 
ENDBRANCH  49  70
BRANCH  61  78
ATOM     78  C   UNL A   1      45.123  28.422  32.930  1.00  0.00     0.057 A 
ATOM     79  C   UNL A   1      46.386  28.680  32.380  1.00  0.00     0.134 A 
ATOM     80  C   UNL A   1      45.043  27.455  33.941  1.00  0.00     0.134 A 
ATOM     81  F   UNL A   1      46.527  29.583  31.398  1.00  0.00    -0.206 F 
ATOM     82  C   UNL A   1      47.520  27.982  32.800  1.00  0.00     0.040 A 
ATOM     83  C   UNL A   1      46.175  26.771  34.386  1.00  0.00     0.040 A 
ATOM     84  F   UNL A   1      43.867  27.164  34.514  1.00  0.00    -0.206 F 
ATOM     85  C   UNL A   1      47.417  27.027  33.809  1.00  0.00     0.006 A 
ENDBRANCH  61  78
ENDBRANCH  35  36
ENDBRANCH  27  30
ENDBRANCH  25  26
ENDBRANCH  24  25
ENDBRANCH  23  24
ENDBRANCH  22  23
ENDBRANCH   1  22
TORSDOF 18
ENDMDL
MODEL 2
REMARK VINA RESULT:     -10.5      3.311      8.717
REMARK SMILES O=C(CCCCc1nc(-c2ccccc2)no1)NCCCCCCNC(=O)c1ccc(-c2c3nc(c(-c4c(F)cccc4F)c4ccc([nH]4)c(-c4c(F)cccc4F)c4nc(c(-c5c(F)cccc5F)c5ccc2[nH]5)C=C4)C=C3)cc1
REMARK SMILES IDX 20 1 19 2 18 3 1 4 2 5 3 7 4 8 5 9 6 10 7 11 8 12 17 13 9 14
REMARK SMILES IDX 16 15 10 16 11 17 15 18 12 19 14 20 13 21 21 22 22 23 23 24
REMARK SMILES IDX 24 25 25 26 26 27 27 29 28 30 29 31 81 32 30 33 80 34 31 35
REMARK SMILES IDX 32 36 33 37 74 38 34 39 79 40 73 41 75 42 35 43 78 44 72 45
REMARK SMILES IDX 71 46 36 48 62 49 45 50 61 51 46 52 49 53 60 54 76 55 47 56
REMARK SMILES IDX 48 57 59 59 77 60 50 61 37 62 38 63 43 64 39 65 40 66 42 67
REMARK SMILES IDX 44 68 41 69 63 70 64 71 69 72 65 73 66 74 68 75 70 76 67 77
REMARK SMILES IDX 51 78 52 79 57 80 53 81 54 82 56 83 58 84 55 85
REMARK H PARENT 18 6 25 28 75 47 49 58
REMARK Flexibility Score: inf
ROOT
ATOM      1  C   UNL A   1      35.212  23.579  24.077  1.00  0.00     0.021 C 
ENDROOT
BRANCH   1   2
ATOM      2  C   UNL A   1      34.273  24.125  23.001  1.00  0.00     0.116 C 
BRANCH   2   3
ATOM      3  N   UNL A   1      33.868  25.481  23.298  1.00  0.00    -0.356 N 
ATOM      4  O   UNL A   1      33.343  26.096  21.150  1.00  0.00    -0.275 OA
ATOM      5  C   UNL A   1      33.422  26.363  22.344  1.00  0.00     0.219 C 
ATOM      6  H   UNL A   1      33.916  25.789  24.231  1.00  0.00     0.163 HD
BRANCH   5   7
ATOM      7  C   UNL A   1      33.023  27.711  22.910  1.00  0.00     0.100 C 
BRANCH   7   8
ATOM      8  C   UNL A   1      31.553  28.048  22.659  1.00  0.00     0.010 C 
BRANCH   8   9
ATOM      9  C   UNL A   1      30.515  27.019  23.141  1.00  0.00     0.010 C 
BRANCH   9  10
ATOM     10  C   UNL A   1      30.147  27.068  24.626  1.00  0.00     0.100 C 
BRANCH  10  11
ATOM     11  C   UNL A   1      30.551  25.850  25.360  1.00  0.00     0.226 A 
ATOM     12  N   UNL A   1      31.510  24.998  25.088  1.00  0.00    -0.191 NA
ATOM     13  O   UNL A   1      29.825  25.520  26.463  1.00  0.00    -0.339 OA
ATOM     14  C   UNL A   1      31.360  24.059  26.086  1.00  0.00     0.202 A 
ATOM     15  N   UNL A   1      30.358  24.324  26.940  1.00  0.00    -0.057 NA
BRANCH  14  16
ATOM     16  C   UNL A   1      32.218  22.888  26.180  1.00  0.00     0.023 A 
ATOM     17  C   UNL A   1      33.180  22.784  27.194  1.00  0.00     0.012 A 
ATOM     18  C   UNL A   1      32.088  21.843  25.255  1.00  0.00     0.012 A 
ATOM     19  C   UNL A   1      33.993  21.653  27.284  1.00  0.00     0.001 A 
ATOM     20  C   UNL A   1      32.912  20.717  25.338  1.00  0.00     0.001 A 
ATOM     21  C   UNL A   1      33.862  20.623  26.354  1.00  0.00     0.000 A 
ENDBRANCH  14  16
ENDBRANCH  10  11
ENDBRANCH   9  10
ENDBRANCH   8   9
ENDBRANCH   7   8
ENDBRANCH   5   7
ENDBRANCH   2   3
ENDBRANCH   1   2
BRANCH   1  22
ATOM     22  C   UNL A   1      36.273  22.588  23.575  1.00  0.00     0.002 C 
BRANCH  22  23
ATOM     23  C   UNL A   1      37.401  22.273  24.562  1.00  0.00     0.002 C 
BRANCH  23  24
ATOM     24  C   UNL A   1      37.798  20.798  24.650  1.00  0.00     0.021 C 
BRANCH  24  25
ATOM     25  C   UNL A   1      38.432  20.371  25.972  1.00  0.00     0.116 C 
BRANCH  25  26
ATOM     26  N   UNL A   1      39.541  19.447  25.795  1.00  0.00    -0.352 N 
ATOM     27  C   UNL A   1      40.883  19.645  25.997  1.00  0.00     0.251 C 
ATOM     28  H   UNL A   1      39.292  18.546  25.485  1.00  0.00     0.163 HD
ATOM     29  O   UNL A   1      41.687  18.774  25.661  1.00  0.00    -0.269 OA
BRANCH  27  30
ATOM     30  C   UNL A   1      41.377  20.910  26.584  1.00  0.00     0.039 A 
ATOM     31  C   UNL A   1      41.873  21.896  25.726  1.00  0.00     0.014 A 
ATOM     32  C   UNL A   1      41.363  21.128  27.965  1.00  0.00     0.014 A 
ATOM     33  C   UNL A   1      42.289  23.124  26.246  1.00  0.00     0.010 A 
ATOM     34  C   UNL A   1      41.715  22.378  28.475  1.00  0.00     0.010 A 
ATOM     35  C   UNL A   1      42.179  23.388  27.621  1.00  0.00    -0.014 A 
BRANCH  35  36
ATOM     36  C   UNL A   1      42.513  24.731  28.162  1.00  0.00     0.031 A 
ATOM     37  C   UNL A   1      43.922  25.078  28.552  1.00  0.00     0.074 A 
ATOM     38  C   UNL A   1      41.526  25.630  28.349  1.00  0.00     0.049 A 
ATOM     39  N   UNL A   1      44.393  26.202  29.032  1.00  0.00    -0.248 NA
ATOM     40  C   UNL A   1      44.930  24.017  28.408  1.00  0.00     0.031 C 
ATOM     41  C   UNL A   1      40.108  25.397  28.068  1.00  0.00     0.029 A 
ATOM     42  N   UNL A   1      41.565  26.919  28.817  1.00  0.00    -0.354 N 
ATOM     43  C   UNL A   1      45.745  25.981  29.257  1.00  0.00     0.074 A 
ATOM     44  C   UNL A   1      46.010  24.601  28.908  1.00  0.00     0.031 C 
ATOM     45  C   UNL A   1      39.418  26.518  28.332  1.00  0.00     0.029 A 
ATOM     46  C   UNL A   1      40.338  27.536  28.829  1.00  0.00     0.049 A 
ATOM     47  H   UNL A   1      42.393  27.359  29.115  1.00  0.00     0.167 HD
ATOM     48  C   UNL A   1      46.686  26.854  29.693  1.00  0.00     0.037 A 
ATOM     49  C   UNL A   1      39.993  28.786  29.192  1.00  0.00     0.037 A 
ATOM     50  C   UNL A   1      46.427  28.232  30.020  1.00  0.00     0.049 A 
ATOM     51  C   UNL A   1      41.054  29.735  29.668  1.00  0.00     0.074 A 
ATOM     52  C   UNL A   1      47.328  29.215  30.390  1.00  0.00     0.029 A 
ATOM     53  N   UNL A   1      45.171  28.821  30.023  1.00  0.00    -0.354 N 
ATOM     54  N   UNL A   1      42.345  29.540  29.790  1.00  0.00    -0.248 NA
ATOM     55  C   UNL A   1      40.611  31.083  30.052  1.00  0.00     0.031 C 
ATOM     56  C   UNL A   1      46.612  30.386  30.665  1.00  0.00     0.029 A 
ATOM     57  C   UNL A   1      45.269  30.146  30.420  1.00  0.00     0.049 A 
ATOM     58  H   UNL A   1      44.333  28.365  29.780  1.00  0.00     0.167 HD
ATOM     59  C   UNL A   1      42.870  30.742  30.243  1.00  0.00     0.074 A 
ATOM     60  C   UNL A   1      41.760  31.667  30.355  1.00  0.00     0.031 C 
ATOM     61  C   UNL A   1      44.156  31.054  30.540  1.00  0.00     0.037 A 
BRANCH  48  62
ATOM     62  C   UNL A   1      48.088  26.337  29.845  1.00  0.00     0.057 A 
ATOM     63  C   UNL A   1      49.010  26.375  28.789  1.00  0.00     0.134 A 
ATOM     64  C   UNL A   1      48.531  25.817  31.068  1.00  0.00     0.134 A 
ATOM     65  F   UNL A   1      48.648  26.850  27.588  1.00  0.00    -0.206 F 
ATOM     66  C   UNL A   1      50.309  25.885  28.936  1.00  0.00     0.040 A 
ATOM     67  C   UNL A   1      49.836  25.351  31.234  1.00  0.00     0.040 A 
ATOM     68  F   UNL A   1      47.703  25.758  32.122  1.00  0.00    -0.206 F 
ATOM     69  C   UNL A   1      50.727  25.376  30.164  1.00  0.00     0.006 A 
ENDBRANCH  48  62
BRANCH  49  70
ATOM     70  C   UNL A   1      38.580  29.224  29.080  1.00  0.00     0.057 A 
ATOM     71  C   UNL A   1      37.731  29.201  30.192  1.00  0.00     0.134 A 
ATOM     72  C   UNL A   1      38.046  29.679  27.869  1.00  0.00     0.134 A 
ATOM     73  F   UNL A   1      38.182  28.757  31.375  1.00  0.00    -0.206 F 
ATOM     74  C   UNL A   1      36.398  29.601  30.103  1.00  0.00     0.040 A 
ATOM     75  C   UNL A   1      36.720  30.104  27.770  1.00  0.00     0.040 A 
ATOM     76  F   UNL A   1      38.811  29.732  26.768  1.00  0.00    -0.206 F 
ATOM     77  C   UNL A   1      35.890  30.059  28.889  1.00  0.00     0.006 A 
ENDBRANCH  49  70
BRANCH  61  78
ATOM     78  C   UNL A   1      44.429  32.455  31.000  1.00  0.00     0.057 A 
ATOM     79  C   UNL A   1      44.720  33.485  30.094  1.00  0.00     0.134 A 
ATOM     80  C   UNL A   1      44.391  32.782  32.361  1.00  0.00     0.134 A 
ATOM     81  F   UNL A   1      44.788  33.234  28.778  1.00  0.00    -0.206 F 
ATOM     82  C   UNL A   1      44.993  34.783  30.531  1.00  0.00     0.040 A 
ATOM     83  C   UNL A   1      44.635  34.082  32.805  1.00  0.00     0.040 A 
ATOM     84  F   UNL A   1      44.111  31.846  33.279  1.00  0.00    -0.206 F 
ATOM     85  C   UNL A   1      44.946  35.086  31.890  1.00  0.00     0.006 A 
ENDBRANCH  61  78
ENDBRANCH  35  36
ENDBRANCH  27  30
ENDBRANCH  25  26
ENDBRANCH  24  25
ENDBRANCH  23  24
ENDBRANCH  22  23
ENDBRANCH   1  22
TORSDOF 18
ENDMDL
MODEL 3
REMARK VINA RESULT:     -10.4      3.369      8.628
REMARK SMILES O=C(CCCCc1nc(-c2ccccc2)no1)NCCCCCCNC(=O)c1ccc(-c2c3nc(c(-c4c(F)cccc4F)c4ccc([nH]4)c(-c4c(F)cccc4F)c4nc(c(-c5c(F)cccc5F)c5ccc2[nH]5)C=C4)C=C3)cc1
REMARK SMILES IDX 20 1 19 2 18 3 1 4 2 5 3 7 4 8 5 9 6 10 7 11 8 12 17 13 9 14
REMARK SMILES IDX 16 15 10 16 11 17 15 18 12 19 14 20 13 21 21 22 22 23 23 24
REMARK SMILES IDX 24 25 25 26 26 27 27 29 28 30 29 31 81 32 30 33 80 34 31 35
REMARK SMILES IDX 32 36 33 37 74 38 34 39 79 40 73 41 75 42 35 43 78 44 72 45
REMARK SMILES IDX 71 46 36 48 62 49 45 50 61 51 46 52 49 53 60 54 76 55 47 56
REMARK SMILES IDX 48 57 59 59 77 60 50 61 37 62 38 63 43 64 39 65 40 66 42 67
REMARK SMILES IDX 44 68 41 69 63 70 64 71 69 72 65 73 66 74 68 75 70 76 67 77
REMARK SMILES IDX 51 78 52 79 57 80 53 81 54 82 56 83 58 84 55 85
REMARK H PARENT 18 6 25 28 75 47 49 58
REMARK Flexibility Score: inf
ROOT
ATOM      1  C   UNL A   1      35.273  23.702  24.225  1.00  0.00     0.021 C 
ENDROOT
BRANCH   1   2
ATOM      2  C   UNL A   1      34.284  24.210  23.175  1.00  0.00     0.116 C 
BRANCH   2   3
ATOM      3  N   UNL A   1      33.791  25.527  23.513  1.00  0.00    -0.356 N 
ATOM      4  O   UNL A   1      33.593  26.315  21.367  1.00  0.00    -0.275 OA
ATOM      5  C   UNL A   1      33.472  26.479  22.575  1.00  0.00     0.219 C 
ATOM      6  H   UNL A   1      33.680  25.754  24.464  1.00  0.00     0.163 HD
BRANCH   5   7
ATOM      7  C   UNL A   1      32.943  27.765  23.179  1.00  0.00     0.100 C 
BRANCH   7   8
ATOM      8  C   UNL A   1      31.498  28.058  22.775  1.00  0.00     0.010 C 
BRANCH   8   9
ATOM      9  C   UNL A   1      30.472  26.937  23.011  1.00  0.00     0.010 C 
BRANCH   9  10
ATOM     10  C   UNL A   1      29.860  26.857  24.411  1.00  0.00     0.100 C 
BRANCH  10  11
ATOM     11  C   UNL A   1      30.373  25.717  25.200  1.00  0.00     0.226 A 
ATOM     12  N   UNL A   1      31.275  24.823  24.874  1.00  0.00    -0.191 NA
ATOM     13  O   UNL A   1      29.831  25.520  26.433  1.00  0.00    -0.339 OA
ATOM     14  C   UNL A   1      31.284  23.999  25.979  1.00  0.00     0.202 A 
ATOM     15  N   UNL A   1      30.431  24.372  26.946  1.00  0.00    -0.057 NA
BRANCH  14  16
ATOM     16  C   UNL A   1      32.144  22.828  26.062  1.00  0.00     0.023 A 
ATOM     17  C   UNL A   1      33.084  22.702  27.094  1.00  0.00     0.012 A 
ATOM     18  C   UNL A   1      32.036  21.805  25.110  1.00  0.00     0.012 A 
ATOM     19  C   UNL A   1      33.900  21.571  27.173  1.00  0.00     0.001 A 
ATOM     20  C   UNL A   1      32.862  20.680  25.183  1.00  0.00     0.001 A 
ATOM     21  C   UNL A   1      33.791  20.564  26.216  1.00  0.00     0.000 A 
ENDBRANCH  14  16
ENDBRANCH  10  11
ENDBRANCH   9  10
ENDBRANCH   8   9
ENDBRANCH   7   8
ENDBRANCH   5   7
ENDBRANCH   2   3
ENDBRANCH   1   2
BRANCH   1  22
ATOM     22  C   UNL A   1      36.048  22.436  23.831  1.00  0.00     0.002 C 
BRANCH  22  23
ATOM     23  C   UNL A   1      37.374  22.220  24.566  1.00  0.00     0.002 C 
BRANCH  23  24
ATOM     24  C   UNL A   1      37.798  20.758  24.729  1.00  0.00     0.021 C 
BRANCH  24  25
ATOM     25  C   UNL A   1      38.551  20.438  26.018  1.00  0.00     0.116 C 
BRANCH  25  26
ATOM     26  N   UNL A   1      39.643  19.498  25.818  1.00  0.00    -0.352 N 
ATOM     27  C   UNL A   1      40.991  19.674  25.999  1.00  0.00     0.251 C 
ATOM     28  H   UNL A   1      39.375  18.603  25.506  1.00  0.00     0.163 HD
ATOM     29  O   UNL A   1      41.775  18.793  25.644  1.00  0.00    -0.269 OA
BRANCH  27  30
ATOM     30  C   UNL A   1      41.514  20.928  26.585  1.00  0.00     0.039 A 
ATOM     31  C   UNL A   1      42.010  21.911  25.725  1.00  0.00     0.014 A 
ATOM     32  C   UNL A   1      41.527  21.137  27.967  1.00  0.00     0.014 A 
ATOM     33  C   UNL A   1      42.455  23.129  26.245  1.00  0.00     0.010 A 
ATOM     34  C   UNL A   1      41.907  22.378  28.479  1.00  0.00     0.010 A 
ATOM     35  C   UNL A   1      42.372  23.387  27.624  1.00  0.00    -0.014 A 
BRANCH  35  36
ATOM     36  C   UNL A   1      42.735  24.721  28.167  1.00  0.00     0.031 A 
ATOM     37  C   UNL A   1      41.690  25.780  28.376  1.00  0.00     0.074 A 
ATOM     38  C   UNL A   1      44.027  24.995  28.430  1.00  0.00     0.049 A 
ATOM     39  N   UNL A   1      41.827  26.994  28.848  1.00  0.00    -0.248 NA
ATOM     40  C   UNL A   1      40.314  25.441  27.981  1.00  0.00     0.031 C 
ATOM     41  C   UNL A   1      45.147  24.075  28.213  1.00  0.00     0.029 A 
ATOM     42  N   UNL A   1      44.619  26.125  28.936  1.00  0.00    -0.354 N 
ATOM     43  C   UNL A   1      40.563  27.566  28.797  1.00  0.00     0.074 A 
ATOM     44  C   UNL A   1      39.681  26.584  28.202  1.00  0.00     0.031 C 
ATOM     45  C   UNL A   1      46.283  24.664  28.620  1.00  0.00     0.029 A 
ATOM     46  C   UNL A   1      45.979  26.009  29.096  1.00  0.00     0.049 A 
ATOM     47  H   UNL A   1      44.117  26.940  29.162  1.00  0.00     0.167 HD
ATOM     48  C   UNL A   1      40.168  28.789  29.226  1.00  0.00     0.037 A 
ATOM     49  C   UNL A   1      46.878  26.886  29.580  1.00  0.00     0.037 A 
ATOM     50  C   UNL A   1      41.041  29.758  29.837  1.00  0.00     0.049 A 
ATOM     51  C   UNL A   1      46.415  28.233  30.054  1.00  0.00     0.074 A 
ATOM     52  C   UNL A   1      40.719  30.990  30.380  1.00  0.00     0.029 A 
ATOM     53  N   UNL A   1      42.412  29.606  29.980  1.00  0.00    -0.354 N 
ATOM     54  N   UNL A   1      45.201  28.727  30.083  1.00  0.00    -0.248 NA
ATOM     55  C   UNL A   1      47.447  29.143  30.568  1.00  0.00     0.031 C 
ATOM     56  C   UNL A   1      41.902  31.604  30.807  1.00  0.00     0.029 A 
ATOM     57  C   UNL A   1      42.955  30.735  30.574  1.00  0.00     0.049 A 
ATOM     58  H   UNL A   1      42.925  28.813  29.701  1.00  0.00     0.167 HD
ATOM     59  C   UNL A   1      45.320  29.995  30.636  1.00  0.00     0.074 A 
ATOM     60  C   UNL A   1      46.722  30.185  30.947  1.00  0.00     0.031 C 
ATOM     61  C   UNL A   1      44.354  30.919  30.867  1.00  0.00     0.037 A 
BRANCH  48  62
ATOM     62  C   UNL A   1      38.721  29.149  29.044  1.00  0.00     0.057 A 
ATOM     63  C   UNL A   1      38.213  29.569  27.806  1.00  0.00     0.134 A 
ATOM     64  C   UNL A   1      37.819  29.051  30.110  1.00  0.00     0.134 A 
ATOM     65  F   UNL A   1      39.024  29.695  26.745  1.00  0.00    -0.206 F 
ATOM     66  C   UNL A   1      36.868  29.910  27.646  1.00  0.00     0.040 A 
ATOM     67  C   UNL A   1      36.467  29.362  29.955  1.00  0.00     0.040 A 
ATOM     68  F   UNL A   1      38.236  28.649  31.320  1.00  0.00    -0.206 F 
ATOM     69  C   UNL A   1      35.990  29.801  28.722  1.00  0.00     0.006 A 
ENDBRANCH  48  62
BRANCH  49  70
ATOM     70  C   UNL A   1      48.307  26.498  29.680  1.00  0.00     0.057 A 
ATOM     71  C   UNL A   1      49.200  26.778  28.640  1.00  0.00     0.134 A 
ATOM     72  C   UNL A   1      48.815  25.848  30.811  1.00  0.00     0.134 A 
ATOM     73  F   UNL A   1      48.766  27.382  27.524  1.00  0.00    -0.206 F 
ATOM     74  C   UNL A   1      50.544  26.413  28.712  1.00  0.00     0.040 A 
ATOM     75  C   UNL A   1      50.163  25.498  30.907  1.00  0.00     0.040 A 
ATOM     76  F   UNL A   1      48.011  25.559  31.845  1.00  0.00    -0.206 F 
ATOM     77  C   UNL A   1      51.031  25.775  29.852  1.00  0.00     0.006 A 
ENDBRANCH  49  70
BRANCH  61  78
ATOM     78  C   UNL A   1      44.785  32.210  31.497  1.00  0.00     0.057 A 
ATOM     79  C   UNL A   1      45.145  33.323  30.725  1.00  0.00     0.134 A 
ATOM     80  C   UNL A   1      44.833  32.346  32.891  1.00  0.00     0.134 A 
ATOM     81  F   UNL A   1      45.136  33.253  29.385  1.00  0.00    -0.206 F 
ATOM     82  C   UNL A   1      45.564  34.516  31.318  1.00  0.00     0.040 A 
ATOM     83  C   UNL A   1      45.224  33.542  33.493  1.00  0.00     0.040 A 
ATOM     84  F   UNL A   1      44.495  31.322  33.687  1.00  0.00    -0.206 F 
ATOM     85  C   UNL A   1      45.599  34.630  32.706  1.00  0.00     0.006 A 
ENDBRANCH  61  78
ENDBRANCH  35  36
ENDBRANCH  27  30
ENDBRANCH  25  26
ENDBRANCH  24  25
ENDBRANCH  23  24
ENDBRANCH  22  23
ENDBRANCH   1  22
TORSDOF 18
ENDMDL
