MODEL 1
REMARK VINA RESULT:     -12.0      0.000      0.000
REMARK SMILES CS(=O)(=O)c1ccc(/C=C(/C(=O)NCCCCCCNC(=O)c2ccc(-c3c4nc(c(-c5c(F)cccc5F)c5ccc([nH]5)c(-c5c(F)cccc5F)c5nc(c(-c6c(F)cccc6F)c6ccc3[nH]6)C=C5)C=C4)cc2)c2ccc(F)cc2)cc1
REMARK SMILES IDX 16 1 15 2 14 3 13 4 11 5 12 6 10 8 9 9 8 10 5 11 6 12 85 13
REMARK SMILES IDX 7 14 84 15 2 16 1 17 3 18 4 19 77 20 78 21 83 22 79 23 82 24
REMARK SMILES IDX 80 25 81 26 17 27 18 28 19 29 20 30 21 31 22 33 23 34 24 35
REMARK SMILES IDX 76 36 25 37 75 38 26 39 27 40 28 41 69 42 29 43 74 44 68 45
REMARK SMILES IDX 70 46 30 47 73 48 67 49 66 50 31 52 57 53 40 54 56 55 41 56
REMARK SMILES IDX 44 57 55 58 71 59 42 60 43 61 54 63 72 64 45 65 32 66 33 67
REMARK SMILES IDX 38 68 34 69 35 70 37 71 39 72 36 73 58 74 59 75 64 76 60 77
REMARK SMILES IDX 61 78 63 79 65 80 62 81 46 82 47 83 52 84 48 85 49 86 51 87
REMARK SMILES IDX 53 88 50 89
REMARK H PARENT 13 7 20 32 70 51 44 62
REMARK Flexibility Score: inf
ROOT
ATOM      1  C   UNL A   1      35.843  21.508  24.894  1.00  0.00     0.002 C 
ENDROOT
BRANCH   1   2
ATOM      2  C   UNL A   1      35.578  22.926  25.425  1.00  0.00     0.021 C 
BRANCH   2   3
ATOM      3  C   UNL A   1      34.271  23.533  24.905  1.00  0.00     0.116 C 
BRANCH   3   4
ATOM      4  N   UNL A   1      33.226  23.335  25.889  1.00  0.00    -0.352 N 
ATOM      5  C   UNL A   1      32.194  24.087  26.346  1.00  0.00     0.251 C 
ATOM      6  O   UNL A   1      31.567  23.614  27.298  1.00  0.00    -0.269 OA
ATOM      7  H   UNL A   1      33.276  22.454  26.324  1.00  0.00     0.163 HD
BRANCH   5   8
ATOM      8  C   UNL A   1      31.738  25.375  25.695  1.00  0.00     0.047 C 
ATOM      9  C   UNL A   1      31.060  25.397  24.524  1.00  0.00     0.022 C 
BRANCH   9  10
ATOM     10  C   UNL A   1      30.391  26.533  23.849  1.00  0.00    -0.025 A 
ATOM     11  C   UNL A   1      28.987  28.728  22.805  1.00  0.00     0.067 A 
ATOM     12  C   UNL A   1      30.367  28.636  22.624  1.00  0.00     0.021 A 
ATOM     13  C   UNL A   1      28.290  27.722  23.474  1.00  0.00     0.021 A 
ATOM     14  C   UNL A   1      31.057  27.525  23.119  1.00  0.00     0.009 A 
ATOM     15  C   UNL A   1      28.995  26.630  23.988  1.00  0.00     0.009 A 
BRANCH  11  16
ATOM     16  S   UNL A   1      28.105  30.164  22.240  1.00  0.00     0.175 S 
ATOM     17  C   UNL A   1      29.186  31.505  22.660  1.00  0.00     0.163 C 
ATOM     18  O   UNL A   1      26.903  30.291  23.049  1.00  0.00    -0.224 OA
ATOM     19  O   UNL A   1      28.024  30.077  20.797  1.00  0.00    -0.224 OA
ENDBRANCH  11  16
ENDBRANCH   9  10
BRANCH   8  20
ATOM     20  C   UNL A   1      32.224  26.632  26.319  1.00  0.00    -0.013 A 
ATOM     21  C   UNL A   1      33.539  27.048  26.036  1.00  0.00     0.012 A 
ATOM     22  C   UNL A   1      31.407  27.451  27.113  1.00  0.00     0.012 A 
ATOM     23  C   UNL A   1      34.022  28.266  26.508  1.00  0.00     0.040 A 
ATOM     24  C   UNL A   1      31.888  28.684  27.569  1.00  0.00     0.040 A 
ATOM     25  C   UNL A   1      33.186  29.080  27.258  1.00  0.00     0.123 A 
ATOM     26  F   UNL A   1      33.634  30.269  27.681  1.00  0.00    -0.207 F 
ENDBRANCH   8  20
ENDBRANCH   5   8
ENDBRANCH   3   4
ENDBRANCH   2   3
ENDBRANCH   1   2
BRANCH   1  27
ATOM     27  C   UNL A   1      37.221  21.307  24.254  1.00  0.00     0.002 C 
BRANCH  27  28
ATOM     28  C   UNL A   1      37.937  20.016  24.662  1.00  0.00     0.021 C 
BRANCH  28  29
ATOM     29  C   UNL A   1      38.772  20.134  25.934  1.00  0.00     0.116 C 
BRANCH  29  30
ATOM     30  N   UNL A   1      39.904  19.225  25.920  1.00  0.00    -0.352 N 
ATOM     31  C   UNL A   1      41.243  19.492  26.029  1.00  0.00     0.251 C 
ATOM     32  H   UNL A   1      39.674  18.274  25.818  1.00  0.00     0.163 HD
ATOM     33  O   UNL A   1      42.063  18.616  25.763  1.00  0.00    -0.269 OA
BRANCH  31  34
ATOM     34  C   UNL A   1      41.711  20.830  26.452  1.00  0.00     0.039 A 
ATOM     35  C   UNL A   1      41.992  21.780  25.468  1.00  0.00     0.014 A 
ATOM     36  C   UNL A   1      41.917  21.138  27.801  1.00  0.00     0.014 A 
ATOM     37  C   UNL A   1      42.443  23.047  25.837  1.00  0.00     0.010 A 
ATOM     38  C   UNL A   1      42.294  22.428  28.172  1.00  0.00     0.010 A 
ATOM     39  C   UNL A   1      42.573  23.391  27.194  1.00  0.00    -0.014 A 
BRANCH  39  40
ATOM     40  C   UNL A   1      42.995  24.762  27.578  1.00  0.00     0.031 A 
ATOM     41  C   UNL A   1      41.979  25.808  27.943  1.00  0.00     0.074 A 
ATOM     42  C   UNL A   1      44.308  25.064  27.585  1.00  0.00     0.049 A 
ATOM     43  N   UNL A   1      42.172  27.035  28.363  1.00  0.00    -0.248 NA
ATOM     44  C   UNL A   1      40.562  25.444  27.795  1.00  0.00     0.031 C 
ATOM     45  C   UNL A   1      45.385  24.157  27.185  1.00  0.00     0.029 A 
ATOM     46  N   UNL A   1      44.959  26.214  27.951  1.00  0.00    -0.354 N 
ATOM     47  C   UNL A   1      40.907  27.583  28.527  1.00  0.00     0.074 A 
ATOM     48  C   UNL A   1      39.955  26.581  28.103  1.00  0.00     0.031 C 
ATOM     49  C   UNL A   1      46.565  24.768  27.371  1.00  0.00     0.029 A 
ATOM     50  C   UNL A   1      46.328  26.116  27.876  1.00  0.00     0.049 A 
ATOM     51  H   UNL A   1      44.492  27.030  28.241  1.00  0.00     0.167 HD
ATOM     52  C   UNL A   1      40.569  28.802  29.014  1.00  0.00     0.037 A 
ATOM     53  C   UNL A   1      47.284  27.010  28.190  1.00  0.00     0.037 A 
ATOM     54  C   UNL A   1      41.520  29.793  29.448  1.00  0.00     0.049 A 
ATOM     55  C   UNL A   1      46.882  28.345  28.747  1.00  0.00     0.074 A 
ATOM     56  C   UNL A   1      41.278  31.034  30.012  1.00  0.00     0.029 A 
ATOM     57  N   UNL A   1      42.898  29.657  29.363  1.00  0.00    -0.354 N 
ATOM     58  N   UNL A   1      45.682  28.819  28.979  1.00  0.00    -0.248 NA
ATOM     59  C   UNL A   1      47.972  29.265  29.101  1.00  0.00     0.031 C 
ATOM     60  C   UNL A   1      42.508  31.668  30.223  1.00  0.00     0.029 A 
ATOM     61  C   UNL A   1      43.518  30.800  29.840  1.00  0.00     0.049 A 
ATOM     62  H   UNL A   1      43.366  28.864  29.014  1.00  0.00     0.167 HD
ATOM     63  C   UNL A   1      45.872  30.082  29.524  1.00  0.00     0.074 A 
ATOM     64  C   UNL A   1      47.303  30.287  29.615  1.00  0.00     0.031 C 
ATOM     65  C   UNL A   1      44.944  30.994  29.911  1.00  0.00     0.037 A 
BRANCH  52  66
ATOM     66  C   UNL A   1      39.104  29.129  29.103  1.00  0.00     0.057 A 
ATOM     67  C   UNL A   1      38.369  29.543  27.983  1.00  0.00     0.134 A 
ATOM     68  C   UNL A   1      38.412  28.996  30.312  1.00  0.00     0.134 A 
ATOM     69  F   UNL A   1      38.973  29.703  26.795  1.00  0.00    -0.206 F 
ATOM     70  C   UNL A   1      37.008  29.841  28.069  1.00  0.00     0.040 A 
ATOM     71  C   UNL A   1      37.044  29.263  30.405  1.00  0.00     0.040 A 
ATOM     72  F   UNL A   1      39.051  28.599  31.424  1.00  0.00    -0.206 F 
ATOM     73  C   UNL A   1      36.340  29.693  29.283  1.00  0.00     0.006 A 
ENDBRANCH  52  66
BRANCH  53  74
ATOM     74  C   UNL A   1      48.716  26.652  28.024  1.00  0.00     0.057 A 
ATOM     75  C   UNL A   1      49.392  26.907  26.825  1.00  0.00     0.134 A 
ATOM     76  C   UNL A   1      49.442  26.046  29.057  1.00  0.00     0.134 A 
ATOM     77  F   UNL A   1      48.746  27.471  25.794  1.00  0.00    -0.206 F 
ATOM     78  C   UNL A   1      50.730  26.550  26.649  1.00  0.00     0.040 A 
ATOM     79  C   UNL A   1      50.787  25.710  28.905  1.00  0.00     0.040 A 
ATOM     80  F   UNL A   1      48.855  25.787  30.235  1.00  0.00    -0.206 F 
ATOM     81  C   UNL A   1      51.433  25.954  27.694  1.00  0.00     0.006 A 
ENDBRANCH  53  74
BRANCH  65  82
ATOM     82  C   UNL A   1      45.462  32.284  30.481  1.00  0.00     0.057 A 
ATOM     83  C   UNL A   1      45.716  32.439  31.851  1.00  0.00     0.134 A 
ATOM     84  C   UNL A   1      45.705  33.386  29.651  1.00  0.00     0.134 A 
ATOM     85  F   UNL A   1      45.492  31.426  32.702  1.00  0.00    -0.206 F 
ATOM     86  C   UNL A   1      46.152  33.655  32.380  1.00  0.00     0.040 A 
ATOM     87  C   UNL A   1      46.171  34.597  30.164  1.00  0.00     0.040 A 
ATOM     88  F   UNL A   1      45.493  33.304  28.329  1.00  0.00    -0.206 F 
ATOM     89  C   UNL A   1      46.384  34.738  31.533  1.00  0.00     0.006 A 
ENDBRANCH  65  82
ENDBRANCH  39  40
ENDBRANCH  31  34
ENDBRANCH  29  30
ENDBRANCH  28  29
ENDBRANCH  27  28
ENDBRANCH   1  27
TORSDOF 16
ENDMDL
MODEL 2
REMARK VINA RESULT:     -12.0      0.745      6.056
REMARK SMILES CS(=O)(=O)c1ccc(/C=C(/C(=O)NCCCCCCNC(=O)c2ccc(-c3c4nc(c(-c5c(F)cccc5F)c5ccc([nH]5)c(-c5c(F)cccc5F)c5nc(c(-c6c(F)cccc6F)c6ccc3[nH]6)C=C5)C=C4)cc2)c2ccc(F)cc2)cc1
REMARK SMILES IDX 16 1 15 2 14 3 13 4 11 5 12 6 10 8 9 9 8 10 5 11 6 12 85 13
REMARK SMILES IDX 7 14 84 15 2 16 1 17 3 18 4 19 77 20 78 21 83 22 79 23 82 24
REMARK SMILES IDX 80 25 81 26 17 27 18 28 19 29 20 30 21 31 22 33 23 34 24 35
REMARK SMILES IDX 76 36 25 37 75 38 26 39 27 40 28 41 69 42 29 43 74 44 68 45
REMARK SMILES IDX 70 46 30 47 73 48 67 49 66 50 31 52 57 53 40 54 56 55 41 56
REMARK SMILES IDX 44 57 55 58 71 59 42 60 43 61 54 63 72 64 45 65 32 66 33 67
REMARK SMILES IDX 38 68 34 69 35 70 37 71 39 72 36 73 58 74 59 75 64 76 60 77
REMARK SMILES IDX 61 78 63 79 65 80 62 81 46 82 47 83 52 84 48 85 49 86 51 87
REMARK SMILES IDX 53 88 50 89
REMARK H PARENT 13 7 20 32 70 51 44 62
REMARK Flexibility Score: inf
ROOT
ATOM      1  C   UNL A   1      35.534  21.654  25.818  1.00  0.00     0.002 C 
ENDROOT
BRANCH   1   2
ATOM      2  C   UNL A   1      35.138  23.103  25.488  1.00  0.00     0.021 C 
BRANCH   2   3
ATOM      3  C   UNL A   1      33.745  23.222  24.860  1.00  0.00     0.116 C 
BRANCH   3   4
ATOM      4  N   UNL A   1      32.742  23.153  25.903  1.00  0.00    -0.352 N 
ATOM      5  C   UNL A   1      31.805  24.010  26.380  1.00  0.00     0.251 C 
ATOM      6  O   UNL A   1      31.192  23.628  27.381  1.00  0.00    -0.269 OA
ATOM      7  H   UNL A   1      32.739  22.287  26.371  1.00  0.00     0.163 HD
BRANCH   5   8
ATOM      8  C   UNL A   1      31.427  25.309  25.701  1.00  0.00     0.047 C 
ATOM      9  C   UNL A   1      30.742  25.346  24.536  1.00  0.00     0.022 C 
BRANCH   9  10
ATOM     10  C   UNL A   1      30.142  26.507  23.838  1.00  0.00    -0.025 A 
ATOM     11  C   UNL A   1      28.874  28.765  22.752  1.00  0.00     0.067 A 
ATOM     12  C   UNL A   1      30.243  28.575  22.558  1.00  0.00     0.021 A 
ATOM     13  C   UNL A   1      28.121  27.825  23.455  1.00  0.00     0.021 A 
ATOM     14  C   UNL A   1      30.864  27.433  23.075  1.00  0.00     0.009 A 
ATOM     15  C   UNL A   1      28.757  26.701  23.990  1.00  0.00     0.009 A 
BRANCH  11  16
ATOM     16  S   UNL A   1      28.083  30.242  22.159  1.00  0.00     0.175 S 
ATOM     17  C   UNL A   1      29.271  31.512  22.502  1.00  0.00     0.163 C 
ATOM     18  O   UNL A   1      26.918  30.484  22.993  1.00  0.00    -0.224 OA
ATOM     19  O   UNL A   1      27.955  30.112  20.722  1.00  0.00    -0.224 OA
ENDBRANCH  11  16
ENDBRANCH   9  10
BRANCH   8  20
ATOM     20  C   UNL A   1      32.000  26.546  26.291  1.00  0.00    -0.013 A 
ATOM     21  C   UNL A   1      33.334  26.873  25.978  1.00  0.00     0.012 A 
ATOM     22  C   UNL A   1      31.250  27.430  27.079  1.00  0.00     0.012 A 
ATOM     23  C   UNL A   1      33.899  28.069  26.416  1.00  0.00     0.040 A 
ATOM     24  C   UNL A   1      31.813  28.640  27.500  1.00  0.00     0.040 A 
ATOM     25  C   UNL A   1      33.128  28.948  27.161  1.00  0.00     0.123 A 
ATOM     26  F   UNL A   1      33.655  30.116  27.550  1.00  0.00    -0.207 F 
ENDBRANCH   8  20
ENDBRANCH   5   8
ENDBRANCH   3   4
ENDBRANCH   2   3
ENDBRANCH   1   2
BRANCH   1  27
ATOM     27  C   UNL A   1      36.073  20.848  24.631  1.00  0.00     0.002 C 
BRANCH  27  28
ATOM     28  C   UNL A   1      37.184  19.855  24.982  1.00  0.00     0.021 C 
BRANCH  28  29
ATOM     29  C   UNL A   1      38.527  20.501  25.309  1.00  0.00     0.116 C 
BRANCH  29  30
ATOM     30  N   UNL A   1      39.562  19.507  25.531  1.00  0.00    -0.352 N 
ATOM     31  C   UNL A   1      40.846  19.666  25.983  1.00  0.00     0.251 C 
ATOM     32  H   UNL A   1      39.302  18.581  25.327  1.00  0.00     0.163 HD
ATOM     33  O   UNL A   1      41.645  18.738  25.886  1.00  0.00    -0.269 OA
BRANCH  31  34
ATOM     34  C   UNL A   1      41.281  20.949  26.577  1.00  0.00     0.039 A 
ATOM     35  C   UNL A   1      41.684  21.976  25.721  1.00  0.00     0.014 A 
ATOM     36  C   UNL A   1      41.336  21.130  27.963  1.00  0.00     0.014 A 
ATOM     37  C   UNL A   1      42.107  23.194  26.253  1.00  0.00     0.010 A 
ATOM     38  C   UNL A   1      41.686  22.372  28.490  1.00  0.00     0.010 A 
ATOM     39  C   UNL A   1      42.088  23.412  27.642  1.00  0.00    -0.014 A 
BRANCH  39  40
ATOM     40  C   UNL A   1      42.482  24.733  28.195  1.00  0.00     0.031 A 
ATOM     41  C   UNL A   1      43.926  25.064  28.449  1.00  0.00     0.074 A 
ATOM     42  C   UNL A   1      41.522  25.635  28.478  1.00  0.00     0.049 A 
ATOM     43  N   UNL A   1      44.454  26.187  28.868  1.00  0.00    -0.248 NA
ATOM     44  C   UNL A   1      44.906  23.989  28.232  1.00  0.00     0.031 C 
ATOM     45  C   UNL A   1      40.083  25.409  28.340  1.00  0.00     0.029 A 
ATOM     46  N   UNL A   1      41.614  26.927  28.932  1.00  0.00    -0.354 N 
ATOM     47  C   UNL A   1      45.819  25.954  28.963  1.00  0.00     0.074 A 
ATOM     48  C   UNL A   1      46.034  24.565  28.620  1.00  0.00     0.031 C 
ATOM     49  C   UNL A   1      39.428  26.537  28.656  1.00  0.00     0.029 A 
ATOM     50  C   UNL A   1      40.398  27.556  29.045  1.00  0.00     0.049 A 
ATOM     51  H   UNL A   1      42.469  27.361  29.153  1.00  0.00     0.167 HD
ATOM     52  C   UNL A   1      46.808  26.825  29.281  1.00  0.00     0.037 A 
ATOM     53  C   UNL A   1      40.099  28.816  29.410  1.00  0.00     0.037 A 
ATOM     54  C   UNL A   1      46.591  28.211  29.608  1.00  0.00     0.049 A 
ATOM     55  C   UNL A   1      41.215  29.767  29.736  1.00  0.00     0.074 A 
ATOM     56  C   UNL A   1      47.530  29.189  29.886  1.00  0.00     0.029 A 
ATOM     57  N   UNL A   1      45.346  28.814  29.707  1.00  0.00    -0.354 N 
ATOM     58  N   UNL A   1      42.509  29.556  29.739  1.00  0.00    -0.248 NA
ATOM     59  C   UNL A   1      40.827  31.137  30.097  1.00  0.00     0.031 C 
ATOM     60  C   UNL A   1      46.851  30.373  30.200  1.00  0.00     0.029 A 
ATOM     61  C   UNL A   1      45.491  30.145  30.066  1.00  0.00     0.049 A 
ATOM     62  H   UNL A   1      44.486  28.363  29.547  1.00  0.00     0.167 HD
ATOM     63  C   UNL A   1      43.090  30.770  30.080  1.00  0.00     0.074 A 
ATOM     64  C   UNL A   1      42.009  31.718  30.248  1.00  0.00     0.031 C 
ATOM     65  C   UNL A   1      44.403  31.073  30.243  1.00  0.00     0.037 A 
BRANCH  52  66
ATOM     66  C   UNL A   1      48.216  26.300  29.286  1.00  0.00     0.057 A 
ATOM     67  C   UNL A   1      49.037  26.374  28.151  1.00  0.00     0.134 A 
ATOM     68  C   UNL A   1      48.772  25.748  30.446  1.00  0.00     0.134 A 
ATOM     69  F   UNL A   1      48.565  26.881  27.003  1.00  0.00    -0.206 F 
ATOM     70  C   UNL A   1      50.347  25.890  28.163  1.00  0.00     0.040 A 
ATOM     71  C   UNL A   1      50.089  25.286  30.478  1.00  0.00     0.040 A 
ATOM     72  F   UNL A   1      48.046  25.651  31.570  1.00  0.00    -0.206 F 
ATOM     73  C   UNL A   1      50.879  25.351  29.332  1.00  0.00     0.006 A 
ENDBRANCH  52  66
BRANCH  53  74
ATOM     74  C   UNL A   1      38.683  29.262  29.445  1.00  0.00     0.057 A 
ATOM     75  C   UNL A   1      38.047  29.747  28.296  1.00  0.00     0.134 A 
ATOM     76  C   UNL A   1      37.932  29.216  30.626  1.00  0.00     0.134 A 
ATOM     77  F   UNL A   1      38.719  29.830  27.138  1.00  0.00    -0.206 F 
ATOM     78  C   UNL A   1      36.726  30.194  28.324  1.00  0.00     0.040 A 
ATOM     79  C   UNL A   1      36.601  29.634  30.662  1.00  0.00     0.040 A 
ATOM     80  F   UNL A   1      38.479  28.751  31.759  1.00  0.00    -0.206 F 
ATOM     81  C   UNL A   1      35.997  30.133  29.510  1.00  0.00     0.006 A 
ENDBRANCH  53  74
BRANCH  65  82
ATOM     82  C   UNL A   1      44.728  32.493  30.608  1.00  0.00     0.057 A 
ATOM     83  C   UNL A   1      44.927  33.480  29.633  1.00  0.00     0.134 A 
ATOM     84  C   UNL A   1      44.848  32.878  31.950  1.00  0.00     0.134 A 
ATOM     85  F   UNL A   1      44.839  33.176  28.329  1.00  0.00    -0.206 F 
ATOM     86  C   UNL A   1      45.275  34.787  29.977  1.00  0.00     0.040 A 
ATOM     87  C   UNL A   1      45.164  34.189  32.307  1.00  0.00     0.040 A 
ATOM     88  F   UNL A   1      44.660  31.986  32.934  1.00  0.00    -0.206 F 
ATOM     89  C   UNL A   1      45.391  35.145  31.320  1.00  0.00     0.006 A 
ENDBRANCH  65  82
ENDBRANCH  39  40
ENDBRANCH  31  34
ENDBRANCH  29  30
ENDBRANCH  28  29
ENDBRANCH  27  28
ENDBRANCH   1  27
TORSDOF 16
ENDMDL
MODEL 3
REMARK VINA RESULT:     -12.0      3.261      8.216
REMARK SMILES CS(=O)(=O)c1ccc(/C=C(/C(=O)NCCCCCCNC(=O)c2ccc(-c3c4nc(c(-c5c(F)cccc5F)c5ccc([nH]5)c(-c5c(F)cccc5F)c5nc(c(-c6c(F)cccc6F)c6ccc3[nH]6)C=C5)C=C4)cc2)c2ccc(F)cc2)cc1
REMARK SMILES IDX 16 1 15 2 14 3 13 4 11 5 12 6 10 8 9 9 8 10 5 11 6 12 85 13
REMARK SMILES IDX 7 14 84 15 2 16 1 17 3 18 4 19 77 20 78 21 83 22 79 23 82 24
REMARK SMILES IDX 80 25 81 26 17 27 18 28 19 29 20 30 21 31 22 33 23 34 24 35
REMARK SMILES IDX 76 36 25 37 75 38 26 39 27 40 28 41 69 42 29 43 74 44 68 45
REMARK SMILES IDX 70 46 30 47 73 48 67 49 66 50 31 52 57 53 40 54 56 55 41 56
REMARK SMILES IDX 44 57 55 58 71 59 42 60 43 61 54 63 72 64 45 65 32 66 33 67
REMARK SMILES IDX 38 68 34 69 35 70 37 71 39 72 36 73 58 74 59 75 64 76 60 77
REMARK SMILES IDX 61 78 63 79 65 80 62 81 46 82 47 83 52 84 48 85 49 86 51 87
REMARK SMILES IDX 53 88 50 89
REMARK H PARENT 13 7 20 32 70 51 44 62
REMARK Flexibility Score: inf
ROOT
ATOM      1  C   UNL A   1      32.562  26.794  26.088  1.00  0.00     0.002 C 
ENDROOT
BRANCH   1   2
ATOM      2  C   UNL A   1      31.145  26.761  25.492  1.00  0.00     0.021 C 
BRANCH   2   3
ATOM      3  C   UNL A   1      30.874  25.515  24.642  1.00  0.00     0.116 C 
BRANCH   3   4
ATOM      4  N   UNL A   1      31.612  25.614  23.399  1.00  0.00    -0.352 N 
ATOM      5  C   UNL A   1      32.594  24.883  22.815  1.00  0.00     0.251 C 
ATOM      6  O   UNL A   1      33.065  25.354  21.776  1.00  0.00    -0.269 OA
ATOM      7  H   UNL A   1      31.336  26.386  22.854  1.00  0.00     0.163 HD
BRANCH   5   8
ATOM      8  C   UNL A   1      33.040  23.524  23.309  1.00  0.00     0.047 C 
ATOM      9  C   UNL A   1      32.197  22.470  23.394  1.00  0.00     0.022 C 
BRANCH   9  10
ATOM     10  C   UNL A   1      32.500  21.048  23.678  1.00  0.00    -0.025 A 
ATOM     11  C   UNL A   1      33.179  18.338  23.960  1.00  0.00     0.067 A 
ATOM     12  C   UNL A   1      33.505  19.245  24.969  1.00  0.00     0.021 A 
ATOM     13  C   UNL A   1      32.489  18.759  22.824  1.00  0.00     0.021 A 
ATOM     14  C   UNL A   1      33.137  20.588  24.837  1.00  0.00     0.009 A 
ATOM     15  C   UNL A   1      32.150  20.108  22.690  1.00  0.00     0.009 A 
BRANCH  11  16
ATOM     16  S   UNL A   1      33.697  16.642  24.081  1.00  0.00     0.175 S 
ATOM     17  C   UNL A   1      35.154  16.726  25.086  1.00  0.00     0.163 C 
ATOM     18  O   UNL A   1      34.096  16.206  22.753  1.00  0.00    -0.224 OA
ATOM     19  O   UNL A   1      32.672  15.933  24.820  1.00  0.00    -0.224 OA
ENDBRANCH  11  16
ENDBRANCH   9  10
BRANCH   8  20
ATOM     20  C   UNL A   1      34.417  23.448  23.863  1.00  0.00    -0.013 A 
ATOM     21  C   UNL A   1      34.613  23.827  25.205  1.00  0.00     0.012 A 
ATOM     22  C   UNL A   1      35.504  22.949  23.131  1.00  0.00     0.012 A 
ATOM     23  C   UNL A   1      35.857  23.685  25.814  1.00  0.00     0.040 A 
ATOM     24  C   UNL A   1      36.748  22.788  23.752  1.00  0.00     0.040 A 
ATOM     25  C   UNL A   1      36.910  23.153  25.085  1.00  0.00     0.123 A 
ATOM     26  F   UNL A   1      38.098  22.978  25.679  1.00  0.00    -0.207 F 
ENDBRANCH   8  20
ENDBRANCH   5   8
ENDBRANCH   3   4
ENDBRANCH   2   3
ENDBRANCH   1   2
BRANCH   1  27
ATOM     27  C   UNL A   1      33.554  27.693  25.340  1.00  0.00     0.002 C 
BRANCH  27  28
ATOM     28  C   UNL A   1      33.920  28.989  26.069  1.00  0.00     0.021 C 
BRANCH  28  29
ATOM     29  C   UNL A   1      34.607  28.781  27.416  1.00  0.00     0.116 C 
BRANCH  29  30
ATOM     30  N   UNL A   1      34.629  30.002  28.202  1.00  0.00    -0.352 N 
ATOM     31  C   UNL A   1      35.637  30.539  28.959  1.00  0.00     0.251 C 
ATOM     32  H   UNL A   1      33.794  30.523  28.188  1.00  0.00     0.163 HD
ATOM     33  O   UNL A   1      35.392  31.458  29.736  1.00  0.00    -0.269 OA
BRANCH  31  34
ATOM     34  C   UNL A   1      37.015  30.012  28.856  1.00  0.00     0.039 A 
ATOM     35  C   UNL A   1      37.667  30.085  27.624  1.00  0.00     0.014 A 
ATOM     36  C   UNL A   1      37.648  29.409  29.948  1.00  0.00     0.014 A 
ATOM     37  C   UNL A   1      38.964  29.589  27.496  1.00  0.00     0.010 A 
ATOM     38  C   UNL A   1      38.972  28.983  29.839  1.00  0.00     0.010 A 
ATOM     39  C   UNL A   1      39.638  29.056  28.609  1.00  0.00    -0.014 A 
BRANCH  39  40
ATOM     40  C   UNL A   1      41.041  28.587  28.477  1.00  0.00     0.031 A 
ATOM     41  C   UNL A   1      41.346  27.153  28.146  1.00  0.00     0.074 A 
ATOM     42  C   UNL A   1      42.045  29.464  28.670  1.00  0.00     0.049 A 
ATOM     43  N   UNL A   1      42.508  26.585  27.931  1.00  0.00    -0.248 NA
ATOM     44  C   UNL A   1      40.206  26.227  28.070  1.00  0.00     0.031 C 
ATOM     45  C   UNL A   1      41.878  30.864  29.063  1.00  0.00     0.029 A 
ATOM     46  N   UNL A   1      43.402  29.310  28.552  1.00  0.00    -0.354 N 
ATOM     47  C   UNL A   1      42.237  25.244  27.696  1.00  0.00     0.074 A 
ATOM     48  C   UNL A   1      40.811  25.067  27.857  1.00  0.00     0.031 C 
ATOM     49  C   UNL A   1      43.083  31.454  29.108  1.00  0.00     0.029 A 
ATOM     50  C   UNL A   1      44.107  30.469  28.775  1.00  0.00     0.049 A 
ATOM     51  H   UNL A   1      43.831  28.453  28.327  1.00  0.00     0.167 HD
ATOM     52  C   UNL A   1      43.096  24.253  27.351  1.00  0.00     0.037 A 
ATOM     53  C   UNL A   1      45.429  30.712  28.708  1.00  0.00     0.037 A 
ATOM     54  C   UNL A   1      44.515  24.436  27.179  1.00  0.00     0.049 A 
ATOM     55  C   UNL A   1      46.356  29.603  28.302  1.00  0.00     0.074 A 
ATOM     56  C   UNL A   1      45.462  23.512  26.773  1.00  0.00     0.029 A 
ATOM     57  N   UNL A   1      45.192  25.625  27.408  1.00  0.00    -0.354 N 
ATOM     58  N   UNL A   1      46.077  28.358  27.999  1.00  0.00    -0.248 NA
ATOM     59  C   UNL A   1      47.784  29.938  28.215  1.00  0.00     0.031 C 
ATOM     60  C   UNL A   1      46.718  24.128  26.803  1.00  0.00     0.029 A 
ATOM     61  C   UNL A   1      46.547  25.451  27.176  1.00  0.00     0.049 A 
ATOM     62  H   UNL A   1      44.771  26.468  27.694  1.00  0.00     0.167 HD
ATOM     63  C   UNL A   1      47.289  27.767  27.666  1.00  0.00     0.074 A 
ATOM     64  C   UNL A   1      48.300  28.798  27.776  1.00  0.00     0.031 C 
ATOM     65  C   UNL A   1      47.543  26.484  27.304  1.00  0.00     0.037 A 
BRANCH  52  66
ATOM     66  C   UNL A   1      42.520  22.882  27.135  1.00  0.00     0.057 A 
ATOM     67  C   UNL A   1      42.135  22.064  28.207  1.00  0.00     0.134 A 
ATOM     68  C   UNL A   1      42.316  22.385  25.842  1.00  0.00     0.134 A 
ATOM     69  F   UNL A   1      42.314  22.473  29.472  1.00  0.00    -0.206 F 
ATOM     70  C   UNL A   1      41.595  20.793  28.001  1.00  0.00     0.040 A 
ATOM     71  C   UNL A   1      41.751  21.127  25.623  1.00  0.00     0.040 A 
ATOM     72  F   UNL A   1      42.656  23.116  24.769  1.00  0.00    -0.206 F 
ATOM     73  C   UNL A   1      41.395  20.325  26.705  1.00  0.00     0.006 A 
ENDBRANCH  52  66
BRANCH  53  74
ATOM     74  C   UNL A   1      45.947  32.074  28.991  1.00  0.00     0.057 A 
ATOM     75  C   UNL A   1      46.366  32.437  30.277  1.00  0.00     0.134 A 
ATOM     76  C   UNL A   1      46.035  33.046  27.986  1.00  0.00     0.134 A 
ATOM     77  F   UNL A   1      46.292  31.555  31.284  1.00  0.00    -0.206 F 
ATOM     78  C   UNL A   1      46.829  33.723  30.559  1.00  0.00     0.040 A 
ATOM     79  C   UNL A   1      46.522  34.327  28.249  1.00  0.00     0.040 A 
ATOM     80  F   UNL A   1      45.661  32.757  26.731  1.00  0.00    -0.206 F 
ATOM     81  C   UNL A   1      46.913  34.670  29.542  1.00  0.00     0.006 A 
ENDBRANCH  53  74
BRANCH  65  82
ATOM     82  C   UNL A   1      48.972  26.142  26.989  1.00  0.00     0.057 A 
ATOM     83  C   UNL A   1      49.864  25.707  27.979  1.00  0.00     0.134 A 
ATOM     84  C   UNL A   1      49.462  26.251  25.681  1.00  0.00     0.134 A 
ATOM     85  F   UNL A   1      49.462  25.593  29.254  1.00  0.00    -0.206 F 
ATOM     86  C   UNL A   1      51.202  25.436  27.688  1.00  0.00     0.040 A 
ATOM     87  C   UNL A   1      50.789  25.952  25.373  1.00  0.00     0.040 A 
ATOM     88  F   UNL A   1      48.659  26.651  24.684  1.00  0.00    -0.206 F 
ATOM     89  C   UNL A   1      51.667  25.555  26.379  1.00  0.00     0.006 A 
ENDBRANCH  65  82
ENDBRANCH  39  40
ENDBRANCH  31  34
ENDBRANCH  29  30
ENDBRANCH  28  29
ENDBRANCH  27  28
ENDBRANCH   1  27
TORSDOF 16
ENDMDL
