MODEL 1
REMARK VINA RESULT:     -11.6      0.000      0.000
REMARK SMILES C[C@]1(C(=O)NCc2ccc(C(=O)NCCCCCCNC(=O)c3ccc(-c4c5nc(c(-c6c(F)cccc6F)c6ccc([nH]6)c(-c6c(F)cccc6F)c6nc(c(-c7c(F)cccc7F)c7ccc4[nH]7)C=C6)C=C5)cc3)o2)CCC[NH2+]C1
REMARK SMILES IDX 16 1 15 2 14 3 13 4 11 5 12 6 10 8 7 9 8 10 77 11 9 12 6 13
REMARK SMILES IDX 5 14 3 15 4 16 2 18 1 19 78 20 82 21 79 22 81 23 80 24 17 27
REMARK SMILES IDX 18 28 19 29 20 30 21 31 22 33 23 34 24 35 76 36 25 37 75 38
REMARK SMILES IDX 26 39 27 40 28 41 69 42 29 43 74 44 68 45 70 46 30 47 73 48
REMARK SMILES IDX 67 49 66 50 31 52 57 53 40 54 56 55 41 56 44 57 55 58 71 59
REMARK SMILES IDX 42 60 43 61 54 63 72 64 45 65 32 66 33 67 38 68 34 69 35 70
REMARK SMILES IDX 37 71 39 72 36 73 58 74 59 75 64 76 60 77 61 78 63 79 65 80
REMARK SMILES IDX 62 81 46 82 47 83 52 84 48 85 49 86 51 87 53 88 50 89
REMARK H PARENT 13 7 5 17 81 25 81 26 20 32 70 51 44 62
REMARK Flexibility Score: inf
ROOT
ATOM      1  C   UNL A   1      34.224  25.543  24.850  1.00  0.00     0.002 C 
ENDROOT
BRANCH   1   2
ATOM      2  C   UNL A   1      34.709  24.401  25.752  1.00  0.00     0.021 C 
BRANCH   2   3
ATOM      3  C   UNL A   1      33.860  23.139  25.617  1.00  0.00     0.116 C 
BRANCH   3   4
ATOM      4  N   UNL A   1      32.776  23.160  26.572  1.00  0.00    -0.349 N 
ATOM      5  C   UNL A   1      31.466  23.554  26.439  1.00  0.00     0.286 C 
ATOM      6  O   UNL A   1      30.752  23.390  27.427  1.00  0.00    -0.266 OA
ATOM      7  H   UNL A   1      33.017  22.837  27.472  1.00  0.00     0.163 HD
BRANCH   5   8
ATOM      8  C   UNL A   1      30.978  24.093  25.184  1.00  0.00     0.191 A 
ATOM      9  C   UNL A   1      29.891  25.612  24.006  1.00  0.00     0.124 A 
ATOM     10  C   UNL A   1      30.297  24.652  23.109  1.00  0.00     0.048 A 
ATOM     11  O   UNL A   1      30.291  25.277  25.261  1.00  0.00    -0.454 OA
ATOM     12  C   UNL A   1      31.036  23.705  23.856  1.00  0.00     0.056 A 
BRANCH   9  13
ATOM     13  C   UNL A   1      29.093  26.847  23.867  1.00  0.00     0.191 C 
BRANCH  13  14
ATOM     14  N   UNL A   1      29.816  27.849  23.122  1.00  0.00    -0.348 N 
ATOM     15  C   UNL A   1      29.602  29.135  22.776  1.00  0.00     0.232 C 
ATOM     16  O   UNL A   1      30.607  29.708  22.326  1.00  0.00    -0.274 OA
ATOM     17  H   UNL A   1      30.676  27.511  22.783  1.00  0.00     0.163 HD
BRANCH  15  18
ATOM     18  C   UNL A   1      28.236  29.863  22.734  1.00  0.00     0.095 C 
ATOM     19  C   UNL A   1      27.198  28.758  23.078  1.00  0.00     0.028 C 
ATOM     20  C   UNL A   1      27.957  31.060  23.658  1.00  0.00     0.028 C 
ATOM     21  C   UNL A   1      27.996  30.322  21.267  1.00  0.00     0.277 C 
ATOM     22  C   UNL A   1      28.636  32.356  23.211  1.00  0.00     0.063 C 
ATOM     23  N   UNL A   1      28.755  31.532  20.916  1.00  0.00    -0.345 N 
ATOM     24  C   UNL A   1      28.365  32.665  21.747  1.00  0.00     0.260 C 
ATOM     25  H   UNL A   1      29.749  31.349  21.048  1.00  0.00     0.346 HD
ATOM     26  H   UNL A   1      28.556  31.765  19.943  1.00  0.00     0.346 HD
ENDBRANCH  15  18
ENDBRANCH  13  14
ENDBRANCH   9  13
ENDBRANCH   5   8
ENDBRANCH   3   4
ENDBRANCH   2   3
ENDBRANCH   1   2
BRANCH   1  27
ATOM     27  C   UNL A   1      33.577  26.716  25.599  1.00  0.00     0.002 C 
BRANCH  27  28
ATOM     28  C   UNL A   1      32.977  27.796  24.695  1.00  0.00     0.021 C 
BRANCH  28  29
ATOM     29  C   UNL A   1      33.694  29.137  24.782  1.00  0.00     0.116 C 
BRANCH  29  30
ATOM     30  N   UNL A   1      32.872  30.138  25.446  1.00  0.00    -0.352 N 
ATOM     31  C   UNL A   1      33.053  30.736  26.665  1.00  0.00     0.251 C 
ATOM     32  H   UNL A   1      32.073  30.426  24.948  1.00  0.00     0.163 HD
ATOM     33  O   UNL A   1      32.141  31.366  27.190  1.00  0.00    -0.269 OA
BRANCH  31  34
ATOM     34  C   UNL A   1      34.355  30.608  27.350  1.00  0.00     0.039 A 
ATOM     35  C   UNL A   1      35.113  31.757  27.586  1.00  0.00     0.014 A 
ATOM     36  C   UNL A   1      34.826  29.354  27.750  1.00  0.00     0.014 A 
ATOM     37  C   UNL A   1      36.324  31.653  28.270  1.00  0.00     0.010 A 
ATOM     38  C   UNL A   1      35.992  29.262  28.501  1.00  0.00     0.010 A 
ATOM     39  C   UNL A   1      36.757  30.408  28.760  1.00  0.00    -0.014 A 
BRANCH  39  40
ATOM     40  C   UNL A   1      38.011  30.288  29.543  1.00  0.00     0.031 A 
ATOM     41  C   UNL A   1      39.189  29.549  28.971  1.00  0.00     0.074 A 
ATOM     42  C   UNL A   1      38.065  30.788  30.791  1.00  0.00     0.049 A 
ATOM     43  N   UNL A   1      40.347  29.286  29.523  1.00  0.00    -0.248 NA
ATOM     44  C   UNL A   1      39.037  29.010  27.611  1.00  0.00     0.031 C 
ATOM     45  C   UNL A   1      36.971  31.483  31.473  1.00  0.00     0.029 A 
ATOM     46  N   UNL A   1      39.080  30.781  31.714  1.00  0.00    -0.354 N 
ATOM     47  C   UNL A   1      41.053  28.544  28.585  1.00  0.00     0.074 A 
ATOM     48  C   UNL A   1      40.172  28.345  27.454  1.00  0.00     0.031 C 
ATOM     49  C   UNL A   1      37.383  31.858  32.694  1.00  0.00     0.029 A 
ATOM     50  C   UNL A   1      38.751  31.394  32.898  1.00  0.00     0.049 A 
ATOM     51  H   UNL A   1      39.961  30.375  31.545  1.00  0.00     0.167 HD
ATOM     52  C   UNL A   1      42.327  28.091  28.648  1.00  0.00     0.037 A 
ATOM     53  C   UNL A   1      39.468  31.557  34.026  1.00  0.00     0.037 A 
ATOM     54  C   UNL A   1      43.202  28.304  29.771  1.00  0.00     0.049 A 
ATOM     55  C   UNL A   1      40.875  31.029  34.081  1.00  0.00     0.074 A 
ATOM     56  C   UNL A   1      44.528  27.935  29.913  1.00  0.00     0.029 A 
ATOM     57  N   UNL A   1      42.836  28.939  30.950  1.00  0.00    -0.354 N 
ATOM     58  N   UNL A   1      41.555  30.389  33.159  1.00  0.00    -0.248 NA
ATOM     59  C   UNL A   1      41.618  31.250  35.329  1.00  0.00     0.031 C 
ATOM     60  C   UNL A   1      44.947  28.295  31.199  1.00  0.00     0.029 A 
ATOM     61  C   UNL A   1      43.902  28.945  31.835  1.00  0.00     0.049 A 
ATOM     62  H   UNL A   1      41.949  29.326  31.131  1.00  0.00     0.167 HD
ATOM     63  C   UNL A   1      42.812  30.160  33.703  1.00  0.00     0.074 A 
ATOM     64  C   UNL A   1      42.803  30.741  35.031  1.00  0.00     0.031 C 
ATOM     65  C   UNL A   1      43.878  29.530  33.153  1.00  0.00     0.037 A 
BRANCH  52  66
ATOM     66  C   UNL A   1      42.845  27.315  27.471  1.00  0.00     0.057 A 
ATOM     67  C   UNL A   1      43.526  27.936  26.414  1.00  0.00     0.134 A 
ATOM     68  C   UNL A   1      42.680  25.925  27.401  1.00  0.00     0.134 A 
ATOM     69  F   UNL A   1      43.709  29.265  26.411  1.00  0.00    -0.206 F 
ATOM     70  C   UNL A   1      43.992  27.210  25.317  1.00  0.00     0.040 A 
ATOM     71  C   UNL A   1      43.170  25.184  26.324  1.00  0.00     0.040 A 
ATOM     72  F   UNL A   1      42.044  25.264  28.380  1.00  0.00    -0.206 F 
ATOM     73  C   UNL A   1      43.820  25.828  25.273  1.00  0.00     0.006 A 
ENDBRANCH  52  66
BRANCH  53  74
ATOM     74  C   UNL A   1      38.874  32.269  35.185  1.00  0.00     0.057 A 
ATOM     75  C   UNL A   1      38.869  33.668  35.247  1.00  0.00     0.134 A 
ATOM     76  C   UNL A   1      38.297  31.574  36.254  1.00  0.00     0.134 A 
ATOM     77  F   UNL A   1      39.421  34.390  34.261  1.00  0.00    -0.206 F 
ATOM     78  C   UNL A   1      38.326  34.349  36.338  1.00  0.00     0.040 A 
ATOM     79  C   UNL A   1      37.726  32.242  37.339  1.00  0.00     0.040 A 
ATOM     80  F   UNL A   1      38.261  30.233  36.250  1.00  0.00    -0.206 F 
ATOM     81  C   UNL A   1      37.747  33.635  37.385  1.00  0.00     0.006 A 
ENDBRANCH  53  74
BRANCH  65  82
ATOM     82  C   UNL A   1      45.138  29.466  33.969  1.00  0.00     0.057 A 
ATOM     83  C   UNL A   1      45.401  28.409  34.849  1.00  0.00     0.134 A 
ATOM     84  C   UNL A   1      46.119  30.458  33.839  1.00  0.00     0.134 A 
ATOM     85  F   UNL A   1      44.498  27.433  35.030  1.00  0.00    -0.206 F 
ATOM     86  C   UNL A   1      46.584  28.353  35.589  1.00  0.00     0.040 A 
ATOM     87  C   UNL A   1      47.318  30.397  34.549  1.00  0.00     0.040 A 
ATOM     88  F   UNL A   1      45.935  31.493  33.004  1.00  0.00    -0.206 F 
ATOM     89  C   UNL A   1      47.549  29.345  35.433  1.00  0.00     0.006 A 
ENDBRANCH  65  82
ENDBRANCH  39  40
ENDBRANCH  31  34
ENDBRANCH  29  30
ENDBRANCH  28  29
ENDBRANCH  27  28
ENDBRANCH   1  27
TORSDOF 16
ENDMDL
MODEL 2
REMARK VINA RESULT:     -11.6      2.723      7.509
REMARK SMILES C[C@]1(C(=O)NCc2ccc(C(=O)NCCCCCCNC(=O)c3ccc(-c4c5nc(c(-c6c(F)cccc6F)c6ccc([nH]6)c(-c6c(F)cccc6F)c6nc(c(-c7c(F)cccc7F)c7ccc4[nH]7)C=C6)C=C5)cc3)o2)CCC[NH2+]C1
REMARK SMILES IDX 16 1 15 2 14 3 13 4 11 5 12 6 10 8 7 9 8 10 77 11 9 12 6 13
REMARK SMILES IDX 5 14 3 15 4 16 2 18 1 19 78 20 82 21 79 22 81 23 80 24 17 27
REMARK SMILES IDX 18 28 19 29 20 30 21 31 22 33 23 34 24 35 76 36 25 37 75 38
REMARK SMILES IDX 26 39 27 40 28 41 69 42 29 43 74 44 68 45 70 46 30 47 73 48
REMARK SMILES IDX 67 49 66 50 31 52 57 53 40 54 56 55 41 56 44 57 55 58 71 59
REMARK SMILES IDX 42 60 43 61 54 63 72 64 45 65 32 66 33 67 38 68 34 69 35 70
REMARK SMILES IDX 37 71 39 72 36 73 58 74 59 75 64 76 60 77 61 78 63 79 65 80
REMARK SMILES IDX 62 81 46 82 47 83 52 84 48 85 49 86 51 87 53 88 50 89
REMARK H PARENT 13 7 5 17 81 25 81 26 20 32 70 51 44 62
REMARK Flexibility Score: inf
ROOT
ATOM      1  C   UNL A   1      35.136  33.413  29.016  1.00  0.00     0.002 C 
ENDROOT
BRANCH   1   2
ATOM      2  C   UNL A   1      35.611  32.326  28.044  1.00  0.00     0.021 C 
BRANCH   2   3
ATOM      3  C   UNL A   1      34.561  31.241  27.812  1.00  0.00     0.116 C 
BRANCH   3   4
ATOM      4  N   UNL A   1      33.297  31.837  27.447  1.00  0.00    -0.349 N 
ATOM      5  C   UNL A   1      32.180  31.291  26.862  1.00  0.00     0.286 C 
ATOM      6  O   UNL A   1      31.216  32.045  26.735  1.00  0.00    -0.266 OA
ATOM      7  H   UNL A   1      33.223  32.798  27.652  1.00  0.00     0.163 HD
BRANCH   5   8
ATOM      8  C   UNL A   1      32.158  29.897  26.465  1.00  0.00     0.191 A 
ATOM      9  C   UNL A   1      31.361  28.226  25.260  1.00  0.00     0.124 A 
ATOM     10  C   UNL A   1      32.304  27.677  26.098  1.00  0.00     0.048 A 
ATOM     11  O   UNL A   1      31.262  29.562  25.482  1.00  0.00    -0.454 OA
ATOM     12  C   UNL A   1      32.848  28.755  26.834  1.00  0.00     0.056 A 
BRANCH   9  13
ATOM     13  C   UNL A   1      30.448  27.645  24.255  1.00  0.00     0.191 C 
BRANCH  13  14
ATOM     14  N   UNL A   1      30.614  28.285  22.974  1.00  0.00    -0.348 N 
ATOM     15  C   UNL A   1      30.016  29.304  22.321  1.00  0.00     0.232 C 
ATOM     16  O   UNL A   1      30.638  29.688  21.317  1.00  0.00    -0.274 OA
ATOM     17  H   UNL A   1      31.339  27.880  22.446  1.00  0.00     0.163 HD
BRANCH  15  18
ATOM     18  C   UNL A   1      28.609  29.882  22.606  1.00  0.00     0.095 C 
ATOM     19  C   UNL A   1      27.747  28.642  22.971  1.00  0.00     0.028 C 
ATOM     20  C   UNL A   1      28.403  30.929  23.714  1.00  0.00     0.028 C 
ATOM     21  C   UNL A   1      28.070  30.479  21.274  1.00  0.00     0.277 C 
ATOM     22  C   UNL A   1      28.878  32.332  23.333  1.00  0.00     0.063 C 
ATOM     23  N   UNL A   1      28.648  31.796  20.962  1.00  0.00    -0.345 N 
ATOM     24  C   UNL A   1      28.322  32.777  21.990  1.00  0.00     0.260 C 
ATOM     25  H   UNL A   1      29.662  31.705  20.900  1.00  0.00     0.346 HD
ATOM     26  H   UNL A   1      28.258  32.116  20.077  1.00  0.00     0.346 HD
ENDBRANCH  15  18
ENDBRANCH  13  14
ENDBRANCH   9  13
ENDBRANCH   5   8
ENDBRANCH   3   4
ENDBRANCH   2   3
ENDBRANCH   1   2
BRANCH   1  27
ATOM     27  C   UNL A   1      35.174  34.838  28.446  1.00  0.00     0.002 C 
BRANCH  27  28
ATOM     28  C   UNL A   1      33.952  35.694  28.789  1.00  0.00     0.021 C 
BRANCH  28  29
ATOM     29  C   UNL A   1      32.899  34.960  29.612  1.00  0.00     0.116 C 
BRANCH  29  30
ATOM     30  N   UNL A   1      32.398  35.790  30.696  1.00  0.00    -0.352 N 
ATOM     31  C   UNL A   1      32.737  35.778  32.024  1.00  0.00     0.251 C 
ATOM     32  H   UNL A   1      31.718  36.455  30.439  1.00  0.00     0.163 HD
ATOM     33  O   UNL A   1      32.043  36.364  32.848  1.00  0.00    -0.269 OA
BRANCH  31  34
ATOM     34  C   UNL A   1      33.943  35.046  32.458  1.00  0.00     0.039 A 
ATOM     35  C   UNL A   1      33.803  33.766  32.996  1.00  0.00     0.014 A 
ATOM     36  C   UNL A   1      35.208  35.630  32.339  1.00  0.00     0.014 A 
ATOM     37  C   UNL A   1      34.939  33.048  33.368  1.00  0.00     0.010 A 
ATOM     38  C   UNL A   1      36.343  34.884  32.635  1.00  0.00     0.010 A 
ATOM     39  C   UNL A   1      36.220  33.590  33.162  1.00  0.00    -0.014 A 
BRANCH  39  40
ATOM     40  C   UNL A   1      37.442  32.818  33.495  1.00  0.00     0.031 A 
ATOM     41  C   UNL A   1      38.202  33.118  34.757  1.00  0.00     0.074 A 
ATOM     42  C   UNL A   1      37.899  31.894  32.631  1.00  0.00     0.049 A 
ATOM     43  N   UNL A   1      39.322  32.595  35.191  1.00  0.00    -0.248 NA
ATOM     44  C   UNL A   1      37.648  34.162  35.634  1.00  0.00     0.031 C 
ATOM     45  C   UNL A   1      37.275  31.549  31.352  1.00  0.00     0.029 A 
ATOM     46  N   UNL A   1      39.002  31.080  32.692  1.00  0.00    -0.354 N 
ATOM     47  C   UNL A   1      39.609  33.252  36.380  1.00  0.00     0.074 A 
ATOM     48  C   UNL A   1      38.582  34.254  36.568  1.00  0.00     0.031 C 
ATOM     49  C   UNL A   1      37.989  30.577  30.763  1.00  0.00     0.029 A 
ATOM     50  C   UNL A   1      39.143  30.261  31.599  1.00  0.00     0.049 A 
ATOM     51  H   UNL A   1      39.634  31.084  33.447  1.00  0.00     0.167 HD
ATOM     52  C   UNL A   1      40.622  33.026  37.250  1.00  0.00     0.037 A 
ATOM     53  C   UNL A   1      40.099  29.362  31.300  1.00  0.00     0.037 A 
ATOM     54  C   UNL A   1      41.633  32.018  37.063  1.00  0.00     0.049 A 
ATOM     55  C   UNL A   1      41.224  29.140  32.271  1.00  0.00     0.074 A 
ATOM     56  C   UNL A   1      42.670  31.670  37.910  1.00  0.00     0.029 A 
ATOM     57  N   UNL A   1      41.737  31.200  35.946  1.00  0.00    -0.354 N 
ATOM     58  N   UNL A   1      41.447  29.720  33.426  1.00  0.00    -0.248 NA
ATOM     59  C   UNL A   1      42.230  28.134  31.901  1.00  0.00     0.031 C 
ATOM     60  C   UNL A   1      43.435  30.681  37.281  1.00  0.00     0.029 A 
ATOM     61  C   UNL A   1      42.838  30.368  36.070  1.00  0.00     0.049 A 
ATOM     62  H   UNL A   1      41.120  31.210  35.180  1.00  0.00     0.167 HD
ATOM     63  C   UNL A   1      42.597  29.129  33.935  1.00  0.00     0.074 A 
ATOM     64  C   UNL A   1      43.017  28.136  32.967  1.00  0.00     0.031 C 
ATOM     65  C   UNL A   1      43.243  29.383  35.099  1.00  0.00     0.037 A 
BRANCH  52  66
ATOM     66  C   UNL A   1      40.687  33.890  38.476  1.00  0.00     0.057 A 
ATOM     67  C   UNL A   1      41.474  35.050  38.525  1.00  0.00     0.134 A 
ATOM     68  C   UNL A   1      39.940  33.572  39.617  1.00  0.00     0.134 A 
ATOM     69  F   UNL A   1      42.224  35.409  37.472  1.00  0.00    -0.206 F 
ATOM     70  C   UNL A   1      41.541  35.841  39.674  1.00  0.00     0.040 A 
ATOM     71  C   UNL A   1      39.974  34.373  40.761  1.00  0.00     0.040 A 
ATOM     72  F   UNL A   1      39.160  32.480  39.639  1.00  0.00    -0.206 F 
ATOM     73  C   UNL A   1      40.784  35.506  40.794  1.00  0.00     0.006 A 
ENDBRANCH  52  66
BRANCH  53  74
ATOM     74  C   UNL A   1      40.019  28.590  30.034  1.00  0.00     0.057 A 
ATOM     75  C   UNL A   1      40.657  29.041  28.872  1.00  0.00     0.134 A 
ATOM     76  C   UNL A   1      39.311  27.385  29.955  1.00  0.00     0.134 A 
ATOM     77  F   UNL A   1      41.338  30.197  28.880  1.00  0.00    -0.206 F 
ATOM     78  C   UNL A   1      40.578  28.332  27.672  1.00  0.00     0.040 A 
ATOM     79  C   UNL A   1      39.246  26.651  28.768  1.00  0.00     0.040 A 
ATOM     80  F   UNL A   1      38.687  26.894  31.034  1.00  0.00    -0.206 F 
ATOM     81  C   UNL A   1      39.876  27.130  27.621  1.00  0.00     0.006 A 
ENDBRANCH  53  74
BRANCH  65  82
ATOM     82  C   UNL A   1      44.453  28.549  35.410  1.00  0.00     0.057 A 
ATOM     83  C   UNL A   1      45.744  28.947  35.043  1.00  0.00     0.134 A 
ATOM     84  C   UNL A   1      44.325  27.351  36.125  1.00  0.00     0.134 A 
ATOM     85  F   UNL A   1      45.936  30.078  34.346  1.00  0.00    -0.206 F 
ATOM     86  C   UNL A   1      46.863  28.171  35.354  1.00  0.00     0.040 A 
ATOM     87  C   UNL A   1      45.437  26.583  36.469  1.00  0.00     0.040 A 
ATOM     88  F   UNL A   1      43.117  26.917  36.517  1.00  0.00    -0.206 F 
ATOM     89  C   UNL A   1      46.711  26.989  36.076  1.00  0.00     0.006 A 
ENDBRANCH  65  82
ENDBRANCH  39  40
ENDBRANCH  31  34
ENDBRANCH  29  30
ENDBRANCH  28  29
ENDBRANCH  27  28
ENDBRANCH   1  27
TORSDOF 16
ENDMDL
MODEL 3
REMARK VINA RESULT:     -11.5      2.309      4.847
REMARK SMILES C[C@]1(C(=O)NCc2ccc(C(=O)NCCCCCCNC(=O)c3ccc(-c4c5nc(c(-c6c(F)cccc6F)c6ccc([nH]6)c(-c6c(F)cccc6F)c6nc(c(-c7c(F)cccc7F)c7ccc4[nH]7)C=C6)C=C5)cc3)o2)CCC[NH2+]C1
REMARK SMILES IDX 16 1 15 2 14 3 13 4 11 5 12 6 10 8 7 9 8 10 77 11 9 12 6 13
REMARK SMILES IDX 5 14 3 15 4 16 2 18 1 19 78 20 82 21 79 22 81 23 80 24 17 27
REMARK SMILES IDX 18 28 19 29 20 30 21 31 22 33 23 34 24 35 76 36 25 37 75 38
REMARK SMILES IDX 26 39 27 40 28 41 69 42 29 43 74 44 68 45 70 46 30 47 73 48
REMARK SMILES IDX 67 49 66 50 31 52 57 53 40 54 56 55 41 56 44 57 55 58 71 59
REMARK SMILES IDX 42 60 43 61 54 63 72 64 45 65 32 66 33 67 38 68 34 69 35 70
REMARK SMILES IDX 37 71 39 72 36 73 58 74 59 75 64 76 60 77 61 78 63 79 65 80
REMARK SMILES IDX 62 81 46 82 47 83 52 84 48 85 49 86 51 87 53 88 50 89
REMARK H PARENT 13 7 5 17 81 25 81 26 20 32 70 51 44 62
REMARK Flexibility Score: inf
ROOT
ATOM      1  C   UNL A   1      31.779  29.957  25.442  1.00  0.00     0.002 C 
ENDROOT
BRANCH   1   2
ATOM      2  C   UNL A   1      33.116  29.329  25.028  1.00  0.00     0.021 C 
BRANCH   2   3
ATOM      3  C   UNL A   1      33.179  29.000  23.538  1.00  0.00     0.116 C 
BRANCH   3   4
ATOM      4  N   UNL A   1      31.874  29.149  22.937  1.00  0.00    -0.349 N 
ATOM      5  C   UNL A   1      31.032  28.221  22.372  1.00  0.00     0.286 C 
ATOM      6  O   UNL A   1      29.939  28.644  21.999  1.00  0.00    -0.266 OA
ATOM      7  H   UNL A   1      31.530  30.072  22.929  1.00  0.00     0.163 HD
BRANCH   5   8
ATOM      8  C   UNL A   1      31.424  26.828  22.273  1.00  0.00     0.191 A 
ATOM      9  C   UNL A   1      31.400  24.741  22.994  1.00  0.00     0.124 A 
ATOM     10  C   UNL A   1      32.242  24.760  21.907  1.00  0.00     0.048 A 
ATOM     11  O   UNL A   1      30.910  25.986  23.226  1.00  0.00    -0.454 OA
ATOM     12  C   UNL A   1      32.218  26.086  21.415  1.00  0.00     0.056 A 
BRANCH   9  13
ATOM     13  C   UNL A   1      30.998  23.678  23.937  1.00  0.00     0.191 C 
BRANCH  13  14
ATOM     14  N   UNL A   1      31.605  22.418  23.585  1.00  0.00    -0.348 N 
ATOM     15  C   UNL A   1      32.698  21.731  23.978  1.00  0.00     0.232 C 
ATOM     16  O   UNL A   1      32.721  20.555  23.581  1.00  0.00    -0.274 OA
ATOM     17  H   UNL A   1      31.099  21.943  22.887  1.00  0.00     0.163 HD
BRANCH  15  18
ATOM     18  C   UNL A   1      33.941  22.309  24.697  1.00  0.00     0.095 C 
ATOM     19  C   UNL A   1      34.842  22.839  23.547  1.00  0.00     0.028 C 
ATOM     20  C   UNL A   1      33.794  23.443  25.726  1.00  0.00     0.028 C 
ATOM     21  C   UNL A   1      34.675  21.125  25.389  1.00  0.00     0.277 C 
ATOM     22  C   UNL A   1      33.253  22.981  27.080  1.00  0.00     0.063 C 
ATOM     23  N   UNL A   1      34.030  20.708  26.644  1.00  0.00    -0.345 N 
ATOM     24  C   UNL A   1      34.024  21.787  27.623  1.00  0.00     0.260 C 
ATOM     25  H   UNL A   1      33.069  20.433  26.446  1.00  0.00     0.346 HD
ATOM     26  H   UNL A   1      34.558  19.926  27.031  1.00  0.00     0.346 HD
ENDBRANCH  15  18
ENDBRANCH  13  14
ENDBRANCH   9  13
ENDBRANCH   5   8
ENDBRANCH   3   4
ENDBRANCH   2   3
ENDBRANCH   1   2
BRANCH   1  27
ATOM     27  C   UNL A   1      31.759  30.535  26.864  1.00  0.00     0.002 C 
BRANCH  27  28
ATOM     28  C   UNL A   1      31.544  32.048  26.934  1.00  0.00     0.021 C 
BRANCH  28  29
ATOM     29  C   UNL A   1      32.830  32.843  27.126  1.00  0.00     0.116 C 
BRANCH  29  30
ATOM     30  N   UNL A   1      32.557  34.186  27.615  1.00  0.00    -0.352 N 
ATOM     31  C   UNL A   1      33.054  34.821  28.723  1.00  0.00     0.251 C 
ATOM     32  H   UNL A   1      31.927  34.713  27.073  1.00  0.00     0.163 HD
ATOM     33  O   UNL A   1      32.533  35.853  29.134  1.00  0.00    -0.269 OA
BRANCH  31  34
ATOM     34  C   UNL A   1      34.219  34.249  29.427  1.00  0.00     0.039 A 
ATOM     35  C   UNL A   1      34.006  33.423  30.532  1.00  0.00     0.014 A 
ATOM     36  C   UNL A   1      35.518  34.536  28.997  1.00  0.00     0.014 A 
ATOM     37  C   UNL A   1      35.097  32.842  31.177  1.00  0.00     0.010 A 
ATOM     38  C   UNL A   1      36.599  33.893  29.590  1.00  0.00     0.010 A 
ATOM     39  C   UNL A   1      36.400  33.049  30.692  1.00  0.00    -0.014 A 
BRANCH  39  40
ATOM     40  C   UNL A   1      37.568  32.390  31.327  1.00  0.00     0.031 A 
ATOM     41  C   UNL A   1      38.246  31.236  30.645  1.00  0.00     0.074 A 
ATOM     42  C   UNL A   1      37.975  32.792  32.546  1.00  0.00     0.049 A 
ATOM     43  N   UNL A   1      39.240  30.494  31.066  1.00  0.00    -0.248 NA
ATOM     44  C   UNL A   1      37.721  30.843  29.327  1.00  0.00     0.031 C 
ATOM     45  C   UNL A   1      37.365  33.869  33.329  1.00  0.00     0.029 A 
ATOM     46  N   UNL A   1      38.992  32.335  33.345  1.00  0.00    -0.354 N 
ATOM     47  C   UNL A   1      39.450  29.546  30.074  1.00  0.00     0.074 A 
ATOM     48  C   UNL A   1      38.442  29.764  29.059  1.00  0.00     0.031 C 
ATOM     49  C   UNL A   1      38.038  34.007  34.482  1.00  0.00     0.029 A 
ATOM     50  C   UNL A   1      39.095  33.002  34.540  1.00  0.00     0.049 A 
ATOM     51  H   UNL A   1      39.591  31.598  33.086  1.00  0.00     0.167 HD
ATOM     52  C   UNL A   1      40.410  28.594  30.002  1.00  0.00     0.037 A 
ATOM     53  C   UNL A   1      39.941  32.821  35.571  1.00  0.00     0.037 A 
ATOM     54  C   UNL A   1      41.419  28.391  31.009  1.00  0.00     0.049 A 
ATOM     55  C   UNL A   1      40.988  31.746  35.478  1.00  0.00     0.074 A 
ATOM     56  C   UNL A   1      42.471  27.491  31.007  1.00  0.00     0.029 A 
ATOM     57  N   UNL A   1      41.497  29.094  32.203  1.00  0.00    -0.354 N 
ATOM     58  N   UNL A   1      41.220  30.899  34.503  1.00  0.00    -0.248 NA
ATOM     59  C   UNL A   1      41.896  31.603  36.625  1.00  0.00     0.031 C 
ATOM     60  C   UNL A   1      43.150  27.611  32.224  1.00  0.00     0.029 A 
ATOM     61  C   UNL A   1      42.562  28.628  32.958  1.00  0.00     0.049 A 
ATOM     62  H   UNL A   1      40.885  29.816  32.474  1.00  0.00     0.167 HD
ATOM     63  C   UNL A   1      42.316  30.147  34.904  1.00  0.00     0.074 A 
ATOM     64  C   UNL A   1      42.710  30.647  36.205  1.00  0.00     0.031 C 
ATOM     65  C   UNL A   1      42.943  29.137  34.252  1.00  0.00     0.037 A 
BRANCH  52  66
ATOM     66  C   UNL A   1      40.409  27.698  28.796  1.00  0.00     0.057 A 
ATOM     67  C   UNL A   1      41.170  27.990  27.655  1.00  0.00     0.134 A 
ATOM     68  C   UNL A   1      39.653  26.519  28.781  1.00  0.00     0.134 A 
ATOM     69  F   UNL A   1      41.908  29.108  27.597  1.00  0.00    -0.206 F 
ATOM     70  C   UNL A   1      41.153  27.160  26.532  1.00  0.00     0.040 A 
ATOM     71  C   UNL A   1      39.653  25.664  27.677  1.00  0.00     0.040 A 
ATOM     72  F   UNL A   1      38.906  26.174  29.841  1.00  0.00    -0.206 F 
ATOM     73  C   UNL A   1      40.397  25.989  26.544  1.00  0.00     0.006 A 
ENDBRANCH  52  66
BRANCH  53  74
ATOM     74  C   UNL A   1      39.845  33.691  36.770  1.00  0.00     0.057 A 
ATOM     75  C   UNL A   1      40.536  34.907  36.837  1.00  0.00     0.134 A 
ATOM     76  C   UNL A   1      39.061  33.333  37.874  1.00  0.00     0.134 A 
ATOM     77  F   UNL A   1      41.315  35.297  35.818  1.00  0.00    -0.206 F 
ATOM     78  C   UNL A   1      40.465  35.727  37.964  1.00  0.00     0.040 A 
ATOM     79  C   UNL A   1      38.960  34.156  38.997  1.00  0.00     0.040 A 
ATOM     80  F   UNL A   1      38.368  32.186  37.869  1.00  0.00    -0.206 F 
ATOM     81  C   UNL A   1      39.670  35.355  39.046  1.00  0.00     0.006 A 
ENDBRANCH  53  74
BRANCH  65  82
ATOM     82  C   UNL A   1      44.144  28.528  34.918  1.00  0.00     0.057 A 
ATOM     83  C   UNL A   1      44.044  27.402  35.744  1.00  0.00     0.134 A 
ATOM     84  C   UNL A   1      45.423  29.053  34.693  1.00  0.00     0.134 A 
ATOM     85  F   UNL A   1      42.847  26.856  36.010  1.00  0.00    -0.206 F 
ATOM     86  C   UNL A   1      45.171  26.834  36.343  1.00  0.00     0.040 A 
ATOM     87  C   UNL A   1      46.559  28.477  35.261  1.00  0.00     0.040 A 
ATOM     88  F   UNL A   1      45.591  30.125  33.903  1.00  0.00    -0.206 F 
ATOM     89  C   UNL A   1      46.433  27.368  36.095  1.00  0.00     0.006 A 
ENDBRANCH  65  82
ENDBRANCH  39  40
ENDBRANCH  31  34
ENDBRANCH  29  30
ENDBRANCH  28  29
ENDBRANCH  27  28
ENDBRANCH   1  27
TORSDOF 16
ENDMDL
