MODEL 1
REMARK VINA RESULT:     -11.8      0.000      0.000
REMARK SMILES NS(=O)(=O)c1ccc(-n2nc(C(=O)NCCCC(=O)NCCCCCCNC(=O)c3ccc(-c4c5nc(c(-c6c(F)cccc6F)c6ccc([nH]6)c(-c6c(F)cccc6F)c6nc(c(-c7c(F)cccc7F)c7ccc4[nH]7)C=C6)C=C5)cc3)cc2-c2ccccc2)cc1
REMARK SMILES IDX 21 1 20 2 18 3 19 4 17 6 16 7 15 8 14 9 12 10 13 11 11 13
REMARK SMILES IDX 9 14 10 15 85 16 84 17 8 18 5 19 6 20 93 21 7 22 92 23 2 24
REMARK SMILES IDX 3 25 4 26 1 27 86 30 87 31 91 32 88 33 90 34 89 35 22 36
REMARK SMILES IDX 23 37 24 38 25 39 26 40 27 41 28 42 29 44 30 45 31 46 83 47
REMARK SMILES IDX 32 48 82 49 33 50 34 51 35 52 76 53 36 54 81 55 75 56 77 57
REMARK SMILES IDX 37 58 80 59 74 60 73 61 38 63 64 64 47 65 63 66 48 67 51 68
REMARK SMILES IDX 62 69 78 70 49 71 50 72 61 74 79 75 52 76 39 77 40 78 45 79
REMARK SMILES IDX 41 80 42 81 44 82 46 83 43 84 65 85 66 86 71 87 67 88 68 89
REMARK SMILES IDX 70 90 72 91 69 92 53 93 54 94 59 95 55 96 56 97 58 98 60 99
REMARK SMILES IDX 57 100
REMARK H PARENT 20 5 14 12 1 28 1 29 27 43 77 62 51 73
REMARK Flexibility Score: inf
ROOT
ATOM      1  C   UNL A   1      33.842  30.459  26.855  1.00  0.00     0.116 C 
ENDROOT
BRANCH   1   2
ATOM      2  N   UNL A   1      32.940  29.623  27.616  1.00  0.00    -0.356 N 
ATOM      3  C   UNL A   1      32.107  28.634  27.197  1.00  0.00     0.220 C 
ATOM      4  O   UNL A   1      31.325  28.143  28.011  1.00  0.00    -0.275 OA
ATOM      5  H   UNL A   1      32.927  29.797  28.586  1.00  0.00     0.163 HD
BRANCH   3   6
ATOM      6  C   UNL A   1      32.170  28.128  25.767  1.00  0.00     0.102 C 
BRANCH   6   7
ATOM      7  C   UNL A   1      30.874  28.277  24.964  1.00  0.00     0.031 C 
BRANCH   7   8
ATOM      8  C   UNL A   1      30.317  27.006  24.311  1.00  0.00     0.116 C 
BRANCH   8   9
ATOM      9  N   UNL A   1      30.689  26.819  22.910  1.00  0.00    -0.351 N 
ATOM     10  C   UNL A   1      31.519  25.877  22.311  1.00  0.00     0.271 C 
ATOM     11  O   UNL A   1      31.710  25.978  21.099  1.00  0.00    -0.267 OA
ATOM     12  H   UNL A   1      30.285  27.466  22.288  1.00  0.00     0.163 HD
BRANCH  10  13
ATOM     13  C   UNL A   1      32.111  24.797  23.126  1.00  0.00     0.151 A 
ATOM     14  N   UNL A   1      32.722  22.840  23.784  1.00  0.00    -0.232 N 
ATOM     15  N   UNL A   1      31.859  23.476  22.940  1.00  0.00    -0.162 NA
ATOM     16  C   UNL A   1      33.631  23.741  24.313  1.00  0.00     0.075 A 
ATOM     17  C   UNL A   1      33.056  24.977  24.159  1.00  0.00     0.065 A 
BRANCH  14  18
ATOM     18  C   UNL A   1      32.744  21.430  24.013  1.00  0.00     0.065 A 
ATOM     19  C   UNL A   1      33.035  18.683  24.510  1.00  0.00     0.082 A 
ATOM     20  C   UNL A   1      33.337  19.599  25.512  1.00  0.00     0.024 A 
ATOM     21  C   UNL A   1      32.528  19.130  23.280  1.00  0.00     0.024 A 
ATOM     22  C   UNL A   1      33.212  20.963  25.255  1.00  0.00     0.030 A 
ATOM     23  C   UNL A   1      32.356  20.507  23.037  1.00  0.00     0.030 A 
BRANCH  19  24
ATOM     24  S   UNL A   1      33.224  16.957  24.860  1.00  0.00     0.238 S 
ATOM     25  O   UNL A   1      31.951  16.403  25.277  1.00  0.00    -0.207 OA
ATOM     26  O   UNL A   1      34.440  16.751  25.600  1.00  0.00    -0.207 OA
BRANCH  24  27
ATOM     27  N   UNL A   1      33.538  16.267  23.361  1.00  0.00    -0.225 NA
ATOM     28  H   UNL A   1      34.118  16.900  22.811  1.00  0.00     0.137 HD
ATOM     29  H   UNL A   1      32.659  16.100  22.872  1.00  0.00     0.137 HD
ENDBRANCH  24  27
ENDBRANCH  19  24
ENDBRANCH  14  18
BRANCH  16  30
ATOM     30  C   UNL A   1      35.068  23.534  24.441  1.00  0.00     0.000 A 
ATOM     31  C   UNL A   1      35.671  23.823  25.672  1.00  0.00     0.010 A 
ATOM     32  C   UNL A   1      35.762  22.793  23.484  1.00  0.00     0.010 A 
ATOM     33  C   UNL A   1      36.919  23.295  25.973  1.00  0.00     0.001 A 
ATOM     34  C   UNL A   1      37.033  22.305  23.771  1.00  0.00     0.001 A 
ATOM     35  C   UNL A   1      37.599  22.531  25.024  1.00  0.00     0.000 A 
ENDBRANCH  16  30
ENDBRANCH  10  13
ENDBRANCH   8   9
ENDBRANCH   7   8
ENDBRANCH   6   7
ENDBRANCH   3   6
ENDBRANCH   1   2
BRANCH   1  36
ATOM     36  C   UNL A   1      34.658  31.349  27.793  1.00  0.00     0.021 C 
BRANCH  36  37
ATOM     37  C   UNL A   1      33.815  32.317  28.623  1.00  0.00     0.002 C 
BRANCH  37  38
ATOM     38  C   UNL A   1      34.059  33.805  28.330  1.00  0.00     0.002 C 
BRANCH  38  39
ATOM     39  C   UNL A   1      32.960  34.777  28.787  1.00  0.00     0.021 C 
BRANCH  39  40
ATOM     40  C   UNL A   1      33.494  35.970  29.561  1.00  0.00     0.116 C 
BRANCH  40  41
ATOM     41  N   UNL A   1      32.828  36.151  30.853  1.00  0.00    -0.352 N 
ATOM     42  C   UNL A   1      32.965  35.387  31.998  1.00  0.00     0.251 C 
ATOM     43  H   UNL A   1      32.205  36.912  30.914  1.00  0.00     0.163 HD
ATOM     44  O   UNL A   1      32.124  35.417  32.887  1.00  0.00    -0.269 OA
BRANCH  42  45
ATOM     45  C   UNL A   1      34.167  34.547  32.131  1.00  0.00     0.039 A 
ATOM     46  C   UNL A   1      34.123  33.154  32.052  1.00  0.00     0.014 A 
ATOM     47  C   UNL A   1      35.378  35.207  32.304  1.00  0.00     0.014 A 
ATOM     48  C   UNL A   1      35.327  32.449  32.091  1.00  0.00     0.010 A 
ATOM     49  C   UNL A   1      36.552  34.536  32.107  1.00  0.00     0.010 A 
ATOM     50  C   UNL A   1      36.547  33.154  32.104  1.00  0.00    -0.014 A 
BRANCH  50  51
ATOM     51  C   UNL A   1      37.840  32.474  32.018  1.00  0.00     0.031 A 
ATOM     52  C   UNL A   1      38.606  32.506  33.298  1.00  0.00     0.074 A 
ATOM     53  C   UNL A   1      38.230  31.759  30.931  1.00  0.00     0.049 A 
ATOM     54  N   UNL A   1      39.752  33.053  33.522  1.00  0.00    -0.248 NA
ATOM     55  C   UNL A   1      37.947  32.007  34.515  1.00  0.00     0.031 C 
ATOM     56  C   UNL A   1      37.468  31.407  29.722  1.00  0.00     0.029 A 
ATOM     57  N   UNL A   1      39.428  31.149  30.693  1.00  0.00    -0.354 N 
ATOM     58  C   UNL A   1      40.037  32.864  34.878  1.00  0.00     0.074 A 
ATOM     59  C   UNL A   1      38.841  32.313  35.455  1.00  0.00     0.031 C 
ATOM     60  C   UNL A   1      38.149  30.497  28.984  1.00  0.00     0.029 A 
ATOM     61  C   UNL A   1      39.472  30.337  29.554  1.00  0.00     0.049 A 
ATOM     62  H   UNL A   1      40.207  31.272  31.282  1.00  0.00     0.167 HD
ATOM     63  C   UNL A   1      41.295  33.069  35.366  1.00  0.00     0.037 A 
ATOM     64  C   UNL A   1      40.535  29.621  29.092  1.00  0.00     0.037 A 
ATOM     65  C   UNL A   1      42.059  33.848  34.417  1.00  0.00     0.049 A 
ATOM     66  C   UNL A   1      41.737  30.172  29.738  1.00  0.00     0.074 A 
ATOM     67  C   UNL A   1      42.057  35.170  34.023  1.00  0.00     0.029 A 
ATOM     68  N   UNL A   1      42.744  33.159  33.443  1.00  0.00    -0.354 N 
ATOM     69  N   UNL A   1      42.227  31.347  29.477  1.00  0.00    -0.248 NA
ATOM     70  C   UNL A   1      42.085  29.609  31.028  1.00  0.00     0.031 C 
ATOM     71  C   UNL A   1      42.361  35.148  32.630  1.00  0.00     0.029 A 
ATOM     72  C   UNL A   1      42.602  33.828  32.250  1.00  0.00     0.049 A 
ATOM     73  H   UNL A   1      43.250  32.325  33.578  1.00  0.00     0.167 HD
ATOM     74  C   UNL A   1      42.590  31.852  30.716  1.00  0.00     0.074 A 
ATOM     75  C   UNL A   1      42.544  30.713  31.621  1.00  0.00     0.031 C 
ATOM     76  C   UNL A   1      42.605  33.194  30.951  1.00  0.00     0.037 A 
BRANCH  63  77
ATOM     77  C   UNL A   1      41.947  32.320  36.517  1.00  0.00     0.057 A 
ATOM     78  C   UNL A   1      42.270  33.040  37.690  1.00  0.00     0.134 A 
ATOM     79  C   UNL A   1      42.535  31.041  36.446  1.00  0.00     0.134 A 
ATOM     80  F   UNL A   1      41.739  34.247  37.935  1.00  0.00    -0.206 F 
ATOM     81  C   UNL A   1      43.216  32.592  38.624  1.00  0.00     0.040 A 
ATOM     82  C   UNL A   1      43.453  30.568  37.396  1.00  0.00     0.040 A 
ATOM     83  F   UNL A   1      42.355  30.214  35.414  1.00  0.00    -0.206 F 
ATOM     84  C   UNL A   1      43.836  31.365  38.462  1.00  0.00     0.006 A 
ENDBRANCH  63  77
BRANCH  64  85
ATOM     85  C   UNL A   1      40.574  28.274  28.476  1.00  0.00     0.057 A 
ATOM     86  C   UNL A   1      39.942  27.144  29.009  1.00  0.00     0.134 A 
ATOM     87  C   UNL A   1      40.964  28.165  27.137  1.00  0.00     0.134 A 
ATOM     88  F   UNL A   1      39.367  27.200  30.217  1.00  0.00    -0.206 F 
ATOM     89  C   UNL A   1      39.805  25.947  28.281  1.00  0.00     0.040 A 
ATOM     90  C   UNL A   1      40.860  26.974  26.406  1.00  0.00     0.040 A 
ATOM     91  F   UNL A   1      41.314  29.273  26.475  1.00  0.00    -0.206 F 
ATOM     92  C   UNL A   1      40.293  25.849  26.983  1.00  0.00     0.006 A 
ENDBRANCH  64  85
BRANCH  76  93
ATOM     93  C   UNL A   1      42.417  34.070  29.744  1.00  0.00     0.057 A 
ATOM     94  C   UNL A   1      41.190  34.646  29.370  1.00  0.00     0.134 A 
ATOM     95  C   UNL A   1      43.535  34.408  28.981  1.00  0.00     0.134 A 
ATOM     96  F   UNL A   1      40.080  34.432  30.085  1.00  0.00    -0.206 F 
ATOM     97  C   UNL A   1      41.080  35.494  28.265  1.00  0.00     0.040 A 
ATOM     98  C   UNL A   1      43.444  35.276  27.892  1.00  0.00     0.040 A 
ATOM     99  F   UNL A   1      44.742  33.923  29.306  1.00  0.00    -0.206 F 
ATOM    100  C   UNL A   1      42.214  35.816  27.525  1.00  0.00     0.006 A 
ENDBRANCH  76  93
ENDBRANCH  50  51
ENDBRANCH  42  45
ENDBRANCH  40  41
ENDBRANCH  39  40
ENDBRANCH  38  39
ENDBRANCH  37  38
ENDBRANCH  36  37
ENDBRANCH   1  36
TORSDOF 21
ENDMDL
MODEL 2
REMARK VINA RESULT:     -10.9      1.907      2.390
REMARK SMILES NS(=O)(=O)c1ccc(-n2nc(C(=O)NCCCC(=O)NCCCCCCNC(=O)c3ccc(-c4c5nc(c(-c6c(F)cccc6F)c6ccc([nH]6)c(-c6c(F)cccc6F)c6nc(c(-c7c(F)cccc7F)c7ccc4[nH]7)C=C6)C=C5)cc3)cc2-c2ccccc2)cc1
REMARK SMILES IDX 21 1 20 2 18 3 19 4 17 6 16 7 15 8 14 9 12 10 13 11 11 13
REMARK SMILES IDX 9 14 10 15 85 16 84 17 8 18 5 19 6 20 93 21 7 22 92 23 2 24
REMARK SMILES IDX 3 25 4 26 1 27 86 30 87 31 91 32 88 33 90 34 89 35 22 36
REMARK SMILES IDX 23 37 24 38 25 39 26 40 27 41 28 42 29 44 30 45 31 46 83 47
REMARK SMILES IDX 32 48 82 49 33 50 34 51 35 52 76 53 36 54 81 55 75 56 77 57
REMARK SMILES IDX 37 58 80 59 74 60 73 61 38 63 64 64 47 65 63 66 48 67 51 68
REMARK SMILES IDX 62 69 78 70 49 71 50 72 61 74 79 75 52 76 39 77 40 78 45 79
REMARK SMILES IDX 41 80 42 81 44 82 46 83 43 84 65 85 66 86 71 87 67 88 68 89
REMARK SMILES IDX 70 90 72 91 69 92 53 93 54 94 59 95 55 96 56 97 58 98 60 99
REMARK SMILES IDX 57 100
REMARK H PARENT 20 5 14 12 1 28 1 29 27 43 77 62 51 73
REMARK Flexibility Score: inf
ROOT
ATOM      1  C   UNL A   1      34.793  30.813  27.648  1.00  0.00     0.116 C 
ENDROOT
BRANCH   1   2
ATOM      2  N   UNL A   1      33.389  30.469  27.597  1.00  0.00    -0.356 N 
ATOM      3  C   UNL A   1      32.687  29.821  26.631  1.00  0.00     0.220 C 
ATOM      4  O   UNL A   1      31.463  29.756  26.741  1.00  0.00    -0.275 OA
ATOM      5  H   UNL A   1      32.862  30.747  28.381  1.00  0.00     0.163 HD
BRANCH   3   6
ATOM      6  C   UNL A   1      33.405  29.165  25.464  1.00  0.00     0.102 C 
BRANCH   6   7
ATOM      7  C   UNL A   1      32.662  27.992  24.817  1.00  0.00     0.031 C 
BRANCH   7   8
ATOM      8  C   UNL A   1      32.577  26.696  25.631  1.00  0.00     0.116 C 
BRANCH   8   9
ATOM      9  N   UNL A   1      31.221  26.275  25.981  1.00  0.00    -0.351 N 
ATOM     10  C   UNL A   1      30.702  25.008  26.229  1.00  0.00     0.271 C 
ATOM     11  O   UNL A   1      29.494  24.924  26.450  1.00  0.00    -0.267 OA
ATOM     12  H   UNL A   1      30.569  27.008  26.052  1.00  0.00     0.163 HD
BRANCH  10  13
ATOM     13  C   UNL A   1      31.601  23.836  26.243  1.00  0.00     0.151 A 
ATOM     14  N   UNL A   1      32.476  21.932  25.750  1.00  0.00    -0.232 N 
ATOM     15  N   UNL A   1      31.329  22.660  25.622  1.00  0.00    -0.162 NA
ATOM     16  C   UNL A   1      33.498  22.725  26.246  1.00  0.00     0.075 A 
ATOM     17  C   UNL A   1      32.878  23.793  26.843  1.00  0.00     0.065 A 
BRANCH  14  18
ATOM     18  C   UNL A   1      32.626  20.572  25.340  1.00  0.00     0.065 A 
ATOM     19  C   UNL A   1      33.154  17.909  24.627  1.00  0.00     0.082 A 
ATOM     20  C   UNL A   1      33.212  18.288  25.964  1.00  0.00     0.024 A 
ATOM     21  C   UNL A   1      32.771  18.840  23.650  1.00  0.00     0.024 A 
ATOM     22  C   UNL A   1      32.971  19.616  26.313  1.00  0.00     0.030 A 
ATOM     23  C   UNL A   1      32.480  20.172  24.008  1.00  0.00     0.030 A 
BRANCH  19  24
ATOM     24  S   UNL A   1      33.487  16.219  24.214  1.00  0.00     0.238 S 
ATOM     25  O   UNL A   1      33.925  16.134  22.834  1.00  0.00    -0.207 OA
ATOM     26  O   UNL A   1      32.449  15.382  24.751  1.00  0.00    -0.207 OA
BRANCH  24  27
ATOM     27  N   UNL A   1      34.838  15.832  25.133  1.00  0.00    -0.225 NA
ATOM     28  H   UNL A   1      35.278  16.688  25.469  1.00  0.00     0.137 HD
ATOM     29  H   UNL A   1      35.503  15.312  24.559  1.00  0.00     0.137 HD
ENDBRANCH  24  27
ENDBRANCH  19  24
ENDBRANCH  14  18
BRANCH  16  30
ATOM     30  C   UNL A   1      34.869  22.765  25.752  1.00  0.00     0.000 A 
ATOM     31  C   UNL A   1      35.505  24.010  25.668  1.00  0.00     0.010 A 
ATOM     32  C   UNL A   1      35.619  21.593  25.660  1.00  0.00     0.010 A 
ATOM     33  C   UNL A   1      36.889  24.076  25.583  1.00  0.00     0.001 A 
ATOM     34  C   UNL A   1      37.003  21.662  25.527  1.00  0.00     0.001 A 
ATOM     35  C   UNL A   1      37.640  22.901  25.519  1.00  0.00     0.000 A 
ENDBRANCH  16  30
ENDBRANCH  10  13
ENDBRANCH   8   9
ENDBRANCH   7   8
ENDBRANCH   6   7
ENDBRANCH   3   6
ENDBRANCH   1   2
BRANCH   1  36
ATOM     36  C   UNL A   1      35.145  31.399  29.016  1.00  0.00     0.021 C 
BRANCH  36  37
ATOM     37  C   UNL A   1      35.779  32.789  28.955  1.00  0.00     0.002 C 
BRANCH  37  38
ATOM     38  C   UNL A   1      34.928  33.859  28.255  1.00  0.00     0.002 C 
BRANCH  38  39
ATOM     39  C   UNL A   1      34.415  35.006  29.141  1.00  0.00     0.021 C 
BRANCH  39  40
ATOM     40  C   UNL A   1      33.889  34.539  30.486  1.00  0.00     0.116 C 
BRANCH  40  41
ATOM     41  N   UNL A   1      34.139  35.504  31.559  1.00  0.00    -0.352 N 
ATOM     42  C   UNL A   1      34.930  35.346  32.682  1.00  0.00     0.251 C 
ATOM     43  H   UNL A   1      33.688  36.375  31.469  1.00  0.00     0.163 HD
ATOM     44  O   UNL A   1      34.796  36.068  33.662  1.00  0.00    -0.269 OA
BRANCH  42  45
ATOM     45  C   UNL A   1      35.960  34.294  32.663  1.00  0.00     0.039 A 
ATOM     46  C   UNL A   1      35.653  32.938  32.787  1.00  0.00     0.014 A 
ATOM     47  C   UNL A   1      37.275  34.705  32.473  1.00  0.00     0.014 A 
ATOM     48  C   UNL A   1      36.686  32.009  32.657  1.00  0.00     0.010 A 
ATOM     49  C   UNL A   1      38.228  33.793  32.117  1.00  0.00     0.010 A 
ATOM     50  C   UNL A   1      37.977  32.447  32.305  1.00  0.00    -0.014 A 
BRANCH  50  51
ATOM     51  C   UNL A   1      39.069  31.512  32.031  1.00  0.00     0.031 A 
ATOM     52  C   UNL A   1      39.830  31.125  33.255  1.00  0.00     0.074 A 
ATOM     53  C   UNL A   1      39.269  30.942  30.814  1.00  0.00     0.049 A 
ATOM     54  N   UNL A   1      41.075  31.336  33.514  1.00  0.00    -0.248 NA
ATOM     55  C   UNL A   1      39.079  30.575  34.395  1.00  0.00     0.031 C 
ATOM     56  C   UNL A   1      38.435  31.010  29.604  1.00  0.00     0.029 A 
ATOM     57  N   UNL A   1      40.284  30.125  30.409  1.00  0.00    -0.354 N 
ATOM     58  C   UNL A   1      41.316  30.836  34.797  1.00  0.00     0.074 A 
ATOM     59  C   UNL A   1      40.028  30.482  35.327  1.00  0.00     0.031 C 
ATOM     60  C   UNL A   1      38.873  30.121  28.679  1.00  0.00     0.029 A 
ATOM     61  C   UNL A   1      40.124  29.552  29.142  1.00  0.00     0.049 A 
ATOM     62  H   UNL A   1      41.074  29.950  30.970  1.00  0.00     0.167 HD
ATOM     63  C   UNL A   1      42.591  30.646  35.249  1.00  0.00     0.037 A 
ATOM     64  C   UNL A   1      40.981  28.707  28.504  1.00  0.00     0.037 A 
ATOM     65  C   UNL A   1      43.512  31.388  34.416  1.00  0.00     0.049 A 
ATOM     66  C   UNL A   1      42.284  28.830  29.176  1.00  0.00     0.074 A 
ATOM     67  C   UNL A   1      43.824  32.723  34.267  1.00  0.00     0.029 A 
ATOM     68  N   UNL A   1      44.005  30.752  33.300  1.00  0.00    -0.354 N 
ATOM     69  N   UNL A   1      43.040  29.885  29.105  1.00  0.00    -0.248 NA
ATOM     70  C   UNL A   1      42.498  27.971  30.324  1.00  0.00     0.031 C 
ATOM     71  C   UNL A   1      44.103  32.892  32.879  1.00  0.00     0.029 A 
ATOM     72  C   UNL A   1      44.019  31.646  32.256  1.00  0.00     0.049 A 
ATOM     73  H   UNL A   1      44.298  29.813  33.256  1.00  0.00     0.167 HD
ATOM     74  C   UNL A   1      43.523  30.051  30.395  1.00  0.00     0.074 A 
ATOM     75  C   UNL A   1      43.212  28.806  31.082  1.00  0.00     0.031 C 
ATOM     76  C   UNL A   1      43.860  31.283  30.866  1.00  0.00     0.037 A 
BRANCH  63  77
ATOM     77  C   UNL A   1      43.053  29.564  36.210  1.00  0.00     0.057 A 
ATOM     78  C   UNL A   1      44.086  29.874  37.125  1.00  0.00     0.134 A 
ATOM     79  C   UNL A   1      42.770  28.187  36.108  1.00  0.00     0.134 A 
ATOM     80  F   UNL A   1      44.430  31.145  37.382  1.00  0.00    -0.206 F 
ATOM     81  C   UNL A   1      44.868  28.894  37.754  1.00  0.00     0.040 A 
ATOM     82  C   UNL A   1      43.522  27.201  36.764  1.00  0.00     0.040 A 
ATOM     83  F   UNL A   1      41.834  27.696  35.292  1.00  0.00    -0.206 F 
ATOM     84  C   UNL A   1      44.608  27.550  37.548  1.00  0.00     0.006 A 
ENDBRANCH  63  77
BRANCH  64  85
ATOM     85  C   UNL A   1      40.692  27.527  27.655  1.00  0.00     0.057 A 
ATOM     86  C   UNL A   1      41.343  27.245  26.449  1.00  0.00     0.134 A 
ATOM     87  C   UNL A   1      39.987  26.459  28.217  1.00  0.00     0.134 A 
ATOM     88  F   UNL A   1      42.192  28.134  25.916  1.00  0.00    -0.206 F 
ATOM     89  C   UNL A   1      41.209  26.006  25.795  1.00  0.00     0.040 A 
ATOM     90  C   UNL A   1      39.820  25.227  27.569  1.00  0.00     0.040 A 
ATOM     91  F   UNL A   1      39.576  26.554  29.488  1.00  0.00    -0.206 F 
ATOM     92  C   UNL A   1      40.419  25.000  26.341  1.00  0.00     0.006 A 
ENDBRANCH  64  85
BRANCH  76  93
ATOM     93  C   UNL A   1      43.878  32.389  29.848  1.00  0.00     0.057 A 
ATOM     94  C   UNL A   1      42.798  33.255  29.603  1.00  0.00     0.134 A 
ATOM     95  C   UNL A   1      45.060  32.637  29.149  1.00  0.00     0.134 A 
ATOM     96  F   UNL A   1      41.649  33.134  30.277  1.00  0.00    -0.206 F 
ATOM     97  C   UNL A   1      42.885  34.299  28.677  1.00  0.00     0.040 A 
ATOM     98  C   UNL A   1      45.170  33.694  28.243  1.00  0.00     0.040 A 
ATOM     99  F   UNL A   1      46.141  31.872  29.362  1.00  0.00    -0.206 F 
ATOM    100  C   UNL A   1      44.078  34.524  27.998  1.00  0.00     0.006 A 
ENDBRANCH  76  93
ENDBRANCH  50  51
ENDBRANCH  42  45
ENDBRANCH  40  41
ENDBRANCH  39  40
ENDBRANCH  38  39
ENDBRANCH  37  38
ENDBRANCH  36  37
ENDBRANCH   1  36
TORSDOF 21
ENDMDL
MODEL 3
REMARK VINA RESULT:     -10.5      3.956      6.772
REMARK SMILES NS(=O)(=O)c1ccc(-n2nc(C(=O)NCCCC(=O)NCCCCCCNC(=O)c3ccc(-c4c5nc(c(-c6c(F)cccc6F)c6ccc([nH]6)c(-c6c(F)cccc6F)c6nc(c(-c7c(F)cccc7F)c7ccc4[nH]7)C=C6)C=C5)cc3)cc2-c2ccccc2)cc1
REMARK SMILES IDX 21 1 20 2 18 3 19 4 17 6 16 7 15 8 14 9 12 10 13 11 11 13
REMARK SMILES IDX 9 14 10 15 85 16 84 17 8 18 5 19 6 20 93 21 7 22 92 23 2 24
REMARK SMILES IDX 3 25 4 26 1 27 86 30 87 31 91 32 88 33 90 34 89 35 22 36
REMARK SMILES IDX 23 37 24 38 25 39 26 40 27 41 28 42 29 44 30 45 31 46 83 47
REMARK SMILES IDX 32 48 82 49 33 50 34 51 35 52 76 53 36 54 81 55 75 56 77 57
REMARK SMILES IDX 37 58 80 59 74 60 73 61 38 63 64 64 47 65 63 66 48 67 51 68
REMARK SMILES IDX 62 69 78 70 49 71 50 72 61 74 79 75 52 76 39 77 40 78 45 79
REMARK SMILES IDX 41 80 42 81 44 82 46 83 43 84 65 85 66 86 71 87 67 88 68 89
REMARK SMILES IDX 70 90 72 91 69 92 53 93 54 94 59 95 55 96 56 97 58 98 60 99
REMARK SMILES IDX 57 100
REMARK H PARENT 20 5 14 12 1 28 1 29 27 43 77 62 51 73
REMARK Flexibility Score: inf
ROOT
ATOM      1  C   UNL A   1      39.675  28.561  27.715  1.00  0.00     0.116 C 
ENDROOT
BRANCH   1   2
ATOM      2  N   UNL A   1      40.377  28.904  26.498  1.00  0.00    -0.356 N 
ATOM      3  C   UNL A   1      41.538  28.409  25.994  1.00  0.00     0.220 C 
ATOM      4  O   UNL A   1      42.022  28.949  25.000  1.00  0.00    -0.275 OA
ATOM      5  H   UNL A   1      39.948  29.602  25.950  1.00  0.00     0.163 HD
BRANCH   3   6
ATOM      6  C   UNL A   1      42.198  27.197  26.628  1.00  0.00     0.102 C 
BRANCH   6   7
ATOM      7  C   UNL A   1      43.707  27.076  26.388  1.00  0.00     0.031 C 
BRANCH   7   8
ATOM      8  C   UNL A   1      44.379  25.784  26.867  1.00  0.00     0.116 C 
BRANCH   8   9
ATOM      9  N   UNL A   1      44.472  25.638  28.318  1.00  0.00    -0.351 N 
ATOM     10  C   UNL A   1      43.747  24.836  29.196  1.00  0.00     0.271 C 
ATOM     11  O   UNL A   1      43.992  24.948  30.397  1.00  0.00    -0.267 OA
ATOM     12  H   UNL A   1      45.159  26.197  28.745  1.00  0.00     0.163 HD
BRANCH  10  13
ATOM     13  C   UNL A   1      42.750  23.884  28.668  1.00  0.00     0.151 A 
ATOM     14  N   UNL A   1      41.114  23.065  27.532  1.00  0.00    -0.232 N 
ATOM     15  N   UNL A   1      41.657  24.246  27.949  1.00  0.00    -0.162 NA
ATOM     16  C   UNL A   1      41.976  22.016  27.806  1.00  0.00     0.075 A 
ATOM     17  C   UNL A   1      42.823  22.479  28.781  1.00  0.00     0.065 A 
BRANCH  14  18
ATOM     18  C   UNL A   1      39.878  22.943  26.828  1.00  0.00     0.065 A 
ATOM     19  C   UNL A   1      37.331  22.755  25.662  1.00  0.00     0.082 A 
ATOM     20  C   UNL A   1      37.736  23.952  26.244  1.00  0.00     0.024 A 
ATOM     21  C   UNL A   1      38.218  21.669  25.606  1.00  0.00     0.024 A 
ATOM     22  C   UNL A   1      38.992  24.036  26.841  1.00  0.00     0.030 A 
ATOM     23  C   UNL A   1      39.506  21.768  26.167  1.00  0.00     0.030 A 
BRANCH  19  24
ATOM     24  S   UNL A   1      35.720  22.673  24.932  1.00  0.00     0.238 S 
ATOM     25  O   UNL A   1      34.848  21.870  25.767  1.00  0.00    -0.207 OA
ATOM     26  O   UNL A   1      35.848  22.461  23.515  1.00  0.00    -0.207 OA
BRANCH  24  27
ATOM     27  N   UNL A   1      35.133  24.241  25.057  1.00  0.00    -0.225 NA
ATOM     28  H   UNL A   1      35.877  24.902  24.833  1.00  0.00     0.137 HD
ATOM     29  H   UNL A   1      34.806  24.407  26.008  1.00  0.00     0.137 HD
ENDBRANCH  24  27
ENDBRANCH  19  24
ENDBRANCH  14  18
BRANCH  16  30
ATOM     30  C   UNL A   1      42.315  20.926  26.898  1.00  0.00     0.000 A 
ATOM     31  C   UNL A   1      43.215  21.189  25.857  1.00  0.00     0.010 A 
ATOM     32  C   UNL A   1      42.002  19.608  27.231  1.00  0.00     0.010 A 
ATOM     33  C   UNL A   1      43.861  20.139  25.219  1.00  0.00     0.001 A 
ATOM     34  C   UNL A   1      42.616  18.557  26.557  1.00  0.00     0.001 A 
ATOM     35  C   UNL A   1      43.566  18.822  25.573  1.00  0.00     0.000 A 
ENDBRANCH  16  30
ENDBRANCH  10  13
ENDBRANCH   8   9
ENDBRANCH   7   8
ENDBRANCH   6   7
ENDBRANCH   3   6
ENDBRANCH   1   2
BRANCH   1  36
ATOM     36  C   UNL A   1      38.939  29.784  28.264  1.00  0.00     0.021 C 
BRANCH  36  37
ATOM     37  C   UNL A   1      37.527  29.488  28.769  1.00  0.00     0.002 C 
BRANCH  37  38
ATOM     38  C   UNL A   1      36.427  29.555  27.698  1.00  0.00     0.002 C 
BRANCH  38  39
ATOM     39  C   UNL A   1      35.738  30.916  27.517  1.00  0.00     0.021 C 
BRANCH  39  40
ATOM     40  C   UNL A   1      34.324  30.954  28.070  1.00  0.00     0.116 C 
BRANCH  40  41
ATOM     41  N   UNL A   1      33.919  32.295  28.498  1.00  0.00    -0.352 N 
ATOM     42  C   UNL A   1      34.418  33.042  29.550  1.00  0.00     0.251 C 
ATOM     43  H   UNL A   1      33.202  32.718  27.971  1.00  0.00     0.163 HD
ATOM     44  O   UNL A   1      33.786  33.980  30.020  1.00  0.00    -0.269 OA
BRANCH  42  45
ATOM     45  C   UNL A   1      35.746  32.693  30.080  1.00  0.00     0.039 A 
ATOM     46  C   UNL A   1      36.927  33.226  29.562  1.00  0.00     0.014 A 
ATOM     47  C   UNL A   1      35.781  31.824  31.165  1.00  0.00     0.014 A 
ATOM     48  C   UNL A   1      38.131  32.913  30.195  1.00  0.00     0.010 A 
ATOM     49  C   UNL A   1      36.920  31.712  31.911  1.00  0.00     0.010 A 
ATOM     50  C   UNL A   1      38.117  32.161  31.386  1.00  0.00    -0.014 A 
BRANCH  50  51
ATOM     51  C   UNL A   1      39.332  31.909  32.161  1.00  0.00     0.031 A 
ATOM     52  C   UNL A   1      39.852  33.128  32.847  1.00  0.00     0.074 A 
ATOM     53  C   UNL A   1      39.842  30.666  32.357  1.00  0.00     0.049 A 
ATOM     54  N   UNL A   1      40.986  33.716  32.668  1.00  0.00    -0.248 NA
ATOM     55  C   UNL A   1      38.938  33.875  33.726  1.00  0.00     0.031 C 
ATOM     56  C   UNL A   1      39.281  29.358  31.984  1.00  0.00     0.029 A 
ATOM     57  N   UNL A   1      40.999  30.305  32.986  1.00  0.00    -0.354 N 
ATOM     58  C   UNL A   1      41.000  34.840  33.499  1.00  0.00     0.074 A 
ATOM     59  C   UNL A   1      39.672  34.943  34.039  1.00  0.00     0.031 C 
ATOM     60  C   UNL A   1      39.994  28.358  32.558  1.00  0.00     0.029 A 
ATOM     61  C   UNL A   1      41.170  28.930  33.184  1.00  0.00     0.049 A 
ATOM     62  H   UNL A   1      41.666  30.966  33.280  1.00  0.00     0.167 HD
ATOM     63  C   UNL A   1      42.162  35.507  33.758  1.00  0.00     0.037 A 
ATOM     64  C   UNL A   1      42.225  28.308  33.781  1.00  0.00     0.037 A 
ATOM     65  C   UNL A   1      43.158  35.139  32.775  1.00  0.00     0.049 A 
ATOM     66  C   UNL A   1      43.337  29.272  33.800  1.00  0.00     0.074 A 
ATOM     67  C   UNL A   1      43.356  35.426  31.441  1.00  0.00     0.029 A 
ATOM     68  N   UNL A   1      43.939  34.040  33.051  1.00  0.00    -0.354 N 
ATOM     69  N   UNL A   1      43.978  29.660  32.738  1.00  0.00    -0.248 NA
ATOM     70  C   UNL A   1      43.389  30.167  34.939  1.00  0.00     0.031 C 
ATOM     71  C   UNL A   1      43.904  34.236  30.877  1.00  0.00     0.029 A 
ATOM     72  C   UNL A   1      44.081  33.303  31.899  1.00  0.00     0.049 A 
ATOM     73  H   UNL A   1      44.329  33.818  33.927  1.00  0.00     0.167 HD
ATOM     74  C   UNL A   1      44.157  31.023  32.923  1.00  0.00     0.074 A 
ATOM     75  C   UNL A   1      43.837  31.263  34.323  1.00  0.00     0.031 C 
ATOM     76  C   UNL A   1      44.259  31.869  31.861  1.00  0.00     0.037 A 
BRANCH  63  77
ATOM     77  C   UNL A   1      42.519  36.227  35.048  1.00  0.00     0.057 A 
ATOM     78  C   UNL A   1      43.109  37.509  34.962  1.00  0.00     0.134 A 
ATOM     79  C   UNL A   1      42.596  35.644  36.329  1.00  0.00     0.134 A 
ATOM     80  F   UNL A   1      43.062  38.222  33.825  1.00  0.00    -0.206 F 
ATOM     81  C   UNL A   1      43.844  38.084  36.008  1.00  0.00     0.040 A 
ATOM     82  C   UNL A   1      43.296  36.230  37.395  1.00  0.00     0.040 A 
ATOM     83  F   UNL A   1      42.103  34.435  36.608  1.00  0.00    -0.206 F 
ATOM     84  C   UNL A   1      43.967  37.428  37.222  1.00  0.00     0.006 A 
ENDBRANCH  63  77
BRANCH  64  85
ATOM     85  C   UNL A   1      42.245  27.133  34.684  1.00  0.00     0.057 A 
ATOM     86  C   UNL A   1      43.061  26.011  34.500  1.00  0.00     0.134 A 
ATOM     87  C   UNL A   1      41.687  27.264  35.959  1.00  0.00     0.134 A 
ATOM     88  F   UNL A   1      43.788  25.881  33.382  1.00  0.00    -0.206 F 
ATOM     89  C   UNL A   1      43.223  25.028  35.496  1.00  0.00     0.040 A 
ATOM     90  C   UNL A   1      41.815  26.284  36.953  1.00  0.00     0.040 A 
ATOM     91  F   UNL A   1      41.133  28.432  36.304  1.00  0.00    -0.206 F 
ATOM     92  C   UNL A   1      42.572  25.149  36.719  1.00  0.00     0.006 A 
ENDBRANCH  64  85
BRANCH  76  93
ATOM     93  C   UNL A   1      44.378  31.214  30.514  1.00  0.00     0.057 A 
ATOM     94  C   UNL A   1      43.288  30.930  29.674  1.00  0.00     0.134 A 
ATOM     95  C   UNL A   1      45.652  30.937  30.015  1.00  0.00     0.134 A 
ATOM     96  F   UNL A   1      42.036  31.226  30.043  1.00  0.00    -0.206 F 
ATOM     97  C   UNL A   1      43.459  30.363  28.408  1.00  0.00     0.040 A 
ATOM     98  C   UNL A   1      45.839  30.397  28.741  1.00  0.00     0.040 A 
ATOM     99  F   UNL A   1      46.738  31.218  30.749  1.00  0.00    -0.206 F 
ATOM    100  C   UNL A   1      44.741  30.100  27.936  1.00  0.00     0.006 A 
ENDBRANCH  76  93
ENDBRANCH  50  51
ENDBRANCH  42  45
ENDBRANCH  40  41
ENDBRANCH  39  40
ENDBRANCH  38  39
ENDBRANCH  37  38
ENDBRANCH  36  37
ENDBRANCH   1  36
TORSDOF 21
ENDMDL
