MODEL 1
REMARK VINA RESULT:     -10.3      0.000      0.000
REMARK SMILES CC(C)C[C@H](NC(=O)[C@@H](NC(=O)[C@H](C)NC(=O)CNC(=O)OCc1ccccc1)C(C)C)C(=O)NCCCCCCNC(=O)c1ccc(-c2c3nc(c(-c4c(F)cccc4F)c4ccc([nH]4)c(-c4c(F)cccc4F)c4nc(c(-c5c(F)cccc5F)c5ccc2[nH]5)C=C4)C=C3)cc1
REMARK SMILES IDX 33 1 34 2 35 3 5 5 4 6 2 7 1 8 3 9 6 10 7 11 8 13 9 14 10 15
REMARK SMILES IDX 11 16 12 18 13 19 14 20 15 21 16 22 17 24 18 25 19 26 20 27
REMARK SMILES IDX 21 29 22 30 23 31 24 32 25 33 29 34 26 35 28 36 27 37 30 38
REMARK SMILES IDX 31 39 32 40 36 41 37 42 38 43 39 44 40 45 41 46 42 47 43 48
REMARK SMILES IDX 44 50 45 51 46 52 98 53 47 54 97 55 48 56 49 57 50 58 91 59
REMARK SMILES IDX 51 60 96 61 90 62 92 63 52 64 95 65 89 66 88 67 53 69 79 70
REMARK SMILES IDX 62 71 78 72 63 73 66 74 77 75 93 76 64 77 65 78 76 80 94 81
REMARK SMILES IDX 67 82 54 83 55 84 60 85 56 86 57 87 59 88 61 89 58 90 80 91
REMARK SMILES IDX 81 92 86 93 82 94 83 95 85 96 87 97 84 98 68 99 69 100
REMARK SMILES IDX 74 101 70 102 71 103 73 104 75 105 72 106
REMARK H PARENT 35 4 6 12 10 17 15 23 19 28 42 49 92 68 66 79
REMARK Flexibility Score: inf
ROOT
ATOM      1  C   UNL A   1      31.900  27.834  27.291  1.00  0.00     0.242 C 
ATOM      2  O   UNL A   1      30.905  28.046  27.992  1.00  0.00    -0.273 OA
ATOM      3  N   UNL A   1      33.043  28.496  27.633  1.00  0.00    -0.354 N 
ATOM      4  H   UNL A   1      32.969  28.859  28.545  1.00  0.00     0.163 HD
ENDROOT
BRANCH   1   5
ATOM      5  C   UNL A   1      31.849  26.794  26.184  1.00  0.00     0.171 C 
BRANCH   5   6
ATOM      6  C   UNL A   1      30.815  27.065  25.054  1.00  0.00     0.038 C 
BRANCH   6   7
ATOM      7  C   UNL A   1      31.232  28.125  24.004  1.00  0.00    -0.015 C 
ATOM      8  C   UNL A   1      32.749  28.261  23.824  1.00  0.00     0.007 C 
ATOM      9  C   UNL A   1      30.438  28.116  22.705  1.00  0.00     0.007 C 
ENDBRANCH   6   7
ENDBRANCH   5   6
BRANCH   5  10
ATOM     10  N   UNL A   1      32.101  25.415  26.588  1.00  0.00    -0.343 N 
ATOM     11  C   UNL A   1      32.772  24.392  25.994  1.00  0.00     0.243 C 
ATOM     12  H   UNL A   1      31.711  25.179  27.459  1.00  0.00     0.164 HD
ATOM     13  O   UNL A   1      32.638  23.271  26.497  1.00  0.00    -0.273 OA
BRANCH  11  14
ATOM     14  C   UNL A   1      33.804  24.613  24.863  1.00  0.00     0.174 C 
BRANCH  14  15
ATOM     15  N   UNL A   1      35.459  24.398  25.395  1.00  0.00    -0.342 N 
ATOM     16  C   UNL A   1      36.734  23.732  25.564  1.00  0.00     0.242 C 
ATOM     17  H   UNL A   1      35.622  25.248  25.866  1.00  0.00     0.164 HD
ATOM     18  O   UNL A   1      37.514  24.444  26.239  1.00  0.00    -0.273 OA
BRANCH  16  19
ATOM     19  C   UNL A   1      37.515  22.126  25.065  1.00  0.00     0.168 C 
ATOM     20  C   UNL A   1      36.604  20.910  25.347  1.00  0.00     0.041 C 
BRANCH  19  21
ATOM     21  N   UNL A   1      38.905  21.526  25.416  1.00  0.00    -0.343 N 
ATOM     22  C   UNL A   1      39.876  21.499  26.385  1.00  0.00     0.240 C 
ATOM     23  H   UNL A   1      39.195  20.954  24.668  1.00  0.00     0.164 HD
ATOM     24  O   UNL A   1      40.664  20.537  26.336  1.00  0.00    -0.273 OA
BRANCH  22  25
ATOM     25  C   UNL A   1      40.218  22.624  27.336  1.00  0.00     0.219 C 
BRANCH  25  26
ATOM     26  N   UNL A   1      41.422  23.096  26.682  1.00  0.00    -0.312 N 
ATOM     27  C   UNL A   1      41.876  24.321  27.001  1.00  0.00     0.407 C 
ATOM     28  H   UNL A   1      41.894  22.536  26.024  1.00  0.00     0.167 HD
ATOM     29  O   UNL A   1      42.490  25.045  26.192  1.00  0.00    -0.225 OA
BRANCH  27  30
ATOM     30  O   UNL A   1      41.598  24.604  28.282  1.00  0.00    -0.445 OA
BRANCH  30  31
ATOM     31  C   UNL A   1      42.213  25.749  28.858  1.00  0.00     0.270 C 
BRANCH  31  32
ATOM     32  C   UNL A   1      41.357  26.978  28.742  1.00  0.00    -0.011 A 
ATOM     33  C   UNL A   1      41.857  28.209  28.285  1.00  0.00     0.007 A 
ATOM     34  C   UNL A   1      39.994  26.846  29.008  1.00  0.00     0.007 A 
ATOM     35  C   UNL A   1      40.987  29.244  27.970  1.00  0.00     0.000 A 
ATOM     36  C   UNL A   1      39.129  27.897  28.731  1.00  0.00     0.000 A 
ATOM     37  C   UNL A   1      39.621  29.082  28.185  1.00  0.00     0.000 A 
ENDBRANCH  31  32
ENDBRANCH  30  31
ENDBRANCH  27  30
ENDBRANCH  25  26
ENDBRANCH  22  25
ENDBRANCH  19  21
ENDBRANCH  16  19
ENDBRANCH  14  15
BRANCH  14  38
ATOM     38  C   UNL A   1      32.775  24.210  23.458  1.00  0.00     0.015 C 
ATOM     39  C   UNL A   1      33.237  24.995  22.211  1.00  0.00     0.010 C 
ATOM     40  C   UNL A   1      32.340  22.846  22.794  1.00  0.00     0.010 C 
ENDBRANCH  14  38
ENDBRANCH  11  14
ENDBRANCH   5  10
ENDBRANCH   1   5
BRANCH   3  41
ATOM     41  C   UNL A   1      34.394  28.843  27.033  1.00  0.00     0.116 C 
BRANCH  41  42
ATOM     42  C   UNL A   1      35.748  29.782  27.632  1.00  0.00     0.021 C 
BRANCH  42  43
ATOM     43  C   UNL A   1      36.301  30.384  28.966  1.00  0.00     0.002 C 
BRANCH  43  44
ATOM     44  C   UNL A   1      36.220  31.918  29.044  1.00  0.00     0.002 C 
BRANCH  44  45
ATOM     45  C   UNL A   1      35.624  32.452  30.351  1.00  0.00     0.021 C 
BRANCH  45  46
ATOM     46  C   UNL A   1      36.528  33.432  31.092  1.00  0.00     0.116 C 
BRANCH  46  47
ATOM     47  N   UNL A   1      36.354  33.308  32.529  1.00  0.00    -0.352 N 
ATOM     48  C   UNL A   1      37.016  32.451  33.375  1.00  0.00     0.251 C 
ATOM     49  H   UNL A   1      35.687  33.903  32.942  1.00  0.00     0.163 HD
ATOM     50  O   UNL A   1      36.549  32.164  34.472  1.00  0.00    -0.269 OA
BRANCH  48  51
ATOM     51  C   UNL A   1      38.306  31.877  32.941  1.00  0.00     0.039 A 
ATOM     52  C   UNL A   1      38.326  30.865  31.981  1.00  0.00     0.014 A 
ATOM     53  C   UNL A   1      39.498  32.344  33.503  1.00  0.00     0.014 A 
ATOM     54  C   UNL A   1      39.552  30.340  31.564  1.00  0.00     0.010 A 
ATOM     55  C   UNL A   1      40.716  31.892  33.016  1.00  0.00     0.010 A 
ATOM     56  C   UNL A   1      40.758  30.861  32.066  1.00  0.00    -0.014 A 
BRANCH  56  57
ATOM     57  C   UNL A   1      42.072  30.301  31.663  1.00  0.00     0.031 A 
ATOM     58  C   UNL A   1      42.881  30.998  30.599  1.00  0.00     0.074 A 
ATOM     59  C   UNL A   1      42.508  29.147  32.202  1.00  0.00     0.049 A 
ATOM     60  N   UNL A   1      44.015  30.639  30.053  1.00  0.00    -0.248 NA
ATOM     61  C   UNL A   1      42.324  32.246  30.051  1.00  0.00     0.031 C 
ATOM     62  C   UNL A   1      41.790  28.354  33.202  1.00  0.00     0.029 A 
ATOM     63  N   UNL A   1      43.658  28.434  31.977  1.00  0.00    -0.354 N 
ATOM     64  C   UNL A   1      44.288  31.599  29.086  1.00  0.00     0.074 A 
ATOM     65  C   UNL A   1      43.176  32.521  29.075  1.00  0.00     0.031 C 
ATOM     66  C   UNL A   1      42.530  27.280  33.525  1.00  0.00     0.029 A 
ATOM     67  C   UNL A   1      43.751  27.286  32.727  1.00  0.00     0.049 A 
ATOM     68  H   UNL A   1      44.351  28.718  31.339  1.00  0.00     0.167 HD
ATOM     69  C   UNL A   1      45.381  31.717  28.295  1.00  0.00     0.037 A 
ATOM     70  C   UNL A   1      44.714  26.345  32.760  1.00  0.00     0.037 A 
ATOM     71  C   UNL A   1      46.503  30.820  28.342  1.00  0.00     0.049 A 
ATOM     72  C   UNL A   1      45.922  26.504  31.877  1.00  0.00     0.074 A 
ATOM     73  C   UNL A   1      47.696  30.895  27.643  1.00  0.00     0.029 A 
ATOM     74  N   UNL A   1      46.572  29.683  29.133  1.00  0.00    -0.354 N 
ATOM     75  N   UNL A   1      46.204  27.462  31.026  1.00  0.00    -0.248 NA
ATOM     76  C   UNL A   1      46.948  25.455  31.963  1.00  0.00     0.031 C 
ATOM     77  C   UNL A   1      48.463  29.772  27.970  1.00  0.00     0.029 A 
ATOM     78  C   UNL A   1      47.773  29.031  28.917  1.00  0.00     0.049 A 
ATOM     79  H   UNL A   1      45.870  29.384  29.755  1.00  0.00     0.167 HD
ATOM     80  C   UNL A   1      47.453  27.149  30.502  1.00  0.00     0.074 A 
ATOM     81  C   UNL A   1      47.878  25.922  31.143  1.00  0.00     0.031 C 
ATOM     82  C   UNL A   1      48.183  27.816  29.575  1.00  0.00     0.037 A 
BRANCH  69  83
ATOM     83  C   UNL A   1      45.416  32.855  27.315  1.00  0.00     0.057 A 
ATOM     84  C   UNL A   1      44.644  32.855  26.145  1.00  0.00     0.134 A 
ATOM     85  C   UNL A   1      46.204  33.986  27.565  1.00  0.00     0.134 A 
ATOM     86  F   UNL A   1      43.876  31.799  25.837  1.00  0.00    -0.206 F 
ATOM     87  C   UNL A   1      44.676  33.924  25.247  1.00  0.00     0.040 A 
ATOM     88  C   UNL A   1      46.221  35.075  26.692  1.00  0.00     0.040 A 
ATOM     89  F   UNL A   1      46.965  34.056  28.669  1.00  0.00    -0.206 F 
ATOM     90  C   UNL A   1      45.460  35.043  25.525  1.00  0.00     0.006 A 
ENDBRANCH  69  83
BRANCH  70  91
ATOM     91  C   UNL A   1      44.590  25.177  33.672  1.00  0.00     0.057 A 
ATOM     92  C   UNL A   1      44.186  23.924  33.192  1.00  0.00     0.134 A 
ATOM     93  C   UNL A   1      44.849  25.285  35.043  1.00  0.00     0.134 A 
ATOM     94  F   UNL A   1      43.905  23.758  31.891  1.00  0.00    -0.206 F 
ATOM     95  C   UNL A   1      44.014  22.833  34.045  1.00  0.00     0.040 A 
ATOM     96  C   UNL A   1      44.711  24.195  35.904  1.00  0.00     0.040 A 
ATOM     97  F   UNL A   1      45.249  26.454  35.566  1.00  0.00    -0.206 F 
ATOM     98  C   UNL A   1      44.282  22.966  35.407  1.00  0.00     0.006 A 
ENDBRANCH  70  91
BRANCH  82  99
ATOM     99  C   UNL A   1      49.532  27.257  29.228  1.00  0.00     0.057 A 
ATOM    100  C   UNL A   1      49.712  26.350  28.177  1.00  0.00     0.134 A 
ATOM    101  C   UNL A   1      50.672  27.668  29.931  1.00  0.00     0.134 A 
ATOM    102  F   UNL A   1      48.659  25.908  27.471  1.00  0.00    -0.206 F 
ATOM    103  C   UNL A   1      50.975  25.852  27.853  1.00  0.00     0.040 A 
ATOM    104  C   UNL A   1      51.943  27.201  29.597  1.00  0.00     0.040 A 
ATOM    105  F   UNL A   1      50.571  28.544  30.942  1.00  0.00    -0.206 F 
ATOM    106  C   UNL A   1      52.097  26.284  28.560  1.00  0.00     0.006 A 
ENDBRANCH  82  99
ENDBRANCH  56  57
ENDBRANCH  48  51
ENDBRANCH  46  47
ENDBRANCH  45  46
ENDBRANCH  44  45
ENDBRANCH  43  44
ENDBRANCH  42  43
ENDBRANCH  41  42
ENDBRANCH   3  41
TORSDOF 26
ENDMDL
MODEL 2
REMARK VINA RESULT:     -10.2      1.096      5.837
REMARK SMILES CC(C)C[C@H](NC(=O)[C@@H](NC(=O)[C@H](C)NC(=O)CNC(=O)OCc1ccccc1)C(C)C)C(=O)NCCCCCCNC(=O)c1ccc(-c2c3nc(c(-c4c(F)cccc4F)c4ccc([nH]4)c(-c4c(F)cccc4F)c4nc(c(-c5c(F)cccc5F)c5ccc2[nH]5)C=C4)C=C3)cc1
REMARK SMILES IDX 33 1 34 2 35 3 5 5 4 6 2 7 1 8 3 9 6 10 7 11 8 13 9 14 10 15
REMARK SMILES IDX 11 16 12 18 13 19 14 20 15 21 16 22 17 24 18 25 19 26 20 27
REMARK SMILES IDX 21 29 22 30 23 31 24 32 25 33 29 34 26 35 28 36 27 37 30 38
REMARK SMILES IDX 31 39 32 40 36 41 37 42 38 43 39 44 40 45 41 46 42 47 43 48
REMARK SMILES IDX 44 50 45 51 46 52 98 53 47 54 97 55 48 56 49 57 50 58 91 59
REMARK SMILES IDX 51 60 96 61 90 62 92 63 52 64 95 65 89 66 88 67 53 69 79 70
REMARK SMILES IDX 62 71 78 72 63 73 66 74 77 75 93 76 64 77 65 78 76 80 94 81
REMARK SMILES IDX 67 82 54 83 55 84 60 85 56 86 57 87 59 88 61 89 58 90 80 91
REMARK SMILES IDX 81 92 86 93 82 94 83 95 85 96 87 97 84 98 68 99 69 100
REMARK SMILES IDX 74 101 70 102 71 103 73 104 75 105 72 106
REMARK H PARENT 35 4 6 12 10 17 15 23 19 28 42 49 92 68 66 79
REMARK Flexibility Score: inf
ROOT
ATOM      1  C   UNL A   1      32.030  27.846  27.312  1.00  0.00     0.242 C 
ATOM      2  O   UNL A   1      30.962  27.917  27.930  1.00  0.00    -0.273 OA
ATOM      3  N   UNL A   1      33.040  28.659  27.739  1.00  0.00    -0.354 N 
ATOM      4  H   UNL A   1      32.844  29.006  28.639  1.00  0.00     0.163 HD
ENDROOT
BRANCH   1   5
ATOM      5  C   UNL A   1      32.212  26.812  26.214  1.00  0.00     0.171 C 
BRANCH   5   6
ATOM      6  C   UNL A   1      31.385  27.054  24.918  1.00  0.00     0.038 C 
BRANCH   6   7
ATOM      7  C   UNL A   1      31.967  28.102  23.938  1.00  0.00    -0.015 C 
ATOM      8  C   UNL A   1      33.499  28.158  23.923  1.00  0.00     0.007 C 
ATOM      9  C   UNL A   1      31.317  28.151  22.562  1.00  0.00     0.007 C 
ENDBRANCH   6   7
ENDBRANCH   5   6
BRANCH   5  10
ATOM     10  N   UNL A   1      32.437  25.440  26.656  1.00  0.00    -0.343 N 
ATOM     11  C   UNL A   1      33.103  24.393  26.100  1.00  0.00     0.243 C 
ATOM     12  H   UNL A   1      32.028  25.232  27.526  1.00  0.00     0.164 HD
ATOM     13  O   UNL A   1      32.944  23.287  26.628  1.00  0.00    -0.273 OA
BRANCH  11  14
ATOM     14  C   UNL A   1      34.159  24.572  24.983  1.00  0.00     0.174 C 
BRANCH  14  15
ATOM     15  N   UNL A   1      35.800  24.334  25.548  1.00  0.00    -0.342 N 
ATOM     16  C   UNL A   1      37.061  23.649  25.744  1.00  0.00     0.242 C 
ATOM     17  H   UNL A   1      35.968  25.184  26.016  1.00  0.00     0.164 HD
ATOM     18  O   UNL A   1      37.839  24.352  26.430  1.00  0.00    -0.273 OA
BRANCH  16  19
ATOM     19  C   UNL A   1      37.825  22.027  25.270  1.00  0.00     0.168 C 
ATOM     20  C   UNL A   1      36.779  20.899  25.118  1.00  0.00     0.041 C 
BRANCH  19  21
ATOM     21  N   UNL A   1      39.001  21.238  25.911  1.00  0.00    -0.343 N 
ATOM     22  C   UNL A   1      40.151  21.386  26.643  1.00  0.00     0.240 C 
ATOM     23  H   UNL A   1      38.872  20.280  25.723  1.00  0.00     0.164 HD
ATOM     24  O   UNL A   1      40.555  20.365  27.231  1.00  0.00    -0.273 OA
BRANCH  22  25
ATOM     25  C   UNL A   1      41.082  22.577  26.611  1.00  0.00     0.219 C 
BRANCH  25  26
ATOM     26  N   UNL A   1      41.828  22.232  25.417  1.00  0.00    -0.312 N 
ATOM     27  C   UNL A   1      43.124  22.583  25.358  1.00  0.00     0.407 C 
ATOM     28  H   UNL A   1      41.398  21.753  24.672  1.00  0.00     0.167 HD
ATOM     29  O   UNL A   1      43.699  22.862  24.287  1.00  0.00    -0.225 OA
BRANCH  27  30
ATOM     30  O   UNL A   1      43.674  22.551  26.581  1.00  0.00    -0.445 OA
BRANCH  30  31
ATOM     31  C   UNL A   1      44.840  23.332  26.805  1.00  0.00     0.270 C 
BRANCH  31  32
ATOM     32  C   UNL A   1      44.531  24.650  27.457  1.00  0.00    -0.011 A 
ATOM     33  C   UNL A   1      45.014  25.873  26.961  1.00  0.00     0.007 A 
ATOM     34  C   UNL A   1      43.645  24.647  28.536  1.00  0.00     0.007 A 
ATOM     35  C   UNL A   1      44.512  27.072  27.449  1.00  0.00     0.000 A 
ATOM     36  C   UNL A   1      43.176  25.848  29.050  1.00  0.00     0.000 A 
ATOM     37  C   UNL A   1      43.586  27.058  28.488  1.00  0.00     0.000 A 
ENDBRANCH  31  32
ENDBRANCH  30  31
ENDBRANCH  27  30
ENDBRANCH  25  26
ENDBRANCH  22  25
ENDBRANCH  19  21
ENDBRANCH  16  19
ENDBRANCH  14  15
BRANCH  14  38
ATOM     38  C   UNL A   1      33.146  24.162  23.568  1.00  0.00     0.015 C 
ATOM     39  C   UNL A   1      33.619  24.946  22.324  1.00  0.00     0.010 C 
ATOM     40  C   UNL A   1      32.721  22.795  22.903  1.00  0.00     0.010 C 
ENDBRANCH  14  38
ENDBRANCH  11  14
ENDBRANCH   5  10
ENDBRANCH   1   5
BRANCH   3  41
ATOM     41  C   UNL A   1      34.375  29.190  27.245  1.00  0.00     0.116 C 
BRANCH  41  42
ATOM     42  C   UNL A   1      35.675  30.050  28.048  1.00  0.00     0.021 C 
BRANCH  42  43
ATOM     43  C   UNL A   1      36.181  30.398  29.487  1.00  0.00     0.002 C 
BRANCH  43  44
ATOM     44  C   UNL A   1      36.378  31.903  29.736  1.00  0.00     0.002 C 
BRANCH  44  45
ATOM     45  C   UNL A   1      35.799  32.403  31.064  1.00  0.00     0.021 C 
BRANCH  45  46
ATOM     46  C   UNL A   1      36.640  33.479  31.744  1.00  0.00     0.116 C 
BRANCH  46  47
ATOM     47  N   UNL A   1      36.649  33.293  33.184  1.00  0.00    -0.352 N 
ATOM     48  C   UNL A   1      37.417  32.409  33.903  1.00  0.00     0.251 C 
ATOM     49  H   UNL A   1      36.036  33.864  33.703  1.00  0.00     0.163 HD
ATOM     50  O   UNL A   1      37.093  32.072  35.036  1.00  0.00    -0.269 OA
BRANCH  48  51
ATOM     51  C   UNL A   1      38.644  31.866  33.286  1.00  0.00     0.039 A 
ATOM     52  C   UNL A   1      38.561  30.780  32.415  1.00  0.00     0.014 A 
ATOM     53  C   UNL A   1      39.884  32.439  33.587  1.00  0.00     0.014 A 
ATOM     54  C   UNL A   1      39.726  30.285  31.823  1.00  0.00     0.010 A 
ATOM     55  C   UNL A   1      41.024  32.011  32.922  1.00  0.00     0.010 A 
ATOM     56  C   UNL A   1      40.964  30.907  32.059  1.00  0.00    -0.014 A 
BRANCH  56  57
ATOM     57  C   UNL A   1      42.220  30.383  31.467  1.00  0.00     0.031 A 
ATOM     58  C   UNL A   1      42.779  29.070  31.953  1.00  0.00     0.074 A 
ATOM     59  C   UNL A   1      42.886  31.106  30.547  1.00  0.00     0.049 A 
ATOM     60  N   UNL A   1      43.895  28.472  31.622  1.00  0.00    -0.248 NA
ATOM     61  C   UNL A   1      41.997  28.351  32.972  1.00  0.00     0.031 C 
ATOM     62  C   UNL A   1      42.473  32.415  30.035  1.00  0.00     0.029 A 
ATOM     63  N   UNL A   1      44.059  30.847  29.883  1.00  0.00    -0.354 N 
ATOM     64  C   UNL A   1      43.957  27.328  32.409  1.00  0.00     0.074 A 
ATOM     65  C   UNL A   1      42.802  27.344  33.275  1.00  0.00     0.031 C 
ATOM     66  C   UNL A   1      43.361  32.829  29.117  1.00  0.00     0.029 A 
ATOM     67  C   UNL A   1      44.427  31.839  29.006  1.00  0.00     0.049 A 
ATOM     68  H   UNL A   1      44.586  30.028  30.022  1.00  0.00     0.167 HD
ATOM     69  C   UNL A   1      44.881  26.338  32.392  1.00  0.00     0.037 A 
ATOM     70  C   UNL A   1      45.507  31.936  28.207  1.00  0.00     0.037 A 
ATOM     71  C   UNL A   1      46.005  26.307  31.496  1.00  0.00     0.049 A 
ATOM     72  C   UNL A   1      46.514  30.817  28.202  1.00  0.00     0.074 A 
ATOM     73  C   UNL A   1      46.954  25.313  31.339  1.00  0.00     0.029 A 
ATOM     74  N   UNL A   1      46.331  27.318  30.604  1.00  0.00    -0.354 N 
ATOM     75  N   UNL A   1      46.516  29.702  28.892  1.00  0.00    -0.248 NA
ATOM     76  C   UNL A   1      47.666  30.969  27.301  1.00  0.00     0.031 C 
ATOM     77  C   UNL A   1      47.887  25.747  30.392  1.00  0.00     0.029 A 
ATOM     78  C   UNL A   1      47.484  26.984  29.915  1.00  0.00     0.049 A 
ATOM     79  H   UNL A   1      45.818  28.149  30.480  1.00  0.00     0.167 HD
ATOM     80  C   UNL A   1      47.648  29.005  28.485  1.00  0.00     0.074 A 
ATOM     81  C   UNL A   1      48.297  29.817  27.477  1.00  0.00     0.031 C 
ATOM     82  C   UNL A   1      48.108  27.802  28.907  1.00  0.00     0.037 A 
BRANCH  69  83
ATOM     83  C   UNL A   1      44.714  25.208  33.368  1.00  0.00     0.057 A 
ATOM     84  C   UNL A   1      45.031  25.345  34.727  1.00  0.00     0.134 A 
ATOM     85  C   UNL A   1      44.192  23.977  32.950  1.00  0.00     0.134 A 
ATOM     86  F   UNL A   1      45.547  26.492  35.193  1.00  0.00    -0.206 F 
ATOM     87  C   UNL A   1      44.860  24.291  35.627  1.00  0.00     0.040 A 
ATOM     88  C   UNL A   1      43.986  22.927  33.847  1.00  0.00     0.040 A 
ATOM     89  F   UNL A   1      43.861  23.778  31.665  1.00  0.00    -0.206 F 
ATOM     90  C   UNL A   1      44.328  23.080  35.189  1.00  0.00     0.006 A 
ENDBRANCH  69  83
BRANCH  70  91
ATOM     91  C   UNL A   1      45.687  33.123  27.330  1.00  0.00     0.057 A 
ATOM     92  C   UNL A   1      46.573  34.151  27.678  1.00  0.00     0.134 A 
ATOM     93  C   UNL A   1      44.967  33.272  26.139  1.00  0.00     0.134 A 
ATOM     94  F   UNL A   1      47.280  34.077  28.815  1.00  0.00    -0.206 F 
ATOM     95  C   UNL A   1      46.712  35.295  26.891  1.00  0.00     0.040 A 
ATOM     96  C   UNL A   1      45.118  34.397  25.327  1.00  0.00     0.040 A 
ATOM     97  F   UNL A   1      44.109  32.320  25.743  1.00  0.00    -0.206 F 
ATOM     98  C   UNL A   1      45.986  35.419  25.708  1.00  0.00     0.006 A 
ENDBRANCH  70  91
BRANCH  82  99
ATOM     99  C   UNL A   1      49.349  27.272  28.251  1.00  0.00     0.057 A 
ATOM    100  C   UNL A   1      49.302  26.507  27.079  1.00  0.00     0.134 A 
ATOM    101  C   UNL A   1      50.613  27.570  28.778  1.00  0.00     0.134 A 
ATOM    102  F   UNL A   1      48.123  26.177  26.529  1.00  0.00    -0.206 F 
ATOM    103  C   UNL A   1      50.465  26.036  26.468  1.00  0.00     0.040 A 
ATOM    104  C   UNL A   1      51.784  27.132  28.160  1.00  0.00     0.040 A 
ATOM    105  F   UNL A   1      50.730  28.309  29.891  1.00  0.00    -0.206 F 
ATOM    106  C   UNL A   1      51.712  26.355  27.005  1.00  0.00     0.006 A 
ENDBRANCH  82  99
ENDBRANCH  56  57
ENDBRANCH  48  51
ENDBRANCH  46  47
ENDBRANCH  45  46
ENDBRANCH  44  45
ENDBRANCH  43  44
ENDBRANCH  42  43
ENDBRANCH  41  42
ENDBRANCH   3  41
TORSDOF 26
ENDMDL
MODEL 3
REMARK VINA RESULT:      -9.9      3.696      7.607
REMARK SMILES CC(C)C[C@H](NC(=O)[C@@H](NC(=O)[C@H](C)NC(=O)CNC(=O)OCc1ccccc1)C(C)C)C(=O)NCCCCCCNC(=O)c1ccc(-c2c3nc(c(-c4c(F)cccc4F)c4ccc([nH]4)c(-c4c(F)cccc4F)c4nc(c(-c5c(F)cccc5F)c5ccc2[nH]5)C=C4)C=C3)cc1
REMARK SMILES IDX 33 1 34 2 35 3 5 5 4 6 2 7 1 8 3 9 6 10 7 11 8 13 9 14 10 15
REMARK SMILES IDX 11 16 12 18 13 19 14 20 15 21 16 22 17 24 18 25 19 26 20 27
REMARK SMILES IDX 21 29 22 30 23 31 24 32 25 33 29 34 26 35 28 36 27 37 30 38
REMARK SMILES IDX 31 39 32 40 36 41 37 42 38 43 39 44 40 45 41 46 42 47 43 48
REMARK SMILES IDX 44 50 45 51 46 52 98 53 47 54 97 55 48 56 49 57 50 58 91 59
REMARK SMILES IDX 51 60 96 61 90 62 92 63 52 64 95 65 89 66 88 67 53 69 79 70
REMARK SMILES IDX 62 71 78 72 63 73 66 74 77 75 93 76 64 77 65 78 76 80 94 81
REMARK SMILES IDX 67 82 54 83 55 84 60 85 56 86 57 87 59 88 61 89 58 90 80 91
REMARK SMILES IDX 81 92 86 93 82 94 83 95 85 96 87 97 84 98 68 99 69 100
REMARK SMILES IDX 74 101 70 102 71 103 73 104 75 105 72 106
REMARK H PARENT 35 4 6 12 10 17 15 23 19 28 42 49 92 68 66 79
REMARK Flexibility Score: inf
ROOT
ATOM      1  C   UNL A   1      32.760  28.397  27.341  1.00  0.00     0.242 C 
ATOM      2  O   UNL A   1      31.681  28.638  27.895  1.00  0.00    -0.273 OA
ATOM      3  N   UNL A   1      33.784  29.263  27.592  1.00  0.00    -0.354 N 
ATOM      4  H   UNL A   1      33.579  29.818  28.378  1.00  0.00     0.163 HD
ENDROOT
BRANCH   1   5
ATOM      5  C   UNL A   1      32.934  27.128  26.524  1.00  0.00     0.171 C 
BRANCH   5   6
ATOM      6  C   UNL A   1      33.278  27.337  25.021  1.00  0.00     0.038 C 
BRANCH   6   7
ATOM      7  C   UNL A   1      32.498  28.469  24.306  1.00  0.00    -0.015 C 
ATOM      8  C   UNL A   1      33.258  29.107  23.138  1.00  0.00     0.007 C 
ATOM      9  C   UNL A   1      31.029  28.184  24.027  1.00  0.00     0.007 C 
ENDBRANCH   6   7
ENDBRANCH   5   6
BRANCH   5  10
ATOM     10  N   UNL A   1      32.085  26.002  26.899  1.00  0.00    -0.343 N 
ATOM     11  C   UNL A   1      31.858  24.791  26.325  1.00  0.00     0.243 C 
ATOM     12  H   UNL A   1      31.579  26.147  27.730  1.00  0.00     0.164 HD
ATOM     13  O   UNL A   1      30.921  24.125  26.778  1.00  0.00    -0.273 OA
BRANCH  11  14
ATOM     14  C   UNL A   1      32.818  24.166  25.284  1.00  0.00     0.174 C 
BRANCH  14  15
ATOM     15  N   UNL A   1      33.855  22.929  25.965  1.00  0.00    -0.342 N 
ATOM     16  C   UNL A   1      35.046  22.121  26.124  1.00  0.00     0.242 C 
ATOM     17  H   UNL A   1      33.274  22.556  26.668  1.00  0.00     0.164 HD
ATOM     18  O   UNL A   1      34.883  21.274  27.033  1.00  0.00    -0.273 OA
BRANCH  16  19
ATOM     19  C   UNL A   1      36.726  21.995  25.351  1.00  0.00     0.168 C 
ATOM     20  C   UNL A   1      36.809  22.718  23.987  1.00  0.00     0.041 C 
BRANCH  19  21
ATOM     21  N   UNL A   1      37.619  20.754  25.068  1.00  0.00    -0.343 N 
ATOM     22  C   UNL A   1      38.764  20.112  25.466  1.00  0.00     0.240 C 
ATOM     23  H   UNL A   1      37.212  20.239  24.334  1.00  0.00     0.164 HD
ATOM     24  O   UNL A   1      38.850  18.911  25.151  1.00  0.00    -0.273 OA
BRANCH  22  25
ATOM     25  C   UNL A   1      40.006  20.769  26.026  1.00  0.00     0.219 C 
BRANCH  25  26
ATOM     26  N   UNL A   1      40.671  19.580  26.517  1.00  0.00    -0.312 N 
ATOM     27  C   UNL A   1      41.850  19.241  25.965  1.00  0.00     0.407 C 
ATOM     28  H   UNL A   1      40.273  19.036  27.235  1.00  0.00     0.167 HD
ATOM     29  O   UNL A   1      42.232  18.058  25.862  1.00  0.00    -0.225 OA
BRANCH  27  30
ATOM     30  O   UNL A   1      42.525  20.339  25.594  1.00  0.00    -0.445 OA
BRANCH  30  31
ATOM     31  C   UNL A   1      43.925  20.217  25.377  1.00  0.00     0.270 C 
BRANCH  31  32
ATOM     32  C   UNL A   1      44.615  21.550  25.325  1.00  0.00    -0.011 A 
ATOM     33  C   UNL A   1      45.243  22.033  24.164  1.00  0.00     0.007 A 
ATOM     34  C   UNL A   1      44.531  22.368  26.452  1.00  0.00     0.007 A 
ATOM     35  C   UNL A   1      45.655  23.357  24.092  1.00  0.00     0.000 A 
ATOM     36  C   UNL A   1      44.982  23.680  26.392  1.00  0.00     0.000 A 
ATOM     37  C   UNL A   1      45.516  24.181  25.204  1.00  0.00     0.000 A 
ENDBRANCH  31  32
ENDBRANCH  30  31
ENDBRANCH  27  30
ENDBRANCH  25  26
ENDBRANCH  22  25
ENDBRANCH  19  21
ENDBRANCH  16  19
ENDBRANCH  14  15
BRANCH  14  38
ATOM     38  C   UNL A   1      31.860  24.459  23.804  1.00  0.00     0.015 C 
ATOM     39  C   UNL A   1      32.773  24.436  22.559  1.00  0.00     0.010 C 
ATOM     40  C   UNL A   1      30.553  23.798  23.214  1.00  0.00     0.010 C 
ENDBRANCH  14  38
ENDBRANCH  11  14
ENDBRANCH   5  10
ENDBRANCH   1   5
BRANCH   3  41
ATOM     41  C   UNL A   1      35.145  29.629  27.024  1.00  0.00     0.116 C 
BRANCH  41  42
ATOM     42  C   UNL A   1      36.747  29.676  27.733  1.00  0.00     0.021 C 
BRANCH  42  43
ATOM     43  C   UNL A   1      37.561  29.051  28.915  1.00  0.00     0.002 C 
BRANCH  43  44
ATOM     44  C   UNL A   1      39.009  28.681  28.554  1.00  0.00     0.002 C 
BRANCH  44  45
ATOM     45  C   UNL A   1      39.173  27.270  27.978  1.00  0.00     0.021 C 
BRANCH  45  46
ATOM     46  C   UNL A   1      39.859  26.288  28.923  1.00  0.00     0.116 C 
BRANCH  46  47
ATOM     47  N   UNL A   1      40.248  25.079  28.217  1.00  0.00    -0.352 N 
ATOM     48  C   UNL A   1      41.232  24.952  27.267  1.00  0.00     0.251 C 
ATOM     49  H   UNL A   1      39.751  24.260  28.446  1.00  0.00     0.163 HD
ATOM     50  O   UNL A   1      41.231  24.009  26.484  1.00  0.00    -0.269 OA
BRANCH  48  51
ATOM     51  C   UNL A   1      42.295  25.975  27.201  1.00  0.00     0.039 A 
ATOM     52  C   UNL A   1      43.083  26.231  28.324  1.00  0.00     0.014 A 
ATOM     53  C   UNL A   1      42.500  26.689  26.016  1.00  0.00     0.014 A 
ATOM     54  C   UNL A   1      44.098  27.188  28.247  1.00  0.00     0.010 A 
ATOM     55  C   UNL A   1      43.571  27.565  25.912  1.00  0.00     0.010 A 
ATOM     56  C   UNL A   1      44.361  27.851  27.035  1.00  0.00    -0.014 A 
BRANCH  56  57
ATOM     57  C   UNL A   1      45.412  28.893  26.934  1.00  0.00     0.031 A 
ATOM     58  C   UNL A   1      46.849  28.482  26.737  1.00  0.00     0.074 A 
ATOM     59  C   UNL A   1      45.090  30.193  27.078  1.00  0.00     0.049 A 
ATOM     60  N   UNL A   1      47.925  29.227  26.694  1.00  0.00    -0.248 NA
ATOM     61  C   UNL A   1      47.116  27.040  26.604  1.00  0.00     0.031 C 
ATOM     62  C   UNL A   1      43.743  30.710  27.325  1.00  0.00     0.029 A 
ATOM     63  N   UNL A   1      45.876  31.317  27.047  1.00  0.00    -0.354 N 
ATOM     64  C   UNL A   1      48.989  28.342  26.558  1.00  0.00     0.074 A 
ATOM     65  C   UNL A   1      48.439  27.007  26.585  1.00  0.00     0.031 C 
ATOM     66  C   UNL A   1      43.792  32.051  27.393  1.00  0.00     0.029 A 
ATOM     67  C   UNL A   1      45.177  32.484  27.238  1.00  0.00     0.049 A 
ATOM     68  H   UNL A   1      46.849  31.289  26.901  1.00  0.00     0.167 HD
ATOM     69  C   UNL A   1      50.304  28.620  26.397  1.00  0.00     0.037 A 
ATOM     70  C   UNL A   1      45.609  33.759  27.286  1.00  0.00     0.037 A 
ATOM     71  C   UNL A   1      50.838  29.953  26.327  1.00  0.00     0.049 A 
ATOM     72  C   UNL A   1      47.076  34.040  27.096  1.00  0.00     0.074 A 
ATOM     73  C   UNL A   1      52.143  30.347  26.085  1.00  0.00     0.029 A 
ATOM     74  N   UNL A   1      50.095  31.111  26.499  1.00  0.00    -0.354 N 
ATOM     75  N   UNL A   1      48.059  33.199  26.886  1.00  0.00    -0.248 NA
ATOM     76  C   UNL A   1      47.491  35.449  27.144  1.00  0.00     0.031 C 
ATOM     77  C   UNL A   1      52.198  31.742  26.166  1.00  0.00     0.029 A 
ATOM     78  C   UNL A   1      50.918  32.218  26.399  1.00  0.00     0.049 A 
ATOM     79  H   UNL A   1      49.126  31.140  26.668  1.00  0.00     0.167 HD
ATOM     80  C   UNL A   1      49.201  33.977  26.743  1.00  0.00     0.074 A 
ATOM     81  C   UNL A   1      48.785  35.357  26.875  1.00  0.00     0.031 C 
ATOM     82  C   UNL A   1      50.481  33.586  26.522  1.00  0.00     0.037 A 
BRANCH  69  83
ATOM     83  C   UNL A   1      51.255  27.462  26.284  1.00  0.00     0.057 A 
ATOM     84  C   UNL A   1      51.519  26.832  25.059  1.00  0.00     0.134 A 
ATOM     85  C   UNL A   1      51.947  26.996  27.409  1.00  0.00     0.134 A 
ATOM     86  F   UNL A   1      50.882  27.220  23.944  1.00  0.00    -0.206 F 
ATOM     87  C   UNL A   1      52.413  25.765  24.964  1.00  0.00     0.040 A 
ATOM     88  C   UNL A   1      52.868  25.951  27.321  1.00  0.00     0.040 A 
ATOM     89  F   UNL A   1      51.748  27.557  28.612  1.00  0.00    -0.206 F 
ATOM     90  C   UNL A   1      53.099  25.327  26.096  1.00  0.00     0.006 A 
ENDBRANCH  69  83
BRANCH  70  91
ATOM     91  C   UNL A   1      44.646  34.870  27.504  1.00  0.00     0.057 A 
ATOM     92  C   UNL A   1      43.839  35.343  26.461  1.00  0.00     0.134 A 
ATOM     93  C   UNL A   1      44.522  35.501  28.748  1.00  0.00     0.134 A 
ATOM     94  F   UNL A   1      43.922  34.794  25.241  1.00  0.00    -0.206 F 
ATOM     95  C   UNL A   1      42.969  36.421  26.639  1.00  0.00     0.040 A 
ATOM     96  C   UNL A   1      43.636  36.560  28.948  1.00  0.00     0.040 A 
ATOM     97  F   UNL A   1      45.259  35.091  29.791  1.00  0.00    -0.206 F 
ATOM     98  C   UNL A   1      42.863  37.030  27.888  1.00  0.00     0.006 A 
ENDBRANCH  70  91
BRANCH  82  99
ATOM     99  C   UNL A   1      51.513  34.664  26.368  1.00  0.00     0.057 A 
ATOM    100  C   UNL A   1      52.225  35.173  27.461  1.00  0.00     0.134 A 
ATOM    101  C   UNL A   1      51.829  35.168  25.099  1.00  0.00     0.134 A 
ATOM    102  F   UNL A   1      51.963  34.740  28.704  1.00  0.00    -0.206 F 
ATOM    103  C   UNL A   1      53.196  36.162  27.302  1.00  0.00     0.040 A 
ATOM    104  C   UNL A   1      52.819  36.135  24.923  1.00  0.00     0.040 A 
ATOM    105  F   UNL A   1      51.193  34.716  24.008  1.00  0.00    -0.206 F 
ATOM    106  C   UNL A   1      53.500  36.641  26.028  1.00  0.00     0.006 A 
ENDBRANCH  82  99
ENDBRANCH  56  57
ENDBRANCH  48  51
ENDBRANCH  46  47
ENDBRANCH  45  46
ENDBRANCH  44  45
ENDBRANCH  43  44
ENDBRANCH  42  43
ENDBRANCH  41  42
ENDBRANCH   3  41
TORSDOF 26
ENDMDL
