MODEL 1
REMARK VINA RESULT:     -10.6      0.000      0.000
REMARK SMILES C[C@H](NC(=O)CCn1ccccc1=O)C(=O)NCCCCCCNC(=O)c1ccc(-c2c3nc(c(-c4c(F)cccc4F)c4ccc([nH]4)c(-c4c(F)cccc4F)c4nc(c(-c5c(F)cccc5F)c5ccc2[nH]5)C=C4)C=C3)cc1
REMARK SMILES IDX 19 1 18 2 17 3 15 4 16 5 2 7 1 8 3 9 4 10 5 12 6 13 7 14
REMARK SMILES IDX 8 15 9 16 13 17 10 18 12 19 14 20 11 21 20 22 21 23 22 24
REMARK SMILES IDX 23 25 24 26 25 27 26 29 27 30 28 31 80 32 29 33 79 34 30 35
REMARK SMILES IDX 31 36 32 37 73 38 33 39 78 40 72 41 74 42 34 43 77 44 71 45
REMARK SMILES IDX 70 46 35 48 61 49 44 50 60 51 45 52 48 53 59 54 75 55 46 56
REMARK SMILES IDX 47 57 58 59 76 60 49 61 36 62 37 63 42 64 38 65 39 66 41 67
REMARK SMILES IDX 43 68 40 69 62 70 63 71 68 72 64 73 65 74 67 75 69 76 66 77
REMARK SMILES IDX 50 78 51 79 56 80 52 81 53 82 55 83 57 84 54 85
REMARK H PARENT 17 6 3 11 24 28 74 47 48 58
REMARK Flexibility Score: inf
ROOT
ATOM      1  C   UNL A   1      35.739  23.542  24.408  1.00  0.00     0.021 C 
ENDROOT
BRANCH   1   2
ATOM      2  C   UNL A   1      34.475  23.788  23.593  1.00  0.00     0.116 C 
BRANCH   2   3
ATOM      3  N   UNL A   1      33.813  22.594  23.105  1.00  0.00    -0.354 N 
ATOM      4  C   UNL A   1      32.560  22.270  23.587  1.00  0.00     0.242 C 
ATOM      5  O   UNL A   1      31.612  22.297  22.798  1.00  0.00    -0.273 OA
ATOM      6  H   UNL A   1      34.253  22.019  22.436  1.00  0.00     0.163 HD
BRANCH   4   7
ATOM      7  C   UNL A   1      32.437  21.618  24.995  1.00  0.00     0.168 C 
ATOM      8  C   UNL A   1      32.721  20.122  24.970  1.00  0.00     0.041 C 
BRANCH   7   9
ATOM      9  N   UNL A   1      31.326  22.096  25.825  1.00  0.00    -0.345 N 
ATOM     10  C   UNL A   1      31.119  23.083  26.726  1.00  0.00     0.222 C 
ATOM     11  H   UNL A   1      30.516  21.552  25.691  1.00  0.00     0.164 HD
ATOM     12  O   UNL A   1      30.141  22.956  27.471  1.00  0.00    -0.275 OA
BRANCH  10  13
ATOM     13  C   UNL A   1      31.969  24.325  26.828  1.00  0.00     0.122 C 
BRANCH  13  14
ATOM     14  C   UNL A   1      31.217  25.585  26.396  1.00  0.00     0.135 C 
BRANCH  14  15
ATOM     15  N   UNL A   1      32.084  26.762  26.272  1.00  0.00    -0.315 N 
ATOM     16  C   UNL A   1      33.049  26.805  25.278  1.00  0.00     0.089 A 
ATOM     17  C   UNL A   1      31.912  27.820  27.159  1.00  0.00     0.250 A 
ATOM     18  C   UNL A   1      33.885  27.847  25.170  1.00  0.00     0.018 A 
ATOM     19  C   UNL A   1      32.894  28.929  27.082  1.00  0.00     0.072 A 
ATOM     20  O   UNL A   1      31.032  27.872  28.003  1.00  0.00    -0.269 OA
ATOM     21  C   UNL A   1      33.826  28.925  26.123  1.00  0.00     0.007 A 
ENDBRANCH  14  15
ENDBRANCH  13  14
ENDBRANCH  10  13
ENDBRANCH   7   9
ENDBRANCH   4   7
ENDBRANCH   2   3
ENDBRANCH   1   2
BRANCH   1  22
ATOM     22  C   UNL A   1      36.455  22.254  23.966  1.00  0.00     0.002 C 
BRANCH  22  23
ATOM     23  C   UNL A   1      36.660  21.175  25.038  1.00  0.00     0.002 C 
BRANCH  23  24
ATOM     24  C   UNL A   1      37.866  20.257  24.856  1.00  0.00     0.021 C 
BRANCH  24  25
ATOM     25  C   UNL A   1      38.925  20.338  25.948  1.00  0.00     0.116 C 
BRANCH  25  26
ATOM     26  N   UNL A   1      39.984  19.346  25.822  1.00  0.00    -0.352 N 
ATOM     27  C   UNL A   1      41.329  19.459  26.082  1.00  0.00     0.251 C 
ATOM     28  H   UNL A   1      39.693  18.462  25.503  1.00  0.00     0.163 HD
ATOM     29  O   UNL A   1      42.076  18.508  25.878  1.00  0.00    -0.269 OA
BRANCH  27  30
ATOM     30  C   UNL A   1      41.890  20.746  26.556  1.00  0.00     0.039 A 
ATOM     31  C   UNL A   1      42.009  21.031  27.915  1.00  0.00     0.014 A 
ATOM     32  C   UNL A   1      42.283  21.696  25.607  1.00  0.00     0.014 A 
ATOM     33  C   UNL A   1      42.343  22.318  28.324  1.00  0.00     0.010 A 
ATOM     34  C   UNL A   1      42.708  22.961  26.022  1.00  0.00     0.010 A 
ATOM     35  C   UNL A   1      42.690  23.300  27.384  1.00  0.00    -0.014 A 
BRANCH  35  36
ATOM     36  C   UNL A   1      43.021  24.671  27.850  1.00  0.00     0.031 A 
ATOM     37  C   UNL A   1      44.453  25.125  27.951  1.00  0.00     0.074 A 
ATOM     38  C   UNL A   1      42.022  25.530  28.126  1.00  0.00     0.049 A 
ATOM     39  N   UNL A   1      44.926  26.293  28.314  1.00  0.00    -0.248 NA
ATOM     40  C   UNL A   1      45.491  24.142  27.605  1.00  0.00     0.031 C 
ATOM     41  C   UNL A   1      40.594  25.210  28.060  1.00  0.00     0.029 A 
ATOM     42  N   UNL A   1      42.051  26.850  28.493  1.00  0.00    -0.354 N 
ATOM     43  C   UNL A   1      46.309  26.180  28.253  1.00  0.00     0.074 A 
ATOM     44  C   UNL A   1      46.604  24.821  27.853  1.00  0.00     0.031 C 
ATOM     45  C   UNL A   1      39.884  26.317  28.325  1.00  0.00     0.029 A 
ATOM     46  C   UNL A   1      40.803  27.405  28.640  1.00  0.00     0.049 A 
ATOM     47  H   UNL A   1      42.885  27.351  28.638  1.00  0.00     0.167 HD
ATOM     48  C   UNL A   1      47.250  27.126  28.494  1.00  0.00     0.037 A 
ATOM     49  C   UNL A   1      40.438  28.648  29.001  1.00  0.00     0.037 A 
ATOM     50  C   UNL A   1      46.957  28.483  28.880  1.00  0.00     0.049 A 
ATOM     51  C   UNL A   1      41.501  29.662  29.309  1.00  0.00     0.074 A 
ATOM     52  C   UNL A   1      47.838  29.521  29.131  1.00  0.00     0.029 A 
ATOM     53  N   UNL A   1      45.680  28.991  29.073  1.00  0.00    -0.354 N 
ATOM     54  N   UNL A   1      42.804  29.544  29.236  1.00  0.00    -0.248 NA
ATOM     55  C   UNL A   1      41.039  30.981  29.762  1.00  0.00     0.031 C 
ATOM     56  C   UNL A   1      47.097  30.645  29.513  1.00  0.00     0.029 A 
ATOM     57  C   UNL A   1      45.752  30.320  29.459  1.00  0.00     0.049 A 
ATOM     58  H   UNL A   1      44.847  28.483  28.951  1.00  0.00     0.167 HD
ATOM     59  C   UNL A   1      43.319  30.773  29.622  1.00  0.00     0.074 A 
ATOM     60  C   UNL A   1      42.185  31.632  29.901  1.00  0.00     0.031 C 
ATOM     61  C   UNL A   1      44.613  31.157  29.743  1.00  0.00     0.037 A 
BRANCH  48  62
ATOM     62  C   UNL A   1      48.689  26.719  28.361  1.00  0.00     0.057 A 
ATOM     63  C   UNL A   1      49.416  26.286  29.477  1.00  0.00     0.134 A 
ATOM     64  C   UNL A   1      49.365  26.777  27.135  1.00  0.00     0.134 A 
ATOM     65  F   UNL A   1      48.834  26.214  30.684  1.00  0.00    -0.206 F 
ATOM     66  C   UNL A   1      50.761  25.925  29.379  1.00  0.00     0.040 A 
ATOM     67  C   UNL A   1      50.703  26.394  27.018  1.00  0.00     0.040 A 
ATOM     68  F   UNL A   1      48.724  27.169  26.023  1.00  0.00    -0.206 F 
ATOM     69  C   UNL A   1      51.407  25.971  28.144  1.00  0.00     0.006 A 
ENDBRANCH  48  62
BRANCH  49  70
ATOM     70  C   UNL A   1      39.001  29.000  29.104  1.00  0.00     0.057 A 
ATOM     71  C   UNL A   1      38.304  28.871  30.312  1.00  0.00     0.134 A 
ATOM     72  C   UNL A   1      38.292  29.486  28.000  1.00  0.00     0.134 A 
ATOM     73  F   UNL A   1      38.927  28.408  31.406  1.00  0.00    -0.206 F 
ATOM     74  C   UNL A   1      36.954  29.202  30.417  1.00  0.00     0.040 A 
ATOM     75  C   UNL A   1      36.947  29.847  28.096  1.00  0.00     0.040 A 
ATOM     76  F   UNL A   1      38.910  29.651  26.821  1.00  0.00    -0.206 F 
ATOM     77  C   UNL A   1      36.273  29.700  29.307  1.00  0.00     0.006 A 
ENDBRANCH  49  70
BRANCH  61  78
ATOM     78  C   UNL A   1      44.858  32.570  30.180  1.00  0.00     0.057 A 
ATOM     79  C   UNL A   1      45.025  32.882  31.535  1.00  0.00     0.134 A 
ATOM     80  C   UNL A   1      44.935  33.622  29.258  1.00  0.00     0.134 A 
ATOM     81  F   UNL A   1      44.958  31.922  32.469  1.00  0.00    -0.206 F 
ATOM     82  C   UNL A   1      45.267  34.190  31.956  1.00  0.00     0.040 A 
ATOM     83  C   UNL A   1      45.202  34.931  29.666  1.00  0.00     0.040 A 
ATOM     84  F   UNL A   1      44.802  33.387  27.944  1.00  0.00    -0.206 F 
ATOM     85  C   UNL A   1      45.365  35.217  31.019  1.00  0.00     0.006 A 
ENDBRANCH  61  78
ENDBRANCH  35  36
ENDBRANCH  27  30
ENDBRANCH  25  26
ENDBRANCH  24  25
ENDBRANCH  23  24
ENDBRANCH  22  23
ENDBRANCH   1  22
TORSDOF 17
ENDMDL
MODEL 2
REMARK VINA RESULT:     -10.6      4.334      9.594
REMARK SMILES C[C@H](NC(=O)CCn1ccccc1=O)C(=O)NCCCCCCNC(=O)c1ccc(-c2c3nc(c(-c4c(F)cccc4F)c4ccc([nH]4)c(-c4c(F)cccc4F)c4nc(c(-c5c(F)cccc5F)c5ccc2[nH]5)C=C4)C=C3)cc1
REMARK SMILES IDX 19 1 18 2 17 3 15 4 16 5 2 7 1 8 3 9 4 10 5 12 6 13 7 14
REMARK SMILES IDX 8 15 9 16 13 17 10 18 12 19 14 20 11 21 20 22 21 23 22 24
REMARK SMILES IDX 23 25 24 26 25 27 26 29 27 30 28 31 80 32 29 33 79 34 30 35
REMARK SMILES IDX 31 36 32 37 73 38 33 39 78 40 72 41 74 42 34 43 77 44 71 45
REMARK SMILES IDX 70 46 35 48 61 49 44 50 60 51 45 52 48 53 59 54 75 55 46 56
REMARK SMILES IDX 47 57 58 59 76 60 49 61 36 62 37 63 42 64 38 65 39 66 41 67
REMARK SMILES IDX 43 68 40 69 62 70 63 71 68 72 64 73 65 74 67 75 69 76 66 77
REMARK SMILES IDX 50 78 51 79 56 80 52 81 53 82 55 83 57 84 54 85
REMARK H PARENT 17 6 3 11 24 28 74 47 48 58
REMARK Flexibility Score: inf
ROOT
ATOM      1  C   UNL A   1      31.395  27.778  25.587  1.00  0.00     0.021 C 
ENDROOT
BRANCH   1   2
ATOM      2  C   UNL A   1      31.482  26.480  26.381  1.00  0.00     0.116 C 
BRANCH   2   3
ATOM      3  N   UNL A   1      30.374  25.565  26.189  1.00  0.00    -0.354 N 
ATOM      4  C   UNL A   1      30.588  24.207  26.325  1.00  0.00     0.242 C 
ATOM      5  O   UNL A   1      30.025  23.623  27.254  1.00  0.00    -0.273 OA
ATOM      6  H   UNL A   1      29.478  25.907  25.964  1.00  0.00     0.163 HD
BRANCH   4   7
ATOM      7  C   UNL A   1      31.275  23.431  25.164  1.00  0.00     0.168 C 
ATOM      8  C   UNL A   1      30.843  23.932  23.793  1.00  0.00     0.041 C 
BRANCH   7   9
ATOM      9  N   UNL A   1      31.413  21.983  25.358  1.00  0.00    -0.345 N 
ATOM     10  C   UNL A   1      32.193  20.991  24.871  1.00  0.00     0.222 C 
ATOM     11  H   UNL A   1      30.764  21.643  26.016  1.00  0.00     0.164 HD
ATOM     12  O   UNL A   1      31.780  19.836  25.026  1.00  0.00    -0.275 OA
BRANCH  10  13
ATOM     13  C   UNL A   1      33.532  21.215  24.216  1.00  0.00     0.122 C 
BRANCH  13  14
ATOM     14  C   UNL A   1      34.681  20.576  24.999  1.00  0.00     0.135 C 
BRANCH  14  15
ATOM     15  N   UNL A   1      35.768  21.514  25.300  1.00  0.00    -0.315 N 
ATOM     16  C   UNL A   1      35.471  22.808  25.695  1.00  0.00     0.089 A 
ATOM     17  C   UNL A   1      37.084  21.076  25.185  1.00  0.00     0.250 A 
ATOM     18  C   UNL A   1      36.444  23.700  25.932  1.00  0.00     0.018 A 
ATOM     19  C   UNL A   1      38.149  22.092  25.370  1.00  0.00     0.072 A 
ATOM     20  O   UNL A   1      37.406  19.929  24.917  1.00  0.00    -0.269 OA
ATOM     21  C   UNL A   1      37.824  23.338  25.730  1.00  0.00     0.007 A 
ENDBRANCH  14  15
ENDBRANCH  13  14
ENDBRANCH  10  13
ENDBRANCH   7   9
ENDBRANCH   4   7
ENDBRANCH   2   3
ENDBRANCH   1   2
BRANCH   1  22
ATOM     22  C   UNL A   1      31.738  28.998  26.459  1.00  0.00     0.002 C 
BRANCH  22  23
ATOM     23  C   UNL A   1      31.822  30.356  25.746  1.00  0.00     0.002 C 
BRANCH  23  24
ATOM     24  C   UNL A   1      31.487  31.586  26.585  1.00  0.00     0.021 C 
BRANCH  24  25
ATOM     25  C   UNL A   1      32.682  32.397  27.069  1.00  0.00     0.116 C 
BRANCH  25  26
ATOM     26  N   UNL A   1      32.351  33.754  27.479  1.00  0.00    -0.352 N 
ATOM     27  C   UNL A   1      32.983  34.579  28.378  1.00  0.00     0.251 C 
ATOM     28  H   UNL A   1      31.554  34.139  27.048  1.00  0.00     0.163 HD
ATOM     29  O   UNL A   1      32.525  35.692  28.618  1.00  0.00    -0.269 OA
BRANCH  27  30
ATOM     30  C   UNL A   1      34.187  34.108  29.102  1.00  0.00     0.039 A 
ATOM     31  C   UNL A   1      35.464  34.543  28.750  1.00  0.00     0.014 A 
ATOM     32  C   UNL A   1      34.026  33.188  30.144  1.00  0.00     0.014 A 
ATOM     33  C   UNL A   1      36.581  33.929  29.307  1.00  0.00     0.010 A 
ATOM     34  C   UNL A   1      35.149  32.639  30.769  1.00  0.00     0.010 A 
ATOM     35  C   UNL A   1      36.437  32.966  30.318  1.00  0.00    -0.014 A 
BRANCH  35  36
ATOM     36  C   UNL A   1      37.648  32.312  30.878  1.00  0.00     0.031 A 
ATOM     37  C   UNL A   1      38.191  32.719  32.223  1.00  0.00     0.074 A 
ATOM     38  C   UNL A   1      38.225  31.303  30.197  1.00  0.00     0.049 A 
ATOM     39  N   UNL A   1      39.221  32.241  32.877  1.00  0.00    -0.248 NA
ATOM     40  C   UNL A   1      37.492  33.808  32.922  1.00  0.00     0.031 C 
ATOM     41  C   UNL A   1      37.788  30.813  28.888  1.00  0.00     0.029 A 
ATOM     42  N   UNL A   1      39.283  30.495  30.519  1.00  0.00    -0.354 N 
ATOM     43  C   UNL A   1      39.300  32.975  34.053  1.00  0.00     0.074 A 
ATOM     44  C   UNL A   1      38.238  33.957  34.009  1.00  0.00     0.031 C 
ATOM     45  C   UNL A   1      38.539  29.756  28.543  1.00  0.00     0.029 A 
ATOM     46  C   UNL A   1      39.546  29.534  29.573  1.00  0.00     0.049 A 
ATOM     47  H   UNL A   1      39.805  30.594  31.347  1.00  0.00     0.167 HD
ATOM     48  C   UNL A   1      40.170  32.837  35.084  1.00  0.00     0.037 A 
ATOM     49  C   UNL A   1      40.501  28.587  29.533  1.00  0.00     0.037 A 
ATOM     50  C   UNL A   1      41.221  31.852  35.133  1.00  0.00     0.049 A 
ATOM     51  C   UNL A   1      41.481  28.489  30.665  1.00  0.00     0.074 A 
ATOM     52  C   UNL A   1      42.143  31.620  36.140  1.00  0.00     0.029 A 
ATOM     53  N   UNL A   1      41.490  30.933  34.129  1.00  0.00    -0.354 N 
ATOM     54  N   UNL A   1      41.536  29.183  31.776  1.00  0.00    -0.248 NA
ATOM     55  C   UNL A   1      42.540  27.479  30.532  1.00  0.00     0.031 C 
ATOM     56  C   UNL A   1      42.993  30.587  35.728  1.00  0.00     0.029 A 
ATOM     57  C   UNL A   1      42.575  30.147  34.484  1.00  0.00     0.049 A 
ATOM     58  H   UNL A   1      40.983  30.850  33.290  1.00  0.00     0.167 HD
ATOM     59  C   UNL A   1      42.626  28.689  32.478  1.00  0.00     0.074 A 
ATOM     60  C   UNL A   1      43.186  27.616  31.680  1.00  0.00     0.031 C 
ATOM     61  C   UNL A   1      43.126  29.090  33.673  1.00  0.00     0.037 A 
BRANCH  48  62
ATOM     62  C   UNL A   1      40.031  33.787  36.238  1.00  0.00     0.057 A 
ATOM     63  C   UNL A   1      39.278  33.438  37.366  1.00  0.00     0.134 A 
ATOM     64  C   UNL A   1      40.621  35.058  36.226  1.00  0.00     0.134 A 
ATOM     65  F   UNL A   1      38.679  32.239  37.441  1.00  0.00    -0.206 F 
ATOM     66  C   UNL A   1      39.118  34.316  38.440  1.00  0.00     0.040 A 
ATOM     67  C   UNL A   1      40.490  35.936  37.304  1.00  0.00     0.040 A 
ATOM     68  F   UNL A   1      41.368  35.451  35.182  1.00  0.00    -0.206 F 
ATOM     69  C   UNL A   1      39.732  35.567  38.414  1.00  0.00     0.006 A 
ENDBRANCH  48  62
BRANCH  49  70
ATOM     70  C   UNL A   1      40.585  27.667  28.373  1.00  0.00     0.057 A 
ATOM     71  C   UNL A   1      41.329  27.996  27.234  1.00  0.00     0.134 A 
ATOM     72  C   UNL A   1      39.934  26.428  28.382  1.00  0.00     0.134 A 
ATOM     73  F   UNL A   1      41.974  29.170  27.163  1.00  0.00    -0.206 F 
ATOM     74  C   UNL A   1      41.415  27.134  26.141  1.00  0.00     0.040 A 
ATOM     75  C   UNL A   1      40.032  25.543  27.307  1.00  0.00     0.040 A 
ATOM     76  F   UNL A   1      39.222  26.047  29.454  1.00  0.00    -0.206 F 
ATOM     77  C   UNL A   1      40.771  25.899  26.180  1.00  0.00     0.006 A 
ENDBRANCH  49  70
BRANCH  61  78
ATOM     78  C   UNL A   1      44.325  28.350  34.184  1.00  0.00     0.057 A 
ATOM     79  C   UNL A   1      44.176  27.185  34.947  1.00  0.00     0.134 A 
ATOM     80  C   UNL A   1      45.628  28.788  33.916  1.00  0.00     0.134 A 
ATOM     81  F   UNL A   1      42.955  26.715  35.243  1.00  0.00    -0.206 F 
ATOM     82  C   UNL A   1      45.282  26.478  35.419  1.00  0.00     0.040 A 
ATOM     83  C   UNL A   1      46.743  28.074  34.362  1.00  0.00     0.040 A 
ATOM     84  F   UNL A   1      45.838  29.887  33.176  1.00  0.00    -0.206 F 
ATOM     85  C   UNL A   1      46.570  26.918  35.118  1.00  0.00     0.006 A 
ENDBRANCH  61  78
ENDBRANCH  35  36
ENDBRANCH  27  30
ENDBRANCH  25  26
ENDBRANCH  24  25
ENDBRANCH  23  24
ENDBRANCH  22  23
ENDBRANCH   1  22
TORSDOF 17
ENDMDL
MODEL 3
REMARK VINA RESULT:     -10.6      5.174      9.509
REMARK SMILES C[C@H](NC(=O)CCn1ccccc1=O)C(=O)NCCCCCCNC(=O)c1ccc(-c2c3nc(c(-c4c(F)cccc4F)c4ccc([nH]4)c(-c4c(F)cccc4F)c4nc(c(-c5c(F)cccc5F)c5ccc2[nH]5)C=C4)C=C3)cc1
REMARK SMILES IDX 19 1 18 2 17 3 15 4 16 5 2 7 1 8 3 9 4 10 5 12 6 13 7 14
REMARK SMILES IDX 8 15 9 16 13 17 10 18 12 19 14 20 11 21 20 22 21 23 22 24
REMARK SMILES IDX 23 25 24 26 25 27 26 29 27 30 28 31 80 32 29 33 79 34 30 35
REMARK SMILES IDX 31 36 32 37 73 38 33 39 78 40 72 41 74 42 34 43 77 44 71 45
REMARK SMILES IDX 70 46 35 48 61 49 44 50 60 51 45 52 48 53 59 54 75 55 46 56
REMARK SMILES IDX 47 57 58 59 76 60 49 61 36 62 37 63 42 64 38 65 39 66 41 67
REMARK SMILES IDX 43 68 40 69 62 70 63 71 68 72 64 73 65 74 67 75 69 76 66 77
REMARK SMILES IDX 50 78 51 79 56 80 52 81 53 82 55 83 57 84 54 85
REMARK H PARENT 17 6 3 11 24 28 74 47 48 58
REMARK Flexibility Score: inf
ROOT
ATOM      1  C   UNL A   1      32.511  28.159  26.415  1.00  0.00     0.021 C 
ENDROOT
BRANCH   1   2
ATOM      2  C   UNL A   1      31.271  27.361  26.797  1.00  0.00     0.116 C 
BRANCH   2   3
ATOM      3  N   UNL A   1      31.417  25.920  26.729  1.00  0.00    -0.354 N 
ATOM      4  C   UNL A   1      31.938  25.347  25.585  1.00  0.00     0.242 C 
ATOM      5  O   UNL A   1      33.027  24.773  25.670  1.00  0.00    -0.273 OA
ATOM      6  H   UNL A   1      31.148  25.356  27.490  1.00  0.00     0.163 HD
BRANCH   4   7
ATOM      7  C   UNL A   1      31.025  25.193  24.334  1.00  0.00     0.168 C 
ATOM      8  C   UNL A   1      30.836  23.739  23.926  1.00  0.00     0.041 C 
BRANCH   7   9
ATOM      9  N   UNL A   1      31.223  26.188  23.273  1.00  0.00    -0.345 N 
ATOM     10  C   UNL A   1      30.575  27.280  22.810  1.00  0.00     0.222 C 
ATOM     11  H   UNL A   1      32.046  26.012  22.763  1.00  0.00     0.164 HD
ATOM     12  O   UNL A   1      30.878  27.663  21.674  1.00  0.00    -0.275 OA
BRANCH  10  13
ATOM     13  C   UNL A   1      29.566  28.066  23.609  1.00  0.00     0.122 C 
BRANCH  13  14
ATOM     14  C   UNL A   1      28.501  28.719  22.726  1.00  0.00     0.135 C 
BRANCH  14  15
ATOM     15  N   UNL A   1      28.615  30.181  22.669  1.00  0.00    -0.315 N 
ATOM     16  C   UNL A   1      29.099  30.878  23.764  1.00  0.00     0.089 A 
ATOM     17  C   UNL A   1      28.235  30.839  21.502  1.00  0.00     0.250 A 
ATOM     18  C   UNL A   1      29.171  32.216  23.756  1.00  0.00     0.018 A 
ATOM     19  C   UNL A   1      28.242  32.323  21.535  1.00  0.00     0.072 A 
ATOM     20  O   UNL A   1      27.875  30.275  20.482  1.00  0.00    -0.269 OA
ATOM     21  C   UNL A   1      28.695  32.961  22.618  1.00  0.00     0.007 A 
ENDBRANCH  14  15
ENDBRANCH  13  14
ENDBRANCH  10  13
ENDBRANCH   7   9
ENDBRANCH   4   7
ENDBRANCH   2   3
ENDBRANCH   1   2
BRANCH   1  22
ATOM     22  C   UNL A   1      32.472  29.580  27.001  1.00  0.00     0.002 C 
BRANCH  22  23
ATOM     23  C   UNL A   1      31.844  30.672  26.123  1.00  0.00     0.002 C 
BRANCH  23  24
ATOM     24  C   UNL A   1      31.507  31.990  26.814  1.00  0.00     0.021 C 
BRANCH  24  25
ATOM     25  C   UNL A   1      32.702  32.834  27.238  1.00  0.00     0.116 C 
BRANCH  25  26
ATOM     26  N   UNL A   1      32.359  34.195  27.626  1.00  0.00    -0.352 N 
ATOM     27  C   UNL A   1      32.954  35.023  28.548  1.00  0.00     0.251 C 
ATOM     28  H   UNL A   1      31.585  34.581  27.157  1.00  0.00     0.163 HD
ATOM     29  O   UNL A   1      32.491  36.139  28.762  1.00  0.00    -0.269 OA
BRANCH  27  30
ATOM     30  C   UNL A   1      34.122  34.550  29.328  1.00  0.00     0.039 A 
ATOM     31  C   UNL A   1      35.407  34.551  28.786  1.00  0.00     0.014 A 
ATOM     32  C   UNL A   1      33.913  34.073  30.627  1.00  0.00     0.014 A 
ATOM     33  C   UNL A   1      36.442  33.913  29.462  1.00  0.00     0.010 A 
ATOM     34  C   UNL A   1      34.975  33.515  31.343  1.00  0.00     0.010 A 
ATOM     35  C   UNL A   1      36.238  33.382  30.745  1.00  0.00    -0.014 A 
BRANCH  35  36
ATOM     36  C   UNL A   1      37.357  32.687  31.433  1.00  0.00     0.031 A 
ATOM     37  C   UNL A   1      38.054  31.520  30.784  1.00  0.00     0.074 A 
ATOM     38  C   UNL A   1      37.784  33.150  32.622  1.00  0.00     0.049 A 
ATOM     39  N   UNL A   1      39.063  30.811  31.227  1.00  0.00    -0.248 NA
ATOM     40  C   UNL A   1      37.551  31.088  29.471  1.00  0.00     0.031 C 
ATOM     41  C   UNL A   1      37.195  34.277  33.349  1.00  0.00     0.029 A 
ATOM     42  N   UNL A   1      38.827  32.750  33.417  1.00  0.00    -0.354 N 
ATOM     43  C   UNL A   1      39.306  29.847  30.257  1.00  0.00     0.074 A 
ATOM     44  C   UNL A   1      38.317  30.036  29.218  1.00  0.00     0.031 C 
ATOM     45  C   UNL A   1      37.916  34.509  34.457  1.00  0.00     0.029 A 
ATOM     46  C   UNL A   1      38.976  33.513  34.550  1.00  0.00     0.049 A 
ATOM     47  H   UNL A   1      39.410  31.988  33.199  1.00  0.00     0.167 HD
ATOM     48  C   UNL A   1      40.274  28.898  30.227  1.00  0.00     0.037 A 
ATOM     49  C   UNL A   1      39.861  33.414  35.558  1.00  0.00     0.037 A 
ATOM     50  C   UNL A   1      41.267  28.717  31.256  1.00  0.00     0.049 A 
ATOM     51  C   UNL A   1      40.891  32.323  35.522  1.00  0.00     0.074 A 
ATOM     52  C   UNL A   1      42.299  27.796  31.310  1.00  0.00     0.029 A 
ATOM     53  N   UNL A   1      41.350  29.476  32.415  1.00  0.00    -0.354 N 
ATOM     54  N   UNL A   1      41.115  31.426  34.593  1.00  0.00    -0.248 NA
ATOM     55  C   UNL A   1      41.785  32.226  36.684  1.00  0.00     0.031 C 
ATOM     56  C   UNL A   1      42.983  27.972  32.519  1.00  0.00     0.029 A 
ATOM     57  C   UNL A   1      42.403  29.030  33.199  1.00  0.00     0.049 A 
ATOM     58  H   UNL A   1      40.751  30.221  32.645  1.00  0.00     0.167 HD
ATOM     59  C   UNL A   1      42.181  30.664  35.051  1.00  0.00     0.074 A 
ATOM     60  C   UNL A   1      42.577  31.225  36.328  1.00  0.00     0.031 C 
ATOM     61  C   UNL A   1      42.776  29.593  34.472  1.00  0.00     0.037 A 
BRANCH  48  62
ATOM     62  C   UNL A   1      40.295  27.970  29.047  1.00  0.00     0.057 A 
ATOM     63  C   UNL A   1      39.551  26.783  29.057  1.00  0.00     0.134 A 
ATOM     64  C   UNL A   1      41.069  28.235  27.910  1.00  0.00     0.134 A 
ATOM     65  F   UNL A   1      38.793  26.463  30.117  1.00  0.00    -0.206 F 
ATOM     66  C   UNL A   1      39.574  25.896  27.979  1.00  0.00     0.040 A 
ATOM     67  C   UNL A   1      41.082  27.369  26.815  1.00  0.00     0.040 A 
ATOM     68  F   UNL A   1      41.795  29.361  27.829  1.00  0.00    -0.206 F 
ATOM     69  C   UNL A   1      40.337  26.191  26.850  1.00  0.00     0.006 A 
ENDBRANCH  48  62
BRANCH  49  70
ATOM     70  C   UNL A   1      39.802  34.366  36.693  1.00  0.00     0.057 A 
ATOM     71  C   UNL A   1      40.455  35.603  36.640  1.00  0.00     0.134 A 
ATOM     72  C   UNL A   1      39.079  34.067  37.854  1.00  0.00     0.134 A 
ATOM     73  F   UNL A   1      41.167  35.947  35.557  1.00  0.00    -0.206 F 
ATOM     74  C   UNL A   1      40.402  36.505  37.703  1.00  0.00     0.040 A 
ATOM     75  C   UNL A   1      38.994  34.970  38.915  1.00  0.00     0.040 A 
ATOM     76  F   UNL A   1      38.415  32.906  37.955  1.00  0.00    -0.206 F 
ATOM     77  C   UNL A   1      39.662  36.192  38.842  1.00  0.00     0.006 A 
ENDBRANCH  49  70
BRANCH  61  78
ATOM     78  C   UNL A   1      43.924  28.976  35.215  1.00  0.00     0.057 A 
ATOM     79  C   UNL A   1      45.239  29.387  34.970  1.00  0.00     0.134 A 
ATOM     80  C   UNL A   1      43.724  27.979  36.179  1.00  0.00     0.134 A 
ATOM     81  F   UNL A   1      45.499  30.335  34.056  1.00  0.00    -0.206 F 
ATOM     82  C   UNL A   1      46.316  28.833  35.662  1.00  0.00     0.040 A 
ATOM     83  C   UNL A   1      44.792  27.435  36.896  1.00  0.00     0.040 A 
ATOM     84  F   UNL A   1      42.486  27.555  36.473  1.00  0.00    -0.206 F 
ATOM     85  C   UNL A   1      46.093  27.860  36.635  1.00  0.00     0.006 A 
ENDBRANCH  61  78
ENDBRANCH  35  36
ENDBRANCH  27  30
ENDBRANCH  25  26
ENDBRANCH  24  25
ENDBRANCH  23  24
ENDBRANCH  22  23
ENDBRANCH   1  22
TORSDOF 17
ENDMDL
