MODEL 1
REMARK VINA RESULT:     -10.9      0.000      0.000
REMARK SMILES Cc1cc(C)c2c(OCCCC(=O)NCCCCCCNC(=O)c3ccc(-c4c5nc(c(-c6c(F)cccc6F)c6ccc([nH]6)c(-c6c(F)cccc6F)c6nc(c(-c7c(F)cccc7F)c7ccc4[nH]7)C=C6)C=C5)cc3)nsc2n1
REMARK SMILES IDX 16 1 15 2 14 3 12 4 13 5 11 7 10 8 9 9 8 10 7 11 1 12 2 13
REMARK SMILES IDX 3 14 81 15 4 16 80 17 5 18 6 19 79 20 78 21 17 22 18 23
REMARK SMILES IDX 19 24 20 25 21 26 22 27 23 29 24 30 25 31 77 32 26 33 76 34
REMARK SMILES IDX 27 35 28 36 29 37 70 38 30 39 75 40 69 41 71 42 31 43 74 44
REMARK SMILES IDX 68 45 67 46 32 48 58 49 41 50 57 51 42 52 45 53 56 54 72 55
REMARK SMILES IDX 43 56 44 57 55 59 73 60 46 61 33 62 34 63 39 64 35 65 36 66
REMARK SMILES IDX 38 67 40 68 37 69 59 70 60 71 65 72 61 73 62 74 64 75 66 76
REMARK SMILES IDX 63 77 47 78 48 79 53 80 49 81 50 82 52 83 54 84 51 85
REMARK H PARENT 14 6 21 28 71 47 45 58
REMARK Flexibility Score: inf
ROOT
ATOM      1  C   UNL A   1      38.818  22.923  26.805  1.00  0.00     0.021 C 
ENDROOT
BRANCH   1   2
ATOM      2  C   UNL A   1      38.117  24.047  25.961  1.00  0.00     0.116 C 
BRANCH   2   3
ATOM      3  N   UNL A   1      37.389  23.558  24.680  1.00  0.00    -0.356 N 
ATOM      4  C   UNL A   1      36.281  23.438  23.880  1.00  0.00     0.220 C 
ATOM      5  O   UNL A   1      36.627  22.887  22.808  1.00  0.00    -0.275 OA
ATOM      6  H   UNL A   1      38.093  23.089  24.177  1.00  0.00     0.163 HD
BRANCH   4   7
ATOM      7  C   UNL A   1      34.727  23.968  23.874  1.00  0.00     0.103 C 
BRANCH   7   8
ATOM      8  C   UNL A   1      33.556  24.183  22.782  1.00  0.00     0.051 C 
BRANCH   8   9
ATOM      9  C   UNL A   1      32.981  25.462  22.022  1.00  0.00     0.232 C 
BRANCH   9  10
ATOM     10  O   UNL A   1      31.594  25.828  21.949  1.00  0.00    -0.477 OA
BRANCH  10  11
ATOM     11  C   UNL A   1      31.046  26.838  22.675  1.00  0.00     0.235 A 
ATOM     12  C   UNL A   1      32.911  28.779  27.433  1.00  0.00     0.067 C 
ATOM     13  C   UNL A   1      32.075  28.213  26.316  1.00  0.00     0.039 A 
ATOM     14  C   UNL A   1      31.854  26.839  26.263  1.00  0.00     0.027 A 
ATOM     15  N   UNL A   1      31.552  29.067  25.411  1.00  0.00    -0.240 NA
ATOM     16  C   UNL A   1      31.202  26.248  25.161  1.00  0.00    -0.034 A 
ATOM     17  C   UNL A   1      31.107  28.443  24.300  1.00  0.00     0.147 A 
ATOM     18  C   UNL A   1      30.675  24.873  24.994  1.00  0.00     0.045 C 
ATOM     19  C   UNL A   1      31.085  27.079  24.067  1.00  0.00     0.078 A 
ATOM     20  S   UNL A   1      30.426  29.186  22.928  1.00  0.00    -0.012 S 
ATOM     21  N   UNL A   1      30.546  27.834  21.942  1.00  0.00    -0.153 NA
ENDBRANCH  10  11
ENDBRANCH   9  10
ENDBRANCH   8   9
ENDBRANCH   7   8
ENDBRANCH   4   7
ENDBRANCH   2   3
ENDBRANCH   1   2
BRANCH   1  22
ATOM     22  C   UNL A   1      39.907  22.109  26.085  1.00  0.00     0.002 C 
BRANCH  22  23
ATOM     23  C   UNL A   1      40.717  21.084  26.904  1.00  0.00     0.002 C 
BRANCH  23  24
ATOM     24  C   UNL A   1      41.401  19.912  26.170  1.00  0.00     0.021 C 
BRANCH  24  25
ATOM     25  C   UNL A   1      42.781  19.504  26.682  1.00  0.00     0.116 C 
BRANCH  25  26
ATOM     26  N   UNL A   1      43.785  19.401  25.632  1.00  0.00    -0.352 N 
ATOM     27  C   UNL A   1      44.371  20.408  24.883  1.00  0.00     0.251 C 
ATOM     28  H   UNL A   1      44.091  18.489  25.426  1.00  0.00     0.163 HD
ATOM     29  O   UNL A   1      44.949  20.153  23.847  1.00  0.00    -0.269 OA
BRANCH  27  30
ATOM     30  C   UNL A   1      44.280  21.806  25.355  1.00  0.00     0.039 A 
ATOM     31  C   UNL A   1      43.371  22.684  24.759  1.00  0.00     0.014 A 
ATOM     32  C   UNL A   1      45.120  22.245  26.380  1.00  0.00     0.014 A 
ATOM     33  C   UNL A   1      43.260  23.979  25.258  1.00  0.00     0.010 A 
ATOM     34  C   UNL A   1      44.937  23.489  26.944  1.00  0.00     0.010 A 
ATOM     35  C   UNL A   1      44.024  24.368  26.372  1.00  0.00    -0.014 A 
BRANCH  35  36
ATOM     36  C   UNL A   1      43.722  25.629  27.044  1.00  0.00     0.031 A 
ATOM     37  C   UNL A   1      44.678  26.715  26.695  1.00  0.00     0.074 A 
ATOM     38  C   UNL A   1      42.609  25.873  27.769  1.00  0.00     0.049 A 
ATOM     39  N   UNL A   1      45.585  27.226  27.457  1.00  0.00    -0.248 NA
ATOM     40  C   UNL A   1      44.758  27.162  25.293  1.00  0.00     0.031 C 
ATOM     41  C   UNL A   1      41.440  25.007  27.951  1.00  0.00     0.029 A 
ATOM     42  N   UNL A   1      42.247  27.004  28.441  1.00  0.00    -0.354 N 
ATOM     43  C   UNL A   1      46.193  28.227  26.705  1.00  0.00     0.074 A 
ATOM     44  C   UNL A   1      45.789  28.010  25.342  1.00  0.00     0.031 C 
ATOM     45  C   UNL A   1      40.422  25.721  28.485  1.00  0.00     0.029 A 
ATOM     46  C   UNL A   1      40.913  27.039  28.840  1.00  0.00     0.049 A 
ATOM     47  H   UNL A   1      42.878  27.736  28.628  1.00  0.00     0.167 HD
ATOM     48  C   UNL A   1      46.730  29.315  27.322  1.00  0.00     0.037 A 
ATOM     49  C   UNL A   1      40.260  28.082  29.414  1.00  0.00     0.037 A 
ATOM     50  C   UNL A   1      46.933  29.059  28.727  1.00  0.00     0.049 A 
ATOM     51  C   UNL A   1      41.294  28.960  30.008  1.00  0.00     0.074 A 
ATOM     52  C   UNL A   1      47.660  28.153  29.472  1.00  0.00     0.029 A 
ATOM     53  N   UNL A   1      45.992  29.586  29.573  1.00  0.00    -0.354 N 
ATOM     54  N   UNL A   1      42.032  28.631  31.028  1.00  0.00    -0.248 NA
ATOM     55  C   UNL A   1      41.783  30.073  29.210  1.00  0.00     0.031 C 
ATOM     56  C   UNL A   1      46.849  27.871  30.610  1.00  0.00     0.029 A 
ATOM     57  C   UNL A   1      45.704  28.667  30.542  1.00  0.00     0.049 A 
ATOM     58  H   UNL A   1      45.589  30.481  29.495  1.00  0.00     0.167 HD
ATOM     59  C   UNL A   1      43.274  29.174  30.745  1.00  0.00     0.074 A 
ATOM     60  C   UNL A   1      43.024  30.156  29.692  1.00  0.00     0.031 C 
ATOM     61  C   UNL A   1      44.411  28.563  31.182  1.00  0.00     0.037 A 
BRANCH  48  62
ATOM     62  C   UNL A   1      46.612  30.729  26.790  1.00  0.00     0.057 A 
ATOM     63  C   UNL A   1      47.749  31.560  26.819  1.00  0.00     0.134 A 
ATOM     64  C   UNL A   1      45.391  31.401  26.579  1.00  0.00     0.134 A 
ATOM     65  F   UNL A   1      48.971  31.048  27.038  1.00  0.00    -0.206 F 
ATOM     66  C   UNL A   1      47.664  32.955  26.732  1.00  0.00     0.040 A 
ATOM     67  C   UNL A   1      45.301  32.788  26.437  1.00  0.00     0.040 A 
ATOM     68  F   UNL A   1      44.208  30.778  26.605  1.00  0.00    -0.206 F 
ATOM     69  C   UNL A   1      46.435  33.575  26.548  1.00  0.00     0.006 A 
ENDBRANCH  48  62
BRANCH  49  70
ATOM     70  C   UNL A   1      38.858  28.540  29.260  1.00  0.00     0.057 A 
ATOM     71  C   UNL A   1      37.985  28.567  30.362  1.00  0.00     0.134 A 
ATOM     72  C   UNL A   1      38.437  29.259  28.129  1.00  0.00     0.134 A 
ATOM     73  F   UNL A   1      38.306  27.937  31.502  1.00  0.00    -0.206 F 
ATOM     74  C   UNL A   1      36.798  29.311  30.361  1.00  0.00     0.040 A 
ATOM     75  C   UNL A   1      37.249  30.000  28.113  1.00  0.00     0.040 A 
ATOM     76  F   UNL A   1      39.210  29.345  27.037  1.00  0.00    -0.206 F 
ATOM     77  C   UNL A   1      36.435  30.047  29.238  1.00  0.00     0.006 A 
ENDBRANCH  49  70
BRANCH  61  78
ATOM     78  C   UNL A   1      44.294  27.537  32.273  1.00  0.00     0.057 A 
ATOM     79  C   UNL A   1      44.142  26.158  32.064  1.00  0.00     0.134 A 
ATOM     80  C   UNL A   1      44.528  27.959  33.587  1.00  0.00     0.134 A 
ATOM     81  F   UNL A   1      43.986  25.652  30.834  1.00  0.00    -0.206 F 
ATOM     82  C   UNL A   1      44.212  25.246  33.122  1.00  0.00     0.040 A 
ATOM     83  C   UNL A   1      44.634  27.056  34.645  1.00  0.00     0.040 A 
ATOM     84  F   UNL A   1      44.720  29.261  33.853  1.00  0.00    -0.206 F 
ATOM     85  C   UNL A   1      44.475  25.693  34.415  1.00  0.00     0.006 A 
ENDBRANCH  61  78
ENDBRANCH  35  36
ENDBRANCH  27  30
ENDBRANCH  25  26
ENDBRANCH  24  25
ENDBRANCH  23  24
ENDBRANCH  22  23
ENDBRANCH   1  22
TORSDOF 17
ENDMDL
MODEL 2
REMARK VINA RESULT:     -10.9      4.517      9.768
REMARK SMILES Cc1cc(C)c2c(OCCCC(=O)NCCCCCCNC(=O)c3ccc(-c4c5nc(c(-c6c(F)cccc6F)c6ccc([nH]6)c(-c6c(F)cccc6F)c6nc(c(-c7c(F)cccc7F)c7ccc4[nH]7)C=C6)C=C5)cc3)nsc2n1
REMARK SMILES IDX 16 1 15 2 14 3 12 4 13 5 11 7 10 8 9 9 8 10 7 11 1 12 2 13
REMARK SMILES IDX 3 14 81 15 4 16 80 17 5 18 6 19 79 20 78 21 17 22 18 23
REMARK SMILES IDX 19 24 20 25 21 26 22 27 23 29 24 30 25 31 77 32 26 33 76 34
REMARK SMILES IDX 27 35 28 36 29 37 70 38 30 39 75 40 69 41 71 42 31 43 74 44
REMARK SMILES IDX 68 45 67 46 32 48 58 49 41 50 57 51 42 52 45 53 56 54 72 55
REMARK SMILES IDX 43 56 44 57 55 59 73 60 46 61 33 62 34 63 39 64 35 65 36 66
REMARK SMILES IDX 38 67 40 68 37 69 59 70 60 71 65 72 61 73 62 74 64 75 66 76
REMARK SMILES IDX 63 77 47 78 48 79 53 80 49 81 50 82 52 83 54 84 51 85
REMARK H PARENT 14 6 21 28 71 47 45 58
REMARK Flexibility Score: inf
ROOT
ATOM      1  C   UNL A   1      34.181  32.035  28.044  1.00  0.00     0.021 C 
ENDROOT
BRANCH   1   2
ATOM      2  C   UNL A   1      34.672  30.577  27.731  1.00  0.00     0.116 C 
BRANCH   2   3
ATOM      3  N   UNL A   1      33.554  29.505  27.640  1.00  0.00    -0.356 N 
ATOM      4  C   UNL A   1      32.974  28.395  27.081  1.00  0.00     0.220 C 
ATOM      5  O   UNL A   1      31.974  28.083  27.770  1.00  0.00    -0.275 OA
ATOM      6  H   UNL A   1      32.938  29.750  28.367  1.00  0.00     0.163 HD
BRANCH   4   7
ATOM      7  C   UNL A   1      33.330  27.301  25.909  1.00  0.00     0.103 C 
BRANCH   7   8
ATOM      8  C   UNL A   1      33.963  25.816  25.831  1.00  0.00     0.051 C 
BRANCH   8   9
ATOM      9  C   UNL A   1      34.519  24.919  24.635  1.00  0.00     0.232 C 
BRANCH   9  10
ATOM     10  O   UNL A   1      33.714  24.101  23.771  1.00  0.00    -0.477 OA
BRANCH  10  11
ATOM     11  C   UNL A   1      32.878  24.606  22.826  1.00  0.00     0.235 A 
ATOM     12  C   UNL A   1      29.690  29.015  23.355  1.00  0.00     0.067 C 
ATOM     13  C   UNL A   1      30.244  27.637  23.108  1.00  0.00     0.039 A 
ATOM     14  C   UNL A   1      30.104  26.662  24.092  1.00  0.00     0.027 A 
ATOM     15  N   UNL A   1      30.844  27.391  21.924  1.00  0.00    -0.240 NA
ATOM     16  C   UNL A   1      30.730  25.405  23.967  1.00  0.00    -0.034 A 
ATOM     17  C   UNL A   1      31.574  26.255  21.934  1.00  0.00     0.147 A 
ATOM     18  C   UNL A   1      30.547  24.168  24.762  1.00  0.00     0.045 C 
ATOM     19  C   UNL A   1      31.686  25.351  22.975  1.00  0.00     0.078 A 
ATOM     20  S   UNL A   1      32.502  25.640  20.647  1.00  0.00    -0.012 S 
ATOM     21  N   UNL A   1      33.345  24.529  21.579  1.00  0.00    -0.153 NA
ENDBRANCH  10  11
ENDBRANCH   9  10
ENDBRANCH   8   9
ENDBRANCH   7   8
ENDBRANCH   4   7
ENDBRANCH   2   3
ENDBRANCH   1   2
BRANCH   1  22
ATOM     22  C   UNL A   1      35.229  33.153  27.903  1.00  0.00     0.002 C 
BRANCH  22  23
ATOM     23  C   UNL A   1      34.775  34.613  28.108  1.00  0.00     0.002 C 
BRANCH  23  24
ATOM     24  C   UNL A   1      33.446  34.886  28.841  1.00  0.00     0.021 C 
BRANCH  24  25
ATOM     25  C   UNL A   1      33.337  36.222  29.573  1.00  0.00     0.116 C 
BRANCH  25  26
ATOM     26  N   UNL A   1      32.550  36.155  30.796  1.00  0.00    -0.352 N 
ATOM     27  C   UNL A   1      32.713  35.329  31.896  1.00  0.00     0.251 C 
ATOM     28  H   UNL A   1      31.795  36.785  30.849  1.00  0.00     0.163 HD
ATOM     29  O   UNL A   1      31.811  35.170  32.691  1.00  0.00    -0.269 OA
BRANCH  27  30
ATOM     30  C   UNL A   1      34.004  34.634  32.091  1.00  0.00     0.039 A 
ATOM     31  C   UNL A   1      34.085  33.252  31.899  1.00  0.00     0.014 A 
ATOM     32  C   UNL A   1      35.127  35.361  32.487  1.00  0.00     0.014 A 
ATOM     33  C   UNL A   1      35.321  32.626  32.030  1.00  0.00     0.010 A 
ATOM     34  C   UNL A   1      36.368  34.763  32.513  1.00  0.00     0.010 A 
ATOM     35  C   UNL A   1      36.468  33.392  32.308  1.00  0.00    -0.014 A 
BRANCH  35  36
ATOM     36  C   UNL A   1      37.787  32.775  32.193  1.00  0.00     0.031 A 
ATOM     37  C   UNL A   1      38.541  32.778  33.476  1.00  0.00     0.074 A 
ATOM     38  C   UNL A   1      38.238  32.108  31.109  1.00  0.00     0.049 A 
ATOM     39  N   UNL A   1      39.572  33.497  33.769  1.00  0.00    -0.248 NA
ATOM     40  C   UNL A   1      37.989  32.036  34.622  1.00  0.00     0.031 C 
ATOM     41  C   UNL A   1      37.503  31.762  29.889  1.00  0.00     0.029 A 
ATOM     42  N   UNL A   1      39.449  31.515  30.903  1.00  0.00    -0.354 N 
ATOM     43  C   UNL A   1      39.943  33.121  35.057  1.00  0.00     0.074 A 
ATOM     44  C   UNL A   1      38.834  32.381  35.597  1.00  0.00     0.031 C 
ATOM     45  C   UNL A   1      38.198  30.841  29.182  1.00  0.00     0.029 A 
ATOM     46  C   UNL A   1      39.497  30.660  29.804  1.00  0.00     0.049 A 
ATOM     47  H   UNL A   1      40.227  31.678  31.484  1.00  0.00     0.167 HD
ATOM     48  C   UNL A   1      41.245  33.201  35.444  1.00  0.00     0.037 A 
ATOM     49  C   UNL A   1      40.528  29.856  29.440  1.00  0.00     0.037 A 
ATOM     50  C   UNL A   1      41.992  34.057  34.554  1.00  0.00     0.049 A 
ATOM     51  C   UNL A   1      41.747  30.409  30.073  1.00  0.00     0.074 A 
ATOM     52  C   UNL A   1      41.923  35.379  34.164  1.00  0.00     0.029 A 
ATOM     53  N   UNL A   1      42.763  33.419  33.617  1.00  0.00    -0.354 N 
ATOM     54  N   UNL A   1      42.287  31.547  29.746  1.00  0.00    -0.248 NA
ATOM     55  C   UNL A   1      42.151  29.867  31.361  1.00  0.00     0.031 C 
ATOM     56  C   UNL A   1      42.300  35.381  32.789  1.00  0.00     0.029 A 
ATOM     57  C   UNL A   1      42.648  34.079  32.427  1.00  0.00     0.049 A 
ATOM     58  H   UNL A   1      43.310  32.616  33.777  1.00  0.00     0.167 HD
ATOM     59  C   UNL A   1      42.729  32.076  30.947  1.00  0.00     0.074 A 
ATOM     60  C   UNL A   1      42.742  30.947  31.874  1.00  0.00     0.031 C 
ATOM     61  C   UNL A   1      42.754  33.426  31.141  1.00  0.00     0.037 A 
BRANCH  48  62
ATOM     62  C   UNL A   1      41.938  32.155  36.293  1.00  0.00     0.057 A 
ATOM     63  C   UNL A   1      42.763  32.580  37.352  1.00  0.00     0.134 A 
ATOM     64  C   UNL A   1      42.104  30.806  35.916  1.00  0.00     0.134 A 
ATOM     65  F   UNL A   1      42.722  33.849  37.790  1.00  0.00    -0.206 F 
ATOM     66  C   UNL A   1      43.735  31.753  37.929  1.00  0.00     0.040 A 
ATOM     67  C   UNL A   1      43.033  29.956  36.522  1.00  0.00     0.040 A 
ATOM     68  F   UNL A   1      41.462  30.261  34.878  1.00  0.00    -0.206 F 
ATOM     69  C   UNL A   1      43.877  30.436  37.509  1.00  0.00     0.006 A 
ENDBRANCH  48  62
BRANCH  49  70
ATOM     70  C   UNL A   1      40.524  28.504  28.830  1.00  0.00     0.057 A 
ATOM     71  C   UNL A   1      39.889  27.427  29.473  1.00  0.00     0.134 A 
ATOM     72  C   UNL A   1      40.848  28.304  27.478  1.00  0.00     0.134 A 
ATOM     73  F   UNL A   1      39.511  27.526  30.756  1.00  0.00    -0.206 F 
ATOM     74  C   UNL A   1      39.543  26.249  28.798  1.00  0.00     0.040 A 
ATOM     75  C   UNL A   1      40.514  27.128  26.795  1.00  0.00     0.040 A 
ATOM     76  F   UNL A   1      41.411  29.278  26.750  1.00  0.00    -0.206 F 
ATOM     77  C   UNL A   1      39.839  26.104  27.448  1.00  0.00     0.006 A 
ENDBRANCH  49  70
BRANCH  61  78
ATOM     78  C   UNL A   1      42.668  34.319  29.936  1.00  0.00     0.057 A 
ATOM     79  C   UNL A   1      41.476  34.821  29.393  1.00  0.00     0.134 A 
ATOM     80  C   UNL A   1      43.866  34.830  29.422  1.00  0.00     0.134 A 
ATOM     81  F   UNL A   1      40.282  34.446  29.868  1.00  0.00    -0.206 F 
ATOM     82  C   UNL A   1      41.483  35.783  28.378  1.00  0.00     0.040 A 
ATOM     83  C   UNL A   1      43.885  35.815  28.434  1.00  0.00     0.040 A 
ATOM     84  F   UNL A   1      45.043  34.421  29.922  1.00  0.00    -0.206 F 
ATOM     85  C   UNL A   1      42.690  36.294  27.906  1.00  0.00     0.006 A 
ENDBRANCH  61  78
ENDBRANCH  35  36
ENDBRANCH  27  30
ENDBRANCH  25  26
ENDBRANCH  24  25
ENDBRANCH  23  24
ENDBRANCH  22  23
ENDBRANCH   1  22
TORSDOF 17
ENDMDL
MODEL 3
REMARK VINA RESULT:     -10.8      1.435      2.042
REMARK SMILES Cc1cc(C)c2c(OCCCC(=O)NCCCCCCNC(=O)c3ccc(-c4c5nc(c(-c6c(F)cccc6F)c6ccc([nH]6)c(-c6c(F)cccc6F)c6nc(c(-c7c(F)cccc7F)c7ccc4[nH]7)C=C6)C=C5)cc3)nsc2n1
REMARK SMILES IDX 16 1 15 2 14 3 12 4 13 5 11 7 10 8 9 9 8 10 7 11 1 12 2 13
REMARK SMILES IDX 3 14 81 15 4 16 80 17 5 18 6 19 79 20 78 21 17 22 18 23
REMARK SMILES IDX 19 24 20 25 21 26 22 27 23 29 24 30 25 31 77 32 26 33 76 34
REMARK SMILES IDX 27 35 28 36 29 37 70 38 30 39 75 40 69 41 71 42 31 43 74 44
REMARK SMILES IDX 68 45 67 46 32 48 58 49 41 50 57 51 42 52 45 53 56 54 72 55
REMARK SMILES IDX 43 56 44 57 55 59 73 60 46 61 33 62 34 63 39 64 35 65 36 66
REMARK SMILES IDX 38 67 40 68 37 69 59 70 60 71 65 72 61 73 62 74 64 75 66 76
REMARK SMILES IDX 63 77 47 78 48 79 53 80 49 81 50 82 52 83 54 84 51 85
REMARK H PARENT 14 6 21 28 71 47 45 58
REMARK Flexibility Score: inf
ROOT
ATOM      1  C   UNL A   1      38.344  21.685  25.635  1.00  0.00     0.021 C 
ENDROOT
BRANCH   1   2
ATOM      2  C   UNL A   1      37.925  20.241  25.182  1.00  0.00     0.116 C 
BRANCH   2   3
ATOM      3  N   UNL A   1      36.398  20.010  25.031  1.00  0.00    -0.356 N 
ATOM      4  C   UNL A   1      35.093  20.428  25.080  1.00  0.00     0.220 C 
ATOM      5  O   UNL A   1      34.365  19.498  24.658  1.00  0.00    -0.275 OA
ATOM      6  H   UNL A   1      36.332  19.068  24.754  1.00  0.00     0.163 HD
BRANCH   4   7
ATOM      7  C   UNL A   1      34.277  21.827  25.354  1.00  0.00     0.103 C 
BRANCH   7   8
ATOM      8  C   UNL A   1      33.506  22.523  26.592  1.00  0.00     0.051 C 
BRANCH   8   9
ATOM      9  C   UNL A   1      31.995  22.973  26.833  1.00  0.00     0.232 C 
BRANCH   9  10
ATOM     10  O   UNL A   1      31.567  24.315  27.118  1.00  0.00    -0.477 OA
BRANCH  10  11
ATOM     11  C   UNL A   1      31.162  25.191  26.162  1.00  0.00     0.235 A 
ATOM     12  C   UNL A   1      32.820  25.284  20.953  1.00  0.00     0.067 C 
ATOM     13  C   UNL A   1      32.468  25.621  22.378  1.00  0.00     0.039 A 
ATOM     14  C   UNL A   1      33.476  25.646  23.339  1.00  0.00     0.027 A 
ATOM     15  N   UNL A   1      31.182  25.907  22.669  1.00  0.00    -0.240 NA
ATOM     16  C   UNL A   1      33.174  25.813  24.706  1.00  0.00    -0.034 A 
ATOM     17  C   UNL A   1      30.926  25.874  23.994  1.00  0.00     0.147 A 
ATOM     18  C   UNL A   1      34.075  26.084  25.851  1.00  0.00     0.045 C 
ATOM     19  C   UNL A   1      31.839  25.653  25.010  1.00  0.00     0.078 A 
ATOM     20  S   UNL A   1      29.418  26.136  24.739  1.00  0.00    -0.012 S 
ATOM     21  N   UNL A   1      29.875  25.531  26.236  1.00  0.00    -0.153 NA
ENDBRANCH  10  11
ENDBRANCH   9  10
ENDBRANCH   8   9
ENDBRANCH   7   8
ENDBRANCH   4   7
ENDBRANCH   2   3
ENDBRANCH   1   2
BRANCH   1  22
ATOM     22  C   UNL A   1      39.784  21.847  26.152  1.00  0.00     0.002 C 
BRANCH  22  23
ATOM     23  C   UNL A   1      40.446  20.648  26.862  1.00  0.00     0.002 C 
BRANCH  23  24
ATOM     24  C   UNL A   1      41.317  19.678  26.038  1.00  0.00     0.021 C 
BRANCH  24  25
ATOM     25  C   UNL A   1      42.702  19.366  26.599  1.00  0.00     0.116 C 
BRANCH  25  26
ATOM     26  N   UNL A   1      43.734  19.256  25.578  1.00  0.00    -0.352 N 
ATOM     27  C   UNL A   1      44.344  20.259  24.842  1.00  0.00     0.251 C 
ATOM     28  H   UNL A   1      44.042  18.342  25.382  1.00  0.00     0.163 HD
ATOM     29  O   UNL A   1      44.950  19.999  23.824  1.00  0.00    -0.269 OA
BRANCH  27  30
ATOM     30  C   UNL A   1      44.246  21.659  25.308  1.00  0.00     0.039 A 
ATOM     31  C   UNL A   1      43.243  22.491  24.804  1.00  0.00     0.014 A 
ATOM     32  C   UNL A   1      45.170  22.145  26.234  1.00  0.00     0.014 A 
ATOM     33  C   UNL A   1      43.131  23.787  25.299  1.00  0.00     0.010 A 
ATOM     34  C   UNL A   1      44.996  23.388  26.802  1.00  0.00     0.010 A 
ATOM     35  C   UNL A   1      43.992  24.221  26.323  1.00  0.00    -0.014 A 
BRANCH  35  36
ATOM     36  C   UNL A   1      43.710  25.478  27.011  1.00  0.00     0.031 A 
ATOM     37  C   UNL A   1      44.689  26.551  26.682  1.00  0.00     0.074 A 
ATOM     38  C   UNL A   1      42.598  25.733  27.733  1.00  0.00     0.049 A 
ATOM     39  N   UNL A   1      45.601  27.034  27.456  1.00  0.00    -0.248 NA
ATOM     40  C   UNL A   1      44.784  27.016  25.287  1.00  0.00     0.031 C 
ATOM     41  C   UNL A   1      41.412  24.887  27.897  1.00  0.00     0.029 A 
ATOM     42  N   UNL A   1      42.254  26.862  28.419  1.00  0.00    -0.354 N 
ATOM     43  C   UNL A   1      46.231  28.034  26.721  1.00  0.00     0.074 A 
ATOM     44  C   UNL A   1      45.830  27.844  25.353  1.00  0.00     0.031 C 
ATOM     45  C   UNL A   1      40.405  25.613  28.436  1.00  0.00     0.029 A 
ATOM     46  C   UNL A   1      40.919  26.917  28.812  1.00  0.00     0.049 A 
ATOM     47  H   UNL A   1      42.898  27.579  28.620  1.00  0.00     0.167 HD
ATOM     48  C   UNL A   1      46.786  29.103  27.355  1.00  0.00     0.037 A 
ATOM     49  C   UNL A   1      40.283  27.963  29.398  1.00  0.00     0.037 A 
ATOM     50  C   UNL A   1      46.976  28.823  28.758  1.00  0.00     0.049 A 
ATOM     51  C   UNL A   1      41.330  28.813  30.009  1.00  0.00     0.074 A 
ATOM     52  C   UNL A   1      47.683  27.893  29.493  1.00  0.00     0.029 A 
ATOM     53  N   UNL A   1      46.041  29.356  29.607  1.00  0.00    -0.354 N 
ATOM     54  N   UNL A   1      42.056  28.456  31.029  1.00  0.00    -0.248 NA
ATOM     55  C   UNL A   1      41.844  29.927  29.229  1.00  0.00     0.031 C 
ATOM     56  C   UNL A   1      46.860  27.610  30.624  1.00  0.00     0.029 A 
ATOM     57  C   UNL A   1      45.731  28.428  30.561  1.00  0.00     0.049 A 
ATOM     58  H   UNL A   1      45.656  30.260  29.540  1.00  0.00     0.167 HD
ATOM     59  C   UNL A   1      43.309  28.979  30.759  1.00  0.00     0.074 A 
ATOM     60  C   UNL A   1      43.084  29.981  29.720  1.00  0.00     0.031 C 
ATOM     61  C   UNL A   1      44.433  28.340  31.193  1.00  0.00     0.037 A 
BRANCH  48  62
ATOM     62  C   UNL A   1      46.698  30.526  26.844  1.00  0.00     0.057 A 
ATOM     63  C   UNL A   1      47.842  31.344  26.918  1.00  0.00     0.134 A 
ATOM     64  C   UNL A   1      45.489  31.215  26.609  1.00  0.00     0.134 A 
ATOM     65  F   UNL A   1      49.051  30.816  27.162  1.00  0.00    -0.206 F 
ATOM     66  C   UNL A   1      47.774  32.742  26.851  1.00  0.00     0.040 A 
ATOM     67  C   UNL A   1      45.418  32.605  26.487  1.00  0.00     0.040 A 
ATOM     68  F   UNL A   1      44.300  30.604  26.592  1.00  0.00    -0.206 F 
ATOM     69  C   UNL A   1      46.556  33.377  26.642  1.00  0.00     0.006 A 
ENDBRANCH  48  62
BRANCH  49  70
ATOM     70  C   UNL A   1      38.890  28.450  29.244  1.00  0.00     0.057 A 
ATOM     71  C   UNL A   1      38.021  28.502  30.346  1.00  0.00     0.134 A 
ATOM     72  C   UNL A   1      38.483  29.171  28.109  1.00  0.00     0.134 A 
ATOM     73  F   UNL A   1      38.330  27.872  31.490  1.00  0.00    -0.206 F 
ATOM     74  C   UNL A   1      36.849  29.271  30.343  1.00  0.00     0.040 A 
ATOM     75  C   UNL A   1      37.311  29.937  28.090  1.00  0.00     0.040 A 
ATOM     76  F   UNL A   1      39.255  29.234  27.016  1.00  0.00    -0.206 F 
ATOM     77  C   UNL A   1      36.500  30.008  29.217  1.00  0.00     0.006 A 
ENDBRANCH  49  70
BRANCH  61  78
ATOM     78  C   UNL A   1      44.291  27.301  32.269  1.00  0.00     0.057 A 
ATOM     79  C   UNL A   1      44.180  25.922  32.042  1.00  0.00     0.134 A 
ATOM     80  C   UNL A   1      44.456  27.716  33.596  1.00  0.00     0.134 A 
ATOM     81  F   UNL A   1      44.090  25.425  30.801  1.00  0.00    -0.206 F 
ATOM     82  C   UNL A   1      44.223  25.001  33.093  1.00  0.00     0.040 A 
ATOM     83  C   UNL A   1      44.536  26.805  34.650  1.00  0.00     0.040 A 
ATOM     84  F   UNL A   1      44.607  29.019  33.881  1.00  0.00    -0.206 F 
ATOM     85  C   UNL A   1      44.418  25.441  34.401  1.00  0.00     0.006 A 
ENDBRANCH  61  78
ENDBRANCH  35  36
ENDBRANCH  27  30
ENDBRANCH  25  26
ENDBRANCH  24  25
ENDBRANCH  23  24
ENDBRANCH  22  23
ENDBRANCH   1  22
TORSDOF 17
ENDMDL
