MODEL 1
REMARK VINA RESULT:     -11.9      0.000      0.000
REMARK SMILES Cc1ccc(/C=C/C(=O)N2CCC[C@@H](C(=O)NCCCCCCNC(=O)c3ccc(-c4c5nc(c(-c6c(F)cccc6F)c6ccc([nH]6)c(-c6c(F)cccc6F)c6nc(c(-c7c(F)cccc7F)c7ccc4[nH]7)C=C6)C=C5)cc3)C2)s1
REMARK SMILES IDX 20 1 19 2 18 3 17 4 15 5 16 6 14 8 10 9 11 10 81 11 12 12
REMARK SMILES IDX 13 13 8 14 9 15 7 16 6 17 5 18 1 19 2 20 3 21 82 22 4 23
REMARK SMILES IDX 21 24 22 25 23 26 24 27 25 28 26 30 27 31 28 32 80 33 29 34
REMARK SMILES IDX 79 35 30 36 31 37 32 38 73 39 33 40 78 41 72 42 74 43 34 44
REMARK SMILES IDX 77 45 71 46 70 47 35 49 61 50 44 51 60 52 45 53 48 54 59 55
REMARK SMILES IDX 75 56 46 57 47 58 58 60 76 61 49 62 36 63 37 64 42 65 38 66
REMARK SMILES IDX 39 67 41 68 43 69 40 70 62 71 63 72 68 73 64 74 65 75 67 76
REMARK SMILES IDX 69 77 66 78 50 79 51 80 56 81 52 82 53 83 55 84 57 85 54 86
REMARK H PARENT 17 7 24 29 74 48 48 59
REMARK Flexibility Score: inf
ROOT
ATOM      1  C   UNL A   1      32.831  29.999  26.608  1.00  0.00     0.002 C 
ENDROOT
BRANCH   1   2
ATOM      2  C   UNL A   1      32.474  28.620  27.174  1.00  0.00     0.021 C 
BRANCH   2   3
ATOM      3  C   UNL A   1      31.779  27.698  26.175  1.00  0.00     0.116 C 
BRANCH   3   4
ATOM      4  N   UNL A   1      31.325  26.474  26.814  1.00  0.00    -0.356 N 
ATOM      5  C   UNL A   1      31.550  25.167  26.514  1.00  0.00     0.224 C 
ATOM      6  O   UNL A   1      31.005  24.317  27.220  1.00  0.00    -0.275 OA
ATOM      7  H   UNL A   1      30.755  26.618  27.604  1.00  0.00     0.163 HD
BRANCH   5   8
ATOM      8  C   UNL A   1      32.452  24.754  25.362  1.00  0.00     0.098 C 
ATOM      9  N   UNL A   1      33.663  22.774  24.417  1.00  0.00    -0.338 N 
ATOM     10  C   UNL A   1      32.860  22.849  23.204  1.00  0.00     0.120 C 
ATOM     11  C   UNL A   1      33.093  23.381  25.622  1.00  0.00     0.133 C 
ATOM     12  C   UNL A   1      32.512  24.288  22.868  1.00  0.00     0.022 C 
ATOM     13  C   UNL A   1      31.737  24.926  24.012  1.00  0.00     0.017 C 
BRANCH   9  14
ATOM     14  C   UNL A   1      34.882  22.124  24.346  1.00  0.00     0.246 C 
ATOM     15  O   UNL A   1      35.919  22.682  23.990  1.00  0.00    -0.270 OA
BRANCH  14  16
ATOM     16  C   UNL A   1      34.955  20.674  24.651  1.00  0.00     0.073 C 
ATOM     17  C   UNL A   1      33.848  19.914  24.662  1.00  0.00     0.024 C 
BRANCH  17  18
ATOM     18  C   UNL A   1      33.854  18.487  24.694  1.00  0.00     0.027 A 
ATOM     19  C   UNL A   1      32.693  14.809  25.512  1.00  0.00     0.056 C 
ATOM     20  C   UNL A   1      33.359  16.082  25.115  1.00  0.00     0.002 A 
ATOM     21  C   UNL A   1      34.653  16.278  24.692  1.00  0.00     0.016 A 
ATOM     22  S   UNL A   1      32.489  17.550  25.171  1.00  0.00    -0.141 S 
ATOM     23  C   UNL A   1      34.936  17.655  24.453  1.00  0.00     0.020 A 
ENDBRANCH  17  18
ENDBRANCH  14  16
ENDBRANCH   9  14
ENDBRANCH   5   8
ENDBRANCH   3   4
ENDBRANCH   2   3
ENDBRANCH   1   2
BRANCH   1  24
ATOM     24  C   UNL A   1      31.662  30.765  25.978  1.00  0.00     0.002 C 
BRANCH  24  25
ATOM     25  C   UNL A   1      31.395  32.148  26.574  1.00  0.00     0.021 C 
BRANCH  25  26
ATOM     26  C   UNL A   1      32.576  32.760  27.320  1.00  0.00     0.116 C 
BRANCH  26  27
ATOM     27  N   UNL A   1      32.359  34.160  27.642  1.00  0.00    -0.352 N 
ATOM     28  C   UNL A   1      32.990  34.945  28.571  1.00  0.00     0.251 C 
ATOM     29  H   UNL A   1      31.658  34.609  27.117  1.00  0.00     0.163 HD
ATOM     30  O   UNL A   1      32.552  36.063  28.836  1.00  0.00    -0.269 OA
BRANCH  28  31
ATOM     31  C   UNL A   1      34.188  34.439  29.272  1.00  0.00     0.039 A 
ATOM     32  C   UNL A   1      34.031  33.822  30.516  1.00  0.00     0.014 A 
ATOM     33  C   UNL A   1      35.460  34.574  28.709  1.00  0.00     0.014 A 
ATOM     34  C   UNL A   1      35.145  33.290  31.168  1.00  0.00     0.010 A 
ATOM     35  C   UNL A   1      36.557  33.979  29.325  1.00  0.00     0.010 A 
ATOM     36  C   UNL A   1      36.411  33.334  30.563  1.00  0.00    -0.014 A 
BRANCH  36  37
ATOM     37  C   UNL A   1      37.594  32.711  31.210  1.00  0.00     0.031 A 
ATOM     38  C   UNL A   1      38.258  31.516  30.583  1.00  0.00     0.074 A 
ATOM     39  C   UNL A   1      38.029  33.181  32.394  1.00  0.00     0.049 A 
ATOM     40  N   UNL A   1      39.257  30.797  31.029  1.00  0.00    -0.248 NA
ATOM     41  C   UNL A   1      37.711  31.052  29.298  1.00  0.00     0.031 C 
ATOM     42  C   UNL A   1      37.441  34.305  33.127  1.00  0.00     0.029 A 
ATOM     43  N   UNL A   1      39.063  32.768  33.196  1.00  0.00    -0.354 N 
ATOM     44  C   UNL A   1      39.448  29.793  30.089  1.00  0.00     0.074 A 
ATOM     45  C   UNL A   1      38.428  29.962  29.076  1.00  0.00     0.031 C 
ATOM     46  C   UNL A   1      38.137  34.505  34.257  1.00  0.00     0.029 A 
ATOM     47  C   UNL A   1      39.193  33.502  34.350  1.00  0.00     0.049 A 
ATOM     48  H   UNL A   1      39.656  32.016  32.965  1.00  0.00     0.167 HD
ATOM     49  C   UNL A   1      40.403  28.832  30.058  1.00  0.00     0.037 A 
ATOM     50  C   UNL A   1      40.061  33.375  35.373  1.00  0.00     0.037 A 
ATOM     51  C   UNL A   1      41.429  28.680  31.056  1.00  0.00     0.049 A 
ATOM     52  C   UNL A   1      41.102  32.291  35.322  1.00  0.00     0.074 A 
ATOM     53  C   UNL A   1      42.475  27.775  31.086  1.00  0.00     0.029 A 
ATOM     54  N   UNL A   1      41.535  29.451  32.204  1.00  0.00    -0.354 N 
ATOM     55  N   UNL A   1      41.315  31.391  34.393  1.00  0.00    -0.248 NA
ATOM     56  C   UNL A   1      42.028  32.210  36.459  1.00  0.00     0.031 C 
ATOM     57  C   UNL A   1      43.185  27.966  32.275  1.00  0.00     0.029 A 
ATOM     58  C   UNL A   1      42.615  29.025  32.961  1.00  0.00     0.049 A 
ATOM     59  H   UNL A   1      40.932  30.191  32.446  1.00  0.00     0.167 HD
ATOM     60  C   UNL A   1      42.415  30.658  34.817  1.00  0.00     0.074 A 
ATOM     61  C   UNL A   1      42.833  31.227  36.082  1.00  0.00     0.031 C 
ATOM     62  C   UNL A   1      43.024  29.607  34.215  1.00  0.00     0.037 A 
BRANCH  49  63
ATOM     63  C   UNL A   1      40.381  27.869  28.906  1.00  0.00     0.057 A 
ATOM     64  C   UNL A   1      39.625  26.689  28.944  1.00  0.00     0.134 A 
ATOM     65  C   UNL A   1      41.094  28.140  27.733  1.00  0.00     0.134 A 
ATOM     66  F   UNL A   1      38.927  26.363  30.043  1.00  0.00    -0.206 F 
ATOM     67  C   UNL A   1      39.602  25.800  27.868  1.00  0.00     0.040 A 
ATOM     68  C   UNL A   1      41.056  27.274  26.639  1.00  0.00     0.040 A 
ATOM     69  F   UNL A   1      41.833  29.254  27.625  1.00  0.00    -0.206 F 
ATOM     70  C   UNL A   1      40.314  26.095  26.708  1.00  0.00     0.006 A 
ENDBRANCH  49  63
BRANCH  50  71
ATOM     71  C   UNL A   1      39.995  34.310  36.524  1.00  0.00     0.057 A 
ATOM     72  C   UNL A   1      39.317  33.964  37.697  1.00  0.00     0.134 A 
ATOM     73  C   UNL A   1      40.597  35.574  36.475  1.00  0.00     0.134 A 
ATOM     74  F   UNL A   1      38.705  32.774  37.798  1.00  0.00    -0.206 F 
ATOM     75  C   UNL A   1      39.220  34.846  38.775  1.00  0.00     0.040 A 
ATOM     76  C   UNL A   1      40.531  36.456  37.554  1.00  0.00     0.040 A 
ATOM     77  F   UNL A   1      41.269  35.962  35.382  1.00  0.00    -0.206 F 
ATOM     78  C   UNL A   1      39.833  36.096  38.705  1.00  0.00     0.006 A 
ENDBRANCH  50  71
BRANCH  62  79
ATOM     79  C   UNL A   1      44.231  29.028  34.895  1.00  0.00     0.057 A 
ATOM     80  C   UNL A   1      45.526  29.486  34.625  1.00  0.00     0.134 A 
ATOM     81  C   UNL A   1      44.088  28.025  35.862  1.00  0.00     0.134 A 
ATOM     82  F   UNL A   1      45.732  30.435  33.699  1.00  0.00    -0.206 F 
ATOM     83  C   UNL A   1      46.639  28.951  35.274  1.00  0.00     0.040 A 
ATOM     84  C   UNL A   1      45.190  27.501  36.540  1.00  0.00     0.040 A 
ATOM     85  F   UNL A   1      42.874  27.547  36.176  1.00  0.00    -0.206 F 
ATOM     86  C   UNL A   1      46.471  27.961  36.241  1.00  0.00     0.006 A 
ENDBRANCH  62  79
ENDBRANCH  36  37
ENDBRANCH  28  31
ENDBRANCH  26  27
ENDBRANCH  25  26
ENDBRANCH  24  25
ENDBRANCH   1  24
TORSDOF 16
ENDMDL
MODEL 2
REMARK VINA RESULT:     -11.8      3.778      7.820
REMARK SMILES Cc1ccc(/C=C/C(=O)N2CCC[C@@H](C(=O)NCCCCCCNC(=O)c3ccc(-c4c5nc(c(-c6c(F)cccc6F)c6ccc([nH]6)c(-c6c(F)cccc6F)c6nc(c(-c7c(F)cccc7F)c7ccc4[nH]7)C=C6)C=C5)cc3)C2)s1
REMARK SMILES IDX 20 1 19 2 18 3 17 4 15 5 16 6 14 8 10 9 11 10 81 11 12 12
REMARK SMILES IDX 13 13 8 14 9 15 7 16 6 17 5 18 1 19 2 20 3 21 82 22 4 23
REMARK SMILES IDX 21 24 22 25 23 26 24 27 25 28 26 30 27 31 28 32 80 33 29 34
REMARK SMILES IDX 79 35 30 36 31 37 32 38 73 39 33 40 78 41 72 42 74 43 34 44
REMARK SMILES IDX 77 45 71 46 70 47 35 49 61 50 44 51 60 52 45 53 48 54 59 55
REMARK SMILES IDX 75 56 46 57 47 58 58 60 76 61 49 62 36 63 37 64 42 65 38 66
REMARK SMILES IDX 39 67 41 68 43 69 40 70 62 71 63 72 68 73 64 74 65 75 67 76
REMARK SMILES IDX 69 77 66 78 50 79 51 80 56 81 52 82 53 83 55 84 57 85 54 86
REMARK H PARENT 17 7 24 29 74 48 48 59
REMARK Flexibility Score: inf
ROOT
ATOM      1  C   UNL A   1      31.059  29.035  24.707  1.00  0.00     0.002 C 
ENDROOT
BRANCH   1   2
ATOM      2  C   UNL A   1      31.328  28.943  23.201  1.00  0.00     0.021 C 
BRANCH   2   3
ATOM      3  C   UNL A   1      30.674  27.742  22.523  1.00  0.00     0.116 C 
BRANCH   3   4
ATOM      4  N   UNL A   1      31.563  27.140  21.545  1.00  0.00    -0.356 N 
ATOM      5  C   UNL A   1      32.497  26.157  21.663  1.00  0.00     0.224 C 
ATOM      6  O   UNL A   1      33.142  25.859  20.657  1.00  0.00    -0.275 OA
ATOM      7  H   UNL A   1      31.473  27.507  20.636  1.00  0.00     0.163 HD
BRANCH   5   8
ATOM      8  C   UNL A   1      32.735  25.434  22.979  1.00  0.00     0.098 C 
ATOM      9  N   UNL A   1      33.101  23.147  23.934  1.00  0.00    -0.338 N 
ATOM     10  C   UNL A   1      34.424  23.542  24.399  1.00  0.00     0.120 C 
ATOM     11  C   UNL A   1      32.537  23.918  22.824  1.00  0.00     0.133 C 
ATOM     12  C   UNL A   1      34.446  25.005  24.803  1.00  0.00     0.022 C 
ATOM     13  C   UNL A   1      34.055  25.885  23.625  1.00  0.00     0.017 C 
BRANCH   9  14
ATOM     14  C   UNL A   1      32.491  22.072  24.556  1.00  0.00     0.246 C 
ATOM     15  O   UNL A   1      31.582  22.198  25.375  1.00  0.00    -0.270 OA
BRANCH  14  16
ATOM     16  C   UNL A   1      32.979  20.697  24.281  1.00  0.00     0.073 C 
ATOM     17  C   UNL A   1      32.749  19.697  25.147  1.00  0.00     0.024 C 
BRANCH  17  18
ATOM     18  C   UNL A   1      32.955  18.316  24.851  1.00  0.00     0.027 A 
ATOM     19  C   UNL A   1      33.130  14.414  25.385  1.00  0.00     0.056 C 
ATOM     20  C   UNL A   1      33.184  15.837  24.947  1.00  0.00     0.002 A 
ATOM     21  C   UNL A   1      33.813  16.373  23.846  1.00  0.00     0.016 A 
ATOM     22  S   UNL A   1      32.406  17.042  25.872  1.00  0.00    -0.141 S 
ATOM     23  C   UNL A   1      33.682  17.792  23.793  1.00  0.00     0.020 A 
ENDBRANCH  17  18
ENDBRANCH  14  16
ENDBRANCH   9  14
ENDBRANCH   5   8
ENDBRANCH   3   4
ENDBRANCH   2   3
ENDBRANCH   1   2
BRANCH   1  24
ATOM     24  C   UNL A   1      31.970  28.168  25.584  1.00  0.00     0.002 C 
BRANCH  24  25
ATOM     25  C   UNL A   1      33.398  28.689  25.751  1.00  0.00     0.021 C 
BRANCH  25  26
ATOM     26  C   UNL A   1      33.894  28.741  27.192  1.00  0.00     0.116 C 
BRANCH  26  27
ATOM     27  N   UNL A   1      33.823  30.081  27.751  1.00  0.00    -0.352 N 
ATOM     28  C   UNL A   1      34.756  30.764  28.487  1.00  0.00     0.251 C 
ATOM     29  H   UNL A   1      32.986  30.568  27.574  1.00  0.00     0.163 HD
ATOM     30  O   UNL A   1      34.455  31.824  29.035  1.00  0.00    -0.269 OA
BRANCH  28  31
ATOM     31  C   UNL A   1      36.119  30.216  28.642  1.00  0.00     0.039 A 
ATOM     32  C   UNL A   1      37.003  30.291  27.563  1.00  0.00     0.014 A 
ATOM     33  C   UNL A   1      36.522  29.625  29.842  1.00  0.00     0.014 A 
ATOM     34  C   UNL A   1      38.312  29.827  27.708  1.00  0.00     0.010 A 
ATOM     35  C   UNL A   1      37.846  29.229  30.009  1.00  0.00     0.010 A 
ATOM     36  C   UNL A   1      38.753  29.323  28.942  1.00  0.00    -0.014 A 
BRANCH  36  37
ATOM     37  C   UNL A   1      40.161  28.890  29.135  1.00  0.00     0.031 A 
ATOM     38  C   UNL A   1      41.170  29.835  29.725  1.00  0.00     0.074 A 
ATOM     39  C   UNL A   1      40.543  27.667  28.720  1.00  0.00     0.049 A 
ATOM     40  N   UNL A   1      42.454  29.663  29.911  1.00  0.00    -0.248 NA
ATOM     41  C   UNL A   1      40.676  31.159  30.137  1.00  0.00     0.031 C 
ATOM     42  C   UNL A   1      39.669  26.675  28.091  1.00  0.00     0.029 A 
ATOM     43  N   UNL A   1      41.770  27.052  28.757  1.00  0.00    -0.354 N 
ATOM     44  C   UNL A   1      42.922  30.857  30.447  1.00  0.00     0.074 A 
ATOM     45  C   UNL A   1      41.795  31.763  30.506  1.00  0.00     0.031 C 
ATOM     46  C   UNL A   1      40.381  25.568  27.822  1.00  0.00     0.029 A 
ATOM     47  C   UNL A   1      41.768  25.787  28.222  1.00  0.00     0.049 A 
ATOM     48  H   UNL A   1      42.574  27.479  29.132  1.00  0.00     0.167 HD
ATOM     49  C   UNL A   1      44.170  31.161  30.875  1.00  0.00     0.037 A 
ATOM     50  C   UNL A   1      42.774  24.905  28.063  1.00  0.00     0.037 A 
ATOM     51  C   UNL A   1      45.284  30.250  30.834  1.00  0.00     0.049 A 
ATOM     52  C   UNL A   1      44.154  25.272  28.534  1.00  0.00     0.074 A 
ATOM     53  C   UNL A   1      46.574  30.443  31.295  1.00  0.00     0.029 A 
ATOM     54  N   UNL A   1      45.240  28.972  30.296  1.00  0.00    -0.354 N 
ATOM     55  N   UNL A   1      44.567  26.379  29.102  1.00  0.00    -0.248 NA
ATOM     56  C   UNL A   1      45.207  24.265  28.346  1.00  0.00     0.031 C 
ATOM     57  C   UNL A   1      47.323  29.302  30.993  1.00  0.00     0.029 A 
ATOM     58  C   UNL A   1      46.486  28.376  30.392  1.00  0.00     0.049 A 
ATOM     59  H   UNL A   1      44.441  28.551  29.904  1.00  0.00     0.167 HD
ATOM     60  C   UNL A   1      45.917  26.191  29.367  1.00  0.00     0.074 A 
ATOM     61  C   UNL A   1      46.250  24.858  28.909  1.00  0.00     0.031 C 
ATOM     62  C   UNL A   1      46.802  27.045  29.938  1.00  0.00     0.037 A 
BRANCH  49  63
ATOM     63  C   UNL A   1      44.398  32.540  31.424  1.00  0.00     0.057 A 
ATOM     64  C   UNL A   1      44.189  32.840  32.778  1.00  0.00     0.134 A 
ATOM     65  C   UNL A   1      44.865  33.571  30.600  1.00  0.00     0.134 A 
ATOM     66  F   UNL A   1      43.731  31.901  33.620  1.00  0.00    -0.206 F 
ATOM     67  C   UNL A   1      44.409  34.122  33.285  1.00  0.00     0.040 A 
ATOM     68  C   UNL A   1      45.117  34.849  31.102  1.00  0.00     0.040 A 
ATOM     69  F   UNL A   1      45.093  33.352  29.296  1.00  0.00    -0.206 F 
ATOM     70  C   UNL A   1      44.882  35.129  32.447  1.00  0.00     0.006 A 
ENDBRANCH  49  63
BRANCH  50  71
ATOM     71  C   UNL A   1      42.510  23.579  27.448  1.00  0.00     0.057 A 
ATOM     72  C   UNL A   1      42.205  22.465  28.239  1.00  0.00     0.134 A 
ATOM     73  C   UNL A   1      42.567  23.390  26.062  1.00  0.00     0.134 A 
ATOM     74  F   UNL A   1      42.153  22.579  29.574  1.00  0.00    -0.206 F 
ATOM     75  C   UNL A   1      41.986  21.207  27.676  1.00  0.00     0.040 A 
ATOM     76  C   UNL A   1      42.324  22.144  25.484  1.00  0.00     0.040 A 
ATOM     77  F   UNL A   1      42.846  24.420  25.250  1.00  0.00    -0.206 F 
ATOM     78  C   UNL A   1      42.041  21.045  26.293  1.00  0.00     0.006 A 
ENDBRANCH  50  71
BRANCH  62  79
ATOM     79  C   UNL A   1      48.206  26.551  30.135  1.00  0.00     0.057 A 
ATOM     80  C   UNL A   1      48.591  25.849  31.284  1.00  0.00     0.134 A 
ATOM     81  C   UNL A   1      49.174  26.749  29.142  1.00  0.00     0.134 A 
ATOM     82  F   UNL A   1      47.715  25.639  32.278  1.00  0.00    -0.206 F 
ATOM     83  C   UNL A   1      49.896  25.381  31.450  1.00  0.00     0.040 A 
ATOM     84  C   UNL A   1      50.475  26.261  29.283  1.00  0.00     0.040 A 
ATOM     85  F   UNL A   1      48.869  27.404  28.013  1.00  0.00    -0.206 F 
ATOM     86  C   UNL A   1      50.839  25.581  30.443  1.00  0.00     0.006 A 
ENDBRANCH  62  79
ENDBRANCH  36  37
ENDBRANCH  28  31
ENDBRANCH  26  27
ENDBRANCH  25  26
ENDBRANCH  24  25
ENDBRANCH   1  24
TORSDOF 16
ENDMDL
MODEL 3
REMARK VINA RESULT:     -11.8      1.926      6.642
REMARK SMILES Cc1ccc(/C=C/C(=O)N2CCC[C@@H](C(=O)NCCCCCCNC(=O)c3ccc(-c4c5nc(c(-c6c(F)cccc6F)c6ccc([nH]6)c(-c6c(F)cccc6F)c6nc(c(-c7c(F)cccc7F)c7ccc4[nH]7)C=C6)C=C5)cc3)C2)s1
REMARK SMILES IDX 20 1 19 2 18 3 17 4 15 5 16 6 14 8 10 9 11 10 81 11 12 12
REMARK SMILES IDX 13 13 8 14 9 15 7 16 6 17 5 18 1 19 2 20 3 21 82 22 4 23
REMARK SMILES IDX 21 24 22 25 23 26 24 27 25 28 26 30 27 31 28 32 80 33 29 34
REMARK SMILES IDX 79 35 30 36 31 37 32 38 73 39 33 40 78 41 72 42 74 43 34 44
REMARK SMILES IDX 77 45 71 46 70 47 35 49 61 50 44 51 60 52 45 53 48 54 59 55
REMARK SMILES IDX 75 56 46 57 47 58 58 60 76 61 49 62 36 63 37 64 42 65 38 66
REMARK SMILES IDX 39 67 41 68 43 69 40 70 62 71 63 72 68 73 64 74 65 75 67 76
REMARK SMILES IDX 69 77 66 78 50 79 51 80 56 81 52 82 53 83 55 84 57 85 54 86
REMARK H PARENT 17 7 24 29 74 48 48 59
REMARK Flexibility Score: inf
ROOT
ATOM      1  C   UNL A   1      34.277  32.284  29.147  1.00  0.00     0.002 C 
ENDROOT
BRANCH   1   2
ATOM      2  C   UNL A   1      34.916  31.197  28.276  1.00  0.00     0.021 C 
BRANCH   2   3
ATOM      3  C   UNL A   1      34.001  30.663  27.176  1.00  0.00     0.116 C 
BRANCH   3   4
ATOM      4  N   UNL A   1      33.158  29.587  27.667  1.00  0.00    -0.356 N 
ATOM      5  C   UNL A   1      32.465  28.617  27.011  1.00  0.00     0.224 C 
ATOM      6  O   UNL A   1      31.794  27.837  27.689  1.00  0.00    -0.275 OA
ATOM      7  H   UNL A   1      33.074  29.554  28.648  1.00  0.00     0.163 HD
BRANCH   5   8
ATOM      8  C   UNL A   1      32.522  28.477  25.498  1.00  0.00     0.098 C 
ATOM      9  N   UNL A   1      32.463  26.762  23.673  1.00  0.00    -0.338 N 
ATOM     10  C   UNL A   1      31.236  27.347  23.149  1.00  0.00     0.120 C 
ATOM     11  C   UNL A   1      32.763  27.017  25.084  1.00  0.00     0.133 C 
ATOM     12  C   UNL A   1      31.218  28.851  23.354  1.00  0.00     0.022 C 
ATOM     13  C   UNL A   1      31.329  29.184  24.834  1.00  0.00     0.017 C 
BRANCH   9  14
ATOM     14  C   UNL A   1      33.235  26.001  22.813  1.00  0.00     0.246 C 
ATOM     15  O   UNL A   1      33.851  26.481  21.863  1.00  0.00    -0.270 OA
BRANCH  14  16
ATOM     16  C   UNL A   1      33.290  24.529  22.992  1.00  0.00     0.073 C 
ATOM     17  C   UNL A   1      34.372  23.938  23.523  1.00  0.00     0.024 C 
BRANCH  17  18
ATOM     18  C   UNL A   1      34.411  22.579  23.961  1.00  0.00     0.027 A 
ATOM     19  C   UNL A   1      33.122  19.036  25.112  1.00  0.00     0.056 C 
ATOM     20  C   UNL A   1      33.852  20.284  24.750  1.00  0.00     0.002 A 
ATOM     21  C   UNL A   1      35.169  20.606  24.986  1.00  0.00     0.016 A 
ATOM     22  S   UNL A   1      33.032  21.546  23.947  1.00  0.00    -0.141 S 
ATOM     23  C   UNL A   1      35.487  21.920  24.535  1.00  0.00     0.020 A 
ENDBRANCH  17  18
ENDBRANCH  14  16
ENDBRANCH   9  14
ENDBRANCH   5   8
ENDBRANCH   3   4
ENDBRANCH   2   3
ENDBRANCH   1   2
BRANCH   1  24
ATOM     24  C   UNL A   1      34.447  33.716  28.627  1.00  0.00     0.002 C 
BRANCH  24  25
ATOM     25  C   UNL A   1      33.216  34.612  28.779  1.00  0.00     0.021 C 
BRANCH  25  26
ATOM     26  C   UNL A   1      33.480  35.944  29.473  1.00  0.00     0.116 C 
BRANCH  26  27
ATOM     27  N   UNL A   1      32.576  36.172  30.588  1.00  0.00    -0.352 N 
ATOM     28  C   UNL A   1      32.642  35.694  31.871  1.00  0.00     0.251 C 
ATOM     29  H   UNL A   1      31.806  36.754  30.394  1.00  0.00     0.163 HD
ATOM     30  O   UNL A   1      31.690  35.841  32.635  1.00  0.00    -0.269 OA
BRANCH  28  31
ATOM     31  C   UNL A   1      33.852  34.981  32.329  1.00  0.00     0.039 A 
ATOM     32  C   UNL A   1      33.731  33.661  32.769  1.00  0.00     0.014 A 
ATOM     33  C   UNL A   1      35.099  35.612  32.331  1.00  0.00     0.014 A 
ATOM     34  C   UNL A   1      34.871  32.953  33.155  1.00  0.00     0.010 A 
ATOM     35  C   UNL A   1      36.243  34.884  32.647  1.00  0.00     0.010 A 
ATOM     36  C   UNL A   1      36.140  33.548  33.065  1.00  0.00    -0.014 A 
BRANCH  36  37
ATOM     37  C   UNL A   1      37.370  32.788  33.405  1.00  0.00     0.031 A 
ATOM     38  C   UNL A   1      38.116  33.084  34.676  1.00  0.00     0.074 A 
ATOM     39  C   UNL A   1      37.849  31.876  32.538  1.00  0.00     0.049 A 
ATOM     40  N   UNL A   1      39.240  32.575  35.114  1.00  0.00    -0.248 NA
ATOM     41  C   UNL A   1      37.536  34.107  35.562  1.00  0.00     0.031 C 
ATOM     42  C   UNL A   1      37.242  31.531  31.251  1.00  0.00     0.029 A 
ATOM     43  N   UNL A   1      38.963  31.077  32.603  1.00  0.00    -0.354 N 
ATOM     44  C   UNL A   1      39.507  33.222  36.313  1.00  0.00     0.074 A 
ATOM     45  C   UNL A   1      38.457  34.198  36.509  1.00  0.00     0.031 C 
ATOM     46  C   UNL A   1      37.977  30.575  30.659  1.00  0.00     0.029 A 
ATOM     47  C   UNL A   1      39.128  30.269  31.505  1.00  0.00     0.049 A 
ATOM     48  H   UNL A   1      39.585  31.083  33.367  1.00  0.00     0.167 HD
ATOM     49  C   UNL A   1      40.519  33.004  37.185  1.00  0.00     0.037 A 
ATOM     50  C   UNL A   1      40.101  29.387  31.207  1.00  0.00     0.037 A 
ATOM     51  C   UNL A   1      41.550  32.016  36.998  1.00  0.00     0.049 A 
ATOM     52  C   UNL A   1      41.222  29.174  32.186  1.00  0.00     0.074 A 
ATOM     53  C   UNL A   1      42.588  31.680  37.850  1.00  0.00     0.029 A 
ATOM     54  N   UNL A   1      41.676  31.209  35.878  1.00  0.00    -0.354 N 
ATOM     55  N   UNL A   1      41.425  29.744  33.349  1.00  0.00    -0.248 NA
ATOM     56  C   UNL A   1      42.248  28.191  31.813  1.00  0.00     0.031 C 
ATOM     57  C   UNL A   1      43.369  30.704  37.224  1.00  0.00     0.029 A 
ATOM     58  C   UNL A   1      42.788  30.392  36.006  1.00  0.00     0.049 A 
ATOM     59  H   UNL A   1      41.066  31.215  35.105  1.00  0.00     0.167 HD
ATOM     60  C   UNL A   1      42.581  29.168  33.859  1.00  0.00     0.074 A 
ATOM     61  C   UNL A   1      43.028  28.194  32.885  1.00  0.00     0.031 C 
ATOM     62  C   UNL A   1      43.216  29.422  35.030  1.00  0.00     0.037 A 
BRANCH  49  63
ATOM     63  C   UNL A   1      40.563  33.853  38.424  1.00  0.00     0.057 A 
ATOM     64  C   UNL A   1      39.841  33.515  39.577  1.00  0.00     0.134 A 
ATOM     65  C   UNL A   1      41.362  35.001  38.477  1.00  0.00     0.134 A 
ATOM     66  F   UNL A   1      39.047  32.433  39.590  1.00  0.00    -0.206 F 
ATOM     67  C   UNL A   1      39.891  34.303  40.728  1.00  0.00     0.040 A 
ATOM     68  C   UNL A   1      41.443  35.781  39.632  1.00  0.00     0.040 A 
ATOM     69  F   UNL A   1      42.085  35.379  37.412  1.00  0.00    -0.206 F 
ATOM     70  C   UNL A   1      40.699  35.437  40.760  1.00  0.00     0.006 A 
ENDBRANCH  49  63
BRANCH  50  71
ATOM     71  C   UNL A   1      40.049  28.624  29.935  1.00  0.00     0.057 A 
ATOM     72  C   UNL A   1      39.331  27.426  29.841  1.00  0.00     0.134 A 
ATOM     73  C   UNL A   1      40.723  29.063  28.789  1.00  0.00     0.134 A 
ATOM     74  F   UNL A   1      38.679  26.944  30.910  1.00  0.00    -0.206 F 
ATOM     75  C   UNL A   1      39.300  26.682  28.661  1.00  0.00     0.040 A 
ATOM     76  C   UNL A   1      40.678  28.343  27.594  1.00  0.00     0.040 A 
ATOM     77  F   UNL A   1      41.421  30.207  28.811  1.00  0.00    -0.206 F 
ATOM     78  C   UNL A   1      39.972  27.144  27.531  1.00  0.00     0.006 A 
ENDBRANCH  50  71
BRANCH  62  79
ATOM     79  C   UNL A   1      44.440  28.609  35.340  1.00  0.00     0.057 A 
ATOM     80  C   UNL A   1      45.724  29.037  34.982  1.00  0.00     0.134 A 
ATOM     81  C   UNL A   1      44.332  27.400  36.039  1.00  0.00     0.134 A 
ATOM     82  F   UNL A   1      45.895  30.179  34.299  1.00  0.00    -0.206 F 
ATOM     83  C   UNL A   1      46.857  28.280  35.288  1.00  0.00     0.040 A 
ATOM     84  C   UNL A   1      45.458  26.648  36.376  1.00  0.00     0.040 A 
ATOM     85  F   UNL A   1      43.132  26.937  36.420  1.00  0.00    -0.206 F 
ATOM     86  C   UNL A   1      46.725  27.086  35.994  1.00  0.00     0.006 A 
ENDBRANCH  62  79
ENDBRANCH  36  37
ENDBRANCH  28  31
ENDBRANCH  26  27
ENDBRANCH  25  26
ENDBRANCH  24  25
ENDBRANCH   1  24
TORSDOF 16
ENDMDL
