MODEL 1
REMARK VINA RESULT:     -11.7      0.000      0.000
REMARK SMILES Cc1oc(-c2ccc(Cl)cc2[N+](=O)[O-])cc1C(=O)NCCCCCCNC(=O)c1ccc(-c2c3nc(c(-c4c(F)cccc4F)c4ccc([nH]4)c(-c4c(F)cccc4F)c4nc(c(-c5c(F)cccc5F)c5ccc2[nH]5)C=C4)C=C3)cc1
REMARK SMILES IDX 22 1 21 2 20 3 19 4 17 5 18 6 16 8 1 9 2 10 3 11 4 12 15 13
REMARK SMILES IDX 5 14 6 15 11 16 7 17 10 18 8 19 9 20 12 21 13 22 14 23 23 24
REMARK SMILES IDX 24 25 25 26 26 27 27 28 28 30 29 31 30 32 82 33 31 34 81 35
REMARK SMILES IDX 32 36 33 37 34 38 75 39 35 40 80 41 74 42 76 43 36 44 79 45
REMARK SMILES IDX 73 46 72 47 37 49 63 50 46 51 62 52 47 53 50 54 61 55 77 56
REMARK SMILES IDX 48 57 49 58 60 60 78 61 51 62 38 63 39 64 44 65 40 66 41 67
REMARK SMILES IDX 43 68 45 69 42 70 64 71 65 72 70 73 66 74 67 75 69 76 71 77
REMARK SMILES IDX 68 78 52 79 53 80 58 81 54 82 55 83 57 84 59 85 56 86
REMARK H PARENT 19 7 26 29 76 48 50 59
REMARK Flexibility Score: inf
ROOT
ATOM      1  C   UNL A   1      35.334  19.934  24.985  1.00  0.00     0.002 C 
ENDROOT
BRANCH   1   2
ATOM      2  C   UNL A   1      34.131  20.832  24.665  1.00  0.00     0.021 C 
BRANCH   2   3
ATOM      3  C   UNL A   1      32.946  20.601  25.606  1.00  0.00     0.116 C 
BRANCH   3   4
ATOM      4  N   UNL A   1      33.211  21.221  26.873  1.00  0.00    -0.352 N 
ATOM      5  C   UNL A   1      32.777  22.365  27.467  1.00  0.00     0.254 C 
ATOM      6  O   UNL A   1      33.290  22.587  28.570  1.00  0.00    -0.269 OA
ATOM      7  H   UNL A   1      33.842  20.710  27.430  1.00  0.00     0.163 HD
BRANCH   5   8
ATOM      8  C   UNL A   1      31.759  23.278  26.951  1.00  0.00     0.081 A 
ATOM      9  C   UNL A   1      29.183  22.602  27.400  1.00  0.00     0.088 C 
ATOM     10  C   UNL A   1      30.366  23.365  26.943  1.00  0.00     0.114 A 
ATOM     11  O   UNL A   1      29.970  24.513  26.304  1.00  0.00    -0.460 OA
ATOM     12  C   UNL A   1      31.073  25.153  25.865  1.00  0.00     0.142 A 
ATOM     13  C   UNL A   1      32.185  24.435  26.201  1.00  0.00     0.065 A 
BRANCH  12  14
ATOM     14  C   UNL A   1      30.852  26.382  25.139  1.00  0.00     0.095 A 
ATOM     15  C   UNL A   1      30.129  26.311  23.936  1.00  0.00     0.021 A 
ATOM     16  C   UNL A   1      31.305  27.639  25.571  1.00  0.00     0.281 A 
ATOM     17  C   UNL A   1      29.862  27.464  23.193  1.00  0.00     0.022 A 
ATOM     18  C   UNL A   1      31.040  28.801  24.829  1.00  0.00     0.107 A 
ATOM     19  C   UNL A   1      30.318  28.701  23.644  1.00  0.00     0.047 A 
ATOM     20  Cl  UNL A   1      29.990  30.114  22.722  1.00  0.00    -0.084 Cl
BRANCH  16  21
ATOM     21  N   UNL A   1      32.102  27.785  26.786  1.00  0.00     0.063 N 
ATOM     22  O   UNL A   1      33.334  27.793  26.650  1.00  0.00    -0.258 OA
ATOM     23  O   UNL A   1      31.510  27.819  27.873  1.00  0.00    -0.258 OA
ENDBRANCH  16  21
ENDBRANCH  12  14
ENDBRANCH   5   8
ENDBRANCH   3   4
ENDBRANCH   2   3
ENDBRANCH   1   2
BRANCH   1  24
ATOM     24  C   UNL A   1      36.684  20.663  24.992  1.00  0.00     0.002 C 
BRANCH  24  25
ATOM     25  C   UNL A   1      37.906  19.742  24.965  1.00  0.00     0.021 C 
BRANCH  25  26
ATOM     26  C   UNL A   1      39.034  20.186  25.891  1.00  0.00     0.116 C 
BRANCH  26  27
ATOM     27  N   UNL A   1      40.093  19.190  25.950  1.00  0.00    -0.352 N 
ATOM     28  C   UNL A   1      41.443  19.369  26.068  1.00  0.00     0.251 C 
ATOM     29  H   UNL A   1      39.794  18.253  25.899  1.00  0.00     0.163 HD
ATOM     30  O   UNL A   1      42.215  18.436  25.835  1.00  0.00    -0.269 OA
BRANCH  28  31
ATOM     31  C   UNL A   1      41.978  20.682  26.472  1.00  0.00     0.039 A 
ATOM     32  C   UNL A   1      42.338  21.603  25.487  1.00  0.00     0.014 A 
ATOM     33  C   UNL A   1      42.141  20.994  27.826  1.00  0.00     0.014 A 
ATOM     34  C   UNL A   1      42.816  22.859  25.861  1.00  0.00     0.010 A 
ATOM     35  C   UNL A   1      42.546  22.271  28.197  1.00  0.00     0.010 A 
ATOM     36  C   UNL A   1      42.897  23.212  27.218  1.00  0.00    -0.014 A 
BRANCH  36  37
ATOM     37  C   UNL A   1      43.351  24.561  27.634  1.00  0.00     0.031 A 
ATOM     38  C   UNL A   1      42.349  25.603  28.042  1.00  0.00     0.074 A 
ATOM     39  C   UNL A   1      44.662  24.863  27.583  1.00  0.00     0.049 A 
ATOM     40  N   UNL A   1      42.546  26.852  28.378  1.00  0.00    -0.248 NA
ATOM     41  C   UNL A   1      40.935  25.196  28.045  1.00  0.00     0.031 C 
ATOM     42  C   UNL A   1      45.725  23.949  27.159  1.00  0.00     0.029 A 
ATOM     43  N   UNL A   1      45.324  26.027  27.882  1.00  0.00    -0.354 N 
ATOM     44  C   UNL A   1      41.285  27.381  28.621  1.00  0.00     0.074 A 
ATOM     45  C   UNL A   1      40.326  26.335  28.337  1.00  0.00     0.031 C 
ATOM     46  C   UNL A   1      46.907  24.580  27.250  1.00  0.00     0.029 A 
ATOM     47  C   UNL A   1      46.683  25.950  27.698  1.00  0.00     0.049 A 
ATOM     48  H   UNL A   1      44.867  26.840  28.199  1.00  0.00     0.167 HD
ATOM     49  C   UNL A   1      40.957  28.618  29.062  1.00  0.00     0.037 A 
ATOM     50  C   UNL A   1      47.638  26.883  27.866  1.00  0.00     0.037 A 
ATOM     51  C   UNL A   1      41.916  29.649  29.360  1.00  0.00     0.049 A 
ATOM     52  C   UNL A   1      47.248  28.253  28.342  1.00  0.00     0.074 A 
ATOM     53  C   UNL A   1      41.692  30.916  29.870  1.00  0.00     0.029 A 
ATOM     54  N   UNL A   1      43.286  29.531  29.169  1.00  0.00    -0.354 N 
ATOM     55  N   UNL A   1      46.058  28.720  28.636  1.00  0.00    -0.248 NA
ATOM     56  C   UNL A   1      48.334  29.227  28.517  1.00  0.00     0.031 C 
ATOM     57  C   UNL A   1      42.920  31.582  29.939  1.00  0.00     0.029 A 
ATOM     58  C   UNL A   1      43.916  30.712  29.525  1.00  0.00     0.049 A 
ATOM     59  H   UNL A   1      43.742  28.727  28.831  1.00  0.00     0.167 HD
ATOM     60  C   UNL A   1      46.255  30.029  29.055  1.00  0.00     0.074 A 
ATOM     61  C   UNL A   1      47.681  30.277  28.993  1.00  0.00     0.031 C 
ATOM     62  C   UNL A   1      45.337  30.943  29.458  1.00  0.00     0.037 A 
BRANCH  49  63
ATOM     63  C   UNL A   1      39.498  28.923  29.247  1.00  0.00     0.057 A 
ATOM     64  C   UNL A   1      38.701  29.399  28.197  1.00  0.00     0.134 A 
ATOM     65  C   UNL A   1      38.874  28.716  30.485  1.00  0.00     0.134 A 
ATOM     66  F   UNL A   1      39.237  29.630  26.989  1.00  0.00    -0.206 F 
ATOM     67  C   UNL A   1      37.347  29.688  28.378  1.00  0.00     0.040 A 
ATOM     68  C   UNL A   1      37.515  28.974  30.670  1.00  0.00     0.040 A 
ATOM     69  F   UNL A   1      39.574  28.257  31.533  1.00  0.00    -0.206 F 
ATOM     70  C   UNL A   1      36.749  29.470  29.616  1.00  0.00     0.006 A 
ENDBRANCH  49  63
BRANCH  50  71
ATOM     71  C   UNL A   1      49.059  26.543  27.602  1.00  0.00     0.057 A 
ATOM     72  C   UNL A   1      49.889  26.069  28.626  1.00  0.00     0.134 A 
ATOM     73  C   UNL A   1      49.623  26.683  26.329  1.00  0.00     0.134 A 
ATOM     74  F   UNL A   1      49.411  25.929  29.871  1.00  0.00    -0.206 F 
ATOM     75  C   UNL A   1      51.231  25.763  28.397  1.00  0.00     0.040 A 
ATOM     76  C   UNL A   1      50.956  26.356  26.079  1.00  0.00     0.040 A 
ATOM     77  F   UNL A   1      48.878  27.124  25.304  1.00  0.00    -0.206 F 
ATOM     78  C   UNL A   1      51.766  25.902  27.117  1.00  0.00     0.006 A 
ENDBRANCH  50  71
BRANCH  62  79
ATOM     79  C   UNL A   1      45.851  32.285  29.892  1.00  0.00     0.057 A 
ATOM     80  C   UNL A   1      46.247  32.535  31.212  1.00  0.00     0.134 A 
ATOM     81  C   UNL A   1      45.986  33.329  28.968  1.00  0.00     0.134 A 
ATOM     82  F   UNL A   1      46.132  31.581  32.150  1.00  0.00    -0.206 F 
ATOM     83  C   UNL A   1      46.737  33.783  31.602  1.00  0.00     0.040 A 
ATOM     84  C   UNL A   1      46.501  34.571  29.339  1.00  0.00     0.040 A 
ATOM     85  F   UNL A   1      45.634  33.153  27.686  1.00  0.00    -0.206 F 
ATOM     86  C   UNL A   1      46.871  34.803  30.662  1.00  0.00     0.006 A 
ENDBRANCH  62  79
ENDBRANCH  36  37
ENDBRANCH  28  31
ENDBRANCH  26  27
ENDBRANCH  25  26
ENDBRANCH  24  25
ENDBRANCH   1  24
TORSDOF 15
ENDMDL
MODEL 2
REMARK VINA RESULT:     -11.7      1.460      2.018
REMARK SMILES Cc1oc(-c2ccc(Cl)cc2[N+](=O)[O-])cc1C(=O)NCCCCCCNC(=O)c1ccc(-c2c3nc(c(-c4c(F)cccc4F)c4ccc([nH]4)c(-c4c(F)cccc4F)c4nc(c(-c5c(F)cccc5F)c5ccc2[nH]5)C=C4)C=C3)cc1
REMARK SMILES IDX 22 1 21 2 20 3 19 4 17 5 18 6 16 8 1 9 2 10 3 11 4 12 15 13
REMARK SMILES IDX 5 14 6 15 11 16 7 17 10 18 8 19 9 20 12 21 13 22 14 23 23 24
REMARK SMILES IDX 24 25 25 26 26 27 27 28 28 30 29 31 30 32 82 33 31 34 81 35
REMARK SMILES IDX 32 36 33 37 34 38 75 39 35 40 80 41 74 42 76 43 36 44 79 45
REMARK SMILES IDX 73 46 72 47 37 49 63 50 46 51 62 52 47 53 50 54 61 55 77 56
REMARK SMILES IDX 48 57 49 58 60 60 78 61 51 62 38 63 39 64 44 65 40 66 41 67
REMARK SMILES IDX 43 68 45 69 42 70 64 71 65 72 70 73 66 74 67 75 69 76 71 77
REMARK SMILES IDX 68 78 52 79 53 80 58 81 54 82 55 83 57 84 59 85 56 86
REMARK H PARENT 19 7 26 29 76 48 50 59
REMARK Flexibility Score: inf
ROOT
ATOM      1  C   UNL A   1      35.895  21.667  25.429  1.00  0.00     0.002 C 
ENDROOT
BRANCH   1   2
ATOM      2  C   UNL A   1      34.390  21.915  25.603  1.00  0.00     0.021 C 
BRANCH   2   3
ATOM      3  C   UNL A   1      34.082  23.207  26.364  1.00  0.00     0.116 C 
BRANCH   3   4
ATOM      4  N   UNL A   1      32.772  23.122  26.944  1.00  0.00    -0.352 N 
ATOM      5  C   UNL A   1      31.564  23.655  26.616  1.00  0.00     0.254 C 
ATOM      6  O   UNL A   1      30.660  23.385  27.415  1.00  0.00    -0.269 OA
ATOM      7  H   UNL A   1      32.741  22.559  27.751  1.00  0.00     0.163 HD
BRANCH   5   8
ATOM      8  C   UNL A   1      31.257  24.438  25.420  1.00  0.00     0.081 A 
ATOM      9  C   UNL A   1      32.085  23.423  23.059  1.00  0.00     0.088 C 
ATOM     10  C   UNL A   1      31.454  24.330  24.043  1.00  0.00     0.114 A 
ATOM     11  O   UNL A   1      30.894  25.407  23.402  1.00  0.00    -0.460 OA
ATOM     12  C   UNL A   1      30.372  26.228  24.336  1.00  0.00     0.142 A 
ATOM     13  C   UNL A   1      30.590  25.708  25.579  1.00  0.00     0.065 A 
BRANCH  12  14
ATOM     14  C   UNL A   1      29.755  27.440  23.847  1.00  0.00     0.095 A 
ATOM     15  C   UNL A   1      28.397  27.387  23.493  1.00  0.00     0.021 A 
ATOM     16  C   UNL A   1      30.430  28.664  23.719  1.00  0.00     0.281 A 
ATOM     17  C   UNL A   1      27.733  28.527  23.031  1.00  0.00     0.022 A 
ATOM     18  C   UNL A   1      29.769  29.814  23.256  1.00  0.00     0.107 A 
ATOM     19  C   UNL A   1      28.423  29.732  22.917  1.00  0.00     0.047 A 
ATOM     20  Cl  UNL A   1      27.600  31.129  22.343  1.00  0.00    -0.084 Cl
BRANCH  16  21
ATOM     21  N   UNL A   1      31.853  28.786  24.023  1.00  0.00     0.063 N 
ATOM     22  O   UNL A   1      32.646  28.521  23.108  1.00  0.00    -0.258 OA
ATOM     23  O   UNL A   1      32.181  29.071  25.183  1.00  0.00    -0.258 OA
ENDBRANCH  16  21
ENDBRANCH  12  14
ENDBRANCH   5   8
ENDBRANCH   3   4
ENDBRANCH   2   3
ENDBRANCH   1   2
BRANCH   1  24
ATOM     24  C   UNL A   1      36.255  20.236  25.009  1.00  0.00     0.002 C 
BRANCH  24  25
ATOM     25  C   UNL A   1      37.719  20.038  24.610  1.00  0.00     0.021 C 
BRANCH  25  26
ATOM     26  C   UNL A   1      38.712  20.406  25.708  1.00  0.00     0.116 C 
BRANCH  26  27
ATOM     27  N   UNL A   1      39.780  19.422  25.806  1.00  0.00    -0.352 N 
ATOM     28  C   UNL A   1      41.109  19.611  26.068  1.00  0.00     0.251 C 
ATOM     29  H   UNL A   1      39.507  18.487  25.663  1.00  0.00     0.163 HD
ATOM     30  O   UNL A   1      41.918  18.706  25.852  1.00  0.00    -0.269 OA
BRANCH  28  31
ATOM     31  C   UNL A   1      41.575  20.900  26.609  1.00  0.00     0.039 A 
ATOM     32  C   UNL A   1      42.063  21.870  25.732  1.00  0.00     0.014 A 
ATOM     33  C   UNL A   1      41.545  21.142  27.987  1.00  0.00     0.014 A 
ATOM     34  C   UNL A   1      42.479  23.104  26.233  1.00  0.00     0.010 A 
ATOM     35  C   UNL A   1      41.888  22.397  28.475  1.00  0.00     0.010 A 
ATOM     36  C   UNL A   1      42.367  23.386  27.604  1.00  0.00    -0.014 A 
BRANCH  36  37
ATOM     37  C   UNL A   1      42.752  24.712  28.148  1.00  0.00     0.031 A 
ATOM     38  C   UNL A   1      41.710  25.774  28.358  1.00  0.00     0.074 A 
ATOM     39  C   UNL A   1      44.049  24.976  28.392  1.00  0.00     0.049 A 
ATOM     40  N   UNL A   1      41.858  27.008  28.765  1.00  0.00    -0.248 NA
ATOM     41  C   UNL A   1      40.319  25.408  28.042  1.00  0.00     0.031 C 
ATOM     42  C   UNL A   1      45.157  24.042  28.182  1.00  0.00     0.029 A 
ATOM     43  N   UNL A   1      44.657  26.113  28.861  1.00  0.00    -0.354 N 
ATOM     44  C   UNL A   1      40.588  27.568  28.743  1.00  0.00     0.074 A 
ATOM     45  C   UNL A   1      39.689  26.558  28.227  1.00  0.00     0.031 C 
ATOM     46  C   UNL A   1      46.305  24.635  28.547  1.00  0.00     0.029 A 
ATOM     47  C   UNL A   1      46.021  26.000  28.975  1.00  0.00     0.049 A 
ATOM     48  H   UNL A   1      44.162  26.932  29.094  1.00  0.00     0.167 HD
ATOM     49  C   UNL A   1      40.201  28.804  29.138  1.00  0.00     0.037 A 
ATOM     50  C   UNL A   1      46.939  26.900  29.373  1.00  0.00     0.037 A 
ATOM     51  C   UNL A   1      41.096  29.799  29.667  1.00  0.00     0.049 A 
ATOM     52  C   UNL A   1      46.487  28.270  29.793  1.00  0.00     0.074 A 
ATOM     53  C   UNL A   1      40.797  31.060  30.152  1.00  0.00     0.029 A 
ATOM     54  N   UNL A   1      42.472  29.645  29.775  1.00  0.00    -0.354 N 
ATOM     55  N   UNL A   1      45.273  28.765  29.834  1.00  0.00    -0.248 NA
ATOM     56  C   UNL A   1      47.532  29.207  30.228  1.00  0.00     0.031 C 
ATOM     57  C   UNL A   1      41.995  31.688  30.506  1.00  0.00     0.029 A 
ATOM     58  C   UNL A   1      43.037  30.799  30.294  1.00  0.00     0.049 A 
ATOM     59  H   UNL A   1      42.971  28.836  29.522  1.00  0.00     0.167 HD
ATOM     60  C   UNL A   1      45.404  30.057  30.324  1.00  0.00     0.074 A 
ATOM     61  C   UNL A   1      46.815  30.265  30.580  1.00  0.00     0.031 C 
ATOM     62  C   UNL A   1      44.443  30.989  30.544  1.00  0.00     0.037 A 
BRANCH  49  63
ATOM     63  C   UNL A   1      38.744  29.147  29.010  1.00  0.00     0.057 A 
ATOM     64  C   UNL A   1      38.186  29.570  27.796  1.00  0.00     0.134 A 
ATOM     65  C   UNL A   1      37.882  29.032  30.109  1.00  0.00     0.134 A 
ATOM     66  F   UNL A   1      38.958  29.714  26.708  1.00  0.00    -0.206 F 
ATOM     67  C   UNL A   1      36.833  29.896  27.686  1.00  0.00     0.040 A 
ATOM     68  C   UNL A   1      36.521  29.326  30.003  1.00  0.00     0.040 A 
ATOM     69  F   UNL A   1      38.346  28.627  31.301  1.00  0.00    -0.206 F 
ATOM     70  C   UNL A   1      35.995  29.768  28.791  1.00  0.00     0.006 A 
ENDBRANCH  49  63
BRANCH  50  71
ATOM     71  C   UNL A   1      48.375  26.525  29.415  1.00  0.00     0.057 A 
ATOM     72  C   UNL A   1      49.226  26.810  28.340  1.00  0.00     0.134 A 
ATOM     73  C   UNL A   1      48.931  25.876  30.523  1.00  0.00     0.134 A 
ATOM     74  F   UNL A   1      48.747  27.415  27.243  1.00  0.00    -0.206 F 
ATOM     75  C   UNL A   1      50.573  26.447  28.358  1.00  0.00     0.040 A 
ATOM     76  C   UNL A   1      50.282  25.531  30.565  1.00  0.00     0.040 A 
ATOM     77  F   UNL A   1      48.171  25.584  31.589  1.00  0.00    -0.206 F 
ATOM     78  C   UNL A   1      51.106  25.810  29.477  1.00  0.00     0.006 A 
ENDBRANCH  50  71
BRANCH  62  79
ATOM     79  C   UNL A   1      44.882  32.304  31.118  1.00  0.00     0.057 A 
ATOM     80  C   UNL A   1      44.983  32.514  32.499  1.00  0.00     0.134 A 
ATOM     81  C   UNL A   1      45.243  33.364  30.276  1.00  0.00     0.134 A 
ATOM     82  F   UNL A   1      44.639  31.544  33.361  1.00  0.00    -0.206 F 
ATOM     83  C   UNL A   1      45.405  33.737  33.022  1.00  0.00     0.040 A 
ATOM     84  C   UNL A   1      45.695  34.581  30.786  1.00  0.00     0.040 A 
ATOM     85  F   UNL A   1      45.179  33.227  28.943  1.00  0.00    -0.206 F 
ATOM     86  C   UNL A   1      45.769  34.773  32.164  1.00  0.00     0.006 A 
ENDBRANCH  62  79
ENDBRANCH  36  37
ENDBRANCH  28  31
ENDBRANCH  26  27
ENDBRANCH  25  26
ENDBRANCH  24  25
ENDBRANCH   1  24
TORSDOF 15
ENDMDL
MODEL 3
REMARK VINA RESULT:     -11.7      4.161      9.249
REMARK SMILES Cc1oc(-c2ccc(Cl)cc2[N+](=O)[O-])cc1C(=O)NCCCCCCNC(=O)c1ccc(-c2c3nc(c(-c4c(F)cccc4F)c4ccc([nH]4)c(-c4c(F)cccc4F)c4nc(c(-c5c(F)cccc5F)c5ccc2[nH]5)C=C4)C=C3)cc1
REMARK SMILES IDX 22 1 21 2 20 3 19 4 17 5 18 6 16 8 1 9 2 10 3 11 4 12 15 13
REMARK SMILES IDX 5 14 6 15 11 16 7 17 10 18 8 19 9 20 12 21 13 22 14 23 23 24
REMARK SMILES IDX 24 25 25 26 26 27 27 28 28 30 29 31 30 32 82 33 31 34 81 35
REMARK SMILES IDX 32 36 33 37 34 38 75 39 35 40 80 41 74 42 76 43 36 44 79 45
REMARK SMILES IDX 73 46 72 47 37 49 63 50 46 51 62 52 47 53 50 54 61 55 77 56
REMARK SMILES IDX 48 57 49 58 60 60 78 61 51 62 38 63 39 64 44 65 40 66 41 67
REMARK SMILES IDX 43 68 45 69 42 70 64 71 65 72 70 73 66 74 67 75 69 76 71 77
REMARK SMILES IDX 68 78 52 79 53 80 58 81 54 82 55 83 57 84 59 85 56 86
REMARK H PARENT 19 7 26 29 76 48 50 59
REMARK Flexibility Score: inf
ROOT
ATOM      1  C   UNL A   1      30.676  29.517  24.140  1.00  0.00     0.002 C 
ENDROOT
BRANCH   1   2
ATOM      2  C   UNL A   1      31.230  28.886  22.855  1.00  0.00     0.021 C 
BRANCH   2   3
ATOM      3  C   UNL A   1      32.462  28.012  23.103  1.00  0.00     0.116 C 
BRANCH   3   4
ATOM      4  N   UNL A   1      32.800  27.307  21.900  1.00  0.00    -0.352 N 
ATOM      5  C   UNL A   1      32.774  25.995  21.542  1.00  0.00     0.254 C 
ATOM      6  O   UNL A   1      33.206  25.773  20.405  1.00  0.00    -0.269 OA
ATOM      7  H   UNL A   1      33.121  27.898  21.181  1.00  0.00     0.163 HD
BRANCH   5   8
ATOM      8  C   UNL A   1      32.247  24.888  22.339  1.00  0.00     0.081 A 
ATOM      9  C   UNL A   1      29.996  25.373  23.750  1.00  0.00     0.088 C 
ATOM     10  C   UNL A   1      31.160  24.656  23.183  1.00  0.00     0.114 A 
ATOM     11  O   UNL A   1      31.182  23.360  23.632  1.00  0.00    -0.460 OA
ATOM     12  C   UNL A   1      32.279  22.758  23.129  1.00  0.00     0.142 A 
ATOM     13  C   UNL A   1      32.979  23.645  22.364  1.00  0.00     0.065 A 
BRANCH  12  14
ATOM     14  C   UNL A   1      32.487  21.382  23.518  1.00  0.00     0.095 A 
ATOM     15  C   UNL A   1      32.103  20.380  22.612  1.00  0.00     0.021 A 
ATOM     16  C   UNL A   1      33.060  20.992  24.739  1.00  0.00     0.281 A 
ATOM     17  C   UNL A   1      32.293  19.029  22.915  1.00  0.00     0.022 A 
ATOM     18  C   UNL A   1      33.255  19.636  25.050  1.00  0.00     0.107 A 
ATOM     19  C   UNL A   1      32.868  18.666  24.131  1.00  0.00     0.047 A 
ATOM     20  Cl  UNL A   1      33.095  17.002  24.499  1.00  0.00    -0.084 Cl
BRANCH  16  21
ATOM     21  N   UNL A   1      33.442  21.974  25.750  1.00  0.00     0.063 N 
ATOM     22  O   UNL A   1      32.549  22.366  26.515  1.00  0.00    -0.258 OA
ATOM     23  O   UNL A   1      34.602  22.406  25.737  1.00  0.00    -0.258 OA
ENDBRANCH  16  21
ENDBRANCH  12  14
ENDBRANCH   5   8
ENDBRANCH   3   4
ENDBRANCH   2   3
ENDBRANCH   1   2
BRANCH   1  24
ATOM     24  C   UNL A   1      31.748  29.888  25.174  1.00  0.00     0.002 C 
BRANCH  24  25
ATOM     25  C   UNL A   1      31.335  30.992  26.151  1.00  0.00     0.021 C 
BRANCH  25  26
ATOM     26  C   UNL A   1      32.493  31.559  26.965  1.00  0.00     0.116 C 
BRANCH  26  27
ATOM     27  N   UNL A   1      32.284  32.967  27.270  1.00  0.00    -0.352 N 
ATOM     28  C   UNL A   1      32.992  33.785  28.107  1.00  0.00     0.251 C 
ATOM     29  H   UNL A   1      31.526  33.391  26.807  1.00  0.00     0.163 HD
ATOM     30  O   UNL A   1      32.525  34.872  28.454  1.00  0.00    -0.269 OA
BRANCH  28  31
ATOM     31  C   UNL A   1      34.317  33.364  28.599  1.00  0.00     0.039 A 
ATOM     32  C   UNL A   1      34.409  32.697  29.820  1.00  0.00     0.014 A 
ATOM     33  C   UNL A   1      35.469  33.648  27.858  1.00  0.00     0.014 A 
ATOM     34  C   UNL A   1      35.656  32.269  30.279  1.00  0.00     0.010 A 
ATOM     35  C   UNL A   1      36.699  33.155  28.278  1.00  0.00     0.010 A 
ATOM     36  C   UNL A   1      36.805  32.470  29.497  1.00  0.00    -0.014 A 
BRANCH  36  37
ATOM     37  C   UNL A   1      38.131  31.974  29.941  1.00  0.00     0.031 A 
ATOM     38  C   UNL A   1      38.657  30.664  29.430  1.00  0.00     0.074 A 
ATOM     39  C   UNL A   1      38.829  32.677  30.853  1.00  0.00     0.049 A 
ATOM     40  N   UNL A   1      39.761  30.037  29.745  1.00  0.00    -0.248 NA
ATOM     41  C   UNL A   1      37.818  29.948  28.454  1.00  0.00     0.031 C 
ATOM     42  C   UNL A   1      38.400  33.939  31.458  1.00  0.00     0.029 A 
ATOM     43  N   UNL A   1      40.044  32.424  31.437  1.00  0.00    -0.354 N 
ATOM     44  C   UNL A   1      39.744  28.853  29.019  1.00  0.00     0.074 A 
ATOM     45  C   UNL A   1      38.494  28.821  28.292  1.00  0.00     0.031 C 
ATOM     46  C   UNL A   1      39.349  34.363  32.308  1.00  0.00     0.029 A 
ATOM     47  C   UNL A   1      40.431  33.385  32.339  1.00  0.00     0.049 A 
ATOM     48  H   UNL A   1      40.587  31.629  31.230  1.00  0.00     0.167 HD
ATOM     49  C   UNL A   1      40.694  27.891  28.947  1.00  0.00     0.037 A 
ATOM     50  C   UNL A   1      41.532  33.464  33.109  1.00  0.00     0.037 A 
ATOM     51  C   UNL A   1      41.944  27.936  29.659  1.00  0.00     0.049 A 
ATOM     52  C   UNL A   1      42.565  32.376  33.022  1.00  0.00     0.074 A 
ATOM     53  C   UNL A   1      42.999  27.042  29.609  1.00  0.00     0.029 A 
ATOM     54  N   UNL A   1      42.304  28.931  30.558  1.00  0.00    -0.354 N 
ATOM     55  N   UNL A   1      42.570  31.296  32.278  1.00  0.00    -0.248 NA
ATOM     56  C   UNL A   1      43.751  32.520  33.877  1.00  0.00     0.031 C 
ATOM     57  C   UNL A   1      43.976  27.469  30.514  1.00  0.00     0.029 A 
ATOM     58  C   UNL A   1      43.555  28.657  31.088  1.00  0.00     0.049 A 
ATOM     59  H   UNL A   1      41.754  29.715  30.784  1.00  0.00     0.167 HD
ATOM     60  C   UNL A   1      43.766  30.647  32.555  1.00  0.00     0.074 A 
ATOM     61  C   UNL A   1      44.469  31.464  33.523  1.00  0.00     0.031 C 
ATOM     62  C   UNL A   1      44.241  29.481  32.051  1.00  0.00     0.037 A 
BRANCH  49  63
ATOM     63  C   UNL A   1      40.413  26.706  28.067  1.00  0.00     0.057 A 
ATOM     64  C   UNL A   1      40.984  26.577  26.794  1.00  0.00     0.134 A 
ATOM     65  C   UNL A   1      39.580  25.669  28.506  1.00  0.00     0.134 A 
ATOM     66  F   UNL A   1      41.782  27.539  26.306  1.00  0.00    -0.206 F 
ATOM     67  C   UNL A   1      40.713  25.477  25.978  1.00  0.00     0.040 A 
ATOM     68  C   UNL A   1      39.325  24.550  27.711  1.00  0.00     0.040 A 
ATOM     69  F   UNL A   1      39.004  25.724  29.717  1.00  0.00    -0.206 F 
ATOM     70  C   UNL A   1      39.885  24.456  26.439  1.00  0.00     0.006 A 
ENDBRANCH  49  63
BRANCH  50  71
ATOM     71  C   UNL A   1      41.724  34.627  34.011  1.00  0.00     0.057 A 
ATOM     72  C   UNL A   1      42.379  35.783  33.568  1.00  0.00     0.134 A 
ATOM     73  C   UNL A   1      41.261  34.615  35.332  1.00  0.00     0.134 A 
ATOM     74  F   UNL A   1      42.860  35.848  32.318  1.00  0.00    -0.206 F 
ATOM     75  C   UNL A   1      42.582  36.876  34.410  1.00  0.00     0.040 A 
ATOM     76  C   UNL A   1      41.434  35.711  36.177  1.00  0.00     0.040 A 
ATOM     77  F   UNL A   1      40.617  33.540  35.814  1.00  0.00    -0.206 F 
ATOM     78  C   UNL A   1      42.103  36.844  35.719  1.00  0.00     0.006 A 
ENDBRANCH  50  71
BRANCH  62  79
ATOM     79  C   UNL A   1      45.598  29.037  32.514  1.00  0.00     0.057 A 
ATOM     80  C   UNL A   1      45.762  28.163  33.596  1.00  0.00     0.134 A 
ATOM     81  C   UNL A   1      46.753  29.460  31.845  1.00  0.00     0.134 A 
ATOM     82  F   UNL A   1      44.697  27.730  34.289  1.00  0.00    -0.206 F 
ATOM     83  C   UNL A   1      47.028  27.745  34.010  1.00  0.00     0.040 A 
ATOM     84  C   UNL A   1      48.021  29.026  32.230  1.00  0.00     0.040 A 
ATOM     85  F   UNL A   1      46.666  30.290  30.794  1.00  0.00    -0.206 F 
ATOM     86  C   UNL A   1      48.162  28.171  33.322  1.00  0.00     0.006 A 
ENDBRANCH  62  79
ENDBRANCH  36  37
ENDBRANCH  28  31
ENDBRANCH  26  27
ENDBRANCH  25  26
ENDBRANCH  24  25
ENDBRANCH   1  24
TORSDOF 15
ENDMDL
