MODEL 1
REMARK VINA RESULT:     -16.6      0.000      0.000
REMARK SMILES Cc1ccc(C2=NN(C(=O)CCC(=O)NCCCCCCNC(=O)c3ccc(-c4c5nc(c(-c6c(F)cccc6F)c6ccc([nH]6)c(-c6c(F)cccc6F)c6nc(c(-c7c(F)cccc7F)c7ccc4[nH]7)C=C6)C=C5)cc3)[C@H](C[C@@H]3C=c4cccc(C)c4=NC3=O)C2)cc1
REMARK SMILES IDX 17 1 16 2 15 3 13 4 14 5 12 7 11 8 9 9 10 10 8 11 6 12 7 13
REMARK SMILES IDX 93 14 79 15 5 16 1 17 2 18 3 19 95 20 4 21 94 22 80 23 81 24
REMARK SMILES IDX 82 25 91 26 83 27 90 28 92 29 84 30 89 31 85 32 87 33 86 34
REMARK SMILES IDX 88 35 18 36 19 37 20 38 21 39 22 40 23 41 24 43 25 44 26 45
REMARK SMILES IDX 78 46 27 47 77 48 28 49 29 50 30 51 71 52 31 53 76 54 70 55
REMARK SMILES IDX 72 56 32 57 75 58 69 59 68 60 33 62 59 63 42 64 58 65 43 66
REMARK SMILES IDX 46 67 57 68 73 69 44 70 45 71 56 73 74 74 47 75 34 76 35 77
REMARK SMILES IDX 40 78 36 79 37 80 39 81 41 82 38 83 60 84 61 85 66 86 62 87
REMARK SMILES IDX 63 88 65 89 67 90 64 91 48 92 49 93 54 94 50 95 51 96 53 97
REMARK SMILES IDX 55 98 52 99
REMARK H PARENT 15 6 22 42 72 61 46 72
REMARK Flexibility Score: inf
ROOT
ATOM      1  C   UNL A   1      41.325  23.244  28.048  1.00  0.00     0.021 C 
ENDROOT
BRANCH   1   2
ATOM      2  C   UNL A   1      39.418  23.459  26.936  1.00  0.00     0.116 C 
BRANCH   2   3
ATOM      3  N   UNL A   1      38.477  22.303  26.312  1.00  0.00    -0.356 N 
ATOM      4  C   UNL A   1      37.463  22.229  25.429  1.00  0.00     0.220 C 
ATOM      5  O   UNL A   1      36.942  21.121  25.285  1.00  0.00    -0.275 OA
ATOM      6  H   UNL A   1      38.706  21.417  26.674  1.00  0.00     0.163 HD
BRANCH   4   7
ATOM      7  C   UNL A   1      37.015  23.417  24.637  1.00  0.00     0.110 C 
BRANCH   7   8
ATOM      8  C   UNL A   1      35.696  24.061  25.031  1.00  0.00     0.112 C 
BRANCH   8   9
ATOM      9  C   UNL A   1      34.688  24.339  23.898  1.00  0.00     0.243 C 
ATOM     10  O   UNL A   1      35.078  24.430  22.735  1.00  0.00    -0.273 OA
BRANCH   9  11
ATOM     11  N   UNL A   1      33.321  24.605  24.310  1.00  0.00    -0.230 N 
ATOM     12  C   UNL A   1      32.005  27.057  24.771  1.00  0.00     0.070 C 
ATOM     13  N   UNL A   1      32.691  26.199  23.696  1.00  0.00    -0.174 NA
ATOM     14  C   UNL A   1      32.089  26.049  26.676  1.00  0.00     0.086 C 
ATOM     15  C   UNL A   1      32.791  24.220  26.042  1.00  0.00     0.118 C 
BRANCH  12  16
ATOM     16  C   UNL A   1      30.681  28.085  24.004  1.00  0.00    -0.002 A 
ATOM     17  C   UNL A   1      27.593  30.629  22.135  1.00  0.00     0.044 C 
ATOM     18  C   UNL A   1      28.494  29.742  22.930  1.00  0.00    -0.051 A 
ATOM     19  C   UNL A   1      28.435  28.349  23.028  1.00  0.00     0.004 A 
ATOM     20  C   UNL A   1      29.561  30.339  23.500  1.00  0.00     0.004 A 
ATOM     21  C   UNL A   1      29.497  27.515  23.547  1.00  0.00     0.010 A 
ATOM     22  C   UNL A   1      30.588  29.529  23.956  1.00  0.00     0.010 A 
ENDBRANCH  12  16
BRANCH  15  23
ATOM     23  C   UNL A   1      31.942  22.762  25.879  1.00  0.00     0.045 C 
BRANCH  23  24
ATOM     24  C   UNL A   1      32.769  21.547  25.295  1.00  0.00     0.106 C 
ATOM     25  C   UNL A   1      31.938  20.559  24.520  1.00  0.00    -0.003 C 
ATOM     26  C   UNL A   1      33.648  20.690  26.230  1.00  0.00     0.253 C 
ATOM     27  C   UNL A   1      32.506  19.514  23.920  1.00  0.00    -0.003 A 
ATOM     28  N   UNL A   1      34.214  19.525  25.701  1.00  0.00    -0.212 NA
ATOM     29  O   UNL A   1      33.920  21.088  27.360  1.00  0.00    -0.272 OA
ATOM     30  C   UNL A   1      32.017  18.924  22.699  1.00  0.00     0.010 A 
ATOM     31  C   UNL A   1      33.694  18.977  24.640  1.00  0.00     0.077 A 
ATOM     32  C   UNL A   1      32.649  17.873  22.165  1.00  0.00     0.001 A 
ATOM     33  C   UNL A   1      34.157  17.644  24.089  1.00  0.00    -0.025 A 
ATOM     34  C   UNL A   1      33.673  17.189  22.915  1.00  0.00     0.005 A 
ATOM     35  C   UNL A   1      34.999  16.780  24.970  1.00  0.00     0.047 C 
ENDBRANCH  23  24
ENDBRANCH  15  23
ENDBRANCH   9  11
ENDBRANCH   8   9
ENDBRANCH   7   8
ENDBRANCH   4   7
ENDBRANCH   2   3
ENDBRANCH   1   2
BRANCH   1  36
ATOM     36  C   UNL A   1      42.151  21.543  27.454  1.00  0.00     0.002 C 
BRANCH  36  37
ATOM     37  C   UNL A   1      42.997  21.625  25.773  1.00  0.00     0.002 C 
BRANCH  37  38
ATOM     38  C   UNL A   1      44.072  22.950  25.037  1.00  0.00     0.021 C 
BRANCH  38  39
ATOM     39  C   UNL A   1      44.143  24.688  25.250  1.00  0.00     0.116 C 
BRANCH  39  40
ATOM     40  N   UNL A   1      45.422  25.368  25.663  1.00  0.00    -0.352 N 
ATOM     41  C   UNL A   1      46.103  25.757  26.831  1.00  0.00     0.251 C 
ATOM     42  H   UNL A   1      45.946  25.617  24.867  1.00  0.00     0.163 HD
ATOM     43  O   UNL A   1      47.128  26.428  26.643  1.00  0.00    -0.269 OA
BRANCH  41  44
ATOM     44  C   UNL A   1      45.822  25.387  28.270  1.00  0.00     0.039 A 
ATOM     45  C   UNL A   1      44.538  24.859  28.610  1.00  0.00     0.014 A 
ATOM     46  C   UNL A   1      46.705  25.595  29.317  1.00  0.00     0.014 A 
ATOM     47  C   UNL A   1      44.068  24.801  29.947  1.00  0.00     0.010 A 
ATOM     48  C   UNL A   1      46.244  25.529  30.647  1.00  0.00     0.010 A 
ATOM     49  C   UNL A   1      44.901  25.239  30.972  1.00  0.00    -0.014 A 
BRANCH  49  50
ATOM     50  C   UNL A   1      44.512  25.433  32.387  1.00  0.00     0.031 A 
ATOM     51  C   UNL A   1      44.127  26.792  32.860  1.00  0.00     0.074 A 
ATOM     52  C   UNL A   1      44.233  24.388  33.214  1.00  0.00     0.049 A 
ATOM     53  N   UNL A   1      43.915  27.121  34.094  1.00  0.00    -0.248 NA
ATOM     54  C   UNL A   1      43.984  27.917  31.942  1.00  0.00     0.031 C 
ATOM     55  C   UNL A   1      43.223  24.373  34.276  1.00  0.00     0.029 A 
ATOM     56  N   UNL A   1      44.829  23.121  33.331  1.00  0.00    -0.354 N 
ATOM     57  C   UNL A   1      43.309  28.360  34.096  1.00  0.00     0.074 A 
ATOM     58  C   UNL A   1      43.464  28.850  32.746  1.00  0.00     0.031 C 
ATOM     59  C   UNL A   1      43.395  23.291  35.051  1.00  0.00     0.029 A 
ATOM     60  C   UNL A   1      44.653  22.689  34.661  1.00  0.00     0.049 A 
ATOM     61  H   UNL A   1      45.286  22.625  32.614  1.00  0.00     0.167 HD
ATOM     62  C   UNL A   1      42.600  28.772  35.190  1.00  0.00     0.037 A 
ATOM     63  C   UNL A   1      45.672  22.370  35.508  1.00  0.00     0.037 A 
ATOM     64  C   UNL A   1      42.641  27.781  36.257  1.00  0.00     0.049 A 
ATOM     65  C   UNL A   1      45.611  23.075  36.835  1.00  0.00     0.074 A 
ATOM     66  C   UNL A   1      41.771  26.757  36.598  1.00  0.00     0.029 A 
ATOM     67  N   UNL A   1      43.806  27.571  36.978  1.00  0.00    -0.354 N 
ATOM     68  N   UNL A   1      44.910  24.152  37.025  1.00  0.00    -0.248 NA
ATOM     69  C   UNL A   1      46.413  22.713  38.001  1.00  0.00     0.031 C 
ATOM     70  C   UNL A   1      42.431  25.911  37.517  1.00  0.00     0.029 A 
ATOM     71  C   UNL A   1      43.697  26.424  37.741  1.00  0.00     0.049 A 
ATOM     72  H   UNL A   1      44.598  28.156  36.950  1.00  0.00     0.167 HD
ATOM     73  C   UNL A   1      45.249  24.704  38.227  1.00  0.00     0.074 A 
ATOM     74  C   UNL A   1      46.143  23.736  38.831  1.00  0.00     0.031 C 
ATOM     75  C   UNL A   1      44.806  25.951  38.559  1.00  0.00     0.037 A 
BRANCH  62  76
ATOM     76  C   UNL A   1      41.610  29.920  35.189  1.00  0.00     0.057 A 
ATOM     77  C   UNL A   1      41.812  31.054  36.006  1.00  0.00     0.134 A 
ATOM     78  C   UNL A   1      40.427  29.961  34.434  1.00  0.00     0.134 A 
ATOM     79  F   UNL A   1      42.935  31.228  36.714  1.00  0.00    -0.206 F 
ATOM     80  C   UNL A   1      40.869  32.080  36.145  1.00  0.00     0.040 A 
ATOM     81  C   UNL A   1      39.450  30.958  34.598  1.00  0.00     0.040 A 
ATOM     82  F   UNL A   1      40.184  29.069  33.466  1.00  0.00    -0.206 F 
ATOM     83  C   UNL A   1      39.664  32.019  35.467  1.00  0.00     0.006 A 
ENDBRANCH  62  76
BRANCH  63  84
ATOM     84  C   UNL A   1      46.961  22.073  34.844  1.00  0.00     0.057 A 
ATOM     85  C   UNL A   1      47.941  23.064  34.709  1.00  0.00     0.134 A 
ATOM     86  C   UNL A   1      47.341  20.746  34.613  1.00  0.00     0.134 A 
ATOM     87  F   UNL A   1      47.643  24.352  34.941  1.00  0.00    -0.206 F 
ATOM     88  C   UNL A   1      49.263  22.739  34.406  1.00  0.00     0.040 A 
ATOM     89  C   UNL A   1      48.661  20.407  34.323  1.00  0.00     0.040 A 
ATOM     90  F   UNL A   1      46.454  19.748  34.739  1.00  0.00    -0.206 F 
ATOM     91  C   UNL A   1      49.625  21.405  34.221  1.00  0.00     0.006 A 
ENDBRANCH  63  84
BRANCH  75  92
ATOM     92  C   UNL A   1      45.326  26.789  39.694  1.00  0.00     0.057 A 
ATOM     93  C   UNL A   1      46.282  27.805  39.553  1.00  0.00     0.134 A 
ATOM     94  C   UNL A   1      44.762  26.669  40.983  1.00  0.00     0.134 A 
ATOM     95  F   UNL A   1      46.799  28.127  38.361  1.00  0.00    -0.206 F 
ATOM     96  C   UNL A   1      46.714  28.584  40.634  1.00  0.00     0.040 A 
ATOM     97  C   UNL A   1      45.143  27.481  42.054  1.00  0.00     0.040 A 
ATOM     98  F   UNL A   1      43.800  25.774  41.252  1.00  0.00    -0.206 F 
ATOM     99  C   UNL A   1      46.141  28.428  41.889  1.00  0.00     0.006 A 
ENDBRANCH  75  92
ENDBRANCH  49  50
ENDBRANCH  41  44
ENDBRANCH  39  40
ENDBRANCH  38  39
ENDBRANCH  37  38
ENDBRANCH  36  37
ENDBRANCH   1  36
TORSDOF 19
ENDMDL
MODEL 2
REMARK VINA RESULT:     -16.1      1.264      5.273
REMARK SMILES Cc1ccc(C2=NN(C(=O)CCC(=O)NCCCCCCNC(=O)c3ccc(-c4c5nc(c(-c6c(F)cccc6F)c6ccc([nH]6)c(-c6c(F)cccc6F)c6nc(c(-c7c(F)cccc7F)c7ccc4[nH]7)C=C6)C=C5)cc3)[C@H](C[C@@H]3C=c4cccc(C)c4=NC3=O)C2)cc1
REMARK SMILES IDX 17 1 16 2 15 3 13 4 14 5 12 7 11 8 9 9 10 10 8 11 6 12 7 13
REMARK SMILES IDX 93 14 79 15 5 16 1 17 2 18 3 19 95 20 4 21 94 22 80 23 81 24
REMARK SMILES IDX 82 25 91 26 83 27 90 28 92 29 84 30 89 31 85 32 87 33 86 34
REMARK SMILES IDX 88 35 18 36 19 37 20 38 21 39 22 40 23 41 24 43 25 44 26 45
REMARK SMILES IDX 78 46 27 47 77 48 28 49 29 50 30 51 71 52 31 53 76 54 70 55
REMARK SMILES IDX 72 56 32 57 75 58 69 59 68 60 33 62 59 63 42 64 58 65 43 66
REMARK SMILES IDX 46 67 57 68 73 69 44 70 45 71 56 73 74 74 47 75 34 76 35 77
REMARK SMILES IDX 40 78 36 79 37 80 39 81 41 82 38 83 60 84 61 85 66 86 62 87
REMARK SMILES IDX 63 88 65 89 67 90 64 91 48 92 49 93 54 94 50 95 51 96 53 97
REMARK SMILES IDX 55 98 52 99
REMARK H PARENT 15 6 22 42 72 61 46 72
REMARK Flexibility Score: inf
ROOT
ATOM      1  C   UNL A   1      41.127  23.424  28.209  1.00  0.00     0.021 C 
ENDROOT
BRANCH   1   2
ATOM      2  C   UNL A   1      39.241  23.578  27.050  1.00  0.00     0.116 C 
BRANCH   2   3
ATOM      3  N   UNL A   1      38.523  22.456  26.136  1.00  0.00    -0.356 N 
ATOM      4  C   UNL A   1      37.540  22.417  25.216  1.00  0.00     0.220 C 
ATOM      5  O   UNL A   1      37.226  21.301  24.798  1.00  0.00    -0.275 OA
ATOM      6  H   UNL A   1      38.906  21.563  26.293  1.00  0.00     0.163 HD
BRANCH   4   7
ATOM      7  C   UNL A   1      36.888  23.662  24.701  1.00  0.00     0.110 C 
BRANCH   7   8
ATOM      8  C   UNL A   1      35.455  23.547  24.209  1.00  0.00     0.112 C 
BRANCH   8   9
ATOM      9  C   UNL A   1      34.351  23.466  25.282  1.00  0.00     0.243 C 
ATOM     10  O   UNL A   1      34.429  24.153  26.300  1.00  0.00    -0.273 OA
BRANCH   9  11
ATOM     11  N   UNL A   1      33.326  22.460  25.068  1.00  0.00    -0.230 N 
ATOM     12  C   UNL A   1      33.505  19.896  23.906  1.00  0.00     0.070 C 
ATOM     13  N   UNL A   1      33.980  20.762  25.084  1.00  0.00    -0.174 NA
ATOM     14  C   UNL A   1      32.241  21.063  22.604  1.00  0.00     0.086 C 
ATOM     15  C   UNL A   1      32.020  22.736  23.784  1.00  0.00     0.118 C 
BRANCH  12  16
ATOM     16  C   UNL A   1      33.406  18.130  24.424  1.00  0.00    -0.002 A 
ATOM     17  C   UNL A   1      33.048  13.902  25.647  1.00  0.00     0.044 C 
ATOM     18  C   UNL A   1      33.304  15.354  25.404  1.00  0.00    -0.051 A 
ATOM     19  C   UNL A   1      34.431  15.922  24.802  1.00  0.00     0.004 A 
ATOM     20  C   UNL A   1      32.278  16.188  25.667  1.00  0.00     0.004 A 
ATOM     21  C   UNL A   1      34.503  17.281  24.311  1.00  0.00     0.010 A 
ATOM     22  C   UNL A   1      32.343  17.474  25.155  1.00  0.00     0.010 A 
ENDBRANCH  12  16
BRANCH  15  23
ATOM     23  C   UNL A   1      30.671  23.219  24.690  1.00  0.00     0.045 C 
BRANCH  23  24
ATOM     24  C   UNL A   1      30.646  24.738  25.128  1.00  0.00     0.106 C 
ATOM     25  C   UNL A   1      31.275  25.673  24.129  1.00  0.00    -0.003 C 
ATOM     26  C   UNL A   1      31.226  25.158  26.495  1.00  0.00     0.253 C 
ATOM     27  C   UNL A   1      31.276  26.989  24.335  1.00  0.00    -0.003 A 
ATOM     28  N   UNL A   1      31.343  26.527  26.758  1.00  0.00    -0.212 NA
ATOM     29  O   UNL A   1      31.468  24.310  27.350  1.00  0.00    -0.272 OA
ATOM     30  C   UNL A   1      31.221  27.969  23.278  1.00  0.00     0.010 A 
ATOM     31  C   UNL A   1      31.369  27.375  25.770  1.00  0.00     0.077 A 
ATOM     32  C   UNL A   1      31.228  29.272  23.575  1.00  0.00     0.001 A 
ATOM     33  C   UNL A   1      31.633  28.855  25.960  1.00  0.00    -0.025 A 
ATOM     34  C   UNL A   1      31.518  29.705  24.919  1.00  0.00     0.005 A 
ATOM     35  C   UNL A   1      32.208  29.298  27.266  1.00  0.00     0.047 C 
ENDBRANCH  23  24
ENDBRANCH  15  23
ENDBRANCH   9  11
ENDBRANCH   8   9
ENDBRANCH   7   8
ENDBRANCH   4   7
ENDBRANCH   2   3
ENDBRANCH   1   2
BRANCH   1  36
ATOM     36  C   UNL A   1      42.087  21.825  27.537  1.00  0.00     0.002 C 
BRANCH  36  37
ATOM     37  C   UNL A   1      42.943  22.064  25.875  1.00  0.00     0.002 C 
BRANCH  37  38
ATOM     38  C   UNL A   1      43.497  23.621  25.026  1.00  0.00     0.021 C 
BRANCH  38  39
ATOM     39  C   UNL A   1      44.208  25.113  25.609  1.00  0.00     0.116 C 
BRANCH  39  40
ATOM     40  N   UNL A   1      45.686  25.213  25.881  1.00  0.00    -0.352 N 
ATOM     41  C   UNL A   1      46.578  25.261  26.968  1.00  0.00     0.251 C 
ATOM     42  H   UNL A   1      46.184  25.259  25.032  1.00  0.00     0.163 HD
ATOM     43  O   UNL A   1      47.762  25.475  26.669  1.00  0.00    -0.269 OA
BRANCH  41  44
ATOM     44  C   UNL A   1      46.316  24.986  28.433  1.00  0.00     0.039 A 
ATOM     45  C   UNL A   1      45.210  24.155  28.792  1.00  0.00     0.014 A 
ATOM     46  C   UNL A   1      47.035  25.551  29.474  1.00  0.00     0.014 A 
ATOM     47  C   UNL A   1      44.687  24.113  30.111  1.00  0.00     0.010 A 
ATOM     48  C   UNL A   1      46.523  25.502  30.786  1.00  0.00     0.010 A 
ATOM     49  C   UNL A   1      45.295  24.879  31.100  1.00  0.00    -0.014 A 
BRANCH  49  50
ATOM     50  C   UNL A   1      44.774  25.109  32.467  1.00  0.00     0.031 A 
ATOM     51  C   UNL A   1      44.187  26.433  32.813  1.00  0.00     0.074 A 
ATOM     52  C   UNL A   1      44.562  24.089  33.344  1.00  0.00     0.049 A 
ATOM     53  N   UNL A   1      43.840  26.807  34.003  1.00  0.00    -0.248 NA
ATOM     54  C   UNL A   1      43.980  27.472  31.810  1.00  0.00     0.031 C 
ATOM     55  C   UNL A   1      43.480  24.010  34.330  1.00  0.00     0.029 A 
ATOM     56  N   UNL A   1      45.298  22.919  33.592  1.00  0.00    -0.354 N 
ATOM     57  C   UNL A   1      43.087  27.956  33.874  1.00  0.00     0.074 A 
ATOM     58  C   UNL A   1      43.287  28.378  32.507  1.00  0.00     0.031 C 
ATOM     59  C   UNL A   1      43.722  23.009  35.190  1.00  0.00     0.029 A 
ATOM     60  C   UNL A   1      45.072  22.551  34.934  1.00  0.00     0.049 A 
ATOM     61  H   UNL A   1      45.868  22.442  32.947  1.00  0.00     0.167 HD
ATOM     62  C   UNL A   1      42.249  28.340  34.882  1.00  0.00     0.037 A 
ATOM     63  C   UNL A   1      46.053  22.418  35.871  1.00  0.00     0.037 A 
ATOM     64  C   UNL A   1      42.326  27.430  36.018  1.00  0.00     0.049 A 
ATOM     65  C   UNL A   1      45.800  23.190  37.137  1.00  0.00     0.074 A 
ATOM     66  C   UNL A   1      41.566  26.326  36.368  1.00  0.00     0.029 A 
ATOM     67  N   UNL A   1      43.447  27.417  36.832  1.00  0.00    -0.354 N 
ATOM     68  N   UNL A   1      44.959  24.177  37.200  1.00  0.00    -0.248 NA
ATOM     69  C   UNL A   1      46.546  23.006  38.380  1.00  0.00     0.031 C 
ATOM     70  C   UNL A   1      42.250  25.629  37.389  1.00  0.00     0.029 A 
ATOM     71  C   UNL A   1      43.421  26.314  37.666  1.00  0.00     0.049 A 
ATOM     72  H   UNL A   1      44.161  28.095  36.819  1.00  0.00     0.167 HD
ATOM     73  C   UNL A   1      45.130  24.841  38.381  1.00  0.00     0.074 A 
ATOM     74  C   UNL A   1      46.086  24.035  39.114  1.00  0.00     0.031 C 
ATOM     75  C   UNL A   1      44.512  26.038  38.591  1.00  0.00     0.037 A 
BRANCH  62  76
ATOM     76  C   UNL A   1      41.127  29.349  34.730  1.00  0.00     0.057 A 
ATOM     77  C   UNL A   1      40.980  30.415  35.645  1.00  0.00     0.134 A 
ATOM     78  C   UNL A   1      40.145  29.314  33.727  1.00  0.00     0.134 A 
ATOM     79  F   UNL A   1      41.883  30.658  36.603  1.00  0.00    -0.206 F 
ATOM     80  C   UNL A   1      39.890  31.295  35.632  1.00  0.00     0.040 A 
ATOM     81  C   UNL A   1      39.022  30.161  33.728  1.00  0.00     0.040 A 
ATOM     82  F   UNL A   1      40.251  28.497  32.672  1.00  0.00    -0.206 F 
ATOM     83  C   UNL A   1      38.885  31.149  34.692  1.00  0.00     0.006 A 
ENDBRANCH  62  76
BRANCH  63  84
ATOM     84  C   UNL A   1      47.417  22.249  35.323  1.00  0.00     0.057 A 
ATOM     85  C   UNL A   1      47.872  20.989  34.913  1.00  0.00     0.134 A 
ATOM     86  C   UNL A   1      48.159  23.368  34.929  1.00  0.00     0.134 A 
ATOM     87  F   UNL A   1      47.189  19.880  35.240  1.00  0.00    -0.206 F 
ATOM     88  C   UNL A   1      48.994  20.854  34.096  1.00  0.00     0.040 A 
ATOM     89  C   UNL A   1      49.273  23.248  34.101  1.00  0.00     0.040 A 
ATOM     90  F   UNL A   1      47.770  24.604  35.277  1.00  0.00    -0.206 F 
ATOM     91  C   UNL A   1      49.691  21.989  33.683  1.00  0.00     0.006 A 
ENDBRANCH  63  84
BRANCH  75  92
ATOM     92  C   UNL A   1      44.833  27.004  39.698  1.00  0.00     0.057 A 
ATOM     93  C   UNL A   1      44.519  26.793  41.048  1.00  0.00     0.134 A 
ATOM     94  C   UNL A   1      45.603  28.158  39.434  1.00  0.00     0.134 A 
ATOM     95  F   UNL A   1      43.915  25.672  41.465  1.00  0.00    -0.206 F 
ATOM     96  C   UNL A   1      44.865  27.706  42.052  1.00  0.00     0.040 A 
ATOM     97  C   UNL A   1      46.006  29.044  40.436  1.00  0.00     0.040 A 
ATOM     98  F   UNL A   1      46.020  28.461  38.196  1.00  0.00    -0.206 F 
ATOM     99  C   UNL A   1      45.616  28.834  41.750  1.00  0.00     0.006 A 
ENDBRANCH  75  92
ENDBRANCH  49  50
ENDBRANCH  41  44
ENDBRANCH  39  40
ENDBRANCH  38  39
ENDBRANCH  37  38
ENDBRANCH  36  37
ENDBRANCH   1  36
TORSDOF 19
ENDMDL
MODEL 3
REMARK VINA RESULT:     -15.8      3.188      7.298
REMARK SMILES Cc1ccc(C2=NN(C(=O)CCC(=O)NCCCCCCNC(=O)c3ccc(-c4c5nc(c(-c6c(F)cccc6F)c6ccc([nH]6)c(-c6c(F)cccc6F)c6nc(c(-c7c(F)cccc7F)c7ccc4[nH]7)C=C6)C=C5)cc3)[C@H](C[C@@H]3C=c4cccc(C)c4=NC3=O)C2)cc1
REMARK SMILES IDX 17 1 16 2 15 3 13 4 14 5 12 7 11 8 9 9 10 10 8 11 6 12 7 13
REMARK SMILES IDX 93 14 79 15 5 16 1 17 2 18 3 19 95 20 4 21 94 22 80 23 81 24
REMARK SMILES IDX 82 25 91 26 83 27 90 28 92 29 84 30 89 31 85 32 87 33 86 34
REMARK SMILES IDX 88 35 18 36 19 37 20 38 21 39 22 40 23 41 24 43 25 44 26 45
REMARK SMILES IDX 78 46 27 47 77 48 28 49 29 50 30 51 71 52 31 53 76 54 70 55
REMARK SMILES IDX 72 56 32 57 75 58 69 59 68 60 33 62 59 63 42 64 58 65 43 66
REMARK SMILES IDX 46 67 57 68 73 69 44 70 45 71 56 73 74 74 47 75 34 76 35 77
REMARK SMILES IDX 40 78 36 79 37 80 39 81 41 82 38 83 60 84 61 85 66 86 62 87
REMARK SMILES IDX 63 88 65 89 67 90 64 91 48 92 49 93 54 94 50 95 51 96 53 97
REMARK SMILES IDX 55 98 52 99
REMARK H PARENT 15 6 22 42 72 61 46 72
REMARK Flexibility Score: inf
ROOT
ATOM      1  C   UNL A   1      40.724  24.723  28.247  1.00  0.00     0.021 C 
ENDROOT
BRANCH   1   2
ATOM      2  C   UNL A   1      38.867  24.474  27.058  1.00  0.00     0.116 C 
BRANCH   2   3
ATOM      3  N   UNL A   1      38.211  23.114  26.484  1.00  0.00    -0.356 N 
ATOM      4  C   UNL A   1      37.349  22.773  25.506  1.00  0.00     0.220 C 
ATOM      5  O   UNL A   1      37.031  21.583  25.447  1.00  0.00    -0.275 OA
ATOM      6  H   UNL A   1      38.524  22.324  26.980  1.00  0.00     0.163 HD
BRANCH   4   7
ATOM      7  C   UNL A   1      36.832  23.775  24.522  1.00  0.00     0.110 C 
BRANCH   7   8
ATOM      8  C   UNL A   1      35.400  23.607  24.043  1.00  0.00     0.112 C 
BRANCH   8   9
ATOM      9  C   UNL A   1      34.300  23.576  25.123  1.00  0.00     0.243 C 
ATOM     10  O   UNL A   1      34.395  24.290  26.120  1.00  0.00    -0.273 OA
BRANCH   9  11
ATOM     11  N   UNL A   1      33.257  22.582  24.944  1.00  0.00    -0.230 N 
ATOM     12  C   UNL A   1      33.368  20.019  23.770  1.00  0.00     0.070 C 
ATOM     13  N   UNL A   1      33.893  20.877  24.933  1.00  0.00    -0.174 NA
ATOM     14  C   UNL A   1      32.070  21.203  22.517  1.00  0.00     0.086 C 
ATOM     15  C   UNL A   1      31.909  22.875  23.708  1.00  0.00     0.118 C 
BRANCH  12  16
ATOM     16  C   UNL A   1      33.268  18.253  24.287  1.00  0.00    -0.002 A 
ATOM     17  C   UNL A   1      32.912  14.038  25.554  1.00  0.00     0.044 C 
ATOM     18  C   UNL A   1      33.222  15.463  25.234  1.00  0.00    -0.051 A 
ATOM     19  C   UNL A   1      34.105  15.936  24.258  1.00  0.00     0.004 A 
ATOM     20  C   UNL A   1      32.465  16.389  25.859  1.00  0.00     0.004 A 
ATOM     21  C   UNL A   1      34.143  17.300  23.776  1.00  0.00     0.010 A 
ATOM     22  C   UNL A   1      32.481  17.681  25.359  1.00  0.00     0.010 A 
ENDBRANCH  12  16
BRANCH  15  23
ATOM     23  C   UNL A   1      30.599  23.370  24.662  1.00  0.00     0.045 C 
BRANCH  23  24
ATOM     24  C   UNL A   1      30.618  24.882  25.125  1.00  0.00     0.106 C 
ATOM     25  C   UNL A   1      31.266  25.815  24.136  1.00  0.00    -0.003 C 
ATOM     26  C   UNL A   1      31.218  25.264  26.494  1.00  0.00     0.253 C 
ATOM     27  C   UNL A   1      31.305  27.127  24.363  1.00  0.00    -0.003 A 
ATOM     28  N   UNL A   1      31.374  26.625  26.777  1.00  0.00    -0.212 NA
ATOM     29  O   UNL A   1      31.442  24.396  27.334  1.00  0.00    -0.272 OA
ATOM     30  C   UNL A   1      31.270  28.125  23.322  1.00  0.00     0.010 A 
ATOM     31  C   UNL A   1      31.416  27.488  25.803  1.00  0.00     0.077 A 
ATOM     32  C   UNL A   1      31.314  29.423  23.639  1.00  0.00     0.001 A 
ATOM     33  C   UNL A   1      31.723  28.956  26.015  1.00  0.00    -0.025 A 
ATOM     34  C   UNL A   1      31.624  29.826  24.988  1.00  0.00     0.005 A 
ATOM     35  C   UNL A   1      32.317  29.363  27.324  1.00  0.00     0.047 C 
ENDBRANCH  23  24
ENDBRANCH  15  23
ENDBRANCH   9  11
ENDBRANCH   8   9
ENDBRANCH   7   8
ENDBRANCH   4   7
ENDBRANCH   2   3
ENDBRANCH   1   2
BRANCH   1  36
ATOM     36  C   UNL A   1      41.752  23.038  28.071  1.00  0.00     0.002 C 
BRANCH  36  37
ATOM     37  C   UNL A   1      42.828  22.932  26.528  1.00  0.00     0.002 C 
BRANCH  37  38
ATOM     38  C   UNL A   1      43.423  24.274  25.389  1.00  0.00     0.021 C 
BRANCH  38  39
ATOM     39  C   UNL A   1      44.940  25.140  25.251  1.00  0.00     0.116 C 
BRANCH  39  40
ATOM     40  N   UNL A   1      46.130  24.759  26.091  1.00  0.00    -0.352 N 
ATOM     41  C   UNL A   1      46.635  24.954  27.390  1.00  0.00     0.251 C 
ATOM     42  H   UNL A   1      46.748  24.197  25.569  1.00  0.00     0.163 HD
ATOM     43  O   UNL A   1      47.776  24.510  27.584  1.00  0.00    -0.269 OA
BRANCH  41  44
ATOM     44  C   UNL A   1      45.946  25.531  28.607  1.00  0.00     0.039 A 
ATOM     45  C   UNL A   1      44.823  24.839  29.159  1.00  0.00     0.014 A 
ATOM     46  C   UNL A   1      46.280  26.741  29.194  1.00  0.00     0.014 A 
ATOM     47  C   UNL A   1      43.920  25.453  30.065  1.00  0.00     0.010 A 
ATOM     48  C   UNL A   1      45.390  27.349  30.102  1.00  0.00     0.010 A 
ATOM     49  C   UNL A   1      44.157  26.766  30.462  1.00  0.00    -0.014 A 
BRANCH  49  50
ATOM     50  C   UNL A   1      43.228  27.621  31.236  1.00  0.00     0.031 A 
ATOM     51  C   UNL A   1      42.327  28.562  30.515  1.00  0.00     0.074 A 
ATOM     52  C   UNL A   1      42.967  27.402  32.555  1.00  0.00     0.049 A 
ATOM     53  N   UNL A   1      41.586  29.463  31.076  1.00  0.00    -0.248 NA
ATOM     54  C   UNL A   1      42.228  28.572  29.059  1.00  0.00     0.031 C 
ATOM     55  C   UNL A   1      41.681  27.613  33.227  1.00  0.00     0.029 A 
ATOM     56  N   UNL A   1      43.807  26.997  33.606  1.00  0.00    -0.354 N 
ATOM     57  C   UNL A   1      40.700  29.924  30.124  1.00  0.00     0.074 A 
ATOM     58  C   UNL A   1      41.204  29.412  28.871  1.00  0.00     0.031 C 
ATOM     59  C   UNL A   1      41.848  27.549  34.557  1.00  0.00     0.029 A 
ATOM     60  C   UNL A   1      43.275  27.522  34.801  1.00  0.00     0.049 A 
ATOM     61  H   UNL A   1      44.619  26.447  33.522  1.00  0.00     0.167 HD
ATOM     62  C   UNL A   1      39.549  30.551  30.509  1.00  0.00     0.037 A 
ATOM     63  C   UNL A   1      43.949  28.357  35.641  1.00  0.00     0.037 A 
ATOM     64  C   UNL A   1      39.464  30.671  31.959  1.00  0.00     0.049 A 
ATOM     65  C   UNL A   1      43.199  29.614  35.988  1.00  0.00     0.074 A 
ATOM     66  C   UNL A   1      38.858  29.873  32.916  1.00  0.00     0.029 A 
ATOM     67  N   UNL A   1      40.283  31.558  32.640  1.00  0.00    -0.354 N 
ATOM     68  N   UNL A   1      42.205  30.055  35.278  1.00  0.00    -0.248 NA
ATOM     69  C   UNL A   1      43.574  30.530  37.062  1.00  0.00     0.031 C 
ATOM     70  C   UNL A   1      39.335  30.271  34.184  1.00  0.00     0.029 A 
ATOM     71  C   UNL A   1      40.225  31.316  33.999  1.00  0.00     0.049 A 
ATOM     72  H   UNL A   1      40.828  32.260  32.216  1.00  0.00     0.167 HD
ATOM     73  C   UNL A   1      41.899  31.326  35.673  1.00  0.00     0.074 A 
ATOM     74  C   UNL A   1      42.736  31.557  36.833  1.00  0.00     0.031 C 
ATOM     75  C   UNL A   1      41.032  32.082  34.940  1.00  0.00     0.037 A 
BRANCH  62  76
ATOM     76  C   UNL A   1      38.350  30.776  29.608  1.00  0.00     0.057 A 
ATOM     77  C   UNL A   1      37.946  32.081  29.249  1.00  0.00     0.134 A 
ATOM     78  C   UNL A   1      37.536  29.759  29.084  1.00  0.00     0.134 A 
ATOM     79  F   UNL A   1      38.664  33.162  29.576  1.00  0.00    -0.206 F 
ATOM     80  C   UNL A   1      36.774  32.354  28.532  1.00  0.00     0.040 A 
ATOM     81  C   UNL A   1      36.333  30.018  28.404  1.00  0.00     0.040 A 
ATOM     82  F   UNL A   1      37.891  28.471  29.159  1.00  0.00    -0.206 F 
ATOM     83  C   UNL A   1      35.941  31.321  28.136  1.00  0.00     0.006 A 
ENDBRANCH  62  76
BRANCH  63  84
ATOM     84  C   UNL A   1      45.420  28.349  35.478  1.00  0.00     0.057 A 
ATOM     85  C   UNL A   1      46.044  29.220  34.576  1.00  0.00     0.134 A 
ATOM     86  C   UNL A   1      46.227  27.699  36.419  1.00  0.00     0.134 A 
ATOM     87  F   UNL A   1      45.320  29.891  33.666  1.00  0.00    -0.206 F 
ATOM     88  C   UNL A   1      47.414  29.474  34.644  1.00  0.00     0.040 A 
ATOM     89  C   UNL A   1      47.594  27.954  36.506  1.00  0.00     0.040 A 
ATOM     90  F   UNL A   1      45.689  26.863  37.320  1.00  0.00    -0.206 F 
ATOM     91  C   UNL A   1      48.188  28.844  35.617  1.00  0.00     0.006 A 
ENDBRANCH  63  84
BRANCH  75  92
ATOM     92  C   UNL A   1      40.830  33.565  35.083  1.00  0.00     0.057 A 
ATOM     93  C   UNL A   1      39.828  34.154  35.867  1.00  0.00     0.134 A 
ATOM     94  C   UNL A   1      41.752  34.468  34.510  1.00  0.00     0.134 A 
ATOM     95  F   UNL A   1      38.968  33.418  36.583  1.00  0.00    -0.206 F 
ATOM     96  C   UNL A   1      39.695  35.543  35.998  1.00  0.00     0.040 A 
ATOM     97  C   UNL A   1      41.665  35.851  34.684  1.00  0.00     0.040 A 
ATOM     98  F   UNL A   1      42.793  34.044  33.778  1.00  0.00    -0.206 F 
ATOM     99  C   UNL A   1      40.618  36.397  35.410  1.00  0.00     0.006 A 
ENDBRANCH  75  92
ENDBRANCH  49  50
ENDBRANCH  41  44
ENDBRANCH  39  40
ENDBRANCH  38  39
ENDBRANCH  37  38
ENDBRANCH  36  37
ENDBRANCH   1  36
TORSDOF 19
ENDMDL
