MODEL 1
REMARK VINA RESULT:     -10.0      0.000      0.000
REMARK SMILES NS(=O)(=O)c1ccc(-n2nc(NC(=O)NCCCCCCCCCCC(=O)NCCCCCCNC(=O)c3ccc(-c4c5nc(c(-c6c(F)cccc6F)c6ccc([nH]6)c(-c6c(F)cccc6F)c6nc(c(-c7c(F)cccc7F)c7ccc4[nH]7)C=C6)C=C5)cc3)cc2-c2ccccc2)cc1
REMARK SMILES IDX 23 1 22 2 21 3 20 4 19 5 18 6 17 7 16 8 15 9 12 10 13 11
REMARK SMILES IDX 14 13 11 15 9 16 10 17 93 18 92 19 8 20 5 21 6 22 101 23
REMARK SMILES IDX 7 24 100 25 2 26 3 27 4 28 1 29 94 32 95 33 99 34 96 35
REMARK SMILES IDX 98 36 97 37 24 38 25 39 26 40 27 41 28 42 29 44 30 45 31 46
REMARK SMILES IDX 32 47 33 48 34 49 35 50 36 51 37 53 38 54 39 55 91 56 40 57
REMARK SMILES IDX 90 58 41 59 42 60 43 61 84 62 44 63 89 64 83 65 85 66 45 67
REMARK SMILES IDX 88 68 82 69 81 70 46 72 72 73 55 74 71 75 56 76 59 77 70 78
REMARK SMILES IDX 86 79 57 80 58 81 69 83 87 84 60 85 47 86 48 87 53 88 49 89
REMARK SMILES IDX 50 90 52 91 54 92 51 93 73 94 74 95 79 96 75 97 76 98 78 99
REMARK SMILES IDX 80 100 77 101 61 102 62 103 67 104 63 105 64 106 66 107
REMARK SMILES IDX 68 108 65 109
REMARK H PARENT 12 12 15 14 1 30 1 31 28 43 35 52 85 71 59 82
REMARK Flexibility Score: inf
ROOT
ATOM      1  C   UNL A   1      34.992  24.290  24.278  1.00  0.00     0.001 C 
ENDROOT
BRANCH   1   2
ATOM      2  C   UNL A   1      34.242  25.235  23.331  1.00  0.00     0.000 C 
BRANCH   2   3
ATOM      3  C   UNL A   1      32.927  24.683  22.822  1.00  0.00     0.000 C 
BRANCH   3   4
ATOM      4  C   UNL A   1      33.077  23.553  21.812  1.00  0.00     0.000 C 
BRANCH   4   5
ATOM      5  C   UNL A   1      32.468  22.202  22.196  1.00  0.00     0.000 C 
BRANCH   5   6
ATOM      6  C   UNL A   1      31.590  22.184  23.453  1.00  0.00     0.002 C 
BRANCH   6   7
ATOM      7  C   UNL A   1      32.297  21.909  24.780  1.00  0.00     0.021 C 
BRANCH   7   8
ATOM      8  C   UNL A   1      31.726  22.601  26.008  1.00  0.00     0.117 C 
BRANCH   8   9
ATOM      9  N   UNL A   1      30.484  22.088  26.522  1.00  0.00    -0.338 N 
ATOM     10  N   UNL A   1      29.378  24.129  27.065  1.00  0.00    -0.291 N 
ATOM     11  C   UNL A   1      29.424  22.777  27.003  1.00  0.00     0.320 C 
ATOM     12  H   UNL A   1      28.749  24.474  27.739  1.00  0.00     0.173 HD
ATOM     13  O   UNL A   1      28.506  22.133  27.519  1.00  0.00    -0.248 OA
ATOM     14  H   UNL A   1      30.394  21.107  26.524  1.00  0.00     0.165 HD
BRANCH  10  15
ATOM     15  C   UNL A   1      30.042  25.117  26.367  1.00  0.00     0.157 A 
ATOM     16  N   UNL A   1      31.341  26.741  25.949  1.00  0.00    -0.231 N 
ATOM     17  N   UNL A   1      31.266  25.580  26.636  1.00  0.00    -0.149 NA
ATOM     18  C   UNL A   1      30.409  26.774  24.920  1.00  0.00     0.076 A 
ATOM     19  C   UNL A   1      29.526  25.751  25.212  1.00  0.00     0.078 A 
BRANCH  16  20
ATOM     20  C   UNL A   1      32.218  27.779  26.371  1.00  0.00     0.065 A 
ATOM     21  C   UNL A   1      33.953  29.806  27.195  1.00  0.00     0.082 A 
ATOM     22  C   UNL A   1      34.470  28.671  26.570  1.00  0.00     0.024 A 
ATOM     23  C   UNL A   1      32.573  29.938  27.402  1.00  0.00     0.024 A 
ATOM     24  C   UNL A   1      33.603  27.652  26.171  1.00  0.00     0.030 A 
ATOM     25  C   UNL A   1      31.700  28.934  26.965  1.00  0.00     0.030 A 
BRANCH  21  26
ATOM     26  S   UNL A   1      35.024  31.103  27.748  1.00  0.00     0.238 S 
ATOM     27  O   UNL A   1      34.508  32.363  27.236  1.00  0.00    -0.207 OA
ATOM     28  O   UNL A   1      36.384  30.690  27.577  1.00  0.00    -0.207 OA
BRANCH  26  29
ATOM     29  N   UNL A   1      34.783  31.180  29.410  1.00  0.00    -0.225 NA
ATOM     30  H   UNL A   1      34.254  32.023  29.638  1.00  0.00     0.137 HD
ATOM     31  H   UNL A   1      35.686  31.208  29.883  1.00  0.00     0.137 HD
ENDBRANCH  26  29
ENDBRANCH  21  26
ENDBRANCH  16  20
BRANCH  18  32
ATOM     32  C   UNL A   1      30.472  27.722  23.812  1.00  0.00     0.000 A 
ATOM     33  C   UNL A   1      31.715  28.000  23.218  1.00  0.00     0.010 A 
ATOM     34  C   UNL A   1      29.338  28.411  23.376  1.00  0.00     0.010 A 
ATOM     35  C   UNL A   1      31.832  28.984  22.239  1.00  0.00     0.001 A 
ATOM     36  C   UNL A   1      29.457  29.393  22.388  1.00  0.00     0.001 A 
ATOM     37  C   UNL A   1      30.702  29.684  21.829  1.00  0.00     0.000 A 
ENDBRANCH  18  32
ENDBRANCH  10  15
ENDBRANCH   8   9
ENDBRANCH   7   8
ENDBRANCH   6   7
ENDBRANCH   5   6
ENDBRANCH   4   5
ENDBRANCH   3   4
ENDBRANCH   2   3
ENDBRANCH   1   2
BRANCH   1  38
ATOM     38  C   UNL A   1      35.823  23.200  23.601  1.00  0.00     0.010 C 
BRANCH  38  39
ATOM     39  C   UNL A   1      35.775  21.799  24.215  1.00  0.00     0.100 C 
BRANCH  39  40
ATOM     40  C   UNL A   1      36.046  21.753  25.706  1.00  0.00     0.219 C 
ATOM     41  O   UNL A   1      35.138  21.947  26.518  1.00  0.00    -0.275 OA
ATOM     42  N   UNL A   1      37.287  21.472  26.191  1.00  0.00    -0.356 N 
ATOM     43  H   UNL A   1      37.351  21.446  27.173  1.00  0.00     0.163 HD
BRANCH  42  44
ATOM     44  C   UNL A   1      38.528  21.207  25.494  1.00  0.00     0.116 C 
BRANCH  44  45
ATOM     45  C   UNL A   1      39.603  22.243  25.845  1.00  0.00     0.021 C 
BRANCH  45  46
ATOM     46  C   UNL A   1      40.886  21.646  26.424  1.00  0.00     0.002 C 
BRANCH  46  47
ATOM     47  C   UNL A   1      41.168  21.984  27.895  1.00  0.00     0.002 C 
BRANCH  47  48
ATOM     48  C   UNL A   1      42.567  22.524  28.228  1.00  0.00     0.021 C 
BRANCH  48  49
ATOM     49  C   UNL A   1      42.747  24.003  27.925  1.00  0.00     0.116 C 
BRANCH  49  50
ATOM     50  N   UNL A   1      42.105  24.404  26.667  1.00  0.00    -0.352 N 
ATOM     51  C   UNL A   1      41.350  25.527  26.383  1.00  0.00     0.251 C 
ATOM     52  H   UNL A   1      42.231  23.782  25.914  1.00  0.00     0.163 HD
ATOM     53  O   UNL A   1      40.610  25.562  25.407  1.00  0.00    -0.269 OA
BRANCH  51  54
ATOM     54  C   UNL A   1      41.461  26.695  27.270  1.00  0.00     0.039 A 
ATOM     55  C   UNL A   1      41.540  28.006  26.793  1.00  0.00     0.014 A 
ATOM     56  C   UNL A   1      41.457  26.436  28.633  1.00  0.00     0.014 A 
ATOM     57  C   UNL A   1      41.560  29.047  27.718  1.00  0.00     0.010 A 
ATOM     58  C   UNL A   1      41.196  27.446  29.506  1.00  0.00     0.010 A 
ATOM     59  C   UNL A   1      41.384  28.747  29.076  1.00  0.00    -0.014 A 
BRANCH  59  60
ATOM     60  C   UNL A   1      41.339  29.767  30.108  1.00  0.00     0.031 A 
ATOM     61  C   UNL A   1      40.005  30.377  30.302  1.00  0.00     0.074 A 
ATOM     62  C   UNL A   1      42.353  29.934  30.985  1.00  0.00     0.049 A 
ATOM     63  N   UNL A   1      39.642  31.580  30.011  1.00  0.00    -0.248 NA
ATOM     64  C   UNL A   1      38.900  29.502  30.725  1.00  0.00     0.031 C 
ATOM     65  C   UNL A   1      43.590  29.151  31.133  1.00  0.00     0.029 A 
ATOM     66  N   UNL A   1      42.434  30.801  32.027  1.00  0.00    -0.354 N 
ATOM     67  C   UNL A   1      38.320  31.683  30.433  1.00  0.00     0.074 A 
ATOM     68  C   UNL A   1      37.861  30.337  30.651  1.00  0.00     0.031 C 
ATOM     69  C   UNL A   1      44.165  29.425  32.325  1.00  0.00     0.029 A 
ATOM     70  C   UNL A   1      43.447  30.524  32.937  1.00  0.00     0.049 A 
ATOM     71  H   UNL A   1      41.823  31.566  32.128  1.00  0.00     0.167 HD
ATOM     72  C   UNL A   1      37.807  32.879  30.834  1.00  0.00     0.037 A 
ATOM     73  C   UNL A   1      43.642  31.146  34.126  1.00  0.00     0.037 A 
ATOM     74  C   UNL A   1      38.650  33.973  30.412  1.00  0.00     0.049 A 
ATOM     75  C   UNL A   1      42.913  32.441  34.061  1.00  0.00     0.074 A 
ATOM     76  C   UNL A   1      39.119  34.420  29.191  1.00  0.00     0.029 A 
ATOM     77  N   UNL A   1      39.472  34.547  31.354  1.00  0.00    -0.354 N 
ATOM     78  N   UNL A   1      43.246  33.417  33.261  1.00  0.00    -0.248 NA
ATOM     79  C   UNL A   1      41.532  32.451  34.520  1.00  0.00     0.031 C 
ATOM     80  C   UNL A   1      40.472  34.802  29.436  1.00  0.00     0.029 A 
ATOM     81  C   UNL A   1      40.724  34.641  30.799  1.00  0.00     0.049 A 
ATOM     82  H   UNL A   1      39.211  34.835  32.258  1.00  0.00     0.167 HD
ATOM     83  C   UNL A   1      42.040  33.910  32.781  1.00  0.00     0.074 A 
ATOM     84  C   UNL A   1      41.018  33.321  33.646  1.00  0.00     0.031 C 
ATOM     85  C   UNL A   1      41.952  34.501  31.552  1.00  0.00     0.037 A 
BRANCH  72  86
ATOM     86  C   UNL A   1      36.778  33.036  31.926  1.00  0.00     0.057 A 
ATOM     87  C   UNL A   1      35.647  33.835  31.685  1.00  0.00     0.134 A 
ATOM     88  C   UNL A   1      36.981  32.681  33.276  1.00  0.00     0.134 A 
ATOM     89  F   UNL A   1      35.350  34.253  30.444  1.00  0.00    -0.206 F 
ATOM     90  C   UNL A   1      34.829  34.310  32.718  1.00  0.00     0.040 A 
ATOM     91  C   UNL A   1      36.136  33.099  34.307  1.00  0.00     0.040 A 
ATOM     92  F   UNL A   1      38.062  32.010  33.692  1.00  0.00    -0.206 F 
ATOM     93  C   UNL A   1      35.077  33.947  34.035  1.00  0.00     0.006 A 
ENDBRANCH  72  86
BRANCH  73  94
ATOM     94  C   UNL A   1      44.114  30.553  35.399  1.00  0.00     0.057 A 
ATOM     95  C   UNL A   1      43.616  29.327  35.858  1.00  0.00     0.134 A 
ATOM     96  C   UNL A   1      45.259  31.038  36.057  1.00  0.00     0.134 A 
ATOM     97  F   UNL A   1      42.553  28.762  35.268  1.00  0.00    -0.206 F 
ATOM     98  C   UNL A   1      44.234  28.610  36.893  1.00  0.00     0.040 A 
ATOM     99  C   UNL A   1      45.883  30.336  37.096  1.00  0.00     0.040 A 
ATOM    100  F   UNL A   1      45.866  32.164  35.657  1.00  0.00    -0.206 F 
ATOM    101  C   UNL A   1      45.379  29.109  37.508  1.00  0.00     0.006 A 
ENDBRANCH  73  94
BRANCH  85 102
ATOM    102  C   UNL A   1      43.230  34.810  30.815  1.00  0.00     0.057 A 
ATOM    103  C   UNL A   1      43.805  33.972  29.847  1.00  0.00     0.134 A 
ATOM    104  C   UNL A   1      43.801  36.079  30.961  1.00  0.00     0.134 A 
ATOM    105  F   UNL A   1      43.276  32.777  29.561  1.00  0.00    -0.206 F 
ATOM    106  C   UNL A   1      44.912  34.363  29.087  1.00  0.00     0.040 A 
ATOM    107  C   UNL A   1      44.887  36.495  30.188  1.00  0.00     0.040 A 
ATOM    108  F   UNL A   1      43.273  36.959  31.827  1.00  0.00    -0.206 F 
ATOM    109  C   UNL A   1      45.452  35.634  29.252  1.00  0.00     0.006 A 
ENDBRANCH  85 102
ENDBRANCH  59  60
ENDBRANCH  51  54
ENDBRANCH  49  50
ENDBRANCH  48  49
ENDBRANCH  47  48
ENDBRANCH  46  47
ENDBRANCH  45  46
ENDBRANCH  44  45
ENDBRANCH  42  44
ENDBRANCH  39  40
ENDBRANCH  38  39
ENDBRANCH   1  38
TORSDOF 28
ENDMDL
MODEL 2
REMARK VINA RESULT:      -9.6      2.805      7.971
REMARK SMILES NS(=O)(=O)c1ccc(-n2nc(NC(=O)NCCCCCCCCCCC(=O)NCCCCCCNC(=O)c3ccc(-c4c5nc(c(-c6c(F)cccc6F)c6ccc([nH]6)c(-c6c(F)cccc6F)c6nc(c(-c7c(F)cccc7F)c7ccc4[nH]7)C=C6)C=C5)cc3)cc2-c2ccccc2)cc1
REMARK SMILES IDX 23 1 22 2 21 3 20 4 19 5 18 6 17 7 16 8 15 9 12 10 13 11
REMARK SMILES IDX 14 13 11 15 9 16 10 17 93 18 92 19 8 20 5 21 6 22 101 23
REMARK SMILES IDX 7 24 100 25 2 26 3 27 4 28 1 29 94 32 95 33 99 34 96 35
REMARK SMILES IDX 98 36 97 37 24 38 25 39 26 40 27 41 28 42 29 44 30 45 31 46
REMARK SMILES IDX 32 47 33 48 34 49 35 50 36 51 37 53 38 54 39 55 91 56 40 57
REMARK SMILES IDX 90 58 41 59 42 60 43 61 84 62 44 63 89 64 83 65 85 66 45 67
REMARK SMILES IDX 88 68 82 69 81 70 46 72 72 73 55 74 71 75 56 76 59 77 70 78
REMARK SMILES IDX 86 79 57 80 58 81 69 83 87 84 60 85 47 86 48 87 53 88 49 89
REMARK SMILES IDX 50 90 52 91 54 92 51 93 73 94 74 95 79 96 75 97 76 98 78 99
REMARK SMILES IDX 80 100 77 101 61 102 62 103 67 104 63 105 64 106 66 107
REMARK SMILES IDX 68 108 65 109
REMARK H PARENT 12 12 15 14 1 30 1 31 28 43 35 52 85 71 59 82
REMARK Flexibility Score: inf
ROOT
ATOM      1  C   UNL A   1      42.258  25.708  27.343  1.00  0.00     0.001 C 
ENDROOT
BRANCH   1   2
ATOM      2  C   UNL A   1      42.234  24.188  27.134  1.00  0.00     0.000 C 
BRANCH   2   3
ATOM      3  C   UNL A   1      40.997  23.684  26.419  1.00  0.00     0.000 C 
BRANCH   3   4
ATOM      4  C   UNL A   1      40.967  22.174  26.221  1.00  0.00     0.000 C 
BRANCH   4   5
ATOM      5  C   UNL A   1      39.649  21.466  26.541  1.00  0.00     0.000 C 
BRANCH   5   6
ATOM      6  C   UNL A   1      38.535  21.596  25.496  1.00  0.00     0.002 C 
BRANCH   6   7
ATOM      7  C   UNL A   1      37.192  20.953  25.839  1.00  0.00     0.021 C 
BRANCH   7   8
ATOM      8  C   UNL A   1      36.332  20.509  24.666  1.00  0.00     0.117 C 
BRANCH   8   9
ATOM      9  N   UNL A   1      35.677  19.233  24.789  1.00  0.00    -0.338 N 
ATOM     10  N   UNL A   1      33.406  19.941  24.959  1.00  0.00    -0.291 N 
ATOM     11  C   UNL A   1      34.356  18.976  24.925  1.00  0.00     0.320 C 
ATOM     12  H   UNL A   1      32.577  19.665  25.412  1.00  0.00     0.173 HD
ATOM     13  O   UNL A   1      34.018  17.810  25.148  1.00  0.00    -0.248 OA
ATOM     14  H   UNL A   1      36.267  18.445  24.772  1.00  0.00     0.165 HD
BRANCH  10  15
ATOM     15  C   UNL A   1      33.377  21.236  24.484  1.00  0.00     0.157 A 
ATOM     16  N   UNL A   1      33.250  23.353  24.456  1.00  0.00    -0.231 N 
ATOM     17  N   UNL A   1      33.793  22.323  25.140  1.00  0.00    -0.149 NA
ATOM     18  C   UNL A   1      32.913  22.973  23.164  1.00  0.00     0.076 A 
ATOM     19  C   UNL A   1      32.941  21.590  23.185  1.00  0.00     0.078 A 
BRANCH  16  20
ATOM     20  C   UNL A   1      32.995  24.597  25.099  1.00  0.00     0.065 A 
ATOM     21  C   UNL A   1      32.481  27.032  26.365  1.00  0.00     0.082 A 
ATOM     22  C   UNL A   1      31.523  26.019  26.409  1.00  0.00     0.024 A 
ATOM     23  C   UNL A   1      33.698  26.832  25.699  1.00  0.00     0.024 A 
ATOM     24  C   UNL A   1      31.776  24.806  25.765  1.00  0.00     0.030 A 
ATOM     25  C   UNL A   1      33.967  25.602  25.088  1.00  0.00     0.030 A 
BRANCH  21  26
ATOM     26  S   UNL A   1      32.182  28.597  27.140  1.00  0.00     0.238 S 
ATOM     27  O   UNL A   1      31.201  28.397  28.194  1.00  0.00    -0.207 OA
ATOM     28  O   UNL A   1      32.046  29.600  26.127  1.00  0.00    -0.207 OA
BRANCH  26  29
ATOM     29  N   UNL A   1      33.614  28.959  27.942  1.00  0.00    -0.225 NA
ATOM     30  H   UNL A   1      34.000  28.107  28.352  1.00  0.00     0.137 HD
ATOM     31  H   UNL A   1      33.427  29.636  28.681  1.00  0.00     0.137 HD
ENDBRANCH  26  29
ENDBRANCH  21  26
ENDBRANCH  16  20
BRANCH  18  32
ATOM     32  C   UNL A   1      32.631  23.927  22.096  1.00  0.00     0.000 A 
ATOM     33  C   UNL A   1      33.164  23.699  20.816  1.00  0.00     0.010 A 
ATOM     34  C   UNL A   1      31.904  25.095  22.334  1.00  0.00     0.010 A 
ATOM     35  C   UNL A   1      33.015  24.644  19.803  1.00  0.00     0.001 A 
ATOM     36  C   UNL A   1      31.750  26.039  21.314  1.00  0.00     0.001 A 
ATOM     37  C   UNL A   1      32.312  25.817  20.057  1.00  0.00     0.000 A 
ENDBRANCH  18  32
ENDBRANCH  10  15
ENDBRANCH   8   9
ENDBRANCH   7   8
ENDBRANCH   6   7
ENDBRANCH   5   6
ENDBRANCH   4   5
ENDBRANCH   3   4
ENDBRANCH   2   3
ENDBRANCH   1   2
BRANCH   1  38
ATOM     38  C   UNL A   1      41.289  26.510  26.472  1.00  0.00     0.010 C 
BRANCH  38  39
ATOM     39  C   UNL A   1      41.445  28.032  26.471  1.00  0.00     0.100 C 
BRANCH  39  40
ATOM     40  C   UNL A   1      42.798  28.529  26.000  1.00  0.00     0.219 C 
ATOM     41  O   UNL A   1      43.317  28.070  24.980  1.00  0.00    -0.275 OA
ATOM     42  N   UNL A   1      43.465  29.507  26.672  1.00  0.00    -0.356 N 
ATOM     43  H   UNL A   1      44.325  29.771  26.271  1.00  0.00     0.163 HD
BRANCH  42  44
ATOM     44  C   UNL A   1      43.114  30.221  27.882  1.00  0.00     0.116 C 
BRANCH  44  45
ATOM     45  C   UNL A   1      43.978  31.474  28.067  1.00  0.00     0.021 C 
BRANCH  45  46
ATOM     46  C   UNL A   1      44.572  32.025  26.771  1.00  0.00     0.002 C 
BRANCH  46  47
ATOM     47  C   UNL A   1      45.915  32.756  26.915  1.00  0.00     0.002 C 
BRANCH  47  48
ATOM     48  C   UNL A   1      46.189  33.906  25.934  1.00  0.00     0.021 C 
BRANCH  48  49
ATOM     49  C   UNL A   1      45.022  34.866  25.765  1.00  0.00     0.116 C 
BRANCH  49  50
ATOM     50  N   UNL A   1      45.261  36.164  26.409  1.00  0.00    -0.352 N 
ATOM     51  C   UNL A   1      44.580  36.770  27.448  1.00  0.00     0.251 C 
ATOM     52  H   UNL A   1      46.020  36.678  26.047  1.00  0.00     0.163 HD
ATOM     53  O   UNL A   1      44.677  37.974  27.652  1.00  0.00    -0.269 OA
BRANCH  51  54
ATOM     54  C   UNL A   1      43.741  35.937  28.323  1.00  0.00     0.039 A 
ATOM     55  C   UNL A   1      44.271  35.078  29.289  1.00  0.00     0.014 A 
ATOM     56  C   UNL A   1      42.369  36.062  28.162  1.00  0.00     0.014 A 
ATOM     57  C   UNL A   1      43.388  34.393  30.121  1.00  0.00     0.010 A 
ATOM     58  C   UNL A   1      41.536  35.619  29.142  1.00  0.00     0.010 A 
ATOM     59  C   UNL A   1      42.019  34.680  30.035  1.00  0.00    -0.014 A 
BRANCH  59  60
ATOM     60  C   UNL A   1      41.029  34.055  30.893  1.00  0.00     0.031 A 
ATOM     61  C   UNL A   1      41.442  33.936  32.310  1.00  0.00     0.074 A 
ATOM     62  C   UNL A   1      39.755  33.863  30.486  1.00  0.00     0.049 A 
ATOM     63  N   UNL A   1      41.730  32.857  32.956  1.00  0.00    -0.248 NA
ATOM     64  C   UNL A   1      41.720  35.174  33.055  1.00  0.00     0.031 C 
ATOM     65  C   UNL A   1      39.114  34.267  29.225  1.00  0.00     0.029 A 
ATOM     66  N   UNL A   1      38.714  33.346  31.187  1.00  0.00    -0.354 N 
ATOM     67  C   UNL A   1      42.000  33.264  34.258  1.00  0.00     0.074 A 
ATOM     68  C   UNL A   1      42.194  34.688  34.204  1.00  0.00     0.031 C 
ATOM     69  C   UNL A   1      37.771  34.193  29.350  1.00  0.00     0.029 A 
ATOM     70  C   UNL A   1      37.464  33.570  30.621  1.00  0.00     0.049 A 
ATOM     71  H   UNL A   1      38.835  32.851  32.029  1.00  0.00     0.167 HD
ATOM     72  C   UNL A   1      41.764  32.432  35.311  1.00  0.00     0.037 A 
ATOM     73  C   UNL A   1      36.268  33.286  31.193  1.00  0.00     0.037 A 
ATOM     74  C   UNL A   1      41.587  31.070  34.867  1.00  0.00     0.049 A 
ATOM     75  C   UNL A   1      36.529  32.293  32.269  1.00  0.00     0.074 A 
ATOM     76  C   UNL A   1      42.361  30.176  34.149  1.00  0.00     0.029 A 
ATOM     77  N   UNL A   1      40.304  30.579  34.802  1.00  0.00    -0.354 N 
ATOM     78  N   UNL A   1      36.942  31.076  32.044  1.00  0.00    -0.248 NA
ATOM     79  C   UNL A   1      36.806  32.811  33.601  1.00  0.00     0.031 C 
ATOM     80  C   UNL A   1      41.442  29.509  33.284  1.00  0.00     0.029 A 
ATOM     81  C   UNL A   1      40.160  29.976  33.578  1.00  0.00     0.049 A 
ATOM     82  H   UNL A   1      39.616  30.650  35.503  1.00  0.00     0.167 HD
ATOM     83  C   UNL A   1      37.889  30.834  33.030  1.00  0.00     0.074 A 
ATOM     84  C   UNL A   1      37.711  31.913  34.001  1.00  0.00     0.031 C 
ATOM     85  C   UNL A   1      38.925  29.966  32.824  1.00  0.00     0.037 A 
BRANCH  72  86
ATOM     86  C   UNL A   1      41.305  32.897  36.671  1.00  0.00     0.057 A 
ATOM     87  C   UNL A   1      42.003  32.460  37.810  1.00  0.00     0.134 A 
ATOM     88  C   UNL A   1      40.061  33.509  36.931  1.00  0.00     0.134 A 
ATOM     89  F   UNL A   1      43.193  31.849  37.697  1.00  0.00    -0.206 F 
ATOM     90  C   UNL A   1      41.467  32.553  39.101  1.00  0.00     0.040 A 
ATOM     91  C   UNL A   1      39.545  33.662  38.221  1.00  0.00     0.040 A 
ATOM     92  F   UNL A   1      39.226  33.890  35.958  1.00  0.00    -0.206 F 
ATOM     93  C   UNL A   1      40.231  33.150  39.308  1.00  0.00     0.006 A 
ENDBRANCH  72  86
BRANCH  73  94
ATOM     94  C   UNL A   1      35.006  34.057  31.101  1.00  0.00     0.057 A 
ATOM     95  C   UNL A   1      34.740  35.121  31.973  1.00  0.00     0.134 A 
ATOM     96  C   UNL A   1      34.157  33.949  29.985  1.00  0.00     0.134 A 
ATOM     97  F   UNL A   1      35.520  35.332  33.044  1.00  0.00    -0.206 F 
ATOM     98  C   UNL A   1      33.707  36.039  31.739  1.00  0.00     0.040 A 
ATOM     99  C   UNL A   1      33.117  34.855  29.742  1.00  0.00     0.040 A 
ATOM    100  F   UNL A   1      34.360  33.016  29.045  1.00  0.00    -0.206 F 
ATOM    101  C   UNL A   1      32.898  35.914  30.613  1.00  0.00     0.006 A 
ENDBRANCH  73  94
BRANCH  85 102
ATOM    102  C   UNL A   1      38.901  29.106  31.586  1.00  0.00     0.057 A 
ATOM    103  C   UNL A   1      39.335  29.531  30.321  1.00  0.00     0.134 A 
ATOM    104  C   UNL A   1      38.595  27.747  31.718  1.00  0.00     0.134 A 
ATOM    105  F   UNL A   1      39.743  30.788  30.114  1.00  0.00    -0.206 F 
ATOM    106  C   UNL A   1      39.428  28.656  29.233  1.00  0.00     0.040 A 
ATOM    107  C   UNL A   1      38.712  26.855  30.649  1.00  0.00     0.040 A 
ATOM    108  F   UNL A   1      38.226  27.252  32.910  1.00  0.00    -0.206 F 
ATOM    109  C   UNL A   1      39.123  27.310  29.399  1.00  0.00     0.006 A 
ENDBRANCH  85 102
ENDBRANCH  59  60
ENDBRANCH  51  54
ENDBRANCH  49  50
ENDBRANCH  48  49
ENDBRANCH  47  48
ENDBRANCH  46  47
ENDBRANCH  45  46
ENDBRANCH  44  45
ENDBRANCH  42  44
ENDBRANCH  39  40
ENDBRANCH  38  39
ENDBRANCH   1  38
TORSDOF 28
ENDMDL
MODEL 3
REMARK VINA RESULT:      -9.5      4.710      8.485
REMARK SMILES NS(=O)(=O)c1ccc(-n2nc(NC(=O)NCCCCCCCCCCC(=O)NCCCCCCNC(=O)c3ccc(-c4c5nc(c(-c6c(F)cccc6F)c6ccc([nH]6)c(-c6c(F)cccc6F)c6nc(c(-c7c(F)cccc7F)c7ccc4[nH]7)C=C6)C=C5)cc3)cc2-c2ccccc2)cc1
REMARK SMILES IDX 23 1 22 2 21 3 20 4 19 5 18 6 17 7 16 8 15 9 12 10 13 11
REMARK SMILES IDX 14 13 11 15 9 16 10 17 93 18 92 19 8 20 5 21 6 22 101 23
REMARK SMILES IDX 7 24 100 25 2 26 3 27 4 28 1 29 94 32 95 33 99 34 96 35
REMARK SMILES IDX 98 36 97 37 24 38 25 39 26 40 27 41 28 42 29 44 30 45 31 46
REMARK SMILES IDX 32 47 33 48 34 49 35 50 36 51 37 53 38 54 39 55 91 56 40 57
REMARK SMILES IDX 90 58 41 59 42 60 43 61 84 62 44 63 89 64 83 65 85 66 45 67
REMARK SMILES IDX 88 68 82 69 81 70 46 72 72 73 55 74 71 75 56 76 59 77 70 78
REMARK SMILES IDX 86 79 57 80 58 81 69 83 87 84 60 85 47 86 48 87 53 88 49 89
REMARK SMILES IDX 50 90 52 91 54 92 51 93 73 94 74 95 79 96 75 97 76 98 78 99
REMARK SMILES IDX 80 100 77 101 61 102 62 103 67 104 63 105 64 106 66 107
REMARK SMILES IDX 68 108 65 109
REMARK H PARENT 12 12 15 14 1 30 1 31 28 43 35 52 85 71 59 82
REMARK Flexibility Score: inf
ROOT
ATOM      1  C   UNL A   1      34.148  25.215  24.379  1.00  0.00     0.001 C 
ENDROOT
BRANCH   1   2
ATOM      2  C   UNL A   1      34.287  25.634  22.910  1.00  0.00     0.000 C 
BRANCH   2   3
ATOM      3  C   UNL A   1      32.969  25.941  22.229  1.00  0.00     0.000 C 
BRANCH   3   4
ATOM      4  C   UNL A   1      32.248  24.714  21.689  1.00  0.00     0.000 C 
BRANCH   4   5
ATOM      5  C   UNL A   1      31.627  23.771  22.723  1.00  0.00     0.000 C 
BRANCH   5   6
ATOM      6  C   UNL A   1      32.381  22.464  22.993  1.00  0.00     0.002 C 
BRANCH   6   7
ATOM      7  C   UNL A   1      32.028  21.721  24.281  1.00  0.00     0.021 C 
BRANCH   7   8
ATOM      8  C   UNL A   1      31.513  22.569  25.433  1.00  0.00     0.117 C 
BRANCH   8   9
ATOM      9  N   UNL A   1      30.350  22.080  26.127  1.00  0.00    -0.338 N 
ATOM     10  N   UNL A   1      29.573  24.103  27.122  1.00  0.00    -0.291 N 
ATOM     11  C   UNL A   1      29.475  22.772  26.893  1.00  0.00     0.320 C 
ATOM     12  H   UNL A   1      29.124  24.398  27.947  1.00  0.00     0.173 HD
ATOM     13  O   UNL A   1      28.617  22.131  27.506  1.00  0.00    -0.248 OA
ATOM     14  H   UNL A   1      30.167  21.118  26.031  1.00  0.00     0.165 HD
BRANCH  10  15
ATOM     15  C   UNL A   1      30.182  25.126  26.425  1.00  0.00     0.157 A 
ATOM     16  N   UNL A   1      31.403  26.809  26.003  1.00  0.00    -0.231 N 
ATOM     17  N   UNL A   1      31.390  25.638  26.677  1.00  0.00    -0.149 NA
ATOM     18  C   UNL A   1      30.451  26.815  24.993  1.00  0.00     0.076 A 
ATOM     19  C   UNL A   1      29.617  25.752  25.288  1.00  0.00     0.078 A 
BRANCH  16  20
ATOM     20  C   UNL A   1      32.244  27.877  26.423  1.00  0.00     0.065 A 
ATOM     21  C   UNL A   1      33.908  29.966  27.240  1.00  0.00     0.082 A 
ATOM     22  C   UNL A   1      34.460  28.862  26.590  1.00  0.00     0.024 A 
ATOM     23  C   UNL A   1      32.528  30.036  27.476  1.00  0.00     0.024 A 
ATOM     24  C   UNL A   1      33.629  27.812  26.194  1.00  0.00     0.030 A 
ATOM     25  C   UNL A   1      31.690  29.002  27.042  1.00  0.00     0.030 A 
BRANCH  21  26
ATOM     26  S   UNL A   1      34.934  31.300  27.790  1.00  0.00     0.238 S 
ATOM     27  O   UNL A   1      34.322  32.547  27.359  1.00  0.00    -0.207 OA
ATOM     28  O   UNL A   1      36.304  30.973  27.529  1.00  0.00    -0.207 OA
BRANCH  26  29
ATOM     29  N   UNL A   1      34.782  31.298  29.464  1.00  0.00    -0.225 NA
ATOM     30  H   UNL A   1      35.412  31.995  29.864  1.00  0.00     0.137 HD
ATOM     31  H   UNL A   1      35.023  30.376  29.826  1.00  0.00     0.137 HD
ENDBRANCH  26  29
ENDBRANCH  21  26
ENDBRANCH  16  20
BRANCH  18  32
ATOM     32  C   UNL A   1      30.453  27.779  23.896  1.00  0.00     0.000 A 
ATOM     33  C   UNL A   1      31.654  28.422  23.552  1.00  0.00     0.010 A 
ATOM     34  C   UNL A   1      29.276  28.127  23.229  1.00  0.00     0.010 A 
ATOM     35  C   UNL A   1      31.671  29.431  22.592  1.00  0.00     0.001 A 
ATOM     36  C   UNL A   1      29.297  29.135  22.261  1.00  0.00     0.001 A 
ATOM     37  C   UNL A   1      30.490  29.790  21.951  1.00  0.00     0.000 A 
ENDBRANCH  18  32
ENDBRANCH  10  15
ENDBRANCH   8   9
ENDBRANCH   7   8
ENDBRANCH   6   7
ENDBRANCH   5   6
ENDBRANCH   4   5
ENDBRANCH   3   4
ENDBRANCH   2   3
ENDBRANCH   1   2
BRANCH   1  38
ATOM     38  C   UNL A   1      35.358  24.497  24.979  1.00  0.00     0.010 C 
BRANCH  38  39
ATOM     39  C   UNL A   1      35.492  22.999  24.699  1.00  0.00     0.100 C 
BRANCH  39  40
ATOM     40  C   UNL A   1      36.535  22.641  23.658  1.00  0.00     0.219 C 
ATOM     41  O   UNL A   1      36.555  23.211  22.565  1.00  0.00    -0.275 OA
ATOM     42  N   UNL A   1      37.489  21.702  23.906  1.00  0.00    -0.356 N 
ATOM     43  H   UNL A   1      38.130  21.560  23.172  1.00  0.00     0.163 HD
BRANCH  42  44
ATOM     44  C   UNL A   1      37.714  20.878  25.075  1.00  0.00     0.116 C 
BRANCH  44  45
ATOM     45  C   UNL A   1      38.663  21.558  26.069  1.00  0.00     0.021 C 
BRANCH  45  46
ATOM     46  C   UNL A   1      39.958  20.787  26.329  1.00  0.00     0.002 C 
BRANCH  46  47
ATOM     47  C   UNL A   1      40.842  21.339  27.457  1.00  0.00     0.002 C 
BRANCH  47  48
ATOM     48  C   UNL A   1      42.295  21.681  27.094  1.00  0.00     0.021 C 
BRANCH  48  49
ATOM     49  C   UNL A   1      42.533  21.871  25.604  1.00  0.00     0.116 C 
BRANCH  49  50
ATOM     50  N   UNL A   1      43.537  20.943  25.070  1.00  0.00    -0.352 N 
ATOM     51  C   UNL A   1      44.853  21.178  24.715  1.00  0.00     0.251 C 
ATOM     52  H   UNL A   1      43.229  20.016  24.947  1.00  0.00     0.163 HD
ATOM     53  O   UNL A   1      45.458  20.405  23.982  1.00  0.00    -0.269 OA
BRANCH  51  54
ATOM     54  C   UNL A   1      45.525  22.373  25.247  1.00  0.00     0.039 A 
ATOM     55  C   UNL A   1      45.917  23.445  24.442  1.00  0.00     0.014 A 
ATOM     56  C   UNL A   1      45.734  22.404  26.619  1.00  0.00     0.014 A 
ATOM     57  C   UNL A   1      46.473  24.566  25.055  1.00  0.00     0.010 A 
ATOM     58  C   UNL A   1      46.010  23.588  27.228  1.00  0.00     0.010 A 
ATOM     59  C   UNL A   1      46.508  24.620  26.456  1.00  0.00    -0.014 A 
BRANCH  59  60
ATOM     60  C   UNL A   1      47.021  25.766  27.185  1.00  0.00     0.031 A 
ATOM     61  C   UNL A   1      48.499  25.838  27.242  1.00  0.00     0.074 A 
ATOM     62  C   UNL A   1      46.225  26.803  27.529  1.00  0.00     0.049 A 
ATOM     63  N   UNL A   1      49.253  25.667  28.274  1.00  0.00    -0.248 NA
ATOM     64  C   UNL A   1      49.234  25.960  25.974  1.00  0.00     0.031 C 
ATOM     65  C   UNL A   1      44.806  27.027  27.215  1.00  0.00     0.029 A 
ATOM     66  N   UNL A   1      46.567  27.955  28.159  1.00  0.00    -0.354 N 
ATOM     67  C   UNL A   1      50.551  25.892  27.827  1.00  0.00     0.074 A 
ATOM     68  C   UNL A   1      50.497  25.846  26.391  1.00  0.00     0.031 C 
ATOM     69  C   UNL A   1      44.484  28.318  27.445  1.00  0.00     0.029 A 
ATOM     70  C   UNL A   1      45.611  28.962  28.089  1.00  0.00     0.049 A 
ATOM     71  H   UNL A   1      47.424  28.069  28.629  1.00  0.00     0.167 HD
ATOM     72  C   UNL A   1      51.505  26.374  28.672  1.00  0.00     0.037 A 
ATOM     73  C   UNL A   1      45.769  30.242  28.506  1.00  0.00     0.037 A 
ATOM     74  C   UNL A   1      51.092  26.244  30.049  1.00  0.00     0.049 A 
ATOM     75  C   UNL A   1      46.917  30.249  29.452  1.00  0.00     0.074 A 
ATOM     76  C   UNL A   1      50.714  25.184  30.852  1.00  0.00     0.029 A 
ATOM     77  N   UNL A   1      50.631  27.372  30.688  1.00  0.00    -0.354 N 
ATOM     78  N   UNL A   1      46.898  29.655  30.614  1.00  0.00    -0.248 NA
ATOM     79  C   UNL A   1      48.239  30.489  28.894  1.00  0.00     0.031 C 
ATOM     80  C   UNL A   1      49.627  25.684  31.630  1.00  0.00     0.029 A 
ATOM     81  C   UNL A   1      49.459  27.033  31.315  1.00  0.00     0.049 A 
ATOM     82  H   UNL A   1      51.062  28.257  30.693  1.00  0.00     0.167 HD
ATOM     83  C   UNL A   1      48.152  29.070  30.735  1.00  0.00     0.074 A 
ATOM     84  C   UNL A   1      48.957  29.678  29.676  1.00  0.00     0.031 C 
ATOM     85  C   UNL A   1      48.341  27.938  31.476  1.00  0.00     0.037 A 
BRANCH  72  86
ATOM     86  C   UNL A   1      52.614  27.307  28.252  1.00  0.00     0.057 A 
ATOM     87  C   UNL A   1      52.284  28.502  27.589  1.00  0.00     0.134 A 
ATOM     88  C   UNL A   1      53.981  26.961  28.212  1.00  0.00     0.134 A 
ATOM     89  F   UNL A   1      51.014  28.935  27.542  1.00  0.00    -0.206 F 
ATOM     90  C   UNL A   1      53.227  29.249  26.874  1.00  0.00     0.040 A 
ATOM     91  C   UNL A   1      54.941  27.732  27.553  1.00  0.00     0.040 A 
ATOM     92  F   UNL A   1      54.449  25.808  28.705  1.00  0.00    -0.206 F 
ATOM     93  C   UNL A   1      54.560  28.861  26.849  1.00  0.00     0.006 A 
ENDBRANCH  72  86
BRANCH  73  94
ATOM     94  C   UNL A   1      45.230  31.477  27.890  1.00  0.00     0.057 A 
ATOM     95  C   UNL A   1      44.309  32.286  28.568  1.00  0.00     0.134 A 
ATOM     96  C   UNL A   1      45.811  32.038  26.738  1.00  0.00     0.134 A 
ATOM     97  F   UNL A   1      43.733  31.855  29.700  1.00  0.00    -0.206 F 
ATOM     98  C   UNL A   1      44.001  33.586  28.142  1.00  0.00     0.040 A 
ATOM     99  C   UNL A   1      45.508  33.333  26.298  1.00  0.00     0.040 A 
ATOM    100  F   UNL A   1      46.759  31.387  26.050  1.00  0.00    -0.206 F 
ATOM    101  C   UNL A   1      44.611  34.118  27.010  1.00  0.00     0.006 A 
ENDBRANCH  73  94
BRANCH  85 102
ATOM    102  C   UNL A   1      47.206  27.455  32.344  1.00  0.00     0.057 A 
ATOM    103  C   UNL A   1      46.895  27.990  33.605  1.00  0.00     0.134 A 
ATOM    104  C   UNL A   1      46.292  26.542  31.810  1.00  0.00     0.134 A 
ATOM    105  F   UNL A   1      47.653  28.941  34.161  1.00  0.00    -0.206 F 
ATOM    106  C   UNL A   1      45.750  27.610  34.312  1.00  0.00     0.040 A 
ATOM    107  C   UNL A   1      45.127  26.176  32.490  1.00  0.00     0.040 A 
ATOM    108  F   UNL A   1      46.489  26.029  30.585  1.00  0.00    -0.206 F 
ATOM    109  C   UNL A   1      44.857  26.705  33.750  1.00  0.00     0.006 A 
ENDBRANCH  85 102
ENDBRANCH  59  60
ENDBRANCH  51  54
ENDBRANCH  49  50
ENDBRANCH  48  49
ENDBRANCH  47  48
ENDBRANCH  46  47
ENDBRANCH  45  46
ENDBRANCH  44  45
ENDBRANCH  42  44
ENDBRANCH  39  40
ENDBRANCH  38  39
ENDBRANCH   1  38
TORSDOF 28
ENDMDL
