MODEL 1
REMARK VINA RESULT:     -10.5      0.000      0.000
REMARK SMILES CCCCNC(=O)[C@]1(C)CC[C@@](C)(C(=O)NCCCCCCNC(=O)c2ccc(-c3c4nc(c(-c5c(F)cccc5F)c5ccc([nH]5)c(-c5c(F)cccc5F)c5nc(c(-c6c(F)cccc6F)c6ccc3[nH]6)C=C5)C=C4)cc2)C1(C)C
REMARK SMILES IDX 18 1 17 2 16 3 14 4 15 5 12 7 8 8 10 9 80 10 9 11 11 12
REMARK SMILES IDX 81 13 82 14 13 15 6 16 5 17 7 19 4 20 3 21 2 22 1 23 19 24
REMARK SMILES IDX 20 25 21 26 22 27 23 28 24 29 25 31 26 32 27 33 79 34 28 35
REMARK SMILES IDX 78 36 29 37 30 38 31 39 72 40 32 41 77 42 71 43 73 44 33 45
REMARK SMILES IDX 76 46 70 47 69 48 34 50 60 51 43 52 59 53 44 54 47 55 58 56
REMARK SMILES IDX 74 57 45 58 46 59 57 61 75 62 48 63 35 64 36 65 41 66 37 67
REMARK SMILES IDX 38 68 40 69 42 70 39 71 61 72 62 73 67 74 63 75 64 76 66 77
REMARK SMILES IDX 68 78 65 79 49 80 50 81 55 82 51 83 52 84 54 85 56 86 53 87
REMARK H PARENT 16 6 5 18 23 30 73 49 47 60
REMARK Flexibility Score: inf
ROOT
ATOM      1  C   UNL A   1      33.727  27.404  23.015  1.00  0.00     0.021 C 
ENDROOT
BRANCH   1   2
ATOM      2  C   UNL A   1      32.970  26.111  22.702  1.00  0.00     0.116 C 
BRANCH   2   3
ATOM      3  N   UNL A   1      31.624  26.109  23.202  1.00  0.00    -0.356 N 
ATOM      4  C   UNL A   1      30.981  25.388  24.151  1.00  0.00     0.226 C 
ATOM      5  O   UNL A   1      29.762  25.627  24.158  1.00  0.00    -0.274 OA
ATOM      6  H   UNL A   1      31.046  26.774  22.762  1.00  0.00     0.163 HD
BRANCH   4   7
ATOM      7  C   UNL A   1      31.607  24.415  25.241  1.00  0.00     0.052 C 
ATOM      8  C   UNL A   1      33.960  23.339  25.037  1.00  0.00     0.052 C 
ATOM      9  C   UNL A   1      34.010  24.829  25.512  1.00  0.00     0.018 C 
ATOM     10  C   UNL A   1      32.362  23.049  24.837  1.00  0.00    -0.007 C 
ATOM     11  C   UNL A   1      34.900  23.259  23.812  1.00  0.00     0.022 C 
ATOM     12  C   UNL A   1      32.651  25.168  26.087  1.00  0.00     0.018 C 
ATOM     13  C   UNL A   1      31.923  22.516  23.461  1.00  0.00     0.013 C 
ATOM     14  C   UNL A   1      31.928  21.863  25.767  1.00  0.00     0.013 C 
ATOM     15  C   UNL A   1      30.398  24.162  26.204  1.00  0.00     0.022 C 
BRANCH   8  16
ATOM     16  C   UNL A   1      34.553  22.485  26.211  1.00  0.00     0.226 C 
ATOM     17  N   UNL A   1      34.942  21.187  26.096  1.00  0.00    -0.356 N 
ATOM     18  H   UNL A   1      35.016  20.729  26.965  1.00  0.00     0.163 HD
ATOM     19  O   UNL A   1      34.592  22.936  27.364  1.00  0.00    -0.274 OA
BRANCH  17  20
ATOM     20  C   UNL A   1      35.273  20.327  24.971  1.00  0.00     0.116 C 
BRANCH  20  21
ATOM     21  C   UNL A   1      34.132  19.341  24.688  1.00  0.00     0.021 C 
BRANCH  21  22
ATOM     22  C   UNL A   1      34.603  17.964  24.205  1.00  0.00    -0.002 C 
ATOM     23  C   UNL A   1      33.460  17.087  23.721  1.00  0.00     0.004 C 
ENDBRANCH  21  22
ENDBRANCH  20  21
ENDBRANCH  17  20
ENDBRANCH   8  16
ENDBRANCH   4   7
ENDBRANCH   2   3
ENDBRANCH   1   2
BRANCH   1  24
ATOM     24  C   UNL A   1      32.854  28.600  23.379  1.00  0.00     0.002 C 
BRANCH  24  25
ATOM     25  C   UNL A   1      32.897  29.023  24.848  1.00  0.00     0.002 C 
BRANCH  25  26
ATOM     26  C   UNL A   1      34.066  28.476  25.674  1.00  0.00     0.021 C 
BRANCH  26  27
ATOM     27  C   UNL A   1      33.905  28.558  27.190  1.00  0.00     0.116 C 
BRANCH  27  28
ATOM     28  N   UNL A   1      33.795  29.925  27.664  1.00  0.00    -0.352 N 
ATOM     29  C   UNL A   1      34.687  30.694  28.366  1.00  0.00     0.251 C 
ATOM     30  H   UNL A   1      32.945  30.372  27.447  1.00  0.00     0.163 HD
ATOM     31  O   UNL A   1      34.330  31.770  28.834  1.00  0.00    -0.269 OA
BRANCH  29  32
ATOM     32  C   UNL A   1      36.076  30.232  28.575  1.00  0.00     0.039 A 
ATOM     33  C   UNL A   1      36.981  30.336  27.514  1.00  0.00     0.014 A 
ATOM     34  C   UNL A   1      36.478  29.651  29.781  1.00  0.00     0.014 A 
ATOM     35  C   UNL A   1      38.297  29.900  27.677  1.00  0.00     0.010 A 
ATOM     36  C   UNL A   1      37.807  29.273  29.963  1.00  0.00     0.010 A 
ATOM     37  C   UNL A   1      38.728  29.385  28.910  1.00  0.00    -0.014 A 
BRANCH  37  38
ATOM     38  C   UNL A   1      40.134  28.950  29.102  1.00  0.00     0.031 A 
ATOM     39  C   UNL A   1      41.144  29.887  29.706  1.00  0.00     0.074 A 
ATOM     40  C   UNL A   1      40.513  27.724  28.689  1.00  0.00     0.049 A 
ATOM     41  N   UNL A   1      42.421  29.698  29.920  1.00  0.00    -0.248 NA
ATOM     42  C   UNL A   1      40.662  31.220  30.102  1.00  0.00     0.031 C 
ATOM     43  C   UNL A   1      39.639  26.739  28.048  1.00  0.00     0.029 A 
ATOM     44  N   UNL A   1      41.733  27.098  28.743  1.00  0.00    -0.354 N 
ATOM     45  C   UNL A   1      42.897  30.889  30.453  1.00  0.00     0.074 A 
ATOM     46  C   UNL A   1      41.783  31.809  30.496  1.00  0.00     0.031 C 
ATOM     47  C   UNL A   1      40.347  25.627  27.787  1.00  0.00     0.029 A 
ATOM     48  C   UNL A   1      41.728  25.830  28.213  1.00  0.00     0.049 A 
ATOM     49  H   UNL A   1      42.537  27.518  29.125  1.00  0.00     0.167 HD
ATOM     50  C   UNL A   1      44.147  31.182  30.887  1.00  0.00     0.037 A 
ATOM     51  C   UNL A   1      42.724  24.935  28.082  1.00  0.00     0.037 A 
ATOM     52  C   UNL A   1      45.244  30.250  30.888  1.00  0.00     0.049 A 
ATOM     53  C   UNL A   1      44.098  25.286  28.585  1.00  0.00     0.074 A 
ATOM     54  C   UNL A   1      46.522  30.427  31.389  1.00  0.00     0.029 A 
ATOM     55  N   UNL A   1      45.191  28.968  30.364  1.00  0.00    -0.354 N 
ATOM     56  N   UNL A   1      44.510  26.386  29.168  1.00  0.00    -0.248 NA
ATOM     57  C   UNL A   1      45.145  24.267  28.420  1.00  0.00     0.031 C 
ATOM     58  C   UNL A   1      47.258  29.266  31.129  1.00  0.00     0.029 A 
ATOM     59  C   UNL A   1      46.423  28.352  30.507  1.00  0.00     0.049 A 
ATOM     60  H   UNL A   1      44.397  28.557  29.953  1.00  0.00     0.167 HD
ATOM     61  C   UNL A   1      45.850  26.177  29.469  1.00  0.00     0.074 A 
ATOM     62  C   UNL A   1      46.179  24.842  29.016  1.00  0.00     0.031 C 
ATOM     63  C   UNL A   1      46.729  27.015  30.067  1.00  0.00     0.037 A 
BRANCH  50  64
ATOM     64  C   UNL A   1      44.404  32.566  31.406  1.00  0.00     0.057 A 
ATOM     65  C   UNL A   1      44.249  32.888  32.761  1.00  0.00     0.134 A 
ATOM     66  C   UNL A   1      44.880  33.570  30.553  1.00  0.00     0.134 A 
ATOM     67  F   UNL A   1      43.787  31.975  33.627  1.00  0.00    -0.206 F 
ATOM     68  C   UNL A   1      44.548  34.163  33.245  1.00  0.00     0.040 A 
ATOM     69  C   UNL A   1      45.205  34.840  31.031  1.00  0.00     0.040 A 
ATOM     70  F   UNL A   1      45.057  33.325  29.245  1.00  0.00    -0.206 F 
ATOM     71  C   UNL A   1      45.036  35.140  32.381  1.00  0.00     0.006 A 
ENDBRANCH  50  64
BRANCH  51  72
ATOM     72  C   UNL A   1      42.468  23.609  27.465  1.00  0.00     0.057 A 
ATOM     73  C   UNL A   1      42.547  23.430  26.079  1.00  0.00     0.134 A 
ATOM     74  C   UNL A   1      42.101  22.501  28.238  1.00  0.00     0.134 A 
ATOM     75  F   UNL A   1      42.876  24.459  25.284  1.00  0.00    -0.206 F 
ATOM     76  C   UNL A   1      42.242  22.207  25.480  1.00  0.00     0.040 A 
ATOM     77  C   UNL A   1      41.818  21.265  27.654  1.00  0.00     0.040 A 
ATOM     78  F   UNL A   1      42.014  22.604  29.572  1.00  0.00    -0.206 F 
ATOM     79  C   UNL A   1      41.877  21.119  26.269  1.00  0.00     0.006 A 
ENDBRANCH  51  72
BRANCH  63  80
ATOM     80  C   UNL A   1      48.117  26.500  30.307  1.00  0.00     0.057 A 
ATOM     81  C   UNL A   1      48.453  25.794  31.469  1.00  0.00     0.134 A 
ATOM     82  C   UNL A   1      49.118  26.680  29.345  1.00  0.00     0.134 A 
ATOM     83  F   UNL A   1      47.542  25.601  32.434  1.00  0.00    -0.206 F 
ATOM     84  C   UNL A   1      49.744  25.304  31.674  1.00  0.00     0.040 A 
ATOM     85  C   UNL A   1      50.405  26.172  29.527  1.00  0.00     0.040 A 
ATOM     86  F   UNL A   1      48.858  27.339  28.205  1.00  0.00    -0.206 F 
ATOM     87  C   UNL A   1      50.722  25.487  30.699  1.00  0.00     0.006 A 
ENDBRANCH  63  80
ENDBRANCH  37  38
ENDBRANCH  29  32
ENDBRANCH  27  28
ENDBRANCH  26  27
ENDBRANCH  25  26
ENDBRANCH  24  25
ENDBRANCH   1  24
TORSDOF 17
ENDMDL
MODEL 2
REMARK VINA RESULT:     -10.5      2.522      7.580
REMARK SMILES CCCCNC(=O)[C@]1(C)CC[C@@](C)(C(=O)NCCCCCCNC(=O)c2ccc(-c3c4nc(c(-c5c(F)cccc5F)c5ccc([nH]5)c(-c5c(F)cccc5F)c5nc(c(-c6c(F)cccc6F)c6ccc3[nH]6)C=C5)C=C4)cc2)C1(C)C
REMARK SMILES IDX 18 1 17 2 16 3 14 4 15 5 12 7 8 8 10 9 80 10 9 11 11 12
REMARK SMILES IDX 81 13 82 14 13 15 6 16 5 17 7 19 4 20 3 21 2 22 1 23 19 24
REMARK SMILES IDX 20 25 21 26 22 27 23 28 24 29 25 31 26 32 27 33 79 34 28 35
REMARK SMILES IDX 78 36 29 37 30 38 31 39 72 40 32 41 77 42 71 43 73 44 33 45
REMARK SMILES IDX 76 46 70 47 69 48 34 50 60 51 43 52 59 53 44 54 47 55 58 56
REMARK SMILES IDX 74 57 45 58 46 59 57 61 75 62 48 63 35 64 36 65 41 66 37 67
REMARK SMILES IDX 38 68 40 69 42 70 39 71 61 72 62 73 67 74 63 75 64 76 66 77
REMARK SMILES IDX 68 78 65 79 49 80 50 81 55 82 51 83 52 84 54 85 56 86 53 87
REMARK H PARENT 16 6 5 18 23 30 73 49 47 60
REMARK Flexibility Score: inf
ROOT
ATOM      1  C   UNL A   1      36.131  22.173  26.177  1.00  0.00     0.021 C 
ENDROOT
BRANCH   1   2
ATOM      2  C   UNL A   1      34.628  22.452  26.264  1.00  0.00     0.116 C 
BRANCH   2   3
ATOM      3  N   UNL A   1      33.830  21.454  25.608  1.00  0.00    -0.356 N 
ATOM      4  C   UNL A   1      32.963  21.486  24.568  1.00  0.00     0.226 C 
ATOM      5  O   UNL A   1      32.381  20.398  24.424  1.00  0.00    -0.274 OA
ATOM      6  H   UNL A   1      33.937  20.555  25.996  1.00  0.00     0.163 HD
BRANCH   4   7
ATOM      7  C   UNL A   1      32.713  22.665  23.531  1.00  0.00     0.052 C 
ATOM      8  C   UNL A   1      33.439  25.124  23.936  1.00  0.00     0.052 C 
ATOM      9  C   UNL A   1      34.621  24.208  23.477  1.00  0.00     0.018 C 
ATOM     10  C   UNL A   1      32.158  24.108  23.992  1.00  0.00    -0.007 C 
ATOM     11  C   UNL A   1      33.920  25.805  25.239  1.00  0.00     0.022 C 
ATOM     12  C   UNL A   1      34.018  23.002  22.786  1.00  0.00     0.018 C 
ATOM     13  C   UNL A   1      31.382  24.046  25.321  1.00  0.00     0.013 C 
ATOM     14  C   UNL A   1      31.041  24.624  23.020  1.00  0.00     0.013 C 
ATOM     15  C   UNL A   1      31.789  21.987  22.464  1.00  0.00     0.022 C 
BRANCH   8  16
ATOM     16  C   UNL A   1      33.262  26.205  22.813  1.00  0.00     0.226 C 
ATOM     17  N   UNL A   1      32.524  27.339  22.949  1.00  0.00    -0.356 N 
ATOM     18  H   UNL A   1      32.288  27.750  22.086  1.00  0.00     0.163 HD
ATOM     19  O   UNL A   1      33.710  26.013  21.675  1.00  0.00    -0.274 OA
BRANCH  17  20
ATOM     20  C   UNL A   1      32.010  28.079  24.090  1.00  0.00     0.116 C 
BRANCH  20  21
ATOM     21  C   UNL A   1      30.848  28.988  23.668  1.00  0.00     0.021 C 
BRANCH  21  22
ATOM     22  C   UNL A   1      29.840  28.316  22.728  1.00  0.00    -0.002 C 
ATOM     23  C   UNL A   1      28.842  27.438  23.465  1.00  0.00     0.004 C 
ENDBRANCH  21  22
ENDBRANCH  20  21
ENDBRANCH  17  20
ENDBRANCH   8  16
ENDBRANCH   4   7
ENDBRANCH   2   3
ENDBRANCH   1   2
BRANCH   1  24
ATOM     24  C   UNL A   1      36.600  21.513  24.884  1.00  0.00     0.002 C 
BRANCH  24  25
ATOM     25  C   UNL A   1      36.742  19.992  24.935  1.00  0.00     0.002 C 
BRANCH  25  26
ATOM     26  C   UNL A   1      38.161  19.441  24.756  1.00  0.00     0.021 C 
BRANCH  26  27
ATOM     27  C   UNL A   1      39.187  19.892  25.794  1.00  0.00     0.116 C 
BRANCH  27  28
ATOM     28  N   UNL A   1      40.294  18.962  25.919  1.00  0.00    -0.352 N 
ATOM     29  C   UNL A   1      41.626  19.197  26.145  1.00  0.00     0.251 C 
ATOM     30  H   UNL A   1      40.052  18.013  25.828  1.00  0.00     0.163 HD
ATOM     31  O   UNL A   1      42.436  18.283  26.033  1.00  0.00    -0.269 OA
BRANCH  29  32
ATOM     32  C   UNL A   1      42.099  20.550  26.512  1.00  0.00     0.039 A 
ATOM     33  C   UNL A   1      42.472  21.426  25.488  1.00  0.00     0.014 A 
ATOM     34  C   UNL A   1      42.229  20.940  27.847  1.00  0.00     0.014 A 
ATOM     35  C   UNL A   1      42.931  22.707  25.802  1.00  0.00     0.010 A 
ATOM     36  C   UNL A   1      42.629  22.239  28.158  1.00  0.00     0.010 A 
ATOM     37  C   UNL A   1      42.992  23.132  27.139  1.00  0.00    -0.014 A 
BRANCH  37  38
ATOM     38  C   UNL A   1      43.448  24.504  27.479  1.00  0.00     0.031 A 
ATOM     39  C   UNL A   1      42.456  25.549  27.912  1.00  0.00     0.074 A 
ATOM     40  C   UNL A   1      44.752  24.821  27.354  1.00  0.00     0.049 A 
ATOM     41  N   UNL A   1      42.660  26.805  28.216  1.00  0.00    -0.248 NA
ATOM     42  C   UNL A   1      41.046  25.134  27.993  1.00  0.00     0.031 C 
ATOM     43  C   UNL A   1      45.806  23.911  26.900  1.00  0.00     0.029 A 
ATOM     44  N   UNL A   1      45.414  26.000  27.592  1.00  0.00    -0.354 N 
ATOM     45  C   UNL A   1      41.408  27.334  28.503  1.00  0.00     0.074 A 
ATOM     46  C   UNL A   1      40.444  26.276  28.301  1.00  0.00     0.031 C 
ATOM     47  C   UNL A   1      46.982  24.558  26.912  1.00  0.00     0.029 A 
ATOM     48  C   UNL A   1      46.764  25.935  27.344  1.00  0.00     0.049 A 
ATOM     49  H   UNL A   1      44.963  26.815  27.910  1.00  0.00     0.167 HD
ATOM     50  C   UNL A   1      41.093  28.585  28.917  1.00  0.00     0.037 A 
ATOM     51  C   UNL A   1      47.717  26.880  27.450  1.00  0.00     0.037 A 
ATOM     52  C   UNL A   1      42.059  29.624  29.164  1.00  0.00     0.049 A 
ATOM     53  C   UNL A   1      47.337  28.256  27.925  1.00  0.00     0.074 A 
ATOM     54  C   UNL A   1      41.845  30.895  29.670  1.00  0.00     0.029 A 
ATOM     55  N   UNL A   1      43.419  29.512  28.924  1.00  0.00    -0.354 N 
ATOM     56  N   UNL A   1      46.160  28.715  28.278  1.00  0.00    -0.248 NA
ATOM     57  C   UNL A   1      48.420  29.245  28.026  1.00  0.00     0.031 C 
ATOM     58  C   UNL A   1      43.070  31.567  29.695  1.00  0.00     0.029 A 
ATOM     59  C   UNL A   1      44.052  30.700  29.247  1.00  0.00     0.049 A 
ATOM     60  H   UNL A   1      43.867  28.707  28.576  1.00  0.00     0.167 HD
ATOM     61  C   UNL A   1      46.368  30.030  28.673  1.00  0.00     0.074 A 
ATOM     62  C   UNL A   1      47.784  30.293  28.530  1.00  0.00     0.031 C 
ATOM     63  C   UNL A   1      45.467  30.939  29.116  1.00  0.00     0.037 A 
BRANCH  50  64
ATOM     64  C   UNL A   1      39.645  28.908  29.140  1.00  0.00     0.057 A 
ATOM     65  C   UNL A   1      38.821  29.358  28.102  1.00  0.00     0.134 A 
ATOM     66  C   UNL A   1      39.054  28.697  30.392  1.00  0.00     0.134 A 
ATOM     67  F   UNL A   1      39.328  29.590  26.882  1.00  0.00    -0.206 F 
ATOM     68  C   UNL A   1      37.460  29.599  28.304  1.00  0.00     0.040 A 
ATOM     69  C   UNL A   1      37.690  28.911  30.600  1.00  0.00     0.040 A 
ATOM     70  F   UNL A   1      39.786  28.260  31.428  1.00  0.00    -0.206 F 
ATOM     71  C   UNL A   1      36.890  29.366  29.554  1.00  0.00     0.006 A 
ENDBRANCH  50  64
BRANCH  51  72
ATOM     72  C   UNL A   1      49.129  26.565  27.120  1.00  0.00     0.057 A 
ATOM     73  C   UNL A   1      49.641  26.799  25.838  1.00  0.00     0.134 A 
ATOM     74  C   UNL A   1      49.990  25.987  28.061  1.00  0.00     0.134 A 
ATOM     75  F   UNL A   1      48.859  27.333  24.887  1.00  0.00    -0.206 F 
ATOM     76  C   UNL A   1      50.946  26.443  25.494  1.00  0.00     0.040 A 
ATOM     77  C   UNL A   1      51.305  25.650  27.738  1.00  0.00     0.040 A 
ATOM     78  F   UNL A   1      49.563  25.743  29.309  1.00  0.00    -0.206 F 
ATOM     79  C   UNL A   1      51.783  25.869  26.447  1.00  0.00     0.006 A 
ENDBRANCH  51  72
BRANCH  63  80
ATOM     80  C   UNL A   1      45.989  32.286  29.520  1.00  0.00     0.057 A 
ATOM     81  C   UNL A   1      46.062  33.352  28.615  1.00  0.00     0.134 A 
ATOM     82  C   UNL A   1      46.389  32.527  30.840  1.00  0.00     0.134 A 
ATOM     83  F   UNL A   1      45.707  33.181  27.333  1.00  0.00    -0.206 F 
ATOM     84  C   UNL A   1      46.535  34.606  29.006  1.00  0.00     0.040 A 
ATOM     85  C   UNL A   1      46.838  33.783  31.249  1.00  0.00     0.040 A 
ATOM     86  F   UNL A   1      46.334  31.549  31.759  1.00  0.00    -0.206 F 
ATOM     87  C   UNL A   1      46.918  34.825  30.327  1.00  0.00     0.006 A 
ENDBRANCH  63  80
ENDBRANCH  37  38
ENDBRANCH  29  32
ENDBRANCH  27  28
ENDBRANCH  26  27
ENDBRANCH  25  26
ENDBRANCH  24  25
ENDBRANCH   1  24
TORSDOF 17
ENDMDL
MODEL 3
REMARK VINA RESULT:     -10.4      1.753      2.571
REMARK SMILES CCCCNC(=O)[C@]1(C)CC[C@@](C)(C(=O)NCCCCCCNC(=O)c2ccc(-c3c4nc(c(-c5c(F)cccc5F)c5ccc([nH]5)c(-c5c(F)cccc5F)c5nc(c(-c6c(F)cccc6F)c6ccc3[nH]6)C=C5)C=C4)cc2)C1(C)C
REMARK SMILES IDX 18 1 17 2 16 3 14 4 15 5 12 7 8 8 10 9 80 10 9 11 11 12
REMARK SMILES IDX 81 13 82 14 13 15 6 16 5 17 7 19 4 20 3 21 2 22 1 23 19 24
REMARK SMILES IDX 20 25 21 26 22 27 23 28 24 29 25 31 26 32 27 33 79 34 28 35
REMARK SMILES IDX 78 36 29 37 30 38 31 39 72 40 32 41 77 42 71 43 73 44 33 45
REMARK SMILES IDX 76 46 70 47 69 48 34 50 60 51 43 52 59 53 44 54 47 55 58 56
REMARK SMILES IDX 74 57 45 58 46 59 57 61 75 62 48 63 35 64 36 65 41 66 37 67
REMARK SMILES IDX 38 68 40 69 42 70 39 71 61 72 62 73 67 74 63 75 64 76 66 77
REMARK SMILES IDX 68 78 65 79 49 80 50 81 55 82 51 83 52 84 54 85 56 86 53 87
REMARK H PARENT 16 6 5 18 23 30 73 49 47 60
REMARK Flexibility Score: inf
ROOT
ATOM      1  C   UNL A   1      33.667  27.387  22.871  1.00  0.00     0.021 C 
ENDROOT
BRANCH   1   2
ATOM      2  C   UNL A   1      32.964  26.028  22.833  1.00  0.00     0.116 C 
BRANCH   2   3
ATOM      3  N   UNL A   1      31.622  26.073  23.340  1.00  0.00    -0.356 N 
ATOM      4  C   UNL A   1      30.944  25.343  24.257  1.00  0.00     0.226 C 
ATOM      5  O   UNL A   1      29.739  25.644  24.282  1.00  0.00    -0.274 OA
ATOM      6  H   UNL A   1      31.078  26.788  22.935  1.00  0.00     0.163 HD
BRANCH   4   7
ATOM      7  C   UNL A   1      31.522  24.287  25.296  1.00  0.00     0.052 C 
ATOM      8  C   UNL A   1      33.867  23.193  25.092  1.00  0.00     0.052 C 
ATOM      9  C   UNL A   1      33.920  24.645  25.672  1.00  0.00     0.018 C 
ATOM     10  C   UNL A   1      32.273  22.941  24.821  1.00  0.00    -0.007 C 
ATOM     11  C   UNL A   1      34.846  23.184  23.895  1.00  0.00     0.022 C 
ATOM     12  C   UNL A   1      32.547  24.963  26.225  1.00  0.00     0.018 C 
ATOM     13  C   UNL A   1      31.873  22.511  23.398  1.00  0.00     0.013 C 
ATOM     14  C   UNL A   1      31.793  21.700  25.652  1.00  0.00     0.013 C 
ATOM     15  C   UNL A   1      30.279  23.986  26.199  1.00  0.00     0.022 C 
BRANCH   8  16
ATOM     16  C   UNL A   1      34.410  22.251  26.222  1.00  0.00     0.226 C 
ATOM     17  N   UNL A   1      34.776  20.955  26.032  1.00  0.00    -0.356 N 
ATOM     18  H   UNL A   1      34.817  20.439  26.869  1.00  0.00     0.163 HD
ATOM     19  O   UNL A   1      34.426  22.623  27.403  1.00  0.00    -0.274 OA
BRANCH  17  20
ATOM     20  C   UNL A   1      35.122  20.165  24.861  1.00  0.00     0.116 C 
BRANCH  20  21
ATOM     21  C   UNL A   1      34.086  19.057  24.630  1.00  0.00     0.021 C 
BRANCH  21  22
ATOM     22  C   UNL A   1      34.697  17.688  24.307  1.00  0.00    -0.002 C 
ATOM     23  C   UNL A   1      34.027  17.007  23.125  1.00  0.00     0.004 C 
ENDBRANCH  21  22
ENDBRANCH  20  21
ENDBRANCH  17  20
ENDBRANCH   8  16
ENDBRANCH   4   7
ENDBRANCH   2   3
ENDBRANCH   1   2
BRANCH   1  24
ATOM     24  C   UNL A   1      32.864  28.522  23.497  1.00  0.00     0.002 C 
BRANCH  24  25
ATOM     25  C   UNL A   1      33.524  29.216  24.688  1.00  0.00     0.002 C 
BRANCH  25  26
ATOM     26  C   UNL A   1      33.859  28.324  25.889  1.00  0.00     0.021 C 
BRANCH  26  27
ATOM     27  C   UNL A   1      33.389  28.835  27.249  1.00  0.00     0.116 C 
BRANCH  27  28
ATOM     28  N   UNL A   1      33.460  30.280  27.354  1.00  0.00    -0.352 N 
ATOM     29  C   UNL A   1      34.399  31.080  27.953  1.00  0.00     0.251 C 
ATOM     30  H   UNL A   1      32.716  30.764  26.928  1.00  0.00     0.163 HD
ATOM     31  O   UNL A   1      34.181  32.279  28.094  1.00  0.00    -0.269 OA
BRANCH  29  32
ATOM     32  C   UNL A   1      35.671  30.507  28.445  1.00  0.00     0.039 A 
ATOM     33  C   UNL A   1      36.827  30.695  27.680  1.00  0.00     0.014 A 
ATOM     34  C   UNL A   1      35.724  29.746  29.615  1.00  0.00     0.014 A 
ATOM     35  C   UNL A   1      38.041  30.158  28.112  1.00  0.00     0.010 A 
ATOM     36  C   UNL A   1      36.947  29.263  30.078  1.00  0.00     0.010 A 
ATOM     37  C   UNL A   1      38.116  29.457  29.326  1.00  0.00    -0.014 A 
BRANCH  37  38
ATOM     38  C   UNL A   1      39.410  28.911  29.810  1.00  0.00     0.031 A 
ATOM     39  C   UNL A   1      40.111  29.544  30.981  1.00  0.00     0.074 A 
ATOM     40  C   UNL A   1      39.977  27.873  29.163  1.00  0.00     0.049 A 
ATOM     41  N   UNL A   1      41.261  29.230  31.523  1.00  0.00    -0.248 NA
ATOM     42  C   UNL A   1      39.446  30.693  31.613  1.00  0.00     0.031 C 
ATOM     43  C   UNL A   1      39.419  27.201  27.987  1.00  0.00     0.029 A 
ATOM     44  N   UNL A   1      41.151  27.203  29.401  1.00  0.00    -0.354 N 
ATOM     45  C   UNL A   1      41.464  30.152  32.541  1.00  0.00     0.074 A 
ATOM     46  C   UNL A   1      40.341  31.062  32.520  1.00  0.00     0.031 C 
ATOM     47  C   UNL A   1      40.241  26.204  27.619  1.00  0.00     0.029 A 
ATOM     48  C   UNL A   1      41.396  26.184  28.512  1.00  0.00     0.049 A 
ATOM     49  H   UNL A   1      41.761  27.432  30.139  1.00  0.00     0.167 HD
ATOM     50  C   UNL A   1      42.487  30.221  33.428  1.00  0.00     0.037 A 
ATOM     51  C   UNL A   1      42.434  25.333  28.425  1.00  0.00     0.037 A 
ATOM     52  C   UNL A   1      43.581  29.287  33.478  1.00  0.00     0.049 A 
ATOM     53  C   UNL A   1      43.548  25.427  29.432  1.00  0.00     0.074 A 
ATOM     54  C   UNL A   1      44.616  29.223  34.394  1.00  0.00     0.029 A 
ATOM     55  N   UNL A   1      43.779  28.254  32.575  1.00  0.00    -0.354 N 
ATOM     56  N   UNL A   1      43.681  26.250  30.444  1.00  0.00    -0.248 NA
ATOM     57  C   UNL A   1      44.654  24.468  29.290  1.00  0.00     0.031 C 
ATOM     58  C   UNL A   1      45.466  28.177  34.021  1.00  0.00     0.029 A 
ATOM     59  C   UNL A   1      44.935  27.564  32.898  1.00  0.00     0.049 A 
ATOM     60  H   UNL A   1      43.187  28.043  31.817  1.00  0.00     0.167 HD
ATOM     61  C   UNL A   1      44.863  25.886  31.077  1.00  0.00     0.074 A 
ATOM     62  C   UNL A   1      45.402  24.761  30.342  1.00  0.00     0.031 C 
ATOM     63  C   UNL A   1      45.449  26.434  32.168  1.00  0.00     0.037 A 
BRANCH  50  64
ATOM     64  C   UNL A   1      42.476  31.341  34.426  1.00  0.00     0.057 A 
ATOM     65  C   UNL A   1      43.148  32.547  34.191  1.00  0.00     0.134 A 
ATOM     66  C   UNL A   1      41.726  31.236  35.605  1.00  0.00     0.134 A 
ATOM     67  F   UNL A   1      43.892  32.706  33.087  1.00  0.00    -0.206 F 
ATOM     68  C   UNL A   1      43.083  33.606  35.099  1.00  0.00     0.040 A 
ATOM     69  C   UNL A   1      41.635  32.297  36.508  1.00  0.00     0.040 A 
ATOM     70  F   UNL A   1      41.054  30.110  35.887  1.00  0.00    -0.206 F 
ATOM     71  C   UNL A   1      42.318  33.485  36.257  1.00  0.00     0.006 A 
ENDBRANCH  50  64
BRANCH  51  72
ATOM     72  C   UNL A   1      42.473  24.300  27.359  1.00  0.00     0.057 A 
ATOM     73  C   UNL A   1      42.006  23.002  27.593  1.00  0.00     0.134 A 
ATOM     74  C   UNL A   1      43.013  24.572  26.096  1.00  0.00     0.134 A 
ATOM     75  F   UNL A   1      41.494  22.676  28.790  1.00  0.00    -0.206 F 
ATOM     76  C   UNL A   1      42.100  22.003  26.624  1.00  0.00     0.040 A 
ATOM     77  C   UNL A   1      43.090  23.589  25.108  1.00  0.00     0.040 A 
ATOM     78  F   UNL A   1      43.472  25.798  25.805  1.00  0.00    -0.206 F 
ATOM     79  C   UNL A   1      42.642  22.296  25.375  1.00  0.00     0.006 A 
ENDBRANCH  51  72
BRANCH  63  80
ATOM     80  C   UNL A   1      46.715  25.798  32.661  1.00  0.00     0.057 A 
ATOM     81  C   UNL A   1      47.970  26.168  32.164  1.00  0.00     0.134 A 
ATOM     82  C   UNL A   1      46.677  24.831  33.673  1.00  0.00     0.134 A 
ATOM     83  F   UNL A   1      48.072  27.079  31.185  1.00  0.00    -0.206 F 
ATOM     84  C   UNL A   1      49.143  25.581  32.642  1.00  0.00     0.040 A 
ATOM     85  C   UNL A   1      47.844  24.256  34.177  1.00  0.00     0.040 A 
ATOM     86  F   UNL A   1      45.506  24.439  34.199  1.00  0.00    -0.206 F 
ATOM     87  C   UNL A   1      49.082  24.628  33.656  1.00  0.00     0.006 A 
ENDBRANCH  63  80
ENDBRANCH  37  38
ENDBRANCH  29  32
ENDBRANCH  27  28
ENDBRANCH  26  27
ENDBRANCH  25  26
ENDBRANCH  24  25
ENDBRANCH   1  24
TORSDOF 17
ENDMDL
