MODEL 1
REMARK VINA RESULT:     -11.6      0.000      0.000
REMARK SMILES COC(=O)N/N=C/c1ccc(-c2cccc(C(=O)NCCCCCCNC(=O)c3ccc(-c4c5nc(c(-c6c(F)cccc6F)c6ccc([nH]6)c(-c6c(F)cccc6F)c6nc(c(-c7c(F)cccc7F)c7ccc4[nH]7)C=C6)C=C5)cc3)c2)o1
REMARK SMILES IDX 21 1 20 2 19 3 17 4 18 5 16 7 12 8 13 9 83 10 14 11 15 12
REMARK SMILES IDX 11 13 8 14 9 15 84 16 10 17 7 18 6 19 5 20 3 21 4 22 2 24
REMARK SMILES IDX 1 25 22 26 23 27 24 28 25 29 26 30 27 31 28 33 29 34 30 35
REMARK SMILES IDX 82 36 31 37 81 38 32 39 33 40 34 41 75 42 35 43 80 44 74 45
REMARK SMILES IDX 76 46 36 47 79 48 73 49 72 50 37 52 63 53 46 54 62 55 47 56
REMARK SMILES IDX 50 57 61 58 77 59 48 60 49 61 60 63 78 64 51 65 38 66 39 67
REMARK SMILES IDX 44 68 40 69 41 70 43 71 45 72 42 73 64 74 65 75 70 76 66 77
REMARK SMILES IDX 67 78 69 79 71 80 68 81 52 82 53 83 58 84 54 85 55 86 57 87
REMARK SMILES IDX 59 88 56 89
REMARK H PARENT 19 6 5 23 26 32 76 51 50 62
REMARK Flexibility Score: inf
ROOT
ATOM      1  C   UNL A   1      32.395  24.573  25.945  1.00  0.00     0.021 C 
ENDROOT
BRANCH   1   2
ATOM      2  C   UNL A   1      32.491  23.447  26.965  1.00  0.00     0.116 C 
BRANCH   2   3
ATOM      3  N   UNL A   1      32.143  22.130  26.457  1.00  0.00    -0.352 N 
ATOM      4  C   UNL A   1      32.759  21.324  25.520  1.00  0.00     0.251 C 
ATOM      5  O   UNL A   1      32.245  20.242  25.244  1.00  0.00    -0.269 OA
ATOM      6  H   UNL A   1      31.327  21.745  26.850  1.00  0.00     0.163 HD
BRANCH   4   7
ATOM      7  C   UNL A   1      33.979  21.758  24.782  1.00  0.00     0.040 A 
ATOM      8  C   UNL A   1      36.327  22.371  24.794  1.00  0.00     0.018 A 
ATOM      9  C   UNL A   1      36.165  23.001  23.557  1.00  0.00     0.012 A 
ATOM     10  C   UNL A   1      35.257  21.645  25.326  1.00  0.00     0.025 A 
ATOM     11  C   UNL A   1      34.931  22.953  22.900  1.00  0.00     0.002 A 
ATOM     12  C   UNL A   1      33.830  22.366  23.531  1.00  0.00     0.014 A 
BRANCH   8  13
ATOM     13  C   UNL A   1      37.510  22.563  25.623  1.00  0.00     0.134 A 
ATOM     14  C   UNL A   1      39.420  21.860  26.471  1.00  0.00     0.147 A 
ATOM     15  C   UNL A   1      39.378  23.227  26.663  1.00  0.00     0.053 A 
ATOM     16  O   UNL A   1      38.277  21.451  25.840  1.00  0.00    -0.455 OA
ATOM     17  C   UNL A   1      38.154  23.677  26.121  1.00  0.00     0.051 A 
BRANCH  14  18
ATOM     18  C   UNL A   1      40.410  20.878  26.826  1.00  0.00     0.180 C 
ATOM     19  N   UNL A   1      40.495  19.792  26.126  1.00  0.00    -0.175 NA
BRANCH  19  20
ATOM     20  N   UNL A   1      41.443  18.856  26.431  1.00  0.00    -0.212 N 
ATOM     21  C   UNL A   1      42.717  18.680  25.936  1.00  0.00     0.427 C 
ATOM     22  O   UNL A   1      43.436  17.781  26.354  1.00  0.00    -0.223 OA
ATOM     23  H   UNL A   1      41.172  18.202  27.116  1.00  0.00     0.197 HD
BRANCH  21  24
ATOM     24  O   UNL A   1      43.097  19.594  25.001  1.00  0.00    -0.452 OA
ATOM     25  C   UNL A   1      44.467  19.470  24.614  1.00  0.00     0.284 C 
ENDBRANCH  21  24
ENDBRANCH  19  20
ENDBRANCH  14  18
ENDBRANCH   8  13
ENDBRANCH   4   7
ENDBRANCH   2   3
ENDBRANCH   1   2
BRANCH   1  26
ATOM     26  C   UNL A   1      31.667  25.837  26.395  1.00  0.00     0.002 C 
BRANCH  26  27
ATOM     27  C   UNL A   1      32.520  27.103  26.509  1.00  0.00     0.002 C 
BRANCH  27  28
ATOM     28  C   UNL A   1      32.003  28.334  25.762  1.00  0.00     0.021 C 
BRANCH  28  29
ATOM     29  C   UNL A   1      33.043  29.411  25.474  1.00  0.00     0.116 C 
BRANCH  29  30
ATOM     30  N   UNL A   1      32.657  30.715  25.987  1.00  0.00    -0.352 N 
ATOM     31  C   UNL A   1      33.214  31.447  27.007  1.00  0.00     0.251 C 
ATOM     32  H   UNL A   1      31.887  31.133  25.539  1.00  0.00     0.163 HD
ATOM     33  O   UNL A   1      32.659  32.459  27.421  1.00  0.00    -0.269 OA
BRANCH  31  34
ATOM     34  C   UNL A   1      34.479  30.994  27.626  1.00  0.00     0.039 A 
ATOM     35  C   UNL A   1      35.538  31.898  27.744  1.00  0.00     0.014 A 
ATOM     36  C   UNL A   1      34.612  29.687  28.101  1.00  0.00     0.014 A 
ATOM     37  C   UNL A   1      36.707  31.509  28.402  1.00  0.00     0.010 A 
ATOM     38  C   UNL A   1      35.744  29.327  28.824  1.00  0.00     0.010 A 
ATOM     39  C   UNL A   1      36.804  30.234  28.983  1.00  0.00    -0.014 A 
BRANCH  39  40
ATOM     40  C   UNL A   1      37.998  29.827  29.767  1.00  0.00     0.031 A 
ATOM     41  C   UNL A   1      38.218  30.376  31.148  1.00  0.00     0.074 A 
ATOM     42  C   UNL A   1      38.925  29.028  29.203  1.00  0.00     0.049 A 
ATOM     43  N   UNL A   1      39.242  30.219  31.949  1.00  0.00    -0.248 NA
ATOM     44  C   UNL A   1      37.160  31.243  31.690  1.00  0.00     0.031 C 
ATOM     45  C   UNL A   1      38.850  28.465  27.853  1.00  0.00     0.029 A 
ATOM     46  N   UNL A   1      40.122  28.565  29.688  1.00  0.00    -0.354 N 
ATOM     47  C   UNL A   1      38.960  30.978  33.076  1.00  0.00     0.074 A 
ATOM     48  C   UNL A   1      37.696  31.641  32.834  1.00  0.00     0.031 C 
ATOM     49  C   UNL A   1      39.943  27.719  27.627  1.00  0.00     0.029 A 
ATOM     50  C   UNL A   1      40.817  27.787  28.793  1.00  0.00     0.049 A 
ATOM     51  H   UNL A   1      40.452  28.769  30.594  1.00  0.00     0.167 HD
ATOM     52  C   UNL A   1      39.679  31.098  34.219  1.00  0.00     0.037 A 
ATOM     53  C   UNL A   1      42.029  27.209  28.894  1.00  0.00     0.037 A 
ATOM     54  C   UNL A   1      40.928  30.425  34.460  1.00  0.00     0.049 A 
ATOM     55  C   UNL A   1      42.817  27.369  30.165  1.00  0.00     0.074 A 
ATOM     56  C   UNL A   1      41.703  30.432  35.606  1.00  0.00     0.029 A 
ATOM     57  N   UNL A   1      41.591  29.632  33.534  1.00  0.00    -0.354 N 
ATOM     58  N   UNL A   1      42.506  28.034  31.251  1.00  0.00    -0.248 NA
ATOM     59  C   UNL A   1      44.120  26.695  30.226  1.00  0.00     0.031 C 
ATOM     60  C   UNL A   1      42.864  29.693  35.354  1.00  0.00     0.029 A 
ATOM     61  C   UNL A   1      42.780  29.169  34.074  1.00  0.00     0.049 A 
ATOM     62  H   UNL A   1      41.265  29.429  32.628  1.00  0.00     0.167 HD
ATOM     63  C   UNL A   1      43.557  27.831  32.136  1.00  0.00     0.074 A 
ATOM     64  C   UNL A   1      44.509  26.972  31.462  1.00  0.00     0.031 C 
ATOM     65  C   UNL A   1      43.716  28.309  33.395  1.00  0.00     0.037 A 
BRANCH  52  66
ATOM     66  C   UNL A   1      39.133  32.001  35.290  1.00  0.00     0.057 A 
ATOM     67  C   UNL A   1      39.392  33.378  35.306  1.00  0.00     0.134 A 
ATOM     68  C   UNL A   1      38.315  31.488  36.306  1.00  0.00     0.134 A 
ATOM     69  F   UNL A   1      40.175  33.934  34.370  1.00  0.00    -0.206 F 
ATOM     70  C   UNL A   1      38.886  34.205  36.311  1.00  0.00     0.040 A 
ATOM     71  C   UNL A   1      37.777  32.311  37.296  1.00  0.00     0.040 A 
ATOM     72  F   UNL A   1      38.019  30.180  36.348  1.00  0.00    -0.206 F 
ATOM     73  C   UNL A   1      38.070  33.673  37.306  1.00  0.00     0.006 A 
ENDBRANCH  52  66
BRANCH  53  74
ATOM     74  C   UNL A   1      42.565  26.410  27.761  1.00  0.00     0.057 A 
ATOM     75  C   UNL A   1      42.398  25.021  27.713  1.00  0.00     0.134 A 
ATOM     76  C   UNL A   1      43.254  27.013  26.702  1.00  0.00     0.134 A 
ATOM     77  F   UNL A   1      41.763  24.382  28.706  1.00  0.00    -0.206 F 
ATOM     78  C   UNL A   1      42.914  24.258  26.663  1.00  0.00     0.040 A 
ATOM     79  C   UNL A   1      43.750  26.266  25.631  1.00  0.00     0.040 A 
ATOM     80  F   UNL A   1      43.438  28.341  26.681  1.00  0.00    -0.206 F 
ATOM     81  C   UNL A   1      43.587  24.883  25.615  1.00  0.00     0.006 A 
ENDBRANCH  53  74
BRANCH  65  82
ATOM     82  C   UNL A   1      44.944  27.879  34.147  1.00  0.00     0.057 A 
ATOM     83  C   UNL A   1      46.129  28.626  34.129  1.00  0.00     0.134 A 
ATOM     84  C   UNL A   1      44.922  26.723  34.939  1.00  0.00     0.134 A 
ATOM     85  F   UNL A   1      46.223  29.737  33.383  1.00  0.00    -0.206 F 
ATOM     86  C   UNL A   1      47.254  28.225  34.853  1.00  0.00     0.040 A 
ATOM     87  C   UNL A   1      46.028  26.330  35.691  1.00  0.00     0.040 A 
ATOM     88  F   UNL A   1      43.816  25.966  35.009  1.00  0.00    -0.206 F 
ATOM     89  C   UNL A   1      47.202  27.079  35.644  1.00  0.00     0.006 A 
ENDBRANCH  65  82
ENDBRANCH  39  40
ENDBRANCH  31  34
ENDBRANCH  29  30
ENDBRANCH  28  29
ENDBRANCH  27  28
ENDBRANCH  26  27
ENDBRANCH   1  26
TORSDOF 17
ENDMDL
MODEL 2
REMARK VINA RESULT:     -11.5      0.566      6.012
REMARK SMILES COC(=O)N/N=C/c1ccc(-c2cccc(C(=O)NCCCCCCNC(=O)c3ccc(-c4c5nc(c(-c6c(F)cccc6F)c6ccc([nH]6)c(-c6c(F)cccc6F)c6nc(c(-c7c(F)cccc7F)c7ccc4[nH]7)C=C6)C=C5)cc3)c2)o1
REMARK SMILES IDX 21 1 20 2 19 3 17 4 18 5 16 7 12 8 13 9 83 10 14 11 15 12
REMARK SMILES IDX 11 13 8 14 9 15 84 16 10 17 7 18 6 19 5 20 3 21 4 22 2 24
REMARK SMILES IDX 1 25 22 26 23 27 24 28 25 29 26 30 27 31 28 33 29 34 30 35
REMARK SMILES IDX 82 36 31 37 81 38 32 39 33 40 34 41 75 42 35 43 80 44 74 45
REMARK SMILES IDX 76 46 36 47 79 48 73 49 72 50 37 52 63 53 46 54 62 55 47 56
REMARK SMILES IDX 50 57 61 58 77 59 48 60 49 61 60 63 78 64 51 65 38 66 39 67
REMARK SMILES IDX 44 68 40 69 41 70 43 71 45 72 42 73 64 74 65 75 70 76 66 77
REMARK SMILES IDX 67 78 69 79 71 80 68 81 52 82 53 83 58 84 54 85 55 86 57 87
REMARK SMILES IDX 59 88 56 89
REMARK H PARENT 19 6 5 23 26 32 76 51 50 62
REMARK Flexibility Score: inf
ROOT
ATOM      1  C   UNL A   1      32.650  24.361  26.069  1.00  0.00     0.021 C 
ENDROOT
BRANCH   1   2
ATOM      2  C   UNL A   1      32.603  23.179  27.027  1.00  0.00     0.116 C 
BRANCH   2   3
ATOM      3  N   UNL A   1      32.262  21.906  26.410  1.00  0.00    -0.352 N 
ATOM      4  C   UNL A   1      32.879  21.188  25.405  1.00  0.00     0.251 C 
ATOM      5  O   UNL A   1      32.372  20.128  25.042  1.00  0.00    -0.269 OA
ATOM      6  H   UNL A   1      31.451  21.483  26.773  1.00  0.00     0.163 HD
BRANCH   4   7
ATOM      7  C   UNL A   1      34.092  21.693  24.701  1.00  0.00     0.040 A 
ATOM      8  C   UNL A   1      36.421  22.372  24.765  1.00  0.00     0.018 A 
ATOM      9  C   UNL A   1      36.250  23.057  23.559  1.00  0.00     0.012 A 
ATOM     10  C   UNL A   1      35.368  21.590  25.251  1.00  0.00     0.025 A 
ATOM     11  C   UNL A   1      35.023  23.005  22.889  1.00  0.00     0.002 A 
ATOM     12  C   UNL A   1      33.935  22.356  23.479  1.00  0.00     0.014 A 
BRANCH   8  13
ATOM     13  C   UNL A   1      37.591  22.557  25.613  1.00  0.00     0.134 A 
ATOM     14  C   UNL A   1      39.501  21.859  26.464  1.00  0.00     0.147 A 
ATOM     15  C   UNL A   1      39.436  23.219  26.695  1.00  0.00     0.053 A 
ATOM     16  O   UNL A   1      38.372  21.452  25.808  1.00  0.00    -0.455 OA
ATOM     17  C   UNL A   1      38.211  23.667  26.151  1.00  0.00     0.051 A 
BRANCH  14  18
ATOM     18  C   UNL A   1      40.502  20.883  26.802  1.00  0.00     0.180 C 
ATOM     19  N   UNL A   1      40.572  19.791  26.108  1.00  0.00    -0.175 NA
BRANCH  19  20
ATOM     20  N   UNL A   1      41.530  18.860  26.397  1.00  0.00    -0.212 N 
ATOM     21  C   UNL A   1      42.832  18.750  25.958  1.00  0.00     0.427 C 
ATOM     22  O   UNL A   1      43.554  17.842  26.349  1.00  0.00    -0.223 OA
ATOM     23  H   UNL A   1      41.245  18.154  27.022  1.00  0.00     0.197 HD
BRANCH  21  24
ATOM     24  O   UNL A   1      43.232  19.735  25.107  1.00  0.00    -0.452 OA
ATOM     25  C   UNL A   1      44.491  19.470  24.488  1.00  0.00     0.284 C 
ENDBRANCH  21  24
ENDBRANCH  19  20
ENDBRANCH  14  18
ENDBRANCH   8  13
ENDBRANCH   4   7
ENDBRANCH   2   3
ENDBRANCH   1   2
BRANCH   1  26
ATOM     26  C   UNL A   1      31.814  25.579  26.453  1.00  0.00     0.002 C 
BRANCH  26  27
ATOM     27  C   UNL A   1      32.564  26.910  26.555  1.00  0.00     0.002 C 
BRANCH  27  28
ATOM     28  C   UNL A   1      32.086  28.027  25.627  1.00  0.00     0.021 C 
BRANCH  28  29
ATOM     29  C   UNL A   1      33.038  29.208  25.477  1.00  0.00     0.116 C 
BRANCH  29  30
ATOM     30  N   UNL A   1      32.472  30.452  25.970  1.00  0.00    -0.352 N 
ATOM     31  C   UNL A   1      32.934  31.285  26.959  1.00  0.00     0.251 C 
ATOM     32  H   UNL A   1      31.638  30.739  25.533  1.00  0.00     0.163 HD
ATOM     33  O   UNL A   1      32.242  32.214  27.364  1.00  0.00    -0.269 OA
BRANCH  31  34
ATOM     34  C   UNL A   1      34.265  31.043  27.556  1.00  0.00     0.039 A 
ATOM     35  C   UNL A   1      35.157  32.112  27.682  1.00  0.00     0.014 A 
ATOM     36  C   UNL A   1      34.625  29.769  28.003  1.00  0.00     0.014 A 
ATOM     37  C   UNL A   1      36.384  31.915  28.321  1.00  0.00     0.010 A 
ATOM     38  C   UNL A   1      35.811  29.594  28.708  1.00  0.00     0.010 A 
ATOM     39  C   UNL A   1      36.704  30.665  28.875  1.00  0.00    -0.014 A 
BRANCH  39  40
ATOM     40  C   UNL A   1      37.960  30.453  29.638  1.00  0.00     0.031 A 
ATOM     41  C   UNL A   1      39.073  29.633  29.047  1.00  0.00     0.074 A 
ATOM     42  C   UNL A   1      38.066  30.929  30.894  1.00  0.00     0.049 A 
ATOM     43  N   UNL A   1      40.202  29.255  29.592  1.00  0.00    -0.248 NA
ATOM     44  C   UNL A   1      38.878  29.148  27.672  1.00  0.00     0.031 C 
ATOM     45  C   UNL A   1      37.039  31.702  31.597  1.00  0.00     0.029 A 
ATOM     46  N   UNL A   1      39.082  30.818  31.810  1.00  0.00    -0.354 N 
ATOM     47  C   UNL A   1      40.840  28.476  28.636  1.00  0.00     0.074 A 
ATOM     48  C   UNL A   1      39.948  28.388  27.499  1.00  0.00     0.031 C 
ATOM     49  C   UNL A   1      37.485  32.010  32.825  1.00  0.00     0.029 A 
ATOM     50  C   UNL A   1      38.805  31.419  33.015  1.00  0.00     0.049 A 
ATOM     51  H   UNL A   1      39.929  30.353  31.622  1.00  0.00     0.167 HD
ATOM     52  C   UNL A   1      42.065  27.901  28.692  1.00  0.00     0.037 A 
ATOM     53  C   UNL A   1      39.528  31.474  34.150  1.00  0.00     0.037 A 
ATOM     54  C   UNL A   1      42.954  28.004  29.820  1.00  0.00     0.049 A 
ATOM     55  C   UNL A   1      40.878  30.814  34.195  1.00  0.00     0.074 A 
ATOM     56  C   UNL A   1      44.240  27.510  29.951  1.00  0.00     0.029 A 
ATOM     57  N   UNL A   1      42.644  28.636  31.015  1.00  0.00    -0.354 N 
ATOM     58  N   UNL A   1      41.500  30.139  33.259  1.00  0.00    -0.248 NA
ATOM     59  C   UNL A   1      41.631  30.929  35.452  1.00  0.00     0.031 C 
ATOM     60  C   UNL A   1      44.686  27.790  31.247  1.00  0.00     0.029 A 
ATOM     61  C   UNL A   1      43.704  28.518  31.900  1.00  0.00     0.049 A 
ATOM     62  H   UNL A   1      41.797  29.099  31.207  1.00  0.00     0.167 HD
ATOM     63  C   UNL A   1      42.727  29.778  33.800  1.00  0.00     0.074 A 
ATOM     64  C   UNL A   1      42.765  30.318  35.143  1.00  0.00     0.031 C 
ATOM     65  C   UNL A   1      43.733  29.067  33.233  1.00  0.00     0.037 A 
BRANCH  52  66
ATOM     66  C   UNL A   1      42.511  27.100  27.500  1.00  0.00     0.057 A 
ATOM     67  C   UNL A   1      43.161  27.691  26.408  1.00  0.00     0.134 A 
ATOM     68  C   UNL A   1      42.308  25.715  27.455  1.00  0.00     0.134 A 
ATOM     69  F   UNL A   1      43.378  29.015  26.380  1.00  0.00    -0.206 F 
ATOM     70  C   UNL A   1      43.564  26.940  25.302  1.00  0.00     0.040 A 
ATOM     71  C   UNL A   1      42.736  24.949  26.370  1.00  0.00     0.040 A 
ATOM     72  F   UNL A   1      41.699  25.081  28.469  1.00  0.00    -0.206 F 
ATOM     73  C   UNL A   1      43.357  25.562  25.284  1.00  0.00     0.006 A 
ENDBRANCH  52  66
BRANCH  53  74
ATOM     74  C   UNL A   1      38.992  32.194  35.335  1.00  0.00     0.057 A 
ATOM     75  C   UNL A   1      38.341  31.505  36.365  1.00  0.00     0.134 A 
ATOM     76  C   UNL A   1      39.116  33.582  35.466  1.00  0.00     0.134 A 
ATOM     77  F   UNL A   1      38.174  30.177  36.289  1.00  0.00    -0.206 F 
ATOM     78  C   UNL A   1      37.816  32.173  37.474  1.00  0.00     0.040 A 
ATOM     79  C   UNL A   1      38.622  34.259  36.583  1.00  0.00     0.040 A 
ATOM     80  F   UNL A   1      39.738  34.300  34.520  1.00  0.00    -0.206 F 
ATOM     81  C   UNL A   1      37.963  33.554  37.587  1.00  0.00     0.006 A 
ENDBRANCH  53  74
BRANCH  65  82
ATOM     82  C   UNL A   1      44.982  28.868  34.044  1.00  0.00     0.057 A 
ATOM     83  C   UNL A   1      46.034  29.793  34.033  1.00  0.00     0.134 A 
ATOM     84  C   UNL A   1      45.110  27.755  34.886  1.00  0.00     0.134 A 
ATOM     85  F   UNL A   1      45.981  30.874  33.240  1.00  0.00    -0.206 F 
ATOM     86  C   UNL A   1      47.177  29.605  34.811  1.00  0.00     0.040 A 
ATOM     87  C   UNL A   1      46.233  27.574  35.692  1.00  0.00     0.040 A 
ATOM     88  F   UNL A   1      44.135  26.835  34.953  1.00  0.00    -0.206 F 
ATOM     89  C   UNL A   1      47.275  28.498  35.651  1.00  0.00     0.006 A 
ENDBRANCH  65  82
ENDBRANCH  39  40
ENDBRANCH  31  34
ENDBRANCH  29  30
ENDBRANCH  28  29
ENDBRANCH  27  28
ENDBRANCH  26  27
ENDBRANCH   1  26
TORSDOF 17
ENDMDL
MODEL 3
REMARK VINA RESULT:     -11.4      3.289      5.400
REMARK SMILES COC(=O)N/N=C/c1ccc(-c2cccc(C(=O)NCCCCCCNC(=O)c3ccc(-c4c5nc(c(-c6c(F)cccc6F)c6ccc([nH]6)c(-c6c(F)cccc6F)c6nc(c(-c7c(F)cccc7F)c7ccc4[nH]7)C=C6)C=C5)cc3)c2)o1
REMARK SMILES IDX 21 1 20 2 19 3 17 4 18 5 16 7 12 8 13 9 83 10 14 11 15 12
REMARK SMILES IDX 11 13 8 14 9 15 84 16 10 17 7 18 6 19 5 20 3 21 4 22 2 24
REMARK SMILES IDX 1 25 22 26 23 27 24 28 25 29 26 30 27 31 28 33 29 34 30 35
REMARK SMILES IDX 82 36 31 37 81 38 32 39 33 40 34 41 75 42 35 43 80 44 74 45
REMARK SMILES IDX 76 46 36 47 79 48 73 49 72 50 37 52 63 53 46 54 62 55 47 56
REMARK SMILES IDX 50 57 61 58 77 59 48 60 49 61 60 63 78 64 51 65 38 66 39 67
REMARK SMILES IDX 44 68 40 69 41 70 43 71 45 72 42 73 64 74 65 75 70 76 66 77
REMARK SMILES IDX 67 78 69 79 71 80 68 81 52 82 53 83 58 84 54 85 55 86 57 87
REMARK SMILES IDX 59 88 56 89
REMARK H PARENT 19 6 5 23 26 32 76 51 50 62
REMARK Flexibility Score: inf
ROOT
ATOM      1  C   UNL A   1      35.027  31.138  28.341  1.00  0.00     0.021 C 
ENDROOT
BRANCH   1   2
ATOM      2  C   UNL A   1      34.490  30.018  27.459  1.00  0.00     0.116 C 
BRANCH   2   3
ATOM      3  N   UNL A   1      33.195  29.493  27.860  1.00  0.00    -0.352 N 
ATOM      4  C   UNL A   1      32.418  28.484  27.326  1.00  0.00     0.251 C 
ATOM      5  O   UNL A   1      31.331  28.239  27.846  1.00  0.00    -0.269 OA
ATOM      6  H   UNL A   1      32.805  29.932  28.650  1.00  0.00     0.163 HD
BRANCH   4   7
ATOM      7  C   UNL A   1      32.821  27.738  26.101  1.00  0.00     0.040 A 
ATOM      8  C   UNL A   1      33.850  25.795  25.074  1.00  0.00     0.018 A 
ATOM      9  C   UNL A   1      34.005  26.511  23.884  1.00  0.00     0.012 A 
ATOM     10  C   UNL A   1      33.140  26.382  26.126  1.00  0.00     0.025 A 
ATOM     11  C   UNL A   1      33.508  27.814  23.778  1.00  0.00     0.002 A 
ATOM     12  C   UNL A   1      32.952  28.440  24.897  1.00  0.00     0.014 A 
BRANCH   8  13
ATOM     13  C   UNL A   1      34.526  24.528  25.320  1.00  0.00     0.134 A 
ATOM     14  C   UNL A   1      34.499  22.370  25.770  1.00  0.00     0.147 A 
ATOM     15  C   UNL A   1      35.770  22.666  25.321  1.00  0.00     0.053 A 
ATOM     16  O   UNL A   1      33.738  23.507  25.775  1.00  0.00    -0.455 OA
ATOM     17  C   UNL A   1      35.789  24.050  25.034  1.00  0.00     0.051 A 
BRANCH  14  18
ATOM     18  C   UNL A   1      33.909  21.134  26.212  1.00  0.00     0.180 C 
ATOM     19  N   UNL A   1      33.463  20.300  25.328  1.00  0.00    -0.175 NA
BRANCH  19  20
ATOM     20  N   UNL A   1      32.919  19.111  25.725  1.00  0.00    -0.212 N 
ATOM     21  C   UNL A   1      33.174  17.825  25.299  1.00  0.00     0.427 C 
ATOM     22  O   UNL A   1      32.590  16.869  25.796  1.00  0.00    -0.223 OA
ATOM     23  H   UNL A   1      32.236  19.184  26.430  1.00  0.00     0.197 HD
BRANCH  21  24
ATOM     24  O   UNL A   1      34.131  17.722  24.336  1.00  0.00    -0.452 OA
ATOM     25  C   UNL A   1      33.776  16.826  23.281  1.00  0.00     0.284 C 
ENDBRANCH  21  24
ENDBRANCH  19  20
ENDBRANCH  14  18
ENDBRANCH   8  13
ENDBRANCH   4   7
ENDBRANCH   2   3
ENDBRANCH   1   2
BRANCH   1  26
ATOM     26  C   UNL A   1      34.652  32.561  27.934  1.00  0.00     0.002 C 
BRANCH  26  27
ATOM     27  C   UNL A   1      34.432  33.555  29.078  1.00  0.00     0.002 C 
BRANCH  27  28
ATOM     28  C   UNL A   1      33.228  34.488  28.938  1.00  0.00     0.021 C 
BRANCH  28  29
ATOM     29  C   UNL A   1      33.433  35.905  29.463  1.00  0.00     0.116 C 
BRANCH  29  30
ATOM     30  N   UNL A   1      32.512  36.245  30.535  1.00  0.00    -0.352 N 
ATOM     31  C   UNL A   1      32.536  35.862  31.854  1.00  0.00     0.251 C 
ATOM     32  H   UNL A   1      31.766  36.833  30.280  1.00  0.00     0.163 HD
ATOM     33  O   UNL A   1      31.586  36.107  32.589  1.00  0.00    -0.269 OA
BRANCH  31  34
ATOM     34  C   UNL A   1      33.706  35.128  32.381  1.00  0.00     0.039 A 
ATOM     35  C   UNL A   1      33.528  33.831  32.871  1.00  0.00     0.014 A 
ATOM     36  C   UNL A   1      34.975  35.712  32.377  1.00  0.00     0.014 A 
ATOM     37  C   UNL A   1      34.638  33.095  33.294  1.00  0.00     0.010 A 
ATOM     38  C   UNL A   1      36.087  34.950  32.723  1.00  0.00     0.010 A 
ATOM     39  C   UNL A   1      35.931  33.633  33.185  1.00  0.00    -0.014 A 
BRANCH  39  40
ATOM     40  C   UNL A   1      37.134  32.839  33.541  1.00  0.00     0.031 A 
ATOM     41  C   UNL A   1      37.867  33.113  34.824  1.00  0.00     0.074 A 
ATOM     42  C   UNL A   1      37.614  31.930  32.671  1.00  0.00     0.049 A 
ATOM     43  N   UNL A   1      38.987  32.597  35.265  1.00  0.00    -0.248 NA
ATOM     44  C   UNL A   1      37.279  34.123  35.718  1.00  0.00     0.031 C 
ATOM     45  C   UNL A   1      37.020  31.603  31.373  1.00  0.00     0.029 A 
ATOM     46  N   UNL A   1      38.723  31.124  32.739  1.00  0.00    -0.354 N 
ATOM     47  C   UNL A   1      39.244  33.231  36.473  1.00  0.00     0.074 A 
ATOM     48  C   UNL A   1      38.195  34.209  36.670  1.00  0.00     0.031 C 
ATOM     49  C   UNL A   1      37.760  30.654  30.777  1.00  0.00     0.029 A 
ATOM     50  C   UNL A   1      38.904  30.339  31.626  1.00  0.00     0.049 A 
ATOM     51  H   UNL A   1      39.332  31.109  33.514  1.00  0.00     0.167 HD
ATOM     52  C   UNL A   1      40.253  33.006  37.349  1.00  0.00     0.037 A 
ATOM     53  C   UNL A   1      39.889  29.474  31.316  1.00  0.00     0.037 A 
ATOM     54  C   UNL A   1      41.286  32.022  37.155  1.00  0.00     0.049 A 
ATOM     55  C   UNL A   1      41.008  29.253  32.296  1.00  0.00     0.074 A 
ATOM     56  C   UNL A   1      42.316  31.674  38.011  1.00  0.00     0.029 A 
ATOM     57  N   UNL A   1      41.424  31.234  36.022  1.00  0.00    -0.354 N 
ATOM     58  N   UNL A   1      41.202  29.809  33.468  1.00  0.00    -0.248 NA
ATOM     59  C   UNL A   1      42.041  28.280  31.916  1.00  0.00     0.031 C 
ATOM     60  C   UNL A   1      43.113  30.720  37.371  1.00  0.00     0.029 A 
ATOM     61  C   UNL A   1      42.541  30.423  36.144  1.00  0.00     0.049 A 
ATOM     62  H   UNL A   1      40.820  31.249  35.246  1.00  0.00     0.167 HD
ATOM     63  C   UNL A   1      42.358  29.231  33.978  1.00  0.00     0.074 A 
ATOM     64  C   UNL A   1      42.814  28.273  32.991  1.00  0.00     0.031 C 
ATOM     65  C   UNL A   1      42.981  29.468  35.158  1.00  0.00     0.037 A 
BRANCH  52  66
ATOM     66  C   UNL A   1      40.292  33.849  38.594  1.00  0.00     0.057 A 
ATOM     67  C   UNL A   1      41.098  34.992  38.693  1.00  0.00     0.134 A 
ATOM     68  C   UNL A   1      39.492  33.528  39.698  1.00  0.00     0.134 A 
ATOM     69  F   UNL A   1      41.896  35.352  37.677  1.00  0.00    -0.206 F 
ATOM     70  C   UNL A   1      41.132  35.763  39.857  1.00  0.00     0.040 A 
ATOM     71  C   UNL A   1      39.493  34.310  40.853  1.00  0.00     0.040 A 
ATOM     72  F   UNL A   1      38.690  32.453  39.670  1.00  0.00    -0.206 F 
ATOM     73  C   UNL A   1      40.323  35.427  40.939  1.00  0.00     0.006 A 
ENDBRANCH  52  66
BRANCH  53  74
ATOM     74  C   UNL A   1      39.853  28.742  30.023  1.00  0.00     0.057 A 
ATOM     75  C   UNL A   1      40.490  29.254  28.886  1.00  0.00     0.134 A 
ATOM     76  C   UNL A   1      39.185  27.519  29.893  1.00  0.00     0.134 A 
ATOM     77  F   UNL A   1      41.132  30.430  28.942  1.00  0.00    -0.206 F 
ATOM     78  C   UNL A   1      40.447  28.585  27.661  1.00  0.00     0.040 A 
ATOM     79  C   UNL A   1      39.159  26.825  28.681  1.00  0.00     0.040 A 
ATOM     80  F   UNL A   1      38.564  26.970  30.946  1.00  0.00    -0.206 F 
ATOM     81  C   UNL A   1      39.785  27.363  27.559  1.00  0.00     0.006 A 
ENDBRANCH  53  74
BRANCH  65  82
ATOM     82  C   UNL A   1      44.201  28.649  35.473  1.00  0.00     0.057 A 
ATOM     83  C   UNL A   1      45.493  29.077  35.141  1.00  0.00     0.134 A 
ATOM     84  C   UNL A   1      44.080  27.434  36.161  1.00  0.00     0.134 A 
ATOM     85  F   UNL A   1      45.679  30.224  34.472  1.00  0.00    -0.206 F 
ATOM     86  C   UNL A   1      46.618  28.315  35.462  1.00  0.00     0.040 A 
ATOM     87  C   UNL A   1      45.198  26.680  36.515  1.00  0.00     0.040 A 
ATOM     88  F   UNL A   1      42.872  26.970  36.517  1.00  0.00    -0.206 F 
ATOM     89  C   UNL A   1      46.473  27.117  36.159  1.00  0.00     0.006 A 
ENDBRANCH  65  82
ENDBRANCH  39  40
ENDBRANCH  31  34
ENDBRANCH  29  30
ENDBRANCH  28  29
ENDBRANCH  27  28
ENDBRANCH  26  27
ENDBRANCH   1  26
TORSDOF 17
ENDMDL
