MODEL 1
REMARK VINA RESULT:     -11.5      0.000      0.000
REMARK SMILES Cc1nc(C(=O)NCCCCCCNC(=O)c2ccc(-c3c4nc(c(-c5c(F)cccc5F)c5ccc([nH]5)c(-c5c(F)cccc5F)c5nc(c(-c6c(F)cccc6F)c6ccc3[nH]6)C=C5)C=C4)cc2)nn1-c1cccc(C(F)(F)F)c1
REMARK SMILES IDX 10 1 9 2 8 3 7 4 5 5 6 6 4 8 1 9 2 10 3 11 72 12 71 13 73 14
REMARK SMILES IDX 74 15 82 16 75 17 77 18 76 19 78 20 79 21 80 22 81 23 11 24
REMARK SMILES IDX 12 25 13 26 14 27 15 28 16 30 17 31 18 32 70 33 19 34 69 35
REMARK SMILES IDX 20 36 21 37 22 38 63 39 23 40 68 41 62 42 64 43 24 44 67 45
REMARK SMILES IDX 61 46 60 47 25 49 51 50 34 51 50 52 35 53 38 54 49 55 65 56
REMARK SMILES IDX 36 57 37 58 48 60 66 61 39 62 26 63 27 64 32 65 28 66 29 67
REMARK SMILES IDX 31 68 33 69 30 70 52 71 53 72 58 73 54 74 55 75 57 76 59 77
REMARK SMILES IDX 56 78 40 79 41 80 46 81 42 82 43 83 45 84 47 85 44 86
REMARK H PARENT 7 7 14 29 64 48 38 59
REMARK Flexibility Score: inf
ROOT
ATOM      1  C   UNL A   1      39.754  22.442  26.330  1.00  0.00     0.002 C 
ENDROOT
BRANCH   1   2
ATOM      2  C   UNL A   1      38.796  23.617  26.532  1.00  0.00     0.021 C 
BRANCH   2   3
ATOM      3  C   UNL A   1      37.388  23.435  25.963  1.00  0.00     0.116 C 
BRANCH   3   4
ATOM      4  N   UNL A   1      37.389  23.199  24.531  1.00  0.00    -0.349 N 
ATOM      5  C   UNL A   1      36.334  23.173  23.632  1.00  0.00     0.290 C 
ATOM      6  O   UNL A   1      36.604  22.879  22.465  1.00  0.00    -0.266 OA
ATOM      7  H   UNL A   1      38.275  23.032  24.136  1.00  0.00     0.163 HD
BRANCH   5   8
ATOM      8  C   UNL A   1      34.948  23.451  24.078  1.00  0.00     0.239 A 
ATOM      9  C   UNL A   1      31.986  22.788  25.973  1.00  0.00     0.090 C 
ATOM     10  C   UNL A   1      33.157  23.302  25.223  1.00  0.00     0.130 A 
ATOM     11  N   UNL A   1      34.291  22.668  25.012  1.00  0.00    -0.207 NA
ATOM     12  N   UNL A   1      33.168  24.482  24.511  1.00  0.00    -0.217 N 
ATOM     13  N   UNL A   1      34.182  24.460  23.621  1.00  0.00    -0.140 NA
BRANCH  12  14
ATOM     14  C   UNL A   1      32.400  25.659  24.675  1.00  0.00     0.067 A 
ATOM     15  C   UNL A   1      31.639  26.132  23.599  1.00  0.00     0.028 A 
ATOM     16  C   UNL A   1      32.495  26.411  25.856  1.00  0.00     0.041 A 
ATOM     17  C   UNL A   1      30.926  27.323  23.724  1.00  0.00     0.003 A 
ATOM     18  C   UNL A   1      31.830  27.645  25.960  1.00  0.00     0.058 A 
ATOM     19  C   UNL A   1      31.021  28.075  24.896  1.00  0.00     0.013 A 
BRANCH  18  20
ATOM     20  C   UNL A   1      32.003  28.527  27.174  1.00  0.00     0.416 C 
ATOM     21  F   UNL A   1      31.060  28.289  28.128  1.00  0.00    -0.166 F 
ATOM     22  F   UNL A   1      33.207  28.347  27.782  1.00  0.00    -0.166 F 
ATOM     23  F   UNL A   1      31.918  29.857  26.893  1.00  0.00    -0.166 F 
ENDBRANCH  18  20
ENDBRANCH  12  14
ENDBRANCH   5   8
ENDBRANCH   3   4
ENDBRANCH   2   3
ENDBRANCH   1   2
BRANCH   1  24
ATOM     24  C   UNL A   1      40.518  21.958  27.572  1.00  0.00     0.002 C 
BRANCH  24  25
ATOM     25  C   UNL A   1      41.471  20.769  27.384  1.00  0.00     0.021 C 
BRANCH  25  26
ATOM     26  C   UNL A   1      41.588  20.265  25.953  1.00  0.00     0.116 C 
BRANCH  26  27
ATOM     27  N   UNL A   1      42.936  19.817  25.611  1.00  0.00    -0.352 N 
ATOM     28  C   UNL A   1      44.031  20.598  25.285  1.00  0.00     0.251 C 
ATOM     29  H   UNL A   1      43.083  18.844  25.614  1.00  0.00     0.163 HD
ATOM     30  O   UNL A   1      44.981  20.136  24.677  1.00  0.00    -0.269 OA
BRANCH  28  31
ATOM     31  C   UNL A   1      44.016  22.019  25.680  1.00  0.00     0.039 A 
ATOM     32  C   UNL A   1      43.260  22.956  24.971  1.00  0.00     0.014 A 
ATOM     33  C   UNL A   1      44.733  22.393  26.813  1.00  0.00     0.014 A 
ATOM     34  C   UNL A   1      43.151  24.251  25.474  1.00  0.00     0.010 A 
ATOM     35  C   UNL A   1      44.517  23.629  27.377  1.00  0.00     0.010 A 
ATOM     36  C   UNL A   1      43.754  24.578  26.700  1.00  0.00    -0.014 A 
BRANCH  36  37
ATOM     37  C   UNL A   1      43.502  25.876  27.326  1.00  0.00     0.031 A 
ATOM     38  C   UNL A   1      44.449  26.973  26.966  1.00  0.00     0.074 A 
ATOM     39  C   UNL A   1      42.385  26.164  28.028  1.00  0.00     0.049 A 
ATOM     40  N   UNL A   1      45.251  27.613  27.753  1.00  0.00    -0.248 NA
ATOM     41  C   UNL A   1      44.577  27.356  25.552  1.00  0.00     0.031 C 
ATOM     42  C   UNL A   1      41.201  25.329  28.260  1.00  0.00     0.029 A 
ATOM     43  N   UNL A   1      42.037  27.343  28.614  1.00  0.00    -0.354 N 
ATOM     44  C   UNL A   1      45.871  28.592  26.978  1.00  0.00     0.074 A 
ATOM     45  C   UNL A   1      45.511  28.309  25.611  1.00  0.00     0.031 C 
ATOM     46  C   UNL A   1      40.192  26.092  28.729  1.00  0.00     0.029 A 
ATOM     47  C   UNL A   1      40.707  27.421  29.002  1.00  0.00     0.049 A 
ATOM     48  H   UNL A   1      42.676  28.081  28.751  1.00  0.00     0.167 HD
ATOM     49  C   UNL A   1      46.486  29.669  27.542  1.00  0.00     0.037 A 
ATOM     50  C   UNL A   1      40.066  28.499  29.513  1.00  0.00     0.037 A 
ATOM     51  C   UNL A   1      46.719  29.466  28.948  1.00  0.00     0.049 A 
ATOM     52  C   UNL A   1      41.099  29.409  30.059  1.00  0.00     0.074 A 
ATOM     53  C   UNL A   1      47.435  28.549  29.695  1.00  0.00     0.029 A 
ATOM     54  N   UNL A   1      45.872  30.081  29.837  1.00  0.00    -0.354 N 
ATOM     55  N   UNL A   1      41.812  29.145  31.116  1.00  0.00    -0.248 NA
ATOM     56  C   UNL A   1      41.642  30.432  29.179  1.00  0.00     0.031 C 
ATOM     57  C   UNL A   1      46.631  28.311  30.849  1.00  0.00     0.029 A 
ATOM     58  C   UNL A   1      45.510  29.136  30.761  1.00  0.00     0.049 A 
ATOM     59  H   UNL A   1      45.579  31.020  29.814  1.00  0.00     0.167 HD
ATOM     60  C   UNL A   1      43.076  29.625  30.815  1.00  0.00     0.074 A 
ATOM     61  C   UNL A   1      42.884  30.504  29.664  1.00  0.00     0.031 C 
ATOM     62  C   UNL A   1      44.194  29.049  31.347  1.00  0.00     0.037 A 
BRANCH  49  63
ATOM     63  C   UNL A   1      46.585  31.039  26.917  1.00  0.00     0.057 A 
ATOM     64  C   UNL A   1      47.825  31.707  26.901  1.00  0.00     0.134 A 
ATOM     65  C   UNL A   1      45.468  31.839  26.609  1.00  0.00     0.134 A 
ATOM     66  F   UNL A   1      48.962  31.057  27.190  1.00  0.00    -0.206 F 
ATOM     67  C   UNL A   1      47.933  33.084  26.668  1.00  0.00     0.040 A 
ATOM     68  C   UNL A   1      45.572  33.205  26.327  1.00  0.00     0.040 A 
ATOM     69  F   UNL A   1      44.217  31.370  26.665  1.00  0.00    -0.206 F 
ATOM     70  C   UNL A   1      46.803  33.840  26.388  1.00  0.00     0.006 A 
ENDBRANCH  49  63
BRANCH  50  71
ATOM     71  C   UNL A   1      38.648  28.889  29.391  1.00  0.00     0.057 A 
ATOM     72  C   UNL A   1      37.804  28.921  30.509  1.00  0.00     0.134 A 
ATOM     73  C   UNL A   1      38.159  29.507  28.227  1.00  0.00     0.134 A 
ATOM     74  F   UNL A   1      38.196  28.387  31.675  1.00  0.00    -0.206 F 
ATOM     75  C   UNL A   1      36.559  29.561  30.482  1.00  0.00     0.040 A 
ATOM     76  C   UNL A   1      36.916  30.143  28.184  1.00  0.00     0.040 A 
ATOM     77  F   UNL A   1      38.911  29.590  27.120  1.00  0.00    -0.206 F 
ATOM     78  C   UNL A   1      36.117  30.187  29.321  1.00  0.00     0.006 A 
ENDBRANCH  50  71
BRANCH  62  79
ATOM     79  C   UNL A   1      44.007  28.051  32.458  1.00  0.00     0.057 A 
ATOM     80  C   UNL A   1      43.886  26.667  32.260  1.00  0.00     0.134 A 
ATOM     81  C   UNL A   1      44.091  28.493  33.782  1.00  0.00     0.134 A 
ATOM     82  F   UNL A   1      43.901  26.136  31.032  1.00  0.00    -0.206 F 
ATOM     83  C   UNL A   1      43.800  25.772  33.330  1.00  0.00     0.040 A 
ATOM     84  C   UNL A   1      44.040  27.606  34.860  1.00  0.00     0.040 A 
ATOM     85  F   UNL A   1      44.268  29.796  34.050  1.00  0.00    -0.206 F 
ATOM     86  C   UNL A   1      43.882  26.241  34.637  1.00  0.00     0.006 A 
ENDBRANCH  62  79
ENDBRANCH  36  37
ENDBRANCH  28  31
ENDBRANCH  26  27
ENDBRANCH  25  26
ENDBRANCH  24  25
ENDBRANCH   1  24
TORSDOF 15
ENDMDL
MODEL 2
REMARK VINA RESULT:     -11.5      3.962      8.093
REMARK SMILES Cc1nc(C(=O)NCCCCCCNC(=O)c2ccc(-c3c4nc(c(-c5c(F)cccc5F)c5ccc([nH]5)c(-c5c(F)cccc5F)c5nc(c(-c6c(F)cccc6F)c6ccc3[nH]6)C=C5)C=C4)cc2)nn1-c1cccc(C(F)(F)F)c1
REMARK SMILES IDX 10 1 9 2 8 3 7 4 5 5 6 6 4 8 1 9 2 10 3 11 72 12 71 13 73 14
REMARK SMILES IDX 74 15 82 16 75 17 77 18 76 19 78 20 79 21 80 22 81 23 11 24
REMARK SMILES IDX 12 25 13 26 14 27 15 28 16 30 17 31 18 32 70 33 19 34 69 35
REMARK SMILES IDX 20 36 21 37 22 38 63 39 23 40 68 41 62 42 64 43 24 44 67 45
REMARK SMILES IDX 61 46 60 47 25 49 51 50 34 51 50 52 35 53 38 54 49 55 65 56
REMARK SMILES IDX 36 57 37 58 48 60 66 61 39 62 26 63 27 64 32 65 28 66 29 67
REMARK SMILES IDX 31 68 33 69 30 70 52 71 53 72 58 73 54 74 55 75 57 76 59 77
REMARK SMILES IDX 56 78 40 79 41 80 46 81 42 82 43 83 45 84 47 85 44 86
REMARK H PARENT 7 7 14 29 64 48 38 59
REMARK Flexibility Score: inf
ROOT
ATOM      1  C   UNL A   1      32.367  27.408  26.162  1.00  0.00     0.002 C 
ENDROOT
BRANCH   1   2
ATOM      2  C   UNL A   1      30.932  26.879  26.161  1.00  0.00     0.021 C 
BRANCH   2   3
ATOM      3  C   UNL A   1      30.746  25.456  25.633  1.00  0.00     0.116 C 
BRANCH   3   4
ATOM      4  N   UNL A   1      30.004  24.610  26.550  1.00  0.00    -0.349 N 
ATOM      5  C   UNL A   1      30.217  23.290  26.914  1.00  0.00     0.290 C 
ATOM      6  O   UNL A   1      29.388  22.780  27.672  1.00  0.00    -0.266 OA
ATOM      7  H   UNL A   1      29.230  25.040  26.980  1.00  0.00     0.163 HD
BRANCH   5   8
ATOM      8  C   UNL A   1      31.371  22.530  26.377  1.00  0.00     0.239 A 
ATOM      9  C   UNL A   1      34.780  21.443  26.364  1.00  0.00     0.090 C 
ATOM     10  C   UNL A   1      33.317  21.666  26.284  1.00  0.00     0.130 A 
ATOM     11  N   UNL A   1      32.619  22.541  26.977  1.00  0.00    -0.207 NA
ATOM     12  N   UNL A   1      32.489  21.073  25.355  1.00  0.00    -0.217 N 
ATOM     13  N   UNL A   1      31.342  21.778  25.261  1.00  0.00    -0.140 NA
BRANCH  12  14
ATOM     14  C   UNL A   1      32.627  19.854  24.650  1.00  0.00     0.067 A 
ATOM     15  C   UNL A   1      32.358  19.827  23.276  1.00  0.00     0.028 A 
ATOM     16  C   UNL A   1      32.909  18.664  25.336  1.00  0.00     0.041 A 
ATOM     17  C   UNL A   1      32.430  18.622  22.578  1.00  0.00     0.003 A 
ATOM     18  C   UNL A   1      32.916  17.438  24.647  1.00  0.00     0.058 A 
ATOM     19  C   UNL A   1      32.705  17.436  23.259  1.00  0.00     0.013 A 
BRANCH  18  20
ATOM     20  C   UNL A   1      33.106  16.130  25.379  1.00  0.00     0.416 C 
ATOM     21  F   UNL A   1      34.421  15.810  25.536  1.00  0.00    -0.166 F 
ATOM     22  F   UNL A   1      32.572  16.150  26.630  1.00  0.00    -0.166 F 
ATOM     23  F   UNL A   1      32.539  15.068  24.743  1.00  0.00    -0.166 F 
ENDBRANCH  18  20
ENDBRANCH  12  14
ENDBRANCH   5   8
ENDBRANCH   3   4
ENDBRANCH   2   3
ENDBRANCH   1   2
BRANCH   1  24
ATOM     24  C   UNL A   1      32.702  28.484  27.205  1.00  0.00     0.002 C 
BRANCH  24  25
ATOM     25  C   UNL A   1      33.810  29.484  26.845  1.00  0.00     0.021 C 
BRANCH  25  26
ATOM     26  C   UNL A   1      35.139  29.243  27.545  1.00  0.00     0.116 C 
BRANCH  26  27
ATOM     27  N   UNL A   1      35.301  30.041  28.758  1.00  0.00    -0.352 N 
ATOM     28  C   UNL A   1      36.331  29.979  29.681  1.00  0.00     0.251 C 
ATOM     29  H   UNL A   1      34.594  30.701  28.940  1.00  0.00     0.163 HD
ATOM     30  O   UNL A   1      36.195  30.412  30.813  1.00  0.00    -0.269 OA
BRANCH  28  31
ATOM     31  C   UNL A   1      37.604  29.361  29.265  1.00  0.00     0.039 A 
ATOM     32  C   UNL A   1      38.259  29.777  28.103  1.00  0.00     0.014 A 
ATOM     33  C   UNL A   1      38.164  28.391  30.091  1.00  0.00     0.014 A 
ATOM     34  C   UNL A   1      39.533  29.279  27.835  1.00  0.00     0.010 A 
ATOM     35  C   UNL A   1      39.469  28.004  29.896  1.00  0.00     0.010 A 
ATOM     36  C   UNL A   1      40.153  28.415  28.754  1.00  0.00    -0.014 A 
BRANCH  36  37
ATOM     37  C   UNL A   1      41.552  28.026  28.576  1.00  0.00     0.031 A 
ATOM     38  C   UNL A   1      41.790  26.762  27.817  1.00  0.00     0.074 A 
ATOM     39  C   UNL A   1      42.597  28.826  28.881  1.00  0.00     0.049 A 
ATOM     40  N   UNL A   1      42.344  25.675  28.248  1.00  0.00    -0.248 NA
ATOM     41  C   UNL A   1      41.286  26.663  26.439  1.00  0.00     0.031 C 
ATOM     42  C   UNL A   1      42.585  30.211  29.365  1.00  0.00     0.029 A 
ATOM     43  N   UNL A   1      43.926  28.578  28.719  1.00  0.00    -0.354 N 
ATOM     44  C   UNL A   1      42.413  24.807  27.160  1.00  0.00     0.074 A 
ATOM     45  C   UNL A   1      41.640  25.418  26.108  1.00  0.00     0.031 C 
ATOM     46  C   UNL A   1      43.818  30.746  29.239  1.00  0.00     0.029 A 
ATOM     47  C   UNL A   1      44.738  29.696  28.842  1.00  0.00     0.049 A 
ATOM     48  H   UNL A   1      44.282  27.679  28.530  1.00  0.00     0.167 HD
ATOM     49  C   UNL A   1      43.256  23.736  27.151  1.00  0.00     0.037 A 
ATOM     50  C   UNL A   1      46.074  29.763  28.633  1.00  0.00     0.037 A 
ATOM     51  C   UNL A   1      43.739  23.435  28.474  1.00  0.00     0.049 A 
ATOM     52  C   UNL A   1      46.609  28.386  28.748  1.00  0.00     0.074 A 
ATOM     53  C   UNL A   1      43.147  23.078  29.670  1.00  0.00     0.029 A 
ATOM     54  N   UNL A   1      45.013  23.833  28.799  1.00  0.00    -0.354 N 
ATOM     55  N   UNL A   1      46.666  27.723  29.867  1.00  0.00    -0.248 NA
ATOM     56  C   UNL A   1      46.689  27.582  27.539  1.00  0.00     0.031 C 
ATOM     57  C   UNL A   1      43.903  23.758  30.670  1.00  0.00     0.029 A 
ATOM     58  C   UNL A   1      44.938  24.437  30.027  1.00  0.00     0.049 A 
ATOM     59  H   UNL A   1      45.823  23.710  28.255  1.00  0.00     0.167 HD
ATOM     60  C   UNL A   1      46.342  26.421  29.518  1.00  0.00     0.074 A 
ATOM     61  C   UNL A   1      46.478  26.373  28.065  1.00  0.00     0.031 C 
ATOM     62  C   UNL A   1      45.725  25.587  30.406  1.00  0.00     0.037 A 
BRANCH  49  63
ATOM     63  C   UNL A   1      43.911  23.156  25.922  1.00  0.00     0.057 A 
ATOM     64  C   UNL A   1      43.839  21.769  25.685  1.00  0.00     0.134 A 
ATOM     65  C   UNL A   1      44.852  23.850  25.137  1.00  0.00     0.134 A 
ATOM     66  F   UNL A   1      42.991  20.995  26.378  1.00  0.00    -0.206 F 
ATOM     67  C   UNL A   1      44.691  21.115  24.787  1.00  0.00     0.040 A 
ATOM     68  C   UNL A   1      45.674  23.212  24.203  1.00  0.00     0.040 A 
ATOM     69  F   UNL A   1      45.096  25.155  25.304  1.00  0.00    -0.206 F 
ATOM     70  C   UNL A   1      45.620  21.836  24.047  1.00  0.00     0.006 A 
ENDBRANCH  49  63
BRANCH  50  71
ATOM     71  C   UNL A   1      46.890  30.894  28.152  1.00  0.00     0.057 A 
ATOM     72  C   UNL A   1      46.646  31.491  26.909  1.00  0.00     0.134 A 
ATOM     73  C   UNL A   1      47.747  31.596  29.020  1.00  0.00     0.134 A 
ATOM     74  F   UNL A   1      45.817  30.913  26.027  1.00  0.00    -0.206 F 
ATOM     75  C   UNL A   1      47.194  32.731  26.559  1.00  0.00     0.040 A 
ATOM     76  C   UNL A   1      48.305  32.832  28.680  1.00  0.00     0.040 A 
ATOM     77  F   UNL A   1      47.996  31.147  30.258  1.00  0.00    -0.206 F 
ATOM     78  C   UNL A   1      48.015  33.412  27.451  1.00  0.00     0.006 A 
ENDBRANCH  50  71
BRANCH  62  79
ATOM     79  C   UNL A   1      45.637  26.031  31.840  1.00  0.00     0.057 A 
ATOM     80  C   UNL A   1      44.507  26.642  32.407  1.00  0.00     0.134 A 
ATOM     81  C   UNL A   1      46.679  25.704  32.713  1.00  0.00     0.134 A 
ATOM     82  F   UNL A   1      43.417  26.900  31.676  1.00  0.00    -0.206 F 
ATOM     83  C   UNL A   1      44.441  26.959  33.766  1.00  0.00     0.040 A 
ATOM     84  C   UNL A   1      46.613  25.985  34.080  1.00  0.00     0.040 A 
ATOM     85  F   UNL A   1      47.768  25.064  32.256  1.00  0.00    -0.206 F 
ATOM     86  C   UNL A   1      45.496  26.626  34.609  1.00  0.00     0.006 A 
ENDBRANCH  62  79
ENDBRANCH  36  37
ENDBRANCH  28  31
ENDBRANCH  26  27
ENDBRANCH  25  26
ENDBRANCH  24  25
ENDBRANCH   1  24
TORSDOF 15
ENDMDL
MODEL 3
REMARK VINA RESULT:     -11.3      2.167      3.142
REMARK SMILES Cc1nc(C(=O)NCCCCCCNC(=O)c2ccc(-c3c4nc(c(-c5c(F)cccc5F)c5ccc([nH]5)c(-c5c(F)cccc5F)c5nc(c(-c6c(F)cccc6F)c6ccc3[nH]6)C=C5)C=C4)cc2)nn1-c1cccc(C(F)(F)F)c1
REMARK SMILES IDX 10 1 9 2 8 3 7 4 5 5 6 6 4 8 1 9 2 10 3 11 72 12 71 13 73 14
REMARK SMILES IDX 74 15 82 16 75 17 77 18 76 19 78 20 79 21 80 22 81 23 11 24
REMARK SMILES IDX 12 25 13 26 14 27 15 28 16 30 17 31 18 32 70 33 19 34 69 35
REMARK SMILES IDX 20 36 21 37 22 38 63 39 23 40 68 41 62 42 64 43 24 44 67 45
REMARK SMILES IDX 61 46 60 47 25 49 51 50 34 51 50 52 35 53 38 54 49 55 65 56
REMARK SMILES IDX 36 57 37 58 48 60 66 61 39 62 26 63 27 64 32 65 28 66 29 67
REMARK SMILES IDX 31 68 33 69 30 70 52 71 53 72 58 73 54 74 55 75 57 76 59 77
REMARK SMILES IDX 56 78 40 79 41 80 46 81 42 82 43 83 45 84 47 85 44 86
REMARK H PARENT 7 7 14 29 64 48 38 59
REMARK Flexibility Score: inf
ROOT
ATOM      1  C   UNL A   1      37.040  23.092  25.066  1.00  0.00     0.002 C 
ENDROOT
BRANCH   1   2
ATOM      2  C   UNL A   1      36.254  21.892  24.538  1.00  0.00     0.021 C 
BRANCH   2   3
ATOM      3  C   UNL A   1      34.920  21.611  25.232  1.00  0.00     0.116 C 
BRANCH   3   4
ATOM      4  N   UNL A   1      33.841  21.365  24.292  1.00  0.00    -0.349 N 
ATOM      5  C   UNL A   1      33.034  22.260  23.608  1.00  0.00     0.290 C 
ATOM      6  O   UNL A   1      32.135  21.781  22.913  1.00  0.00    -0.266 OA
ATOM      7  H   UNL A   1      33.653  20.415  24.113  1.00  0.00     0.163 HD
BRANCH   5   8
ATOM      8  C   UNL A   1      33.232  23.723  23.748  1.00  0.00     0.239 A 
ATOM      9  C   UNL A   1      33.492  27.067  22.503  1.00  0.00     0.090 C 
ATOM     10  C   UNL A   1      33.279  25.786  23.217  1.00  0.00     0.130 A 
ATOM     11  N   UNL A   1      33.179  24.592  22.673  1.00  0.00    -0.207 NA
ATOM     12  N   UNL A   1      33.295  25.648  24.589  1.00  0.00    -0.217 N 
ATOM     13  N   UNL A   1      33.500  24.353  24.908  1.00  0.00    -0.140 NA
BRANCH  12  14
ATOM     14  C   UNL A   1      33.016  26.589  25.608  1.00  0.00     0.067 A 
ATOM     15  C   UNL A   1      31.700  26.732  26.063  1.00  0.00     0.028 A 
ATOM     16  C   UNL A   1      34.019  27.454  26.070  1.00  0.00     0.041 A 
ATOM     17  C   UNL A   1      31.398  27.698  27.022  1.00  0.00     0.003 A 
ATOM     18  C   UNL A   1      33.704  28.472  26.988  1.00  0.00     0.058 A 
ATOM     19  C   UNL A   1      32.393  28.562  27.481  1.00  0.00     0.013 A 
BRANCH  18  20
ATOM     20  C   UNL A   1      34.739  29.485  27.417  1.00  0.00     0.416 C 
ATOM     21  F   UNL A   1      34.291  30.767  27.299  1.00  0.00    -0.166 F 
ATOM     22  F   UNL A   1      35.108  29.335  28.718  1.00  0.00    -0.166 F 
ATOM     23  F   UNL A   1      35.889  29.426  26.690  1.00  0.00    -0.166 F 
ENDBRANCH  18  20
ENDBRANCH  12  14
ENDBRANCH   5   8
ENDBRANCH   3   4
ENDBRANCH   2   3
ENDBRANCH   1   2
BRANCH   1  24
ATOM     24  C   UNL A   1      38.138  22.794  26.098  1.00  0.00     0.002 C 
BRANCH  24  25
ATOM     25  C   UNL A   1      39.056  21.597  25.814  1.00  0.00     0.021 C 
BRANCH  25  26
ATOM     26  C   UNL A   1      40.283  21.507  26.710  1.00  0.00     0.116 C 
BRANCH  26  27
ATOM     27  N   UNL A   1      41.536  21.704  25.987  1.00  0.00    -0.352 N 
ATOM     28  C   UNL A   1      42.197  22.896  25.746  1.00  0.00     0.251 C 
ATOM     29  H   UNL A   1      41.962  20.892  25.629  1.00  0.00     0.163 HD
ATOM     30  O   UNL A   1      43.016  22.997  24.848  1.00  0.00    -0.269 OA
BRANCH  28  31
ATOM     31  C   UNL A   1      41.876  24.055  26.599  1.00  0.00     0.039 A 
ATOM     32  C   UNL A   1      42.464  24.207  27.858  1.00  0.00     0.014 A 
ATOM     33  C   UNL A   1      41.013  25.024  26.095  1.00  0.00     0.014 A 
ATOM     34  C   UNL A   1      42.255  25.393  28.559  1.00  0.00     0.010 A 
ATOM     35  C   UNL A   1      40.916  26.242  26.725  1.00  0.00     0.010 A 
ATOM     36  C   UNL A   1      41.505  26.428  27.974  1.00  0.00    -0.014 A 
BRANCH  36  37
ATOM     37  C   UNL A   1      41.425  27.739  28.618  1.00  0.00     0.031 A 
ATOM     38  C   UNL A   1      42.512  28.705  28.277  1.00  0.00     0.074 A 
ATOM     39  C   UNL A   1      40.354  28.163  29.322  1.00  0.00     0.049 A 
ATOM     40  N   UNL A   1      43.389  29.221  29.075  1.00  0.00    -0.248 NA
ATOM     41  C   UNL A   1      42.695  29.088  26.868  1.00  0.00     0.031 C 
ATOM     42  C   UNL A   1      39.068  27.490  29.539  1.00  0.00     0.029 A 
ATOM     43  N   UNL A   1      40.163  29.370  29.925  1.00  0.00    -0.354 N 
ATOM     44  C   UNL A   1      44.137  30.119  28.316  1.00  0.00     0.074 A 
ATOM     45  C   UNL A   1      43.748  29.907  26.944  1.00  0.00     0.031 C 
ATOM     46  C   UNL A   1      38.167  28.374  30.017  1.00  0.00     0.029 A 
ATOM     47  C   UNL A   1      38.854  29.618  30.311  1.00  0.00     0.049 A 
ATOM     48  H   UNL A   1      40.894  30.013  30.074  1.00  0.00     0.167 HD
ATOM     49  C   UNL A   1      44.887  31.097  28.897  1.00  0.00     0.037 A 
ATOM     50  C   UNL A   1      38.361  30.764  30.836  1.00  0.00     0.037 A 
ATOM     51  C   UNL A   1      45.085  30.844  30.300  1.00  0.00     0.049 A 
ATOM     52  C   UNL A   1      39.503  31.521  31.398  1.00  0.00     0.074 A 
ATOM     53  C   UNL A   1      45.669  29.830  31.035  1.00  0.00     0.029 A 
ATOM     54  N   UNL A   1      44.324  31.554  31.196  1.00  0.00    -0.354 N 
ATOM     55  N   UNL A   1      40.170  31.149  32.453  1.00  0.00    -0.248 NA
ATOM     56  C   UNL A   1      40.181  32.475  30.535  1.00  0.00     0.031 C 
ATOM     57  C   UNL A   1      44.837  29.684  32.184  1.00  0.00     0.029 A 
ATOM     58  C   UNL A   1      43.836  30.652  32.105  1.00  0.00     0.049 A 
ATOM     59  H   UNL A   1      44.159  32.524  31.187  1.00  0.00     0.167 HD
ATOM     60  C   UNL A   1      41.488  31.461  32.161  1.00  0.00     0.074 A 
ATOM     61  C   UNL A   1      41.419  32.374  31.023  1.00  0.00     0.031 C 
ATOM     62  C   UNL A   1      42.517  30.733  32.687  1.00  0.00     0.037 A 
BRANCH  49  63
ATOM     63  C   UNL A   1      45.170  32.450  28.293  1.00  0.00     0.057 A 
ATOM     64  C   UNL A   1      44.117  33.370  28.124  1.00  0.00     0.134 A 
ATOM     65  C   UNL A   1      46.357  32.765  27.604  1.00  0.00     0.134 A 
ATOM     66  F   UNL A   1      42.930  33.175  28.718  1.00  0.00    -0.206 F 
ATOM     67  C   UNL A   1      44.217  34.479  27.274  1.00  0.00     0.040 A 
ATOM     68  C   UNL A   1      46.483  33.897  26.792  1.00  0.00     0.040 A 
ATOM     69  F   UNL A   1      47.417  31.948  27.599  1.00  0.00    -0.206 F 
ATOM     70  C   UNL A   1      45.401  34.741  26.597  1.00  0.00     0.006 A 
ENDBRANCH  49  63
BRANCH  50  71
ATOM     71  C   UNL A   1      37.008  31.342  30.717  1.00  0.00     0.057 A 
ATOM     72  C   UNL A   1      36.183  31.498  31.838  1.00  0.00     0.134 A 
ATOM     73  C   UNL A   1      36.600  32.009  29.549  1.00  0.00     0.134 A 
ATOM     74  F   UNL A   1      36.506  30.927  33.007  1.00  0.00    -0.206 F 
ATOM     75  C   UNL A   1      35.035  32.301  31.810  1.00  0.00     0.040 A 
ATOM     76  C   UNL A   1      35.454  32.808  29.506  1.00  0.00     0.040 A 
ATOM     77  F   UNL A   1      37.350  31.980  28.438  1.00  0.00    -0.206 F 
ATOM     78  C   UNL A   1      34.675  32.970  30.646  1.00  0.00     0.006 A 
ENDBRANCH  50  71
BRANCH  62  79
ATOM     79  C   UNL A   1      42.195  29.754  33.783  1.00  0.00     0.057 A 
ATOM     80  C   UNL A   1      41.862  28.408  33.562  1.00  0.00     0.134 A 
ATOM     81  C   UNL A   1      42.361  30.150  35.113  1.00  0.00     0.134 A 
ATOM     82  F   UNL A   1      41.781  27.906  32.325  1.00  0.00    -0.206 F 
ATOM     83  C   UNL A   1      41.654  27.515  34.617  1.00  0.00     0.040 A 
ATOM     84  C   UNL A   1      42.189  29.260  36.176  1.00  0.00     0.040 A 
ATOM     85  F   UNL A   1      42.737  31.407  35.402  1.00  0.00    -0.206 F 
ATOM     86  C   UNL A   1      41.823  27.940  35.931  1.00  0.00     0.006 A 
ENDBRANCH  62  79
ENDBRANCH  36  37
ENDBRANCH  28  31
ENDBRANCH  26  27
ENDBRANCH  25  26
ENDBRANCH  24  25
ENDBRANCH   1  24
TORSDOF 15
ENDMDL
