MODEL 1
REMARK VINA RESULT:     -12.5      0.000      0.000
REMARK SMILES O=C(NCCCCCCNC(=O)[C@H](NC(=O)[C@H]1CC[C@@H](CNC(=O)[C@@H]2Cc3ccccc3C[NH2+]2)CC1)c1ccccc1)c1ccc(-c2c3nc(c(-c4c(F)cccc4F)c4ccc([nH]4)c(-c4c(F)cccc4F)c4nc(c(-c5c(F)cccc5F)c5ccc2[nH]5)C=C4)C=C3)cc1
REMARK SMILES IDX 8 1 7 2 6 3 5 4 4 5 3 6 1 7 2 8 43 10 44 11 96 12 45 13
REMARK SMILES IDX 95 14 46 15 47 16 48 17 89 18 49 19 94 20 88 21 90 22 50 23
REMARK SMILES IDX 93 24 87 25 86 26 51 28 77 29 60 30 76 31 61 32 64 33 75 34
REMARK SMILES IDX 91 35 62 36 63 37 74 39 92 40 65 41 52 42 53 43 58 44 54 45
REMARK SMILES IDX 55 46 57 47 59 48 56 49 78 50 79 51 84 52 80 53 81 54 83 55
REMARK SMILES IDX 85 56 82 57 66 58 67 59 72 60 68 61 69 62 71 63 73 64 70 65
REMARK SMILES IDX 9 66 10 67 11 68 12 70 13 71 37 72 38 73 42 74 39 75 41 76
REMARK SMILES IDX 40 77 14 78 15 79 16 81 17 82 36 83 18 84 35 85 19 86 20 87
REMARK SMILES IDX 21 88 22 89 23 90 24 92 25 93 26 94 34 95 27 96 33 97 28 100
REMARK SMILES IDX 32 101 29 102 31 103 30 104
REMARK H PARENT 3 9 90 27 64 38 10 69 14 80 22 91 34 98 34 99
REMARK Flexibility Score: inf
ROOT
ATOM      1  C   UNL A   1      38.265  21.526  25.398  1.00  0.00     0.021 C 
ENDROOT
BRANCH   1   2
ATOM      2  C   UNL A   1      39.018  20.191  25.422  1.00  0.00     0.002 C 
BRANCH   2   3
ATOM      3  C   UNL A   1      40.399  20.204  26.083  1.00  0.00     0.002 C 
BRANCH   3   4
ATOM      4  C   UNL A   1      41.290  18.997  25.790  1.00  0.00     0.021 C 
BRANCH   4   5
ATOM      5  C   UNL A   1      42.761  19.167  26.152  1.00  0.00     0.116 C 
BRANCH   5   6
ATOM      6  N   UNL A   1      43.660  18.815  25.065  1.00  0.00    -0.352 N 
ATOM      7  O   UNL A   1      45.146  19.176  23.404  1.00  0.00    -0.269 OA
ATOM      8  C   UNL A   1      44.554  19.609  24.388  1.00  0.00     0.251 C 
ATOM      9  H   UNL A   1      43.623  17.877  24.773  1.00  0.00     0.163 HD
BRANCH   8  10
ATOM     10  C   UNL A   1      44.784  21.001  24.833  1.00  0.00     0.039 A 
ATOM     11  C   UNL A   1      45.350  21.268  26.082  1.00  0.00     0.014 A 
ATOM     12  C   UNL A   1      44.436  22.054  23.982  1.00  0.00     0.014 A 
ATOM     13  C   UNL A   1      45.441  22.580  26.534  1.00  0.00     0.010 A 
ATOM     14  C   UNL A   1      44.609  23.376  24.404  1.00  0.00     0.010 A 
ATOM     15  C   UNL A   1      45.090  23.649  25.694  1.00  0.00    -0.014 A 
BRANCH  15  16
ATOM     16  C   UNL A   1      45.309  25.042  26.158  1.00  0.00     0.031 A 
ATOM     17  C   UNL A   1      46.656  25.699  26.051  1.00  0.00     0.074 A 
ATOM     18  C   UNL A   1      44.264  25.720  26.670  1.00  0.00     0.049 A 
ATOM     19  N   UNL A   1      47.011  26.909  26.407  1.00  0.00    -0.248 NA
ATOM     20  C   UNL A   1      47.749  24.900  25.476  1.00  0.00     0.031 C 
ATOM     21  C   UNL A   1      42.912  25.180  26.838  1.00  0.00     0.029 A 
ATOM     22  N   UNL A   1      44.165  27.006  27.132  1.00  0.00    -0.354 N 
ATOM     23  C   UNL A   1      48.366  27.012  26.116  1.00  0.00     0.074 A 
ATOM     24  C   UNL A   1      48.776  25.732  25.575  1.00  0.00     0.031 C 
ATOM     25  C   UNL A   1      42.112  26.137  27.328  1.00  0.00     0.029 A 
ATOM     26  C   UNL A   1      42.905  27.337  27.569  1.00  0.00     0.049 A 
ATOM     27  H   UNL A   1      44.925  27.632  27.151  1.00  0.00     0.167 HD
ATOM     28  C   UNL A   1      49.186  28.077  26.280  1.00  0.00     0.037 A 
ATOM     29  C   UNL A   1      42.441  28.471  28.122  1.00  0.00     0.037 A 
ATOM     30  C   UNL A   1      48.768  29.350  26.812  1.00  0.00     0.049 A 
ATOM     31  C   UNL A   1      43.381  29.624  28.318  1.00  0.00     0.074 A 
ATOM     32  C   UNL A   1      49.518  30.502  26.982  1.00  0.00     0.029 A 
ATOM     33  N   UNL A   1      47.489  29.637  27.264  1.00  0.00    -0.354 N 
ATOM     34  N   UNL A   1      44.649  29.717  28.001  1.00  0.00    -0.248 NA
ATOM     35  C   UNL A   1      42.827  30.826  28.954  1.00  0.00     0.031 C 
ATOM     36  C   UNL A   1      48.705  31.470  27.582  1.00  0.00     0.029 A 
ATOM     37  C   UNL A   1      47.435  30.940  27.736  1.00  0.00     0.049 A 
ATOM     38  H   UNL A   1      46.731  29.010  27.252  1.00  0.00     0.167 HD
ATOM     39  C   UNL A   1      45.040  30.994  28.377  1.00  0.00     0.074 A 
ATOM     40  C   UNL A   1      43.869  31.645  28.929  1.00  0.00     0.031 C 
ATOM     41  C   UNL A   1      46.261  31.575  28.278  1.00  0.00     0.037 A 
BRANCH  28  42
ATOM     42  C   UNL A   1      50.630  27.915  25.898  1.00  0.00     0.057 A 
ATOM     43  C   UNL A   1      51.623  27.650  26.849  1.00  0.00     0.134 A 
ATOM     44  C   UNL A   1      51.022  27.961  24.553  1.00  0.00     0.134 A 
ATOM     45  F   UNL A   1      51.318  27.600  28.155  1.00  0.00    -0.206 F 
ATOM     46  C   UNL A   1      52.955  27.451  26.480  1.00  0.00     0.040 A 
ATOM     47  C   UNL A   1      52.346  27.742  24.168  1.00  0.00     0.040 A 
ATOM     48  F   UNL A   1      50.120  28.202  23.589  1.00  0.00    -0.206 F 
ATOM     49  C   UNL A   1      53.318  27.489  25.134  1.00  0.00     0.006 A 
ENDBRANCH  28  42
BRANCH  29  50
ATOM     50  C   UNL A   1      41.019  28.563  28.538  1.00  0.00     0.057 A 
ATOM     51  C   UNL A   1      40.025  28.962  27.639  1.00  0.00     0.134 A 
ATOM     52  C   UNL A   1      40.622  28.250  29.844  1.00  0.00     0.134 A 
ATOM     53  F   UNL A   1      40.346  29.289  26.379  1.00  0.00    -0.206 F 
ATOM     54  C   UNL A   1      38.688  29.065  28.027  1.00  0.00     0.040 A 
ATOM     55  C   UNL A   1      39.286  28.320  30.238  1.00  0.00     0.040 A 
ATOM     56  F   UNL A   1      41.526  27.851  30.750  1.00  0.00    -0.206 F 
ATOM     57  C   UNL A   1      38.315  28.737  29.330  1.00  0.00     0.006 A 
ENDBRANCH  29  50
BRANCH  41  58
ATOM     58  C   UNL A   1      46.379  32.996  28.744  1.00  0.00     0.057 A 
ATOM     59  C   UNL A   1      46.742  33.316  30.058  1.00  0.00     0.134 A 
ATOM     60  C   UNL A   1      46.148  34.056  27.859  1.00  0.00     0.134 A 
ATOM     61  F   UNL A   1      46.960  32.346  30.959  1.00  0.00    -0.206 F 
ATOM     62  C   UNL A   1      46.847  34.641  30.482  1.00  0.00     0.040 A 
ATOM     63  C   UNL A   1      46.277  35.385  28.264  1.00  0.00     0.040 A 
ATOM     64  F   UNL A   1      45.803  33.818  26.584  1.00  0.00    -0.206 F 
ATOM     65  C   UNL A   1      46.621  35.680  29.581  1.00  0.00     0.006 A 
ENDBRANCH  41  58
ENDBRANCH  15  16
ENDBRANCH   8  10
ENDBRANCH   5   6
ENDBRANCH   4   5
ENDBRANCH   3   4
ENDBRANCH   2   3
ENDBRANCH   1   2
BRANCH   1  66
ATOM     66  C   UNL A   1      36.781  21.452  25.055  1.00  0.00     0.116 C 
BRANCH  66  67
ATOM     67  N   UNL A   1      35.932  21.426  26.228  1.00  0.00    -0.354 N 
ATOM     68  C   UNL A   1      34.597  21.152  26.327  1.00  0.00     0.247 C 
ATOM     69  H   UNL A   1      36.382  21.638  27.078  1.00  0.00     0.163 HD
ATOM     70  O   UNL A   1      34.141  21.060  27.474  1.00  0.00    -0.272 OA
BRANCH  68  71
ATOM     71  C   UNL A   1      33.674  21.026  25.071  1.00  0.00     0.202 C 
BRANCH  71  72
ATOM     72  C   UNL A   1      33.620  19.615  24.511  1.00  0.00    -0.016 A 
ATOM     73  C   UNL A   1      34.652  18.697  24.769  1.00  0.00     0.006 A 
ATOM     74  C   UNL A   1      32.554  19.217  23.686  1.00  0.00     0.006 A 
ATOM     75  C   UNL A   1      34.643  17.435  24.176  1.00  0.00     0.000 A 
ATOM     76  C   UNL A   1      32.551  17.955  23.091  1.00  0.00     0.000 A 
ATOM     77  C   UNL A   1      33.599  17.068  23.329  1.00  0.00     0.000 A 
ENDBRANCH  71  72
BRANCH  71  78
ATOM     78  N   UNL A   1      32.330  21.426  25.490  1.00  0.00    -0.340 N 
ATOM     79  C   UNL A   1      31.522  22.454  25.150  1.00  0.00     0.224 C 
ATOM     80  H   UNL A   1      31.932  20.821  26.156  1.00  0.00     0.164 HD
ATOM     81  O   UNL A   1      30.405  22.491  25.673  1.00  0.00    -0.275 OA
BRANCH  79  82
ATOM     82  C   UNL A   1      31.954  23.505  24.132  1.00  0.00     0.078 C 
ATOM     83  C   UNL A   1      30.719  24.016  23.376  1.00  0.00     0.014 C 
ATOM     84  C   UNL A   1      32.693  24.635  24.878  1.00  0.00     0.014 C 
ATOM     85  C   UNL A   1      30.999  25.277  22.556  1.00  0.00     0.006 C 
ATOM     86  C   UNL A   1      32.922  25.878  24.024  1.00  0.00     0.006 C 
ATOM     87  C   UNL A   1      31.623  26.405  23.394  1.00  0.00     0.008 C 
BRANCH  87  88
ATOM     88  C   UNL A   1      30.614  26.955  24.425  1.00  0.00     0.119 C 
BRANCH  88  89
ATOM     89  N   UNL A   1      29.865  28.089  23.912  1.00  0.00    -0.351 N 
ATOM     90  C   UNL A   1      30.140  29.423  23.944  1.00  0.00     0.278 C 
ATOM     91  H   UNL A   1      29.019  27.854  23.466  1.00  0.00     0.163 HD
ATOM     92  O   UNL A   1      29.399  30.180  23.307  1.00  0.00    -0.268 OA
BRANCH  90  93
ATOM     93  C   UNL A   1      31.356  29.970  24.709  1.00  0.00     0.277 C 
ATOM     94  C   UNL A   1      31.789  28.923  25.752  1.00  0.00     0.111 C 
ATOM     95  N   UNL A   1      31.013  31.317  25.245  1.00  0.00    -0.332 N 
ATOM     96  C   UNL A   1      32.909  29.504  26.572  1.00  0.00    -0.033 A 
ATOM     97  C   UNL A   1      31.494  31.562  26.610  1.00  0.00     0.298 C 
ATOM     98  H   UNL A   1      29.998  31.414  25.241  1.00  0.00     0.347 HD
ATOM     99  H   UNL A   1      31.477  31.997  24.643  1.00  0.00     0.347 HD
ATOM    100  C   UNL A   1      34.036  28.769  26.944  1.00  0.00     0.004 A 
ATOM    101  C   UNL A   1      32.777  30.849  26.959  1.00  0.00     0.010 A 
ATOM    102  C   UNL A   1      35.042  29.381  27.690  1.00  0.00     0.000 A 
ATOM    103  C   UNL A   1      33.783  31.450  27.718  1.00  0.00     0.010 A 
ATOM    104  C   UNL A   1      34.919  30.718  28.074  1.00  0.00     0.001 A 
ENDBRANCH  90  93
ENDBRANCH  88  89
ENDBRANCH  87  88
ENDBRANCH  79  82
ENDBRANCH  71  78
ENDBRANCH  68  71
ENDBRANCH  66  67
ENDBRANCH   1  66
TORSDOF 19
ENDMDL
MODEL 2
REMARK VINA RESULT:     -12.4      2.237      3.557
REMARK SMILES O=C(NCCCCCCNC(=O)[C@H](NC(=O)[C@H]1CC[C@@H](CNC(=O)[C@@H]2Cc3ccccc3C[NH2+]2)CC1)c1ccccc1)c1ccc(-c2c3nc(c(-c4c(F)cccc4F)c4ccc([nH]4)c(-c4c(F)cccc4F)c4nc(c(-c5c(F)cccc5F)c5ccc2[nH]5)C=C4)C=C3)cc1
REMARK SMILES IDX 8 1 7 2 6 3 5 4 4 5 3 6 1 7 2 8 43 10 44 11 96 12 45 13
REMARK SMILES IDX 95 14 46 15 47 16 48 17 89 18 49 19 94 20 88 21 90 22 50 23
REMARK SMILES IDX 93 24 87 25 86 26 51 28 77 29 60 30 76 31 61 32 64 33 75 34
REMARK SMILES IDX 91 35 62 36 63 37 74 39 92 40 65 41 52 42 53 43 58 44 54 45
REMARK SMILES IDX 55 46 57 47 59 48 56 49 78 50 79 51 84 52 80 53 81 54 83 55
REMARK SMILES IDX 85 56 82 57 66 58 67 59 72 60 68 61 69 62 71 63 73 64 70 65
REMARK SMILES IDX 9 66 10 67 11 68 12 70 13 71 37 72 38 73 42 74 39 75 41 76
REMARK SMILES IDX 40 77 14 78 15 79 16 81 17 82 36 83 18 84 35 85 19 86 20 87
REMARK SMILES IDX 21 88 22 89 23 90 24 92 25 93 26 94 34 95 27 96 33 97 28 100
REMARK SMILES IDX 32 101 29 102 31 103 30 104
REMARK H PARENT 3 9 90 27 64 38 10 69 14 80 22 91 34 98 34 99
REMARK Flexibility Score: inf
ROOT
ATOM      1  C   UNL A   1      37.473  23.818  26.249  1.00  0.00     0.021 C 
ENDROOT
BRANCH   1   2
ATOM      2  C   UNL A   1      38.990  23.649  26.111  1.00  0.00     0.002 C 
BRANCH   2   3
ATOM      3  C   UNL A   1      39.615  22.487  26.889  1.00  0.00     0.002 C 
BRANCH   3   4
ATOM      4  C   UNL A   1      39.902  21.221  26.084  1.00  0.00     0.021 C 
BRANCH   4   5
ATOM      5  C   UNL A   1      40.785  20.189  26.776  1.00  0.00     0.116 C 
BRANCH   5   6
ATOM      6  N   UNL A   1      41.985  19.867  26.024  1.00  0.00    -0.352 N 
ATOM      7  O   UNL A   1      43.927  20.271  24.945  1.00  0.00    -0.269 OA
ATOM      8  C   UNL A   1      43.050  20.674  25.703  1.00  0.00     0.251 C 
ATOM      9  H   UNL A   1      42.043  18.941  25.697  1.00  0.00     0.163 HD
BRANCH   8  10
ATOM     10  C   UNL A   1      43.126  22.044  26.254  1.00  0.00     0.039 A 
ATOM     11  C   UNL A   1      43.061  23.158  25.413  1.00  0.00     0.014 A 
ATOM     12  C   UNL A   1      43.256  22.217  27.636  1.00  0.00     0.014 A 
ATOM     13  C   UNL A   1      43.262  24.432  25.934  1.00  0.00     0.010 A 
ATOM     14  C   UNL A   1      43.371  23.504  28.169  1.00  0.00     0.010 A 
ATOM     15  C   UNL A   1      43.399  24.621  27.320  1.00  0.00    -0.014 A 
BRANCH  15  16
ATOM     16  C   UNL A   1      43.494  26.001  27.859  1.00  0.00     0.031 A 
ATOM     17  C   UNL A   1      44.824  26.656  28.102  1.00  0.00     0.074 A 
ATOM     18  C   UNL A   1      42.353  26.670  28.116  1.00  0.00     0.049 A 
ATOM     19  N   UNL A   1      45.077  27.856  28.564  1.00  0.00    -0.248 NA
ATOM     20  C   UNL A   1      46.026  25.868  27.792  1.00  0.00     0.031 C 
ATOM     21  C   UNL A   1      41.003  26.129  27.933  1.00  0.00     0.029 A 
ATOM     22  N   UNL A   1      42.140  27.944  28.572  1.00  0.00    -0.354 N 
ATOM     23  C   UNL A   1      46.462  27.961  28.617  1.00  0.00     0.074 A 
ATOM     24  C   UNL A   1      46.996  26.695  28.161  1.00  0.00     0.031 C 
ATOM     25  C   UNL A   1      40.104  27.077  28.236  1.00  0.00     0.029 A 
ATOM     26  C   UNL A   1      40.810  28.268  28.695  1.00  0.00     0.049 A 
ATOM     27  H   UNL A   1      42.870  28.567  28.792  1.00  0.00     0.167 HD
ATOM     28  C   UNL A   1      47.213  29.019  29.003  1.00  0.00     0.037 A 
ATOM     29  C   UNL A   1      40.221  29.389  29.146  1.00  0.00     0.037 A 
ATOM     30  C   UNL A   1      46.674  30.280  29.448  1.00  0.00     0.049 A 
ATOM     31  C   UNL A   1      41.081  30.534  29.595  1.00  0.00     0.074 A 
ATOM     32  C   UNL A   1      47.356  31.425  29.826  1.00  0.00     0.029 A 
ATOM     33  N   UNL A   1      45.322  30.560  29.580  1.00  0.00    -0.354 N 
ATOM     34  N   UNL A   1      42.388  30.631  29.600  1.00  0.00    -0.248 NA
ATOM     35  C   UNL A   1      40.385  31.721  30.106  1.00  0.00     0.031 C 
ATOM     36  C   UNL A   1      46.418  32.380  30.232  1.00  0.00     0.029 A 
ATOM     37  C   UNL A   1      45.150  31.851  30.057  1.00  0.00     0.049 A 
ATOM     38  H   UNL A   1      44.592  29.936  29.367  1.00  0.00     0.167 HD
ATOM     39  C   UNL A   1      42.671  31.897  30.093  1.00  0.00     0.074 A 
ATOM     40  C   UNL A   1      41.399  32.537  30.358  1.00  0.00     0.031 C 
ATOM     41  C   UNL A   1      43.878  32.476  30.311  1.00  0.00     0.037 A 
BRANCH  28  42
ATOM     42  C   UNL A   1      48.708  28.862  28.982  1.00  0.00     0.057 A 
ATOM     43  C   UNL A   1      49.478  29.260  27.883  1.00  0.00     0.134 A 
ATOM     44  C   UNL A   1      49.389  28.366  30.101  1.00  0.00     0.134 A 
ATOM     45  F   UNL A   1      48.889  29.737  26.775  1.00  0.00    -0.206 F 
ATOM     46  C   UNL A   1      50.872  29.157  27.891  1.00  0.00     0.040 A 
ATOM     47  C   UNL A   1      50.782  28.278  30.131  1.00  0.00     0.040 A 
ATOM     48  F   UNL A   1      48.713  27.974  31.192  1.00  0.00    -0.206 F 
ATOM     49  C   UNL A   1      51.527  28.672  29.021  1.00  0.00     0.006 A 
ENDBRANCH  28  42
BRANCH  29  50
ATOM     50  C   UNL A   1      38.741  29.476  29.202  1.00  0.00     0.057 A 
ATOM     51  C   UNL A   1      38.051  29.327  30.410  1.00  0.00     0.134 A 
ATOM     52  C   UNL A   1      37.982  29.713  28.050  1.00  0.00     0.134 A 
ATOM     53  F   UNL A   1      38.721  29.083  31.545  1.00  0.00    -0.206 F 
ATOM     54  C   UNL A   1      36.658  29.393  30.468  1.00  0.00     0.040 A 
ATOM     55  C   UNL A   1      36.592  29.810  28.097  1.00  0.00     0.040 A 
ATOM     56  F   UNL A   1      38.585  29.875  26.862  1.00  0.00    -0.206 F 
ATOM     57  C   UNL A   1      35.925  29.642  29.308  1.00  0.00     0.006 A 
ENDBRANCH  29  50
BRANCH  41  58
ATOM     58  C   UNL A   1      43.873  33.884  30.827  1.00  0.00     0.057 A 
ATOM     59  C   UNL A   1      43.924  34.170  32.197  1.00  0.00     0.134 A 
ATOM     60  C   UNL A   1      43.840  34.967  29.939  1.00  0.00     0.134 A 
ATOM     61  F   UNL A   1      43.940  33.177  33.099  1.00  0.00    -0.206 F 
ATOM     62  C   UNL A   1      43.919  35.484  32.667  1.00  0.00     0.040 A 
ATOM     63  C   UNL A   1      43.861  36.285  30.396  1.00  0.00     0.040 A 
ATOM     64  F   UNL A   1      43.797  34.762  28.614  1.00  0.00    -0.206 F 
ATOM     65  C   UNL A   1      43.894  36.546  31.764  1.00  0.00     0.006 A 
ENDBRANCH  41  58
ENDBRANCH  15  16
ENDBRANCH   8  10
ENDBRANCH   5   6
ENDBRANCH   4   5
ENDBRANCH   3   4
ENDBRANCH   2   3
ENDBRANCH   1   2
BRANCH   1  66
ATOM     66  C   UNL A   1      36.621  23.059  25.238  1.00  0.00     0.116 C 
BRANCH  66  67
ATOM     67  N   UNL A   1      36.885  21.634  25.236  1.00  0.00    -0.354 N 
ATOM     68  C   UNL A   1      36.015  20.590  25.095  1.00  0.00     0.247 C 
ATOM     69  H   UNL A   1      37.829  21.382  25.353  1.00  0.00     0.163 HD
ATOM     70  O   UNL A   1      36.522  19.466  24.986  1.00  0.00    -0.272 OA
BRANCH  68  71
ATOM     71  C   UNL A   1      34.463  20.785  25.134  1.00  0.00     0.202 C 
BRANCH  71  72
ATOM     72  C   UNL A   1      33.696  19.510  24.826  1.00  0.00    -0.016 A 
ATOM     73  C   UNL A   1      33.298  19.207  23.513  1.00  0.00     0.006 A 
ATOM     74  C   UNL A   1      33.330  18.632  25.861  1.00  0.00     0.006 A 
ATOM     75  C   UNL A   1      32.514  18.085  23.250  1.00  0.00     0.000 A 
ATOM     76  C   UNL A   1      32.542  17.512  25.595  1.00  0.00     0.000 A 
ATOM     77  C   UNL A   1      32.127  17.244  24.292  1.00  0.00     0.000 A 
ENDBRANCH  71  72
BRANCH  71  78
ATOM     78  N   UNL A   1      34.126  21.231  26.486  1.00  0.00    -0.340 N 
ATOM     79  C   UNL A   1      33.277  22.165  26.968  1.00  0.00     0.224 C 
ATOM     80  H   UNL A   1      34.618  20.752  27.191  1.00  0.00     0.164 HD
ATOM     81  O   UNL A   1      33.197  22.279  28.194  1.00  0.00    -0.275 OA
BRANCH  79  82
ATOM     82  C   UNL A   1      32.419  23.018  26.037  1.00  0.00     0.078 C 
ATOM     83  C   UNL A   1      31.229  23.586  26.823  1.00  0.00     0.014 C 
ATOM     84  C   UNL A   1      33.306  24.127  25.434  1.00  0.00     0.014 C 
ATOM     85  C   UNL A   1      30.486  24.691  26.069  1.00  0.00     0.006 C 
ATOM     86  C   UNL A   1      32.513  25.217  24.718  1.00  0.00     0.006 C 
ATOM     87  C   UNL A   1      31.415  25.824  25.605  1.00  0.00     0.008 C 
BRANCH  87  88
ATOM     88  C   UNL A   1      31.963  26.621  26.808  1.00  0.00     0.119 C 
BRANCH  88  89
ATOM     89  N   UNL A   1      32.943  27.617  26.407  1.00  0.00    -0.351 N 
ATOM     90  C   UNL A   1      32.779  28.850  25.852  1.00  0.00     0.278 C 
ATOM     91  H   UNL A   1      33.880  27.358  26.564  1.00  0.00     0.163 HD
ATOM     92  O   UNL A   1      33.780  29.566  25.732  1.00  0.00    -0.268 OA
BRANCH  90  93
ATOM     93  C   UNL A   1      31.391  29.358  25.429  1.00  0.00     0.277 C 
ATOM     94  C   UNL A   1      31.249  29.181  23.906  1.00  0.00     0.111 C 
ATOM     95  N   UNL A   1      31.217  30.746  25.941  1.00  0.00    -0.332 N 
ATOM     96  C   UNL A   1      29.935  29.778  23.478  1.00  0.00    -0.033 A 
ATOM     97  C   UNL A   1      30.571  31.661  24.992  1.00  0.00     0.298 C 
ATOM     98  H   UNL A   1      32.138  31.120  26.170  1.00  0.00     0.347 HD
ATOM     99  H   UNL A   1      30.604  30.683  26.753  1.00  0.00     0.347 HD
ATOM    100  C   UNL A   1      29.093  29.168  22.547  1.00  0.00     0.004 A 
ATOM    101  C   UNL A   1      29.577  31.003  24.067  1.00  0.00     0.010 A 
ATOM    102  C   UNL A   1      27.882  29.773  22.214  1.00  0.00     0.000 A 
ATOM    103  C   UNL A   1      28.368  31.609  23.716  1.00  0.00     0.010 A 
ATOM    104  C   UNL A   1      27.519  30.987  22.798  1.00  0.00     0.001 A 
ENDBRANCH  90  93
ENDBRANCH  88  89
ENDBRANCH  87  88
ENDBRANCH  79  82
ENDBRANCH  71  78
ENDBRANCH  68  71
ENDBRANCH  66  67
ENDBRANCH   1  66
TORSDOF 19
ENDMDL
MODEL 3
REMARK VINA RESULT:     -12.4      0.256      5.731
REMARK SMILES O=C(NCCCCCCNC(=O)[C@H](NC(=O)[C@H]1CC[C@@H](CNC(=O)[C@@H]2Cc3ccccc3C[NH2+]2)CC1)c1ccccc1)c1ccc(-c2c3nc(c(-c4c(F)cccc4F)c4ccc([nH]4)c(-c4c(F)cccc4F)c4nc(c(-c5c(F)cccc5F)c5ccc2[nH]5)C=C4)C=C3)cc1
REMARK SMILES IDX 8 1 7 2 6 3 5 4 4 5 3 6 1 7 2 8 43 10 44 11 96 12 45 13
REMARK SMILES IDX 95 14 46 15 47 16 48 17 89 18 49 19 94 20 88 21 90 22 50 23
REMARK SMILES IDX 93 24 87 25 86 26 51 28 77 29 60 30 76 31 61 32 64 33 75 34
REMARK SMILES IDX 91 35 62 36 63 37 74 39 92 40 65 41 52 42 53 43 58 44 54 45
REMARK SMILES IDX 55 46 57 47 59 48 56 49 78 50 79 51 84 52 80 53 81 54 83 55
REMARK SMILES IDX 85 56 82 57 66 58 67 59 72 60 68 61 69 62 71 63 73 64 70 65
REMARK SMILES IDX 9 66 10 67 11 68 12 70 13 71 37 72 38 73 42 74 39 75 41 76
REMARK SMILES IDX 40 77 14 78 15 79 16 81 17 82 36 83 18 84 35 85 19 86 20 87
REMARK SMILES IDX 21 88 22 89 23 90 24 92 25 93 26 94 34 95 27 96 33 97 28 100
REMARK SMILES IDX 32 101 29 102 31 103 30 104
REMARK H PARENT 3 9 90 27 64 38 10 69 14 80 22 91 34 98 34 99
REMARK Flexibility Score: inf
ROOT
ATOM      1  C   UNL A   1      38.208  21.765  25.532  1.00  0.00     0.021 C 
ENDROOT
BRANCH   1   2
ATOM      2  C   UNL A   1      39.042  20.487  25.389  1.00  0.00     0.002 C 
BRANCH   2   3
ATOM      3  C   UNL A   1      40.396  20.478  26.105  1.00  0.00     0.002 C 
BRANCH   3   4
ATOM      4  C   UNL A   1      41.176  19.166  26.043  1.00  0.00     0.021 C 
BRANCH   4   5
ATOM      5  C   UNL A   1      42.668  19.276  26.336  1.00  0.00     0.116 C 
BRANCH   5   6
ATOM      6  N   UNL A   1      43.500  18.911  25.202  1.00  0.00    -0.352 N 
ATOM      7  O   UNL A   1      44.891  19.251  23.456  1.00  0.00    -0.269 OA
ATOM      8  C   UNL A   1      44.359  19.694  24.470  1.00  0.00     0.251 C 
ATOM      9  H   UNL A   1      43.439  17.971  24.918  1.00  0.00     0.163 HD
BRANCH   8  10
ATOM     10  C   UNL A   1      44.625  21.087  24.892  1.00  0.00     0.039 A 
ATOM     11  C   UNL A   1      45.252  21.357  26.112  1.00  0.00     0.014 A 
ATOM     12  C   UNL A   1      44.249  22.137  24.050  1.00  0.00     0.014 A 
ATOM     13  C   UNL A   1      45.378  22.671  26.549  1.00  0.00     0.010 A 
ATOM     14  C   UNL A   1      44.455  23.460  24.453  1.00  0.00     0.010 A 
ATOM     15  C   UNL A   1      44.999  23.738  25.717  1.00  0.00    -0.014 A 
BRANCH  15  16
ATOM     16  C   UNL A   1      45.255  25.132  26.160  1.00  0.00     0.031 A 
ATOM     17  C   UNL A   1      44.166  25.970  26.769  1.00  0.00     0.074 A 
ATOM     18  C   UNL A   1      46.497  25.633  26.019  1.00  0.00     0.049 A 
ATOM     19  N   UNL A   1      44.228  27.201  27.211  1.00  0.00    -0.248 NA
ATOM     20  C   UNL A   1      42.837  25.353  26.897  1.00  0.00     0.031 C 
ATOM     21  C   UNL A   1      47.630  24.917  25.427  1.00  0.00     0.029 A 
ATOM     22  N   UNL A   1      47.021  26.850  26.369  1.00  0.00    -0.354 N 
ATOM     23  C   UNL A   1      42.948  27.514  27.653  1.00  0.00     0.074 A 
ATOM     24  C   UNL A   1      42.123  26.350  27.405  1.00  0.00     0.031 C 
ATOM     25  C   UNL A   1      48.723  25.692  25.491  1.00  0.00     0.029 A 
ATOM     26  C   UNL A   1      48.355  26.979  26.067  1.00  0.00     0.049 A 
ATOM     27  H   UNL A   1      46.492  27.563  26.795  1.00  0.00     0.167 HD
ATOM     28  C   UNL A   1      42.507  28.663  28.219  1.00  0.00     0.037 A 
ATOM     29  C   UNL A   1      49.188  28.025  26.217  1.00  0.00     0.037 A 
ATOM     30  C   UNL A   1      43.337  29.815  28.470  1.00  0.00     0.049 A 
ATOM     31  C   UNL A   1      48.663  29.295  26.819  1.00  0.00     0.074 A 
ATOM     32  C   UNL A   1      42.989  31.012  29.073  1.00  0.00     0.029 A 
ATOM     33  N   UNL A   1      44.677  29.915  28.129  1.00  0.00    -0.354 N 
ATOM     34  N   UNL A   1      47.460  29.559  27.268  1.00  0.00    -0.248 NA
ATOM     35  C   UNL A   1      49.608  30.412  26.931  1.00  0.00     0.031 C 
ATOM     36  C   UNL A   1      44.106  31.855  29.052  1.00  0.00     0.029 A 
ATOM     37  C   UNL A   1      45.164  31.163  28.486  1.00  0.00     0.049 A 
ATOM     38  H   UNL A   1      45.204  29.205  27.697  1.00  0.00     0.167 HD
ATOM     39  C   UNL A   1      47.509  30.864  27.736  1.00  0.00     0.074 A 
ATOM     40  C   UNL A   1      48.866  31.331  27.533  1.00  0.00     0.031 C 
ATOM     41  C   UNL A   1      46.518  31.611  28.281  1.00  0.00     0.037 A 
BRANCH  28  42
ATOM     42  C   UNL A   1      41.054  28.747  28.593  1.00  0.00     0.057 A 
ATOM     43  C   UNL A   1      40.065  29.068  27.655  1.00  0.00     0.134 A 
ATOM     44  C   UNL A   1      40.634  28.441  29.894  1.00  0.00     0.134 A 
ATOM     45  F   UNL A   1      40.399  29.380  26.394  1.00  0.00    -0.206 F 
ATOM     46  C   UNL A   1      38.712  29.095  28.000  1.00  0.00     0.040 A 
ATOM     47  C   UNL A   1      39.283  28.442  30.246  1.00  0.00     0.040 A 
ATOM     48  F   UNL A   1      41.528  28.116  30.840  1.00  0.00    -0.206 F 
ATOM     49  C   UNL A   1      38.318  28.774  29.298  1.00  0.00     0.006 A 
ENDBRANCH  28  42
BRANCH  29  50
ATOM     50  C   UNL A   1      50.601  27.913  25.778  1.00  0.00     0.057 A 
ATOM     51  C   UNL A   1      51.630  27.677  26.696  1.00  0.00     0.134 A 
ATOM     52  C   UNL A   1      50.955  28.035  24.428  1.00  0.00     0.134 A 
ATOM     53  F   UNL A   1      51.355  27.565  28.003  1.00  0.00    -0.206 F 
ATOM     54  C   UNL A   1      52.962  27.585  26.291  1.00  0.00     0.040 A 
ATOM     55  C   UNL A   1      52.279  27.917  24.006  1.00  0.00     0.040 A 
ATOM     56  F   UNL A   1      50.014  28.252  23.498  1.00  0.00    -0.206 F 
ATOM     57  C   UNL A   1      53.288  27.699  24.941  1.00  0.00     0.006 A 
ENDBRANCH  29  50
BRANCH  41  58
ATOM     58  C   UNL A   1      46.878  32.997  28.729  1.00  0.00     0.057 A 
ATOM     59  C   UNL A   1      47.363  33.256  30.017  1.00  0.00     0.134 A 
ATOM     60  C   UNL A   1      46.758  34.082  27.851  1.00  0.00     0.134 A 
ATOM     61  F   UNL A   1      47.485  32.262  30.910  1.00  0.00    -0.206 F 
ATOM     62  C   UNL A   1      47.694  34.549  30.423  1.00  0.00     0.040 A 
ATOM     63  C   UNL A   1      47.111  35.375  28.238  1.00  0.00     0.040 A 
ATOM     64  F   UNL A   1      46.305  33.901  26.601  1.00  0.00    -0.206 F 
ATOM     65  C   UNL A   1      47.574  35.612  29.530  1.00  0.00     0.006 A 
ENDBRANCH  41  58
ENDBRANCH  15  16
ENDBRANCH   8  10
ENDBRANCH   5   6
ENDBRANCH   4   5
ENDBRANCH   3   4
ENDBRANCH   2   3
ENDBRANCH   1   2
BRANCH   1  66
ATOM     66  C   UNL A   1      36.732  21.645  25.166  1.00  0.00     0.116 C 
BRANCH  66  67
ATOM     67  N   UNL A   1      35.873  21.518  26.325  1.00  0.00    -0.354 N 
ATOM     68  C   UNL A   1      34.551  21.179  26.394  1.00  0.00     0.247 C 
ATOM     69  H   UNL A   1      36.304  21.704  27.191  1.00  0.00     0.163 HD
ATOM     70  O   UNL A   1      34.088  21.005  27.528  1.00  0.00    -0.272 OA
BRANCH  68  71
ATOM     71  C   UNL A   1      33.648  21.080  25.121  1.00  0.00     0.202 C 
BRANCH  71  72
ATOM     72  C   UNL A   1      33.605  19.682  24.528  1.00  0.00    -0.016 A 
ATOM     73  C   UNL A   1      34.634  18.759  24.784  1.00  0.00     0.006 A 
ATOM     74  C   UNL A   1      32.555  19.301  23.676  1.00  0.00     0.006 A 
ATOM     75  C   UNL A   1      34.637  17.510  24.163  1.00  0.00     0.000 A 
ATOM     76  C   UNL A   1      32.564  18.052  23.053  1.00  0.00     0.000 A 
ATOM     77  C   UNL A   1      33.609  17.161  23.290  1.00  0.00     0.000 A 
ENDBRANCH  71  72
BRANCH  71  78
ATOM     78  N   UNL A   1      32.296  21.467  25.528  1.00  0.00    -0.340 N 
ATOM     79  C   UNL A   1      31.480  22.485  25.177  1.00  0.00     0.224 C 
ATOM     80  H   UNL A   1      31.900  20.862  26.195  1.00  0.00     0.164 HD
ATOM     81  O   UNL A   1      30.359  22.513  25.692  1.00  0.00    -0.275 OA
BRANCH  79  82
ATOM     82  C   UNL A   1      31.907  23.534  24.155  1.00  0.00     0.078 C 
ATOM     83  C   UNL A   1      30.670  24.039  23.399  1.00  0.00     0.014 C 
ATOM     84  C   UNL A   1      32.643  24.669  24.897  1.00  0.00     0.014 C 
ATOM     85  C   UNL A   1      30.945  25.299  22.576  1.00  0.00     0.006 C 
ATOM     86  C   UNL A   1      32.867  25.911  24.040  1.00  0.00     0.006 C 
ATOM     87  C   UNL A   1      31.566  26.431  23.409  1.00  0.00     0.008 C 
BRANCH  87  88
ATOM     88  C   UNL A   1      30.556  26.981  24.440  1.00  0.00     0.119 C 
BRANCH  88  89
ATOM     89  N   UNL A   1      29.827  28.132  23.937  1.00  0.00    -0.351 N 
ATOM     90  C   UNL A   1      30.130  29.460  23.973  1.00  0.00     0.278 C 
ATOM     91  H   UNL A   1      28.973  27.917  23.496  1.00  0.00     0.163 HD
ATOM     92  O   UNL A   1      29.400  30.235  23.344  1.00  0.00    -0.268 OA
BRANCH  90  93
ATOM     93  C   UNL A   1      31.362  29.978  24.732  1.00  0.00     0.277 C 
ATOM     94  C   UNL A   1      31.785  28.914  25.762  1.00  0.00     0.111 C 
ATOM     95  N   UNL A   1      31.048  31.326  25.282  1.00  0.00    -0.332 N 
ATOM     96  C   UNL A   1      32.923  29.468  26.577  1.00  0.00    -0.033 A 
ATOM     97  C   UNL A   1      31.545  31.551  26.646  1.00  0.00     0.298 C 
ATOM     98  H   UNL A   1      30.035  31.441  25.288  1.00  0.00     0.347 HD
ATOM     99  H   UNL A   1      31.519  32.004  24.683  1.00  0.00     0.347 HD
ATOM    100  C   UNL A   1      34.039  28.709  26.933  1.00  0.00     0.004 A 
ATOM    101  C   UNL A   1      32.818  30.811  26.977  1.00  0.00     0.010 A 
ATOM    102  C   UNL A   1      35.063  29.297  27.676  1.00  0.00     0.000 A 
ATOM    103  C   UNL A   1      33.842  31.388  27.733  1.00  0.00     0.010 A 
ATOM    104  C   UNL A   1      34.966  30.632  28.072  1.00  0.00     0.001 A 
ENDBRANCH  90  93
ENDBRANCH  88  89
ENDBRANCH  87  88
ENDBRANCH  79  82
ENDBRANCH  71  78
ENDBRANCH  68  71
ENDBRANCH  66  67
ENDBRANCH   1  66
TORSDOF 19
ENDMDL
