MODEL 1
REMARK VINA RESULT:     -10.3      0.000      0.000
REMARK SMILES CC(C)[C@H](C)N(C)C(=O)N1CC[C@@H](C(=O)NCCCCCCNC(=O)c2ccc(-c3c4nc(c(-c5c(F)cccc5F)c5ccc([nH]5)c(-c5c(F)cccc5F)c5nc(c(-c6c(F)cccc6F)c6ccc3[nH]6)C=C5)C=C4)cc2)[C@@H]1C
REMARK SMILES IDX 18 1 17 2 16 3 14 4 15 5 13 7 10 8 11 9 80 10 12 11 81 12
REMARK SMILES IDX 8 13 9 14 6 15 7 16 4 17 5 18 2 19 1 20 3 21 19 22 20 23
REMARK SMILES IDX 21 24 22 25 23 26 24 27 25 29 26 30 27 31 79 32 28 33 78 34
REMARK SMILES IDX 29 35 30 36 31 37 72 38 32 39 77 40 71 41 73 42 33 43 76 44
REMARK SMILES IDX 70 45 69 46 34 48 60 49 43 50 59 51 44 52 47 53 58 54 74 55
REMARK SMILES IDX 45 56 46 57 57 59 75 60 48 61 35 62 36 63 41 64 37 65 38 66
REMARK SMILES IDX 40 67 42 68 39 69 61 70 62 71 67 72 63 73 64 74 66 75 68 76
REMARK SMILES IDX 65 77 49 78 50 79 55 80 51 81 52 82 54 83 56 84 53 85
REMARK H PARENT 16 6 23 28 73 47 47 58
REMARK Flexibility Score: inf
ROOT
ATOM      1  C   UNL A   1      34.803  31.204  28.123  1.00  0.00     0.021 C 
ENDROOT
BRANCH   1   2
ATOM      2  C   UNL A   1      33.773  30.707  27.110  1.00  0.00     0.116 C 
BRANCH   2   3
ATOM      3  N   UNL A   1      33.057  29.550  27.613  1.00  0.00    -0.356 N 
ATOM      4  C   UNL A   1      32.352  28.581  26.972  1.00  0.00     0.225 C 
ATOM      5  O   UNL A   1      31.800  27.730  27.675  1.00  0.00    -0.275 OA
ATOM      6  H   UNL A   1      33.087  29.449  28.592  1.00  0.00     0.163 HD
BRANCH   4   7
ATOM      7  C   UNL A   1      32.233  28.501  25.457  1.00  0.00     0.102 C 
ATOM      8  N   UNL A   1      32.822  26.806  23.873  1.00  0.00    -0.321 N 
ATOM      9  C   UNL A   1      31.414  27.120  23.681  1.00  0.00     0.122 C 
ATOM     10  C   UNL A   1      33.427  27.807  24.765  1.00  0.00     0.096 C 
ATOM     11  C   UNL A   1      30.979  27.771  24.977  1.00  0.00     0.037 C 
ATOM     12  C   UNL A   1      34.243  28.821  23.958  1.00  0.00     0.032 C 
BRANCH   8  13
ATOM     13  C   UNL A   1      33.381  25.868  23.034  1.00  0.00     0.320 C 
ATOM     14  O   UNL A   1      33.708  26.223  21.896  1.00  0.00    -0.248 OA
BRANCH  13  15
ATOM     15  N   UNL A   1      33.492  24.540  23.421  1.00  0.00    -0.325 N 
ATOM     16  C   UNL A   1      32.572  23.480  23.075  1.00  0.00     0.149 C 
BRANCH  15  17
ATOM     17  C   UNL A   1      34.702  24.119  24.184  1.00  0.00     0.086 C 
ATOM     18  C   UNL A   1      34.492  24.281  25.703  1.00  0.00     0.031 C 
BRANCH  17  19
ATOM     19  C   UNL A   1      35.264  22.758  23.680  1.00  0.00     0.005 C 
ATOM     20  C   UNL A   1      36.684  22.960  23.122  1.00  0.00     0.009 C 
ATOM     21  C   UNL A   1      35.327  21.689  24.776  1.00  0.00     0.009 C 
ENDBRANCH  17  19
ENDBRANCH  15  17
ENDBRANCH  13  15
ENDBRANCH   8  13
ENDBRANCH   4   7
ENDBRANCH   2   3
ENDBRANCH   1   2
BRANCH   1  22
ATOM     22  C   UNL A   1      34.336  32.357  29.012  1.00  0.00     0.002 C 
BRANCH  22  23
ATOM     23  C   UNL A   1      34.265  33.724  28.324  1.00  0.00     0.002 C 
BRANCH  23  24
ATOM     24  C   UNL A   1      33.017  34.561  28.627  1.00  0.00     0.021 C 
BRANCH  24  25
ATOM     25  C   UNL A   1      33.278  35.940  29.227  1.00  0.00     0.116 C 
BRANCH  25  26
ATOM     26  N   UNL A   1      32.514  36.169  30.440  1.00  0.00    -0.352 N 
ATOM     27  C   UNL A   1      32.707  35.674  31.703  1.00  0.00     0.251 C 
ATOM     28  H   UNL A   1      31.741  36.771  30.340  1.00  0.00     0.163 HD
ATOM     29  O   UNL A   1      31.848  35.848  32.566  1.00  0.00    -0.269 OA
BRANCH  27  30
ATOM     30  C   UNL A   1      33.934  34.920  32.039  1.00  0.00     0.039 A 
ATOM     31  C   UNL A   1      33.806  33.620  32.539  1.00  0.00     0.014 A 
ATOM     32  C   UNL A   1      35.202  35.498  31.917  1.00  0.00     0.014 A 
ATOM     33  C   UNL A   1      34.947  32.889  32.881  1.00  0.00     0.010 A 
ATOM     34  C   UNL A   1      36.341  34.747  32.198  1.00  0.00     0.010 A 
ATOM     35  C   UNL A   1      36.224  33.441  32.700  1.00  0.00    -0.014 A 
BRANCH  35  36
ATOM     36  C   UNL A   1      37.444  32.680  33.067  1.00  0.00     0.031 A 
ATOM     37  C   UNL A   1      38.157  32.976  34.358  1.00  0.00     0.074 A 
ATOM     38  C   UNL A   1      37.937  31.752  32.223  1.00  0.00     0.049 A 
ATOM     39  N   UNL A   1      39.263  32.459  34.832  1.00  0.00    -0.248 NA
ATOM     40  C   UNL A   1      37.562  34.009  35.219  1.00  0.00     0.031 C 
ATOM     41  C   UNL A   1      37.362  31.398  30.926  1.00  0.00     0.029 A 
ATOM     42  N   UNL A   1      39.039  30.943  32.332  1.00  0.00    -0.354 N 
ATOM     43  C   UNL A   1      39.503  33.115  36.033  1.00  0.00     0.074 A 
ATOM     44  C   UNL A   1      38.456  34.101  36.191  1.00  0.00     0.031 C 
ATOM     45  C   UNL A   1      38.105  30.428  30.368  1.00  0.00     0.029 A 
ATOM     46  C   UNL A   1      39.221  30.112  31.254  1.00  0.00     0.049 A 
ATOM     47  H   UNL A   1      39.643  30.956  33.110  1.00  0.00     0.167 HD
ATOM     48  C   UNL A   1      40.491  32.900  36.933  1.00  0.00     0.037 A 
ATOM     49  C   UNL A   1      40.180  29.200  31.008  1.00  0.00     0.037 A 
ATOM     50  C   UNL A   1      41.514  31.899  36.791  1.00  0.00     0.049 A 
ATOM     51  C   UNL A   1      41.258  28.970  32.030  1.00  0.00     0.074 A 
ATOM     52  C   UNL A   1      42.533  31.573  37.670  1.00  0.00     0.029 A 
ATOM     53  N   UNL A   1      41.645  31.056  35.698  1.00  0.00    -0.354 N 
ATOM     54  N   UNL A   1      41.442  29.560  33.186  1.00  0.00    -0.248 NA
ATOM     55  C   UNL A   1      42.254  27.934  31.719  1.00  0.00     0.031 C 
ATOM     56  C   UNL A   1      43.299  30.553  37.095  1.00  0.00     0.029 A 
ATOM     57  C   UNL A   1      42.733  30.216  35.876  1.00  0.00     0.049 A 
ATOM     58  H   UNL A   1      41.053  31.055  34.912  1.00  0.00     0.167 HD
ATOM     59  C   UNL A   1      42.553  28.948  33.753  1.00  0.00     0.074 A 
ATOM     60  C   UNL A   1      42.994  27.934  32.818  1.00  0.00     0.031 C 
ATOM     61  C   UNL A   1      43.150  29.201  34.943  1.00  0.00     0.037 A 
BRANCH  48  62
ATOM     62  C   UNL A   1      40.508  33.770  38.158  1.00  0.00     0.057 A 
ATOM     63  C   UNL A   1      41.271  34.944  38.218  1.00  0.00     0.134 A 
ATOM     64  C   UNL A   1      39.738  33.443  39.280  1.00  0.00     0.134 A 
ATOM     65  F   UNL A   1      42.042  35.307  37.181  1.00  0.00    -0.206 F 
ATOM     66  C   UNL A   1      41.293  35.743  39.362  1.00  0.00     0.040 A 
ATOM     67  C   UNL A   1      39.730  34.249  40.420  1.00  0.00     0.040 A 
ATOM     68  F   UNL A   1      38.979  32.336  39.288  1.00  0.00    -0.206 F 
ATOM     69  C   UNL A   1      40.515  35.399  40.465  1.00  0.00     0.006 A 
ENDBRANCH  48  62
BRANCH  49  70
ATOM     70  C   UNL A   1      40.142  28.405  29.756  1.00  0.00     0.057 A 
ATOM     71  C   UNL A   1      39.387  27.230  29.673  1.00  0.00     0.134 A 
ATOM     72  C   UNL A   1      40.859  28.794  28.619  1.00  0.00     0.134 A 
ATOM     73  F   UNL A   1      38.693  26.797  30.735  1.00  0.00    -0.206 F 
ATOM     74  C   UNL A   1      39.358  26.460  28.509  1.00  0.00     0.040 A 
ATOM     75  C   UNL A   1      40.822  28.047  27.441  1.00  0.00     0.040 A 
ATOM     76  F   UNL A   1      41.595  29.915  28.633  1.00  0.00    -0.206 F 
ATOM     77  C   UNL A   1      40.075  26.871  27.387  1.00  0.00     0.006 A 
ENDBRANCH  49  70
BRANCH  61  78
ATOM     78  C   UNL A   1      44.314  28.335  35.323  1.00  0.00     0.057 A 
ATOM     79  C   UNL A   1      45.632  28.679  34.997  1.00  0.00     0.134 A 
ATOM     80  C   UNL A   1      44.112  27.156  36.051  1.00  0.00     0.134 A 
ATOM     81  F   UNL A   1      45.890  29.789  34.289  1.00  0.00    -0.206 F 
ATOM     82  C   UNL A   1      46.707  27.868  35.363  1.00  0.00     0.040 A 
ATOM     83  C   UNL A   1      45.181  26.349  36.444  1.00  0.00     0.040 A 
ATOM     84  F   UNL A   1      42.875  26.774  36.402  1.00  0.00    -0.206 F 
ATOM     85  C   UNL A   1      46.483  26.701  36.094  1.00  0.00     0.006 A 
ENDBRANCH  61  78
ENDBRANCH  35  36
ENDBRANCH  27  30
ENDBRANCH  25  26
ENDBRANCH  24  25
ENDBRANCH  23  24
ENDBRANCH  22  23
ENDBRANCH   1  22
TORSDOF 17
ENDMDL
MODEL 2
REMARK VINA RESULT:     -10.2      4.328      6.263
REMARK SMILES CC(C)[C@H](C)N(C)C(=O)N1CC[C@@H](C(=O)NCCCCCCNC(=O)c2ccc(-c3c4nc(c(-c5c(F)cccc5F)c5ccc([nH]5)c(-c5c(F)cccc5F)c5nc(c(-c6c(F)cccc6F)c6ccc3[nH]6)C=C5)C=C4)cc2)[C@@H]1C
REMARK SMILES IDX 18 1 17 2 16 3 14 4 15 5 13 7 10 8 11 9 80 10 12 11 81 12
REMARK SMILES IDX 8 13 9 14 6 15 7 16 4 17 5 18 2 19 1 20 3 21 19 22 20 23
REMARK SMILES IDX 21 24 22 25 23 26 24 27 25 29 26 30 27 31 79 32 28 33 78 34
REMARK SMILES IDX 29 35 30 36 31 37 72 38 32 39 77 40 71 41 73 42 33 43 76 44
REMARK SMILES IDX 70 45 69 46 34 48 60 49 43 50 59 51 44 52 47 53 58 54 74 55
REMARK SMILES IDX 45 56 46 57 57 59 75 60 48 61 35 62 36 63 41 64 37 65 38 66
REMARK SMILES IDX 40 67 42 68 39 69 61 70 62 71 67 72 63 73 64 74 66 75 68 76
REMARK SMILES IDX 65 77 49 78 50 79 55 80 51 81 52 82 54 83 56 84 53 85
REMARK H PARENT 16 6 23 28 73 47 47 58
REMARK Flexibility Score: inf
ROOT
ATOM      1  C   UNL A   1      30.738  29.215  23.296  1.00  0.00     0.021 C 
ENDROOT
BRANCH   1   2
ATOM      2  C   UNL A   1      30.616  27.891  22.544  1.00  0.00     0.116 C 
BRANCH   2   3
ATOM      3  N   UNL A   1      31.895  27.476  22.000  1.00  0.00    -0.356 N 
ATOM      4  C   UNL A   1      32.600  26.323  22.144  1.00  0.00     0.225 C 
ATOM      5  O   UNL A   1      33.703  26.268  21.591  1.00  0.00    -0.275 OA
ATOM      6  H   UNL A   1      32.329  28.149  21.427  1.00  0.00     0.163 HD
BRANCH   4   7
ATOM      7  C   UNL A   1      32.088  25.124  22.928  1.00  0.00     0.102 C 
ATOM      8  N   UNL A   1      33.077  23.756  24.625  1.00  0.00    -0.321 N 
ATOM      9  C   UNL A   1      31.823  24.274  25.150  1.00  0.00     0.122 C 
ATOM     10  C   UNL A   1      33.152  24.033  23.182  1.00  0.00     0.096 C 
ATOM     11  C   UNL A   1      31.512  25.486  24.296  1.00  0.00     0.037 C 
ATOM     12  C   UNL A   1      32.831  22.773  22.375  1.00  0.00     0.032 C 
BRANCH   8  13
ATOM     13  C   UNL A   1      33.800  22.909  25.435  1.00  0.00     0.320 C 
ATOM     14  O   UNL A   1      33.192  22.255  26.289  1.00  0.00    -0.248 OA
BRANCH  13  15
ATOM     15  N   UNL A   1      35.184  22.857  25.356  1.00  0.00    -0.325 N 
ATOM     16  C   UNL A   1      36.106  23.606  26.182  1.00  0.00     0.149 C 
BRANCH  15  17
ATOM     17  C   UNL A   1      35.809  21.887  24.411  1.00  0.00     0.086 C 
ATOM     18  C   UNL A   1      36.752  22.597  23.419  1.00  0.00     0.031 C 
BRANCH  17  19
ATOM     19  C   UNL A   1      36.359  20.630  25.147  1.00  0.00     0.005 C 
ATOM     20  C   UNL A   1      35.473  19.413  24.822  1.00  0.00     0.009 C 
ATOM     21  C   UNL A   1      37.802  20.289  24.761  1.00  0.00     0.009 C 
ENDBRANCH  17  19
ENDBRANCH  15  17
ENDBRANCH  13  15
ENDBRANCH   8  13
ENDBRANCH   4   7
ENDBRANCH   2   3
ENDBRANCH   1   2
BRANCH   1  22
ATOM     22  C   UNL A   1      31.317  29.110  24.707  1.00  0.00     0.002 C 
BRANCH  22  23
ATOM     23  C   UNL A   1      32.820  29.385  24.818  1.00  0.00     0.002 C 
BRANCH  23  24
ATOM     24  C   UNL A   1      33.659  28.268  25.448  1.00  0.00     0.021 C 
BRANCH  24  25
ATOM     25  C   UNL A   1      33.877  28.378  26.954  1.00  0.00     0.116 C 
BRANCH  25  26
ATOM     26  N   UNL A   1      33.726  29.738  27.438  1.00  0.00    -0.352 N 
ATOM     27  C   UNL A   1      34.606  30.521  28.137  1.00  0.00     0.251 C 
ATOM     28  H   UNL A   1      32.860  30.160  27.235  1.00  0.00     0.163 HD
ATOM     29  O   UNL A   1      34.228  31.593  28.611  1.00  0.00    -0.269 OA
BRANCH  27  30
ATOM     30  C   UNL A   1      36.005  30.089  28.340  1.00  0.00     0.039 A 
ATOM     31  C   UNL A   1      36.372  29.566  29.584  1.00  0.00     0.014 A 
ATOM     32  C   UNL A   1      36.968  30.242  27.337  1.00  0.00     0.014 A 
ATOM     33  C   UNL A   1      37.691  29.166  29.811  1.00  0.00     0.010 A 
ATOM     34  C   UNL A   1      38.268  29.784  27.543  1.00  0.00     0.010 A 
ATOM     35  C   UNL A   1      38.646  29.257  28.787  1.00  0.00    -0.014 A 
BRANCH  35  36
ATOM     36  C   UNL A   1      40.053  28.843  29.017  1.00  0.00     0.031 A 
ATOM     37  C   UNL A   1      41.017  29.785  29.684  1.00  0.00     0.074 A 
ATOM     38  C   UNL A   1      40.477  27.638  28.588  1.00  0.00     0.049 A 
ATOM     39  N   UNL A   1      42.295  29.631  29.926  1.00  0.00    -0.248 NA
ATOM     40  C   UNL A   1      40.479  31.085  30.112  1.00  0.00     0.031 C 
ATOM     41  C   UNL A   1      39.653  26.648  27.894  1.00  0.00     0.029 A 
ATOM     42  N   UNL A   1      41.712  27.046  28.670  1.00  0.00    -0.354 N 
ATOM     43  C   UNL A   1      42.714  30.816  30.517  1.00  0.00     0.074 A 
ATOM     44  C   UNL A   1      41.568  31.699  30.551  1.00  0.00     0.031 C 
ATOM     45  C   UNL A   1      40.399  25.563  27.632  1.00  0.00     0.029 A 
ATOM     46  C   UNL A   1      41.759  25.791  28.113  1.00  0.00     0.049 A 
ATOM     47  H   UNL A   1      42.491  27.479  29.088  1.00  0.00     0.167 HD
ATOM     48  C   UNL A   1      43.936  31.133  31.007  1.00  0.00     0.037 A 
ATOM     49  C   UNL A   1      42.782  24.924  28.003  1.00  0.00     0.037 A 
ATOM     50  C   UNL A   1      45.068  30.244  31.000  1.00  0.00     0.049 A 
ATOM     51  C   UNL A   1      44.126  25.293  28.569  1.00  0.00     0.074 A 
ATOM     52  C   UNL A   1      46.336  30.456  31.515  1.00  0.00     0.029 A 
ATOM     53  N   UNL A   1      45.065  28.970  30.455  1.00  0.00    -0.354 N 
ATOM     54  N   UNL A   1      44.494  26.397  29.173  1.00  0.00    -0.248 NA
ATOM     55  C   UNL A   1      45.192  24.288  28.450  1.00  0.00     0.031 C 
ATOM     56  C   UNL A   1      47.110  29.320  31.253  1.00  0.00     0.029 A 
ATOM     57  C   UNL A   1      46.312  28.386  30.612  1.00  0.00     0.049 A 
ATOM     58  H   UNL A   1      44.292  28.543  30.021  1.00  0.00     0.167 HD
ATOM     59  C   UNL A   1      45.822  26.207  29.534  1.00  0.00     0.074 A 
ATOM     60  C   UNL A   1      46.191  24.880  29.089  1.00  0.00     0.031 C 
ATOM     61  C   UNL A   1      46.659  27.057  30.179  1.00  0.00     0.037 A 
BRANCH  48  62
ATOM     62  C   UNL A   1      44.107  32.504  31.595  1.00  0.00     0.057 A 
ATOM     63  C   UNL A   1      44.510  33.596  30.814  1.00  0.00     0.134 A 
ATOM     64  C   UNL A   1      43.848  32.740  32.950  1.00  0.00     0.134 A 
ATOM     65  F   UNL A   1      44.787  33.435  29.511  1.00  0.00    -0.206 F 
ATOM     66  C   UNL A   1      44.678  34.867  31.367  1.00  0.00     0.040 A 
ATOM     67  C   UNL A   1      43.987  34.012  33.509  1.00  0.00     0.040 A 
ATOM     68  F   UNL A   1      43.453  31.741  33.754  1.00  0.00    -0.206 F 
ATOM     69  C   UNL A   1      44.411  35.078  32.718  1.00  0.00     0.006 A 
ENDBRANCH  48  62
BRANCH  49  70
ATOM     70  C   UNL A   1      42.568  23.602  27.365  1.00  0.00     0.057 A 
ATOM     71  C   UNL A   1      42.182  22.491  28.124  1.00  0.00     0.134 A 
ATOM     72  C   UNL A   1      42.746  23.415  25.990  1.00  0.00     0.134 A 
ATOM     73  F   UNL A   1      42.013  22.605  29.449  1.00  0.00    -0.206 F 
ATOM     74  C   UNL A   1      41.997  21.237  27.542  1.00  0.00     0.040 A 
ATOM     75  C   UNL A   1      42.543  22.171  25.390  1.00  0.00     0.040 A 
ATOM     76  F   UNL A   1      43.108  24.443  25.208  1.00  0.00    -0.206 F 
ATOM     77  C   UNL A   1      42.174  21.076  26.169  1.00  0.00     0.006 A 
ENDBRANCH  49  70
BRANCH  61  78
ATOM     78  C   UNL A   1      48.039  26.557  30.486  1.00  0.00     0.057 A 
ATOM     79  C   UNL A   1      48.321  25.817  31.641  1.00  0.00     0.134 A 
ATOM     80  C   UNL A   1      49.093  26.796  29.595  1.00  0.00     0.134 A 
ATOM     81  F   UNL A   1      47.357  25.566  32.540  1.00  0.00    -0.206 F 
ATOM     82  C   UNL A   1      49.608  25.351  31.911  1.00  0.00     0.040 A 
ATOM     83  C   UNL A   1      50.380  26.314  29.841  1.00  0.00     0.040 A 
ATOM     84  F   UNL A   1      48.889  27.491  28.467  1.00  0.00    -0.206 F 
ATOM     85  C   UNL A   1      50.641  25.595  31.006  1.00  0.00     0.006 A 
ENDBRANCH  61  78
ENDBRANCH  35  36
ENDBRANCH  27  30
ENDBRANCH  25  26
ENDBRANCH  24  25
ENDBRANCH  23  24
ENDBRANCH  22  23
ENDBRANCH   1  22
TORSDOF 17
ENDMDL
MODEL 3
REMARK VINA RESULT:     -10.1      6.395     11.807
REMARK SMILES CC(C)[C@H](C)N(C)C(=O)N1CC[C@@H](C(=O)NCCCCCCNC(=O)c2ccc(-c3c4nc(c(-c5c(F)cccc5F)c5ccc([nH]5)c(-c5c(F)cccc5F)c5nc(c(-c6c(F)cccc6F)c6ccc3[nH]6)C=C5)C=C4)cc2)[C@@H]1C
REMARK SMILES IDX 18 1 17 2 16 3 14 4 15 5 13 7 10 8 11 9 80 10 12 11 81 12
REMARK SMILES IDX 8 13 9 14 6 15 7 16 4 17 5 18 2 19 1 20 3 21 19 22 20 23
REMARK SMILES IDX 21 24 22 25 23 26 24 27 25 29 26 30 27 31 79 32 28 33 78 34
REMARK SMILES IDX 29 35 30 36 31 37 72 38 32 39 77 40 71 41 73 42 33 43 76 44
REMARK SMILES IDX 70 45 69 46 34 48 60 49 43 50 59 51 44 52 47 53 58 54 74 55
REMARK SMILES IDX 45 56 46 57 57 59 75 60 48 61 35 62 36 63 41 64 37 65 38 66
REMARK SMILES IDX 40 67 42 68 39 69 61 70 62 71 67 72 63 73 64 74 66 75 68 76
REMARK SMILES IDX 65 77 49 78 50 79 55 80 51 81 52 82 54 83 56 84 53 85
REMARK H PARENT 16 6 23 28 73 47 47 58
REMARK Flexibility Score: inf
ROOT
ATOM      1  C   UNL A   1      39.265  22.946  26.516  1.00  0.00     0.021 C 
ENDROOT
BRANCH   1   2
ATOM      2  C   UNL A   1      37.906  23.499  26.091  1.00  0.00     0.116 C 
BRANCH   2   3
ATOM      3  N   UNL A   1      37.681  23.304  24.671  1.00  0.00    -0.356 N 
ATOM      4  C   UNL A   1      36.535  23.157  23.955  1.00  0.00     0.225 C 
ATOM      5  O   UNL A   1      36.653  22.956  22.743  1.00  0.00    -0.275 OA
ATOM      6  H   UNL A   1      38.504  23.271  24.131  1.00  0.00     0.163 HD
BRANCH   4   7
ATOM      7  C   UNL A   1      35.148  23.244  24.574  1.00  0.00     0.102 C 
ATOM      8  N   UNL A   1      33.040  23.996  23.727  1.00  0.00    -0.321 N 
ATOM      9  C   UNL A   1      32.860  22.637  24.214  1.00  0.00     0.122 C 
ATOM     10  C   UNL A   1      34.350  24.502  24.164  1.00  0.00     0.096 C 
ATOM     11  C   UNL A   1      34.255  22.047  24.250  1.00  0.00     0.037 C 
ATOM     12  C   UNL A   1      34.190  25.447  25.358  1.00  0.00     0.032 C 
BRANCH   8  13
ATOM     13  C   UNL A   1      31.931  24.638  23.222  1.00  0.00     0.320 C 
ATOM     14  O   UNL A   1      30.816  24.172  23.482  1.00  0.00    -0.248 OA
BRANCH  13  15
ATOM     15  N   UNL A   1      32.064  25.726  22.371  1.00  0.00    -0.325 N 
ATOM     16  C   UNL A   1      32.263  25.659  20.940  1.00  0.00     0.149 C 
BRANCH  15  17
ATOM     17  C   UNL A   1      31.901  27.096  22.935  1.00  0.00     0.086 C 
ATOM     18  C   UNL A   1      33.188  27.929  22.767  1.00  0.00     0.031 C 
BRANCH  17  19
ATOM     19  C   UNL A   1      30.561  27.753  22.491  1.00  0.00     0.005 C 
ATOM     20  C   UNL A   1      29.453  27.396  23.498  1.00  0.00     0.009 C 
ATOM     21  C   UNL A   1      30.643  29.280  22.390  1.00  0.00     0.009 C 
ENDBRANCH  17  19
ENDBRANCH  15  17
ENDBRANCH  13  15
ENDBRANCH   8  13
ENDBRANCH   4   7
ENDBRANCH   2   3
ENDBRANCH   1   2
BRANCH   1  22
ATOM     22  C   UNL A   1      39.527  21.492  26.125  1.00  0.00     0.002 C 
BRANCH  22  23
ATOM     23  C   UNL A   1      40.906  20.949  26.514  1.00  0.00     0.002 C 
BRANCH  23  24
ATOM     24  C   UNL A   1      41.190  19.497  26.114  1.00  0.00     0.021 C 
BRANCH  24  25
ATOM     25  C   UNL A   1      42.568  18.965  26.498  1.00  0.00     0.116 C 
BRANCH  25  26
ATOM     26  N   UNL A   1      43.403  18.704  25.339  1.00  0.00    -0.352 N 
ATOM     27  C   UNL A   1      44.154  19.569  24.588  1.00  0.00     0.251 C 
ATOM     28  H   UNL A   1      43.433  17.763  25.049  1.00  0.00     0.163 HD
ATOM     29  O   UNL A   1      44.659  19.184  23.534  1.00  0.00    -0.269 OA
BRANCH  27  30
ATOM     30  C   UNL A   1      44.355  20.967  25.024  1.00  0.00     0.039 A 
ATOM     31  C   UNL A   1      43.770  21.994  24.276  1.00  0.00     0.014 A 
ATOM     32  C   UNL A   1      45.157  21.279  26.128  1.00  0.00     0.014 A 
ATOM     33  C   UNL A   1      43.957  23.326  24.653  1.00  0.00     0.010 A 
ATOM     34  C   UNL A   1      45.291  22.603  26.540  1.00  0.00     0.010 A 
ATOM     35  C   UNL A   1      44.707  23.640  25.797  1.00  0.00    -0.014 A 
BRANCH  35  36
ATOM     36  C   UNL A   1      44.921  25.052  26.205  1.00  0.00     0.031 A 
ATOM     37  C   UNL A   1      46.287  25.671  26.088  1.00  0.00     0.074 A 
ATOM     38  C   UNL A   1      43.901  25.764  26.721  1.00  0.00     0.049 A 
ATOM     39  N   UNL A   1      46.687  26.868  26.438  1.00  0.00    -0.248 NA
ATOM     40  C   UNL A   1      47.349  24.824  25.525  1.00  0.00     0.031 C 
ATOM     41  C   UNL A   1      42.539  25.269  26.923  1.00  0.00     0.029 A 
ATOM     42  N   UNL A   1      43.856  27.058  27.174  1.00  0.00    -0.354 N 
ATOM     43  C   UNL A   1      48.047  26.909  26.155  1.00  0.00     0.074 A 
ATOM     44  C   UNL A   1      48.413  25.603  25.651  1.00  0.00     0.031 C 
ATOM     45  C   UNL A   1      41.787  26.254  27.441  1.00  0.00     0.029 A 
ATOM     46  C   UNL A   1      42.618  27.438  27.633  1.00  0.00     0.049 A 
ATOM     47  H   UNL A   1      44.637  27.658  27.172  1.00  0.00     0.167 HD
ATOM     48  C   UNL A   1      48.908  27.947  26.282  1.00  0.00     0.037 A 
ATOM     49  C   UNL A   1      42.202  28.609  28.150  1.00  0.00     0.037 A 
ATOM     50  C   UNL A   1      48.538  29.254  26.754  1.00  0.00     0.049 A 
ATOM     51  C   UNL A   1      43.173  29.751  28.266  1.00  0.00     0.074 A 
ATOM     52  C   UNL A   1      49.328  30.385  26.875  1.00  0.00     0.029 A 
ATOM     53  N   UNL A   1      47.266  29.607  27.179  1.00  0.00    -0.354 N 
ATOM     54  N   UNL A   1      44.443  29.792  27.945  1.00  0.00    -0.248 NA
ATOM     55  C   UNL A   1      42.647  31.014  28.804  1.00  0.00     0.031 C 
ATOM     56  C   UNL A   1      48.540  31.415  27.402  1.00  0.00     0.029 A 
ATOM     57  C   UNL A   1      47.251  30.936  27.571  1.00  0.00     0.049 A 
ATOM     58  H   UNL A   1      46.489  29.004  27.199  1.00  0.00     0.167 HD
ATOM     59  C   UNL A   1      44.860  31.090  28.211  1.00  0.00     0.074 A 
ATOM     60  C   UNL A   1      43.706  31.807  28.711  1.00  0.00     0.031 C 
ATOM     61  C   UNL A   1      46.090  31.640  28.051  1.00  0.00     0.037 A 
BRANCH  48  62
ATOM     62  C   UNL A   1      50.340  27.703  25.898  1.00  0.00     0.057 A 
ATOM     63  C   UNL A   1      51.323  27.427  26.858  1.00  0.00     0.134 A 
ATOM     64  C   UNL A   1      50.736  27.727  24.556  1.00  0.00     0.134 A 
ATOM     65  F   UNL A   1      51.011  27.403  28.163  1.00  0.00    -0.206 F 
ATOM     66  C   UNL A   1      52.654  27.212  26.499  1.00  0.00     0.040 A 
ATOM     67  C   UNL A   1      52.060  27.487  24.182  1.00  0.00     0.040 A 
ATOM     68  F   UNL A   1      49.845  27.980  23.586  1.00  0.00    -0.206 F 
ATOM     69  C   UNL A   1      53.024  27.237  25.156  1.00  0.00     0.006 A 
ENDBRANCH  48  62
BRANCH  49  70
ATOM     70  C   UNL A   1      40.786  28.776  28.561  1.00  0.00     0.057 A 
ATOM     71  C   UNL A   1      39.803  29.126  27.628  1.00  0.00     0.134 A 
ATOM     72  C   UNL A   1      40.382  28.596  29.888  1.00  0.00     0.134 A 
ATOM     73  F   UNL A   1      40.133  29.329  26.344  1.00  0.00    -0.206 F 
ATOM     74  C   UNL A   1      38.471  29.307  28.002  1.00  0.00     0.040 A 
ATOM     75  C   UNL A   1      39.050  28.752  30.274  1.00  0.00     0.040 A 
ATOM     76  F   UNL A   1      41.276  28.253  30.828  1.00  0.00    -0.206 F 
ATOM     77  C   UNL A   1      38.091  29.116  29.330  1.00  0.00     0.006 A 
ENDBRANCH  49  70
BRANCH  61  78
ATOM     78  C   UNL A   1      46.235  33.097  28.374  1.00  0.00     0.057 A 
ATOM     79  C   UNL A   1      46.028  34.095  27.413  1.00  0.00     0.134 A 
ATOM     80  C   UNL A   1      46.559  33.506  29.674  1.00  0.00     0.134 A 
ATOM     81  F   UNL A   1      45.730  33.767  26.146  1.00  0.00    -0.206 F 
ATOM     82  C   UNL A   1      46.160  35.447  27.729  1.00  0.00     0.040 A 
ATOM     83  C   UNL A   1      46.669  34.856  30.008  1.00  0.00     0.040 A 
ATOM     84  F   UNL A   1      46.762  32.601  30.643  1.00  0.00    -0.206 F 
ATOM     85  C   UNL A   1      46.476  35.832  29.032  1.00  0.00     0.006 A 
ENDBRANCH  61  78
ENDBRANCH  35  36
ENDBRANCH  27  30
ENDBRANCH  25  26
ENDBRANCH  24  25
ENDBRANCH  23  24
ENDBRANCH  22  23
ENDBRANCH   1  22
TORSDOF 17
ENDMDL
