MODEL 1
REMARK VINA RESULT:     -10.6      0.000      0.000
REMARK SMILES O=C(NCCCCCCNC(=O)c1ccc(-c2c3nc(c(-c4c(F)cccc4F)c4ccc([nH]4)c(-c4c(F)cccc4F)c4nc(c(-c5c(F)cccc5F)c5ccc2[nH]5)C=C4)C=C3)cc1)c1ccc(N/C=C\C(=O)c2ccco2)cc1
REMARK SMILES IDX 5 1 4 2 3 3 1 4 2 5 67 7 68 8 82 9 69 10 81 11 70 12 71 13
REMARK SMILES IDX 72 15 73 16 74 17 75 18 76 19 77 20 80 21 78 22 79 23 6 24
REMARK SMILES IDX 7 25 8 26 9 27 10 28 11 29 12 31 13 32 14 33 66 34 15 35
REMARK SMILES IDX 65 36 16 37 17 38 18 39 59 40 19 41 64 42 58 43 60 44 20 45
REMARK SMILES IDX 63 46 57 47 56 48 21 50 47 51 30 52 46 53 31 54 34 55 45 56
REMARK SMILES IDX 61 57 32 58 33 59 44 61 62 62 35 63 22 64 23 65 28 66 24 67
REMARK SMILES IDX 25 68 27 69 29 70 26 71 48 72 49 73 54 74 50 75 51 76 53 77
REMARK SMILES IDX 55 78 52 79 36 80 37 81 42 82 38 83 39 84 41 85 43 86 40 87
REMARK H PARENT 3 6 71 14 10 30 60 49 34 60
REMARK Flexibility Score: inf
ROOT
ATOM      1  C   UNL A   1      35.301  31.844  28.070  1.00  0.00     0.021 C 
ENDROOT
BRANCH   1   2
ATOM      2  C   UNL A   1      34.556  30.595  27.607  1.00  0.00     0.116 C 
BRANCH   2   3
ATOM      3  N   UNL A   1      33.206  30.878  27.155  1.00  0.00    -0.352 N 
ATOM      4  O   UNL A   1      31.354  30.608  25.886  1.00  0.00    -0.269 OA
ATOM      5  C   UNL A   1      32.444  30.180  26.252  1.00  0.00     0.251 C 
ATOM      6  H   UNL A   1      32.782  31.676  27.547  1.00  0.00     0.163 HD
BRANCH   5   7
ATOM      7  C   UNL A   1      32.968  28.921  25.687  1.00  0.00     0.039 A 
ATOM      8  C   UNL A   1      33.593  28.895  24.438  1.00  0.00     0.016 A 
ATOM      9  C   UNL A   1      32.803  27.745  26.416  1.00  0.00     0.016 A 
ATOM     10  C   UNL A   1      33.977  27.673  23.878  1.00  0.00     0.027 A 
ATOM     11  C   UNL A   1      33.210  26.533  25.859  1.00  0.00     0.027 A 
ATOM     12  C   UNL A   1      33.786  26.476  24.577  1.00  0.00     0.038 A 
BRANCH  12  13
ATOM     13  N   UNL A   1      34.040  25.209  24.028  1.00  0.00    -0.362 N 
ATOM     14  H   UNL A   1      34.587  24.608  24.585  1.00  0.00     0.166 HD
BRANCH  13  15
ATOM     15  C   UNL A   1      33.632  24.692  22.827  1.00  0.00     0.087 C 
ATOM     16  C   UNL A   1      32.392  24.500  22.354  1.00  0.00     0.074 C 
BRANCH  16  17
ATOM     17  C   UNL A   1      31.102  24.836  23.029  1.00  0.00     0.222 C 
ATOM     18  O   UNL A   1      30.435  23.900  23.469  1.00  0.00    -0.286 OA
BRANCH  17  19
ATOM     19  C   UNL A   1      30.696  26.220  23.120  1.00  0.00     0.173 A 
ATOM     20  C   UNL A   1      29.904  26.904  24.027  1.00  0.00     0.054 A 
ATOM     21  O   UNL A   1      31.069  27.071  22.115  1.00  0.00    -0.461 OA
ATOM     22  C   UNL A   1      29.771  28.227  23.537  1.00  0.00     0.043 A 
ATOM     23  C   UNL A   1      30.497  28.275  22.371  1.00  0.00     0.196 A 
ENDBRANCH  17  19
ENDBRANCH  16  17
ENDBRANCH  13  15
ENDBRANCH  12  13
ENDBRANCH   5   7
ENDBRANCH   2   3
ENDBRANCH   1   2
BRANCH   1  24
ATOM     24  C   UNL A   1      34.589  32.684  29.133  1.00  0.00     0.002 C 
BRANCH  24  25
ATOM     25  C   UNL A   1      34.710  34.202  28.979  1.00  0.00     0.002 C 
BRANCH  25  26
ATOM     26  C   UNL A   1      33.394  34.982  28.958  1.00  0.00     0.021 C 
BRANCH  26  27
ATOM     27  C   UNL A   1      33.394  36.304  29.719  1.00  0.00     0.116 C 
BRANCH  27  28
ATOM     28  N   UNL A   1      32.424  36.339  30.798  1.00  0.00    -0.352 N 
ATOM     29  C   UNL A   1      32.478  35.757  32.041  1.00  0.00     0.251 C 
ATOM     30  H   UNL A   1      31.606  36.855  30.612  1.00  0.00     0.163 HD
ATOM     31  O   UNL A   1      31.502  35.801  32.783  1.00  0.00    -0.269 OA
BRANCH  29  32
ATOM     32  C   UNL A   1      33.701  35.048  32.482  1.00  0.00     0.039 A 
ATOM     33  C   UNL A   1      33.579  33.736  32.951  1.00  0.00     0.014 A 
ATOM     34  C   UNL A   1      34.953  35.668  32.456  1.00  0.00     0.014 A 
ATOM     35  C   UNL A   1      34.719  33.025  33.333  1.00  0.00     0.010 A 
ATOM     36  C   UNL A   1      36.096  34.940  32.785  1.00  0.00     0.010 A 
ATOM     37  C   UNL A   1      35.989  33.612  33.226  1.00  0.00    -0.014 A 
BRANCH  37  38
ATOM     38  C   UNL A   1      37.216  32.850  33.568  1.00  0.00     0.031 A 
ATOM     39  C   UNL A   1      37.957  33.141  34.842  1.00  0.00     0.074 A 
ATOM     40  C   UNL A   1      37.698  31.939  32.702  1.00  0.00     0.049 A 
ATOM     41  N   UNL A   1      39.089  32.644  35.272  1.00  0.00    -0.248 NA
ATOM     42  C   UNL A   1      37.358  34.140  35.740  1.00  0.00     0.031 C 
ATOM     43  C   UNL A   1      37.096  31.594  31.412  1.00  0.00     0.029 A 
ATOM     44  N   UNL A   1      38.816  31.145  32.769  1.00  0.00    -0.354 N 
ATOM     45  C   UNL A   1      39.345  33.276  36.480  1.00  0.00     0.074 A 
ATOM     46  C   UNL A   1      38.273  34.225  36.697  1.00  0.00     0.031 C 
ATOM     47  C   UNL A   1      37.845  30.653  30.815  1.00  0.00     0.029 A 
ATOM     48  C   UNL A   1      38.994  30.349  31.665  1.00  0.00     0.049 A 
ATOM     49  H   UNL A   1      39.431  31.146  33.538  1.00  0.00     0.167 HD
ATOM     50  C   UNL A   1      40.370  33.074  37.343  1.00  0.00     0.037 A 
ATOM     51  C   UNL A   1      39.976  29.478  31.365  1.00  0.00     0.037 A 
ATOM     52  C   UNL A   1      41.424  32.114  37.143  1.00  0.00     0.049 A 
ATOM     53  C   UNL A   1      41.093  29.258  32.345  1.00  0.00     0.074 A 
ATOM     54  C   UNL A   1      42.484  31.810  37.979  1.00  0.00     0.029 A 
ATOM     55  N   UNL A   1      41.547  31.299  36.028  1.00  0.00    -0.354 N 
ATOM     56  N   UNL A   1      41.299  29.835  33.504  1.00  0.00    -0.248 NA
ATOM     57  C   UNL A   1      42.110  28.263  31.980  1.00  0.00     0.031 C 
ATOM     58  C   UNL A   1      43.262  30.826  37.359  1.00  0.00     0.029 A 
ATOM     59  C   UNL A   1      42.669  30.496  36.152  1.00  0.00     0.049 A 
ATOM     60  H   UNL A   1      40.928  31.292  35.262  1.00  0.00     0.167 HD
ATOM     61  C   UNL A   1      42.454  29.259  34.015  1.00  0.00     0.074 A 
ATOM     62  C   UNL A   1      42.898  28.279  33.046  1.00  0.00     0.031 C 
ATOM     63  C   UNL A   1      43.091  29.520  35.182  1.00  0.00     0.037 A 
BRANCH  50  64
ATOM     64  C   UNL A   1      40.392  33.903  38.592  1.00  0.00     0.057 A 
ATOM     65  C   UNL A   1      39.698  33.512  39.744  1.00  0.00     0.134 A 
ATOM     66  C   UNL A   1      41.139  35.085  38.655  1.00  0.00     0.134 A 
ATOM     67  F   UNL A   1      38.954  32.395  39.742  1.00  0.00    -0.206 F 
ATOM     68  C   UNL A   1      39.729  34.279  40.909  1.00  0.00     0.040 A 
ATOM     69  C   UNL A   1      41.195  35.850  39.821  1.00  0.00     0.040 A 
ATOM     70  F   UNL A   1      41.829  35.513  37.587  1.00  0.00    -0.206 F 
ATOM     71  C   UNL A   1      40.484  35.449  40.952  1.00  0.00     0.006 A 
ENDBRANCH  50  64
BRANCH  51  72
ATOM     72  C   UNL A   1      39.938  28.733  30.083  1.00  0.00     0.057 A 
ATOM     73  C   UNL A   1      39.268  27.509  29.981  1.00  0.00     0.134 A 
ATOM     74  C   UNL A   1      40.574  29.223  28.937  1.00  0.00     0.134 A 
ATOM     75  F   UNL A   1      38.659  26.982  31.052  1.00  0.00    -0.206 F 
ATOM     76  C   UNL A   1      39.244  26.789  28.786  1.00  0.00     0.040 A 
ATOM     77  C   UNL A   1      40.540  28.523  27.729  1.00  0.00     0.040 A 
ATOM     78  F   UNL A   1      41.226  30.394  28.971  1.00  0.00    -0.206 F 
ATOM     79  C   UNL A   1      39.878  27.299  27.654  1.00  0.00     0.006 A 
ENDBRANCH  51  72
BRANCH  63  80
ATOM     80  C   UNL A   1      44.319  28.716  35.485  1.00  0.00     0.057 A 
ATOM     81  C   UNL A   1      44.252  27.510  36.193  1.00  0.00     0.134 A 
ATOM     82  C   UNL A   1      45.576  29.135  35.030  1.00  0.00     0.134 A 
ATOM     83  F   UNL A   1      43.078  27.064  36.666  1.00  0.00    -0.206 F 
ATOM     84  C   UNL A   1      45.397  26.757  36.456  1.00  0.00     0.040 A 
ATOM     85  C   UNL A   1      46.724  28.380  35.268  1.00  0.00     0.040 A 
ATOM     86  F   UNL A   1      45.703  30.278  34.340  1.00  0.00    -0.206 F 
ATOM     87  C   UNL A   1      46.637  27.189  35.988  1.00  0.00     0.006 A 
ENDBRANCH  63  80
ENDBRANCH  37  38
ENDBRANCH  29  32
ENDBRANCH  27  28
ENDBRANCH  26  27
ENDBRANCH  25  26
ENDBRANCH  24  25
ENDBRANCH   1  24
TORSDOF 17
ENDMDL
MODEL 2
REMARK VINA RESULT:     -10.4      6.060     10.705
REMARK SMILES O=C(NCCCCCCNC(=O)c1ccc(-c2c3nc(c(-c4c(F)cccc4F)c4ccc([nH]4)c(-c4c(F)cccc4F)c4nc(c(-c5c(F)cccc5F)c5ccc2[nH]5)C=C4)C=C3)cc1)c1ccc(N/C=C\C(=O)c2ccco2)cc1
REMARK SMILES IDX 5 1 4 2 3 3 1 4 2 5 67 7 68 8 82 9 69 10 81 11 70 12 71 13
REMARK SMILES IDX 72 15 73 16 74 17 75 18 76 19 77 20 80 21 78 22 79 23 6 24
REMARK SMILES IDX 7 25 8 26 9 27 10 28 11 29 12 31 13 32 14 33 66 34 15 35
REMARK SMILES IDX 65 36 16 37 17 38 18 39 59 40 19 41 64 42 58 43 60 44 20 45
REMARK SMILES IDX 63 46 57 47 56 48 21 50 47 51 30 52 46 53 31 54 34 55 45 56
REMARK SMILES IDX 61 57 32 58 33 59 44 61 62 62 35 63 22 64 23 65 28 66 24 67
REMARK SMILES IDX 25 68 27 69 29 70 26 71 48 72 49 73 54 74 50 75 51 76 53 77
REMARK SMILES IDX 55 78 52 79 36 80 37 81 42 82 38 83 39 84 41 85 43 86 40 87
REMARK H PARENT 3 6 71 14 10 30 60 49 34 60
REMARK Flexibility Score: inf
ROOT
ATOM      1  C   UNL A   1      34.311  21.231  24.556  1.00  0.00     0.021 C 
ENDROOT
BRANCH   1   2
ATOM      2  C   UNL A   1      32.899  20.926  25.050  1.00  0.00     0.116 C 
BRANCH   2   3
ATOM      3  N   UNL A   1      32.711  21.247  26.453  1.00  0.00    -0.352 N 
ATOM      4  O   UNL A   1      32.611  22.592  28.268  1.00  0.00    -0.269 OA
ATOM      5  C   UNL A   1      32.666  22.483  27.047  1.00  0.00     0.251 C 
ATOM      6  H   UNL A   1      32.602  20.477  27.057  1.00  0.00     0.163 HD
BRANCH   5   7
ATOM      7  C   UNL A   1      32.729  23.692  26.203  1.00  0.00     0.039 A 
ATOM      8  C   UNL A   1      31.601  24.156  25.520  1.00  0.00     0.016 A 
ATOM      9  C   UNL A   1      33.948  24.354  26.078  1.00  0.00     0.016 A 
ATOM     10  C   UNL A   1      31.716  25.235  24.640  1.00  0.00     0.027 A 
ATOM     11  C   UNL A   1      34.048  25.444  25.214  1.00  0.00     0.027 A 
ATOM     12  C   UNL A   1      32.941  25.890  24.470  1.00  0.00     0.038 A 
BRANCH  12  13
ATOM     13  N   UNL A   1      33.153  26.902  23.520  1.00  0.00    -0.362 N 
ATOM     14  H   UNL A   1      33.473  26.596  22.640  1.00  0.00     0.166 HD
BRANCH  13  15
ATOM     15  C   UNL A   1      32.977  28.254  23.646  1.00  0.00     0.087 C 
ATOM     16  C   UNL A   1      31.926  29.016  23.306  1.00  0.00     0.074 C 
BRANCH  16  17
ATOM     17  C   UNL A   1      30.633  28.563  22.709  1.00  0.00     0.222 C 
ATOM     18  O   UNL A   1      30.653  27.533  22.036  1.00  0.00    -0.286 OA
BRANCH  17  19
ATOM     19  C   UNL A   1      29.442  29.350  22.933  1.00  0.00     0.173 A 
ATOM     20  C   UNL A   1      29.249  30.646  23.379  1.00  0.00     0.054 A 
ATOM     21  O   UNL A   1      28.225  28.749  22.756  1.00  0.00    -0.461 OA
ATOM     22  C   UNL A   1      27.850  30.832  23.502  1.00  0.00     0.043 A 
ATOM     23  C   UNL A   1      27.274  29.648  23.112  1.00  0.00     0.196 A 
ENDBRANCH  17  19
ENDBRANCH  16  17
ENDBRANCH  13  15
ENDBRANCH  12  13
ENDBRANCH   5   7
ENDBRANCH   2   3
ENDBRANCH   1   2
BRANCH   1  24
ATOM     24  C   UNL A   1      35.395  20.247  25.001  1.00  0.00     0.002 C 
BRANCH  24  25
ATOM     25  C   UNL A   1      36.841  20.716  24.821  1.00  0.00     0.002 C 
BRANCH  25  26
ATOM     26  C   UNL A   1      37.922  19.650  25.014  1.00  0.00     0.021 C 
BRANCH  26  27
ATOM     27  C   UNL A   1      39.177  20.104  25.752  1.00  0.00     0.116 C 
BRANCH  27  28
ATOM     28  N   UNL A   1      40.215  19.091  25.786  1.00  0.00    -0.352 N 
ATOM     29  C   UNL A   1      41.559  19.224  26.031  1.00  0.00     0.251 C 
ATOM     30  H   UNL A   1      39.911  18.171  25.606  1.00  0.00     0.163 HD
ATOM     31  O   UNL A   1      42.307  18.259  25.901  1.00  0.00    -0.269 OA
BRANCH  29  32
ATOM     32  C   UNL A   1      42.121  20.537  26.422  1.00  0.00     0.039 A 
ATOM     33  C   UNL A   1      42.584  21.391  25.417  1.00  0.00     0.014 A 
ATOM     34  C   UNL A   1      42.213  20.920  27.763  1.00  0.00     0.014 A 
ATOM     35  C   UNL A   1      43.080  22.654  25.750  1.00  0.00     0.010 A 
ATOM     36  C   UNL A   1      42.656  22.201  28.091  1.00  0.00     0.010 A 
ATOM     37  C   UNL A   1      43.092  23.079  27.087  1.00  0.00    -0.014 A 
BRANCH  37  38
ATOM     38  C   UNL A   1      43.556  24.441  27.453  1.00  0.00     0.031 A 
ATOM     39  C   UNL A   1      42.568  25.491  27.875  1.00  0.00     0.074 A 
ATOM     40  C   UNL A   1      44.863  24.752  27.345  1.00  0.00     0.049 A 
ATOM     41  N   UNL A   1      42.769  26.754  28.149  1.00  0.00    -0.248 NA
ATOM     42  C   UNL A   1      41.162  25.068  27.981  1.00  0.00     0.031 C 
ATOM     43  C   UNL A   1      45.917  23.836  26.905  1.00  0.00     0.029 A 
ATOM     44  N   UNL A   1      45.524  25.931  27.582  1.00  0.00    -0.354 N 
ATOM     45  C   UNL A   1      41.521  27.281  28.447  1.00  0.00     0.074 A 
ATOM     46  C   UNL A   1      40.560  26.211  28.279  1.00  0.00     0.031 C 
ATOM     47  C   UNL A   1      47.094  24.485  26.914  1.00  0.00     0.029 A 
ATOM     48  C   UNL A   1      46.872  25.867  27.332  1.00  0.00     0.049 A 
ATOM     49  H   UNL A   1      45.073  26.745  27.904  1.00  0.00     0.167 HD
ATOM     50  C   UNL A   1      41.202  28.537  28.842  1.00  0.00     0.037 A 
ATOM     51  C   UNL A   1      47.823  26.816  27.419  1.00  0.00     0.037 A 
ATOM     52  C   UNL A   1      42.158  29.596  29.033  1.00  0.00     0.049 A 
ATOM     53  C   UNL A   1      47.448  28.197  27.876  1.00  0.00     0.074 A 
ATOM     54  C   UNL A   1      41.935  30.891  29.470  1.00  0.00     0.029 A 
ATOM     55  N   UNL A   1      43.520  29.479  28.805  1.00  0.00    -0.354 N 
ATOM     56  N   UNL A   1      46.267  28.668  28.193  1.00  0.00    -0.248 NA
ATOM     57  C   UNL A   1      48.537  29.176  27.993  1.00  0.00     0.031 C 
ATOM     58  C   UNL A   1      43.161  31.565  29.483  1.00  0.00     0.029 A 
ATOM     59  C   UNL A   1      44.150  30.681  29.086  1.00  0.00     0.049 A 
ATOM     60  H   UNL A   1      43.973  28.663  28.491  1.00  0.00     0.167 HD
ATOM     61  C   UNL A   1      46.473  29.989  28.568  1.00  0.00     0.074 A 
ATOM     62  C   UNL A   1      47.894  30.241  28.450  1.00  0.00     0.031 C 
ATOM     63  C   UNL A   1      45.566  30.911  28.971  1.00  0.00     0.037 A 
BRANCH  50  64
ATOM     64  C   UNL A   1      39.755  28.830  29.105  1.00  0.00     0.057 A 
ATOM     65  C   UNL A   1      38.890  29.227  28.077  1.00  0.00     0.134 A 
ATOM     66  C   UNL A   1      39.215  28.682  30.387  1.00  0.00     0.134 A 
ATOM     67  F   UNL A   1      39.351  29.397  26.829  1.00  0.00    -0.206 F 
ATOM     68  C   UNL A   1      37.541  29.488  28.320  1.00  0.00     0.040 A 
ATOM     69  C   UNL A   1      37.862  28.920  30.639  1.00  0.00     0.040 A 
ATOM     70  F   UNL A   1      39.989  28.301  31.414  1.00  0.00    -0.206 F 
ATOM     71  C   UNL A   1      37.022  29.329  29.604  1.00  0.00     0.006 A 
ENDBRANCH  50  64
BRANCH  51  72
ATOM     72  C   UNL A   1      49.229  26.488  27.082  1.00  0.00     0.057 A 
ATOM     73  C   UNL A   1      49.679  26.522  25.758  1.00  0.00     0.134 A 
ATOM     74  C   UNL A   1      50.151  26.128  28.072  1.00  0.00     0.134 A 
ATOM     75  F   UNL A   1      48.835  26.840  24.766  1.00  0.00    -0.206 F 
ATOM     76  C   UNL A   1      50.995  26.194  25.426  1.00  0.00     0.040 A 
ATOM     77  C   UNL A   1      51.475  25.818  27.756  1.00  0.00     0.040 A 
ATOM     78  F   UNL A   1      49.780  26.084  29.360  1.00  0.00    -0.206 F 
ATOM     79  C   UNL A   1      51.898  25.846  26.429  1.00  0.00     0.006 A 
ENDBRANCH  51  72
BRANCH  63  80
ATOM     80  C   UNL A   1      46.088  32.267  29.339  1.00  0.00     0.057 A 
ATOM     81  C   UNL A   1      46.138  33.313  28.409  1.00  0.00     0.134 A 
ATOM     82  C   UNL A   1      46.510  32.538  30.647  1.00  0.00     0.134 A 
ATOM     83  F   UNL A   1      45.761  33.111  27.138  1.00  0.00    -0.206 F 
ATOM     84  C   UNL A   1      46.608  34.578  28.764  1.00  0.00     0.040 A 
ATOM     85  C   UNL A   1      46.961  33.805  31.018  1.00  0.00     0.040 A 
ATOM     86  F   UNL A   1      46.479  31.579  31.584  1.00  0.00    -0.206 F 
ATOM     87  C   UNL A   1      47.015  34.828  30.073  1.00  0.00     0.006 A 
ENDBRANCH  63  80
ENDBRANCH  37  38
ENDBRANCH  29  32
ENDBRANCH  27  28
ENDBRANCH  26  27
ENDBRANCH  25  26
ENDBRANCH  24  25
ENDBRANCH   1  24
TORSDOF 17
ENDMDL
MODEL 3
REMARK VINA RESULT:     -10.2      5.046     10.186
REMARK SMILES O=C(NCCCCCCNC(=O)c1ccc(-c2c3nc(c(-c4c(F)cccc4F)c4ccc([nH]4)c(-c4c(F)cccc4F)c4nc(c(-c5c(F)cccc5F)c5ccc2[nH]5)C=C4)C=C3)cc1)c1ccc(N/C=C\C(=O)c2ccco2)cc1
REMARK SMILES IDX 5 1 4 2 3 3 1 4 2 5 67 7 68 8 82 9 69 10 81 11 70 12 71 13
REMARK SMILES IDX 72 15 73 16 74 17 75 18 76 19 77 20 80 21 78 22 79 23 6 24
REMARK SMILES IDX 7 25 8 26 9 27 10 28 11 29 12 31 13 32 14 33 66 34 15 35
REMARK SMILES IDX 65 36 16 37 17 38 18 39 59 40 19 41 64 42 58 43 60 44 20 45
REMARK SMILES IDX 63 46 57 47 56 48 21 50 47 51 30 52 46 53 31 54 34 55 45 56
REMARK SMILES IDX 61 57 32 58 33 59 44 61 62 62 35 63 22 64 23 65 28 66 24 67
REMARK SMILES IDX 25 68 27 69 29 70 26 71 48 72 49 73 54 74 50 75 51 76 53 77
REMARK SMILES IDX 55 78 52 79 36 80 37 81 42 82 38 83 39 84 41 85 43 86 40 87
REMARK H PARENT 3 6 71 14 10 30 60 49 34 60
REMARK Flexibility Score: inf
ROOT
ATOM      1  C   UNL A   1      35.780  22.379  25.383  1.00  0.00     0.021 C 
ENDROOT
BRANCH   1   2
ATOM      2  C   UNL A   1      34.775  22.141  24.259  1.00  0.00     0.116 C 
BRANCH   2   3
ATOM      3  N   UNL A   1      33.896  21.016  24.517  1.00  0.00    -0.352 N 
ATOM      4  O   UNL A   1      31.966  19.997  25.111  1.00  0.00    -0.269 OA
ATOM      5  C   UNL A   1      32.554  21.030  24.806  1.00  0.00     0.251 C 
ATOM      6  H   UNL A   1      34.316  20.126  24.481  1.00  0.00     0.163 HD
BRANCH   5   7
ATOM      7  C   UNL A   1      31.826  22.313  24.789  1.00  0.00     0.039 A 
ATOM      8  C   UNL A   1      31.413  22.894  23.586  1.00  0.00     0.016 A 
ATOM      9  C   UNL A   1      31.577  22.953  26.000  1.00  0.00     0.016 A 
ATOM     10  C   UNL A   1      30.827  24.162  23.592  1.00  0.00     0.027 A 
ATOM     11  C   UNL A   1      30.971  24.210  25.997  1.00  0.00     0.027 A 
ATOM     12  C   UNL A   1      30.603  24.840  24.796  1.00  0.00     0.038 A 
BRANCH  12  13
ATOM     13  N   UNL A   1      30.127  26.159  24.865  1.00  0.00    -0.362 N 
ATOM     14  H   UNL A   1      29.150  26.261  24.802  1.00  0.00     0.166 HD
BRANCH  13  15
ATOM     15  C   UNL A   1      30.833  27.324  25.010  1.00  0.00     0.087 C 
ATOM     16  C   UNL A   1      30.955  28.361  24.169  1.00  0.00     0.074 C 
BRANCH  16  17
ATOM     17  C   UNL A   1      30.312  28.524  22.830  1.00  0.00     0.222 C 
ATOM     18  O   UNL A   1      30.554  27.667  21.980  1.00  0.00    -0.286 OA
BRANCH  17  19
ATOM     19  C   UNL A   1      29.462  29.669  22.593  1.00  0.00     0.173 A 
ATOM     20  C   UNL A   1      29.126  30.760  23.375  1.00  0.00     0.054 A 
ATOM     21  O   UNL A   1      28.766  29.726  21.416  1.00  0.00    -0.461 OA
ATOM     22  C   UNL A   1      28.162  31.502  22.648  1.00  0.00     0.043 A 
ATOM     23  C   UNL A   1      27.978  30.829  21.465  1.00  0.00     0.196 A 
ENDBRANCH  17  19
ENDBRANCH  16  17
ENDBRANCH  13  15
ENDBRANCH  12  13
ENDBRANCH   5   7
ENDBRANCH   2   3
ENDBRANCH   1   2
BRANCH   1  24
ATOM     24  C   UNL A   1      37.213  22.679  24.939  1.00  0.00     0.002 C 
BRANCH  24  25
ATOM     25  C   UNL A   1      38.320  21.957  25.712  1.00  0.00     0.002 C 
BRANCH  25  26
ATOM     26  C   UNL A   1      38.767  20.608  25.143  1.00  0.00     0.021 C 
BRANCH  26  27
ATOM     27  C   UNL A   1      39.213  19.571  26.168  1.00  0.00     0.116 C 
BRANCH  27  28
ATOM     28  N   UNL A   1      40.502  18.982  25.856  1.00  0.00    -0.352 N 
ATOM     29  C   UNL A   1      41.754  19.543  25.907  1.00  0.00     0.251 C 
ATOM     30  H   UNL A   1      40.476  18.041  25.565  1.00  0.00     0.163 HD
ATOM     31  O   UNL A   1      42.725  18.918  25.491  1.00  0.00    -0.269 OA
BRANCH  29  32
ATOM     32  C   UNL A   1      41.938  20.915  26.434  1.00  0.00     0.039 A 
ATOM     33  C   UNL A   1      41.779  21.129  27.806  1.00  0.00     0.014 A 
ATOM     34  C   UNL A   1      42.243  21.985  25.590  1.00  0.00     0.014 A 
ATOM     35  C   UNL A   1      41.988  22.403  28.340  1.00  0.00     0.010 A 
ATOM     36  C   UNL A   1      42.505  23.244  26.130  1.00  0.00     0.010 A 
ATOM     37  C   UNL A   1      42.381  23.463  27.510  1.00  0.00    -0.014 A 
BRANCH  37  38
ATOM     38  C   UNL A   1      42.669  24.808  28.069  1.00  0.00     0.031 A 
ATOM     39  C   UNL A   1      44.054  25.153  28.539  1.00  0.00     0.074 A 
ATOM     40  C   UNL A   1      41.669  25.698  28.213  1.00  0.00     0.049 A 
ATOM     41  N   UNL A   1      44.479  26.239  29.132  1.00  0.00    -0.248 NA
ATOM     42  C   UNL A   1      45.093  24.131  28.335  1.00  0.00     0.031 C 
ATOM     43  C   UNL A   1      40.272  25.471  27.836  1.00  0.00     0.029 A 
ATOM     44  N   UNL A   1      41.671  26.971  28.729  1.00  0.00    -0.354 N 
ATOM     45  C   UNL A   1      45.828  26.029  29.384  1.00  0.00     0.074 A 
ATOM     46  C   UNL A   1      46.142  24.694  28.918  1.00  0.00     0.031 C 
ATOM     47  C   UNL A   1      39.555  26.570  28.124  1.00  0.00     0.029 A 
ATOM     48  C   UNL A   1      40.434  27.566  28.731  1.00  0.00     0.049 A 
ATOM     49  H   UNL A   1      42.484  27.414  29.063  1.00  0.00     0.167 HD
ATOM     50  C   UNL A   1      46.729  26.876  29.936  1.00  0.00     0.037 A 
ATOM     51  C   UNL A   1      40.048  28.775  29.180  1.00  0.00     0.037 A 
ATOM     52  C   UNL A   1      46.426  28.212  30.378  1.00  0.00     0.049 A 
ATOM     53  C   UNL A   1      41.069  29.703  29.773  1.00  0.00     0.074 A 
ATOM     54  C   UNL A   1      47.282  29.159  30.914  1.00  0.00     0.029 A 
ATOM     55  N   UNL A   1      45.168  28.792  30.327  1.00  0.00    -0.354 N 
ATOM     56  N   UNL A   1      42.351  29.505  29.967  1.00  0.00    -0.248 NA
ATOM     57  C   UNL A   1      40.594  31.025  30.204  1.00  0.00     0.031 C 
ATOM     58  C   UNL A   1      46.535  30.305  31.210  1.00  0.00     0.029 A 
ATOM     59  C   UNL A   1      45.223  30.082  30.829  1.00  0.00     0.049 A 
ATOM     60  H   UNL A   1      44.356  28.352  29.985  1.00  0.00     0.167 HD
ATOM     61  C   UNL A   1      42.838  30.681  30.521  1.00  0.00     0.074 A 
ATOM     62  C   UNL A   1      41.717  31.593  30.621  1.00  0.00     0.031 C 
ATOM     63  C   UNL A   1      44.099  30.978  30.913  1.00  0.00     0.037 A 
BRANCH  50  64
ATOM     64  C   UNL A   1      48.137  26.382  30.084  1.00  0.00     0.057 A 
ATOM     65  C   UNL A   1      49.088  26.566  29.071  1.00  0.00     0.134 A 
ATOM     66  C   UNL A   1      48.555  25.747  31.259  1.00  0.00     0.134 A 
ATOM     67  F   UNL A   1      48.745  27.156  27.917  1.00  0.00    -0.206 F 
ATOM     68  C   UNL A   1      50.401  26.116  29.214  1.00  0.00     0.040 A 
ATOM     69  C   UNL A   1      49.872  25.311  31.422  1.00  0.00     0.040 A 
ATOM     70  F   UNL A   1      47.695  25.543  32.267  1.00  0.00    -0.206 F 
ATOM     71  C   UNL A   1      50.798  25.491  30.395  1.00  0.00     0.006 A 
ENDBRANCH  50  64
BRANCH  51  72
ATOM     72  C   UNL A   1      38.628  29.186  29.070  1.00  0.00     0.057 A 
ATOM     73  C   UNL A   1      37.774  29.134  30.178  1.00  0.00     0.134 A 
ATOM     74  C   UNL A   1      38.090  29.634  27.857  1.00  0.00     0.134 A 
ATOM     75  F   UNL A   1      38.230  28.694  31.360  1.00  0.00    -0.206 F 
ATOM     76  C   UNL A   1      36.431  29.498  30.081  1.00  0.00     0.040 A 
ATOM     77  C   UNL A   1      36.753  30.021  27.752  1.00  0.00     0.040 A 
ATOM     78  F   UNL A   1      38.861  29.712  26.762  1.00  0.00    -0.206 F 
ATOM     79  C   UNL A   1      35.918  29.948  28.865  1.00  0.00     0.006 A 
ENDBRANCH  51  72
BRANCH  63  80
ATOM     80  C   UNL A   1      44.339  32.352  31.461  1.00  0.00     0.057 A 
ATOM     81  C   UNL A   1      44.670  33.429  30.629  1.00  0.00     0.134 A 
ATOM     82  C   UNL A   1      44.200  32.608  32.831  1.00  0.00     0.134 A 
ATOM     83  F   UNL A   1      44.829  33.243  29.309  1.00  0.00    -0.206 F 
ATOM     84  C   UNL A   1      44.872  34.710  31.143  1.00  0.00     0.040 A 
ATOM     85  C   UNL A   1      44.381  33.889  33.354  1.00  0.00     0.040 A 
ATOM     86  F   UNL A   1      43.879  31.619  33.678  1.00  0.00    -0.206 F 
ATOM     87  C   UNL A   1      44.723  34.943  32.509  1.00  0.00     0.006 A 
ENDBRANCH  63  80
ENDBRANCH  37  38
ENDBRANCH  29  32
ENDBRANCH  27  28
ENDBRANCH  26  27
ENDBRANCH  25  26
ENDBRANCH  24  25
ENDBRANCH   1  24
TORSDOF 17
ENDMDL
