MODEL 1
REMARK VINA RESULT:     -12.4      0.000      0.000
REMARK SMILES CC1=C(CC(=O)NCCCCCCNC(=O)c2ccc(-c3c4nc(c(-c5c(F)cccc5F)c5ccc([nH]5)c(-c5c(F)cccc5F)c5nc(c(-c6c(F)cccc6F)c6ccc3[nH]6)C=C5)C=C4)cc2)c2cc(F)ccc2/C1=C\c1cccc(OCc2ccccc2)c1
REMARK SMILES IDX 9 1 8 2 7 3 5 4 6 5 4 7 3 8 1 9 2 10 78 11 71 12 77 13 79 14
REMARK SMILES IDX 72 15 76 16 73 17 75 18 74 19 80 20 81 21 93 22 82 23 84 24
REMARK SMILES IDX 83 25 85 26 86 27 87 28 88 29 92 30 89 31 91 32 90 33 10 34
REMARK SMILES IDX 11 35 12 36 13 37 14 38 15 39 16 41 17 42 18 43 70 44 19 45
REMARK SMILES IDX 69 46 20 47 21 48 22 49 63 50 23 51 68 52 62 53 64 54 24 55
REMARK SMILES IDX 67 56 61 57 60 58 25 60 51 61 34 62 50 63 35 64 38 65 49 66
REMARK SMILES IDX 65 67 36 68 37 69 48 71 66 72 39 73 26 74 27 75 32 76 28 77
REMARK SMILES IDX 29 78 31 79 33 80 30 81 52 82 53 83 58 84 54 85 55 86 57 87
REMARK SMILES IDX 59 88 56 89 40 90 41 91 46 92 42 93 43 94 45 95 47 96 44 97
REMARK H PARENT 7 6 14 40 64 59 38 70
REMARK Flexibility Score: inf
ROOT
ATOM      1  C   UNL A   1      35.012  17.606  24.597  1.00  0.00     0.021 C 
ENDROOT
BRANCH   1   2
ATOM      2  C   UNL A   1      33.487  17.702  24.668  1.00  0.00     0.116 C 
BRANCH   2   3
ATOM      3  N   UNL A   1      32.979  18.724  23.776  1.00  0.00    -0.356 N 
ATOM      4  C   UNL A   1      32.429  19.934  24.080  1.00  0.00     0.224 C 
ATOM      5  O   UNL A   1      31.978  20.618  23.160  1.00  0.00    -0.275 OA
ATOM      6  H   UNL A   1      33.039  18.514  22.816  1.00  0.00     0.163 HD
BRANCH   4   7
ATOM      7  C   UNL A   1      32.426  20.444  25.519  1.00  0.00     0.136 C 
BRANCH   7   8
ATOM      8  C   UNL A   1      32.368  21.933  25.634  1.00  0.00    -0.027 C 
ATOM      9  C   UNL A   1      29.940  22.300  26.365  1.00  0.00     0.045 C 
ATOM     10  C   UNL A   1      31.316  22.721  25.962  1.00  0.00    -0.039 C 
ATOM     11  C   UNL A   1      31.724  24.133  25.909  1.00  0.00    -0.014 C 
ATOM     12  C   UNL A   1      33.536  22.808  25.432  1.00  0.00    -0.011 A 
ATOM     13  C   UNL A   1      33.167  24.154  25.629  1.00  0.00    -0.010 A 
ATOM     14  C   UNL A   1      30.874  25.160  26.073  1.00  0.00     0.017 C 
ATOM     15  C   UNL A   1      34.846  22.474  25.118  1.00  0.00     0.048 A 
ATOM     16  C   UNL A   1      34.109  25.171  25.543  1.00  0.00     0.012 A 
ATOM     17  C   UNL A   1      35.777  23.502  25.007  1.00  0.00     0.123 A 
ATOM     18  C   UNL A   1      35.425  24.837  25.221  1.00  0.00     0.040 A 
ATOM     19  F   UNL A   1      37.047  23.207  24.697  1.00  0.00    -0.207 F 
BRANCH  14  20
ATOM     20  C   UNL A   1      31.202  26.583  26.119  1.00  0.00    -0.021 A 
ATOM     21  C   UNL A   1      31.354  27.283  27.316  1.00  0.00     0.008 A 
ATOM     22  C   UNL A   1      31.389  27.239  24.897  1.00  0.00     0.054 A 
ATOM     23  C   UNL A   1      31.673  28.641  27.282  1.00  0.00     0.004 A 
ATOM     24  C   UNL A   1      31.759  28.580  24.855  1.00  0.00     0.120 A 
ATOM     25  C   UNL A   1      31.878  29.283  26.055  1.00  0.00     0.046 A 
BRANCH  24  26
ATOM     26  O   UNL A   1      32.033  29.295  23.721  1.00  0.00    -0.489 OA
BRANCH  26  27
ATOM     27  C   UNL A   1      31.138  29.178  22.606  1.00  0.00     0.265 C 
BRANCH  27  28
ATOM     28  C   UNL A   1      29.739  29.666  22.917  1.00  0.00    -0.011 A 
ATOM     29  C   UNL A   1      28.653  28.783  22.853  1.00  0.00     0.007 A 
ATOM     30  C   UNL A   1      29.503  31.002  23.283  1.00  0.00     0.007 A 
ATOM     31  C   UNL A   1      27.364  29.219  23.165  1.00  0.00     0.000 A 
ATOM     32  C   UNL A   1      28.217  31.432  23.612  1.00  0.00     0.000 A 
ATOM     33  C   UNL A   1      27.148  30.541  23.552  1.00  0.00     0.000 A 
ENDBRANCH  27  28
ENDBRANCH  26  27
ENDBRANCH  24  26
ENDBRANCH  14  20
ENDBRANCH   7   8
ENDBRANCH   4   7
ENDBRANCH   2   3
ENDBRANCH   1   2
BRANCH   1  34
ATOM     34  C   UNL A   1      35.728  18.960  24.692  1.00  0.00     0.002 C 
BRANCH  34  35
ATOM     35  C   UNL A   1      37.249  18.888  24.867  1.00  0.00     0.002 C 
BRANCH  35  36
ATOM     36  C   UNL A   1      37.981  20.226  24.753  1.00  0.00     0.021 C 
BRANCH  36  37
ATOM     37  C   UNL A   1      39.034  20.465  25.830  1.00  0.00     0.116 C 
BRANCH  37  38
ATOM     38  N   UNL A   1      40.054  19.427  25.848  1.00  0.00    -0.352 N 
ATOM     39  C   UNL A   1      41.395  19.542  26.123  1.00  0.00     0.251 C 
ATOM     40  H   UNL A   1      39.740  18.518  25.636  1.00  0.00     0.163 HD
ATOM     41  O   UNL A   1      42.158  18.599  25.940  1.00  0.00    -0.269 OA
BRANCH  39  42
ATOM     42  C   UNL A   1      41.921  20.832  26.614  1.00  0.00     0.039 A 
ATOM     43  C   UNL A   1      41.990  21.088  27.987  1.00  0.00     0.014 A 
ATOM     44  C   UNL A   1      42.307  21.809  25.692  1.00  0.00     0.014 A 
ATOM     45  C   UNL A   1      42.296  22.369  28.432  1.00  0.00     0.010 A 
ATOM     46  C   UNL A   1      42.684  23.075  26.147  1.00  0.00     0.010 A 
ATOM     47  C   UNL A   1      42.639  23.377  27.517  1.00  0.00    -0.014 A 
BRANCH  47  48
ATOM     48  C   UNL A   1      42.941  24.745  28.009  1.00  0.00     0.031 A 
ATOM     49  C   UNL A   1      44.357  25.159  28.303  1.00  0.00     0.074 A 
ATOM     50  C   UNL A   1      41.935  25.630  28.152  1.00  0.00     0.049 A 
ATOM     51  N   UNL A   1      44.803  26.290  28.789  1.00  0.00    -0.248 NA
ATOM     52  C   UNL A   1      45.411  24.173  28.014  1.00  0.00     0.031 C 
ATOM     53  C   UNL A   1      40.524  25.356  27.876  1.00  0.00     0.029 A 
ATOM     54  N   UNL A   1      41.948  26.940  28.557  1.00  0.00    -0.354 N 
ATOM     55  C   UNL A   1      46.183  26.150  28.873  1.00  0.00     0.074 A 
ATOM     56  C   UNL A   1      46.501  24.814  28.415  1.00  0.00     0.031 C 
ATOM     57  C   UNL A   1      39.809  26.469  28.096  1.00  0.00     0.029 A 
ATOM     58  C   UNL A   1      40.700  27.513  28.589  1.00  0.00     0.049 A 
ATOM     59  H   UNL A   1      42.770  27.421  28.802  1.00  0.00     0.167 HD
ATOM     60  C   UNL A   1      47.101  27.058  29.284  1.00  0.00     0.037 A 
ATOM     61  C   UNL A   1      40.312  28.733  29.002  1.00  0.00     0.037 A 
ATOM     62  C   UNL A   1      46.784  28.388  29.733  1.00  0.00     0.049 A 
ATOM     63  C   UNL A   1      41.343  29.689  29.526  1.00  0.00     0.074 A 
ATOM     64  C   UNL A   1      47.645  29.384  30.167  1.00  0.00     0.029 A 
ATOM     65  N   UNL A   1      45.502  28.911  29.808  1.00  0.00    -0.354 N 
ATOM     66  N   UNL A   1      42.642  29.539  29.612  1.00  0.00    -0.248 NA
ATOM     67  C   UNL A   1      40.849  30.979  30.027  1.00  0.00     0.031 C 
ATOM     68  C   UNL A   1      46.879  30.496  30.536  1.00  0.00     0.029 A 
ATOM     69  C   UNL A   1      45.546  30.205  30.299  1.00  0.00     0.049 A 
ATOM     70  H   UNL A   1      44.682  28.432  29.549  1.00  0.00     0.167 HD
ATOM     71  C   UNL A   1      43.121  30.712  30.179  1.00  0.00     0.074 A 
ATOM     72  C   UNL A   1      41.977  31.577  30.384  1.00  0.00     0.031 C 
ATOM     73  C   UNL A   1      44.392  31.041  30.513  1.00  0.00     0.037 A 
BRANCH  60  74
ATOM     74  C   UNL A   1      48.543  26.639  29.273  1.00  0.00     0.057 A 
ATOM     75  C   UNL A   1      49.342  26.852  28.143  1.00  0.00     0.134 A 
ATOM     76  C   UNL A   1      49.127  25.986  30.366  1.00  0.00     0.134 A 
ATOM     77  F   UNL A   1      48.843  27.469  27.062  1.00  0.00    -0.206 F 
ATOM     78  C   UNL A   1      50.672  26.427  28.098  1.00  0.00     0.040 A 
ATOM     79  C   UNL A   1      50.462  25.573  30.340  1.00  0.00     0.040 A 
ATOM     80  F   UNL A   1      48.419  25.764  31.484  1.00  0.00    -0.206 F 
ATOM     81  C   UNL A   1      51.235  25.788  29.202  1.00  0.00     0.006 A 
ENDBRANCH  60  74
BRANCH  61  82
ATOM     82  C   UNL A   1      38.875  29.098  28.990  1.00  0.00     0.057 A 
ATOM     83  C   UNL A   1      38.270  29.623  27.842  1.00  0.00     0.134 A 
ATOM     84  C   UNL A   1      38.070  28.911  30.118  1.00  0.00     0.134 A 
ATOM     85  F   UNL A   1      38.991  29.827  26.730  1.00  0.00    -0.206 F 
ATOM     86  C   UNL A   1      36.917  29.960  27.818  1.00  0.00     0.040 A 
ATOM     87  C   UNL A   1      36.708  29.219  30.100  1.00  0.00     0.040 A 
ATOM     88  F   UNL A   1      38.588  28.389  31.240  1.00  0.00    -0.206 F 
ATOM     89  C   UNL A   1      36.130  29.750  28.948  1.00  0.00     0.006 A 
ENDBRANCH  61  82
BRANCH  73  90
ATOM     90  C   UNL A   1      44.596  32.389  31.136  1.00  0.00     0.057 A 
ATOM     91  C   UNL A   1      44.875  33.511  30.348  1.00  0.00     0.134 A 
ATOM     92  C   UNL A   1      44.512  32.571  32.522  1.00  0.00     0.134 A 
ATOM     93  F   UNL A   1      44.971  33.401  29.014  1.00  0.00    -0.206 F 
ATOM     94  C   UNL A   1      45.060  34.771  30.917  1.00  0.00     0.040 A 
ATOM     95  C   UNL A   1      44.674  33.830  33.101  1.00  0.00     0.040 A 
ATOM     96  F   UNL A   1      44.230  31.536  33.328  1.00  0.00    -0.206 F 
ATOM     97  C   UNL A   1      44.952  34.934  32.297  1.00  0.00     0.006 A 
ENDBRANCH  73  90
ENDBRANCH  47  48
ENDBRANCH  39  42
ENDBRANCH  37  38
ENDBRANCH  36  37
ENDBRANCH  35  36
ENDBRANCH  34  35
ENDBRANCH   1  34
TORSDOF 18
ENDMDL
MODEL 2
REMARK VINA RESULT:     -12.3      3.637      9.609
REMARK SMILES CC1=C(CC(=O)NCCCCCCNC(=O)c2ccc(-c3c4nc(c(-c5c(F)cccc5F)c5ccc([nH]5)c(-c5c(F)cccc5F)c5nc(c(-c6c(F)cccc6F)c6ccc3[nH]6)C=C5)C=C4)cc2)c2cc(F)ccc2/C1=C\c1cccc(OCc2ccccc2)c1
REMARK SMILES IDX 9 1 8 2 7 3 5 4 6 5 4 7 3 8 1 9 2 10 78 11 71 12 77 13 79 14
REMARK SMILES IDX 72 15 76 16 73 17 75 18 74 19 80 20 81 21 93 22 82 23 84 24
REMARK SMILES IDX 83 25 85 26 86 27 87 28 88 29 92 30 89 31 91 32 90 33 10 34
REMARK SMILES IDX 11 35 12 36 13 37 14 38 15 39 16 41 17 42 18 43 70 44 19 45
REMARK SMILES IDX 69 46 20 47 21 48 22 49 63 50 23 51 68 52 62 53 64 54 24 55
REMARK SMILES IDX 67 56 61 57 60 58 25 60 51 61 34 62 50 63 35 64 38 65 49 66
REMARK SMILES IDX 65 67 36 68 37 69 48 71 66 72 39 73 26 74 27 75 32 76 28 77
REMARK SMILES IDX 29 78 31 79 33 80 30 81 52 82 53 83 58 84 54 85 55 86 57 87
REMARK SMILES IDX 59 88 56 89 40 90 41 91 46 92 42 93 43 94 45 95 47 96 44 97
REMARK H PARENT 7 6 14 40 64 59 38 70
REMARK Flexibility Score: inf
ROOT
ATOM      1  C   UNL A   1      32.828  29.692  25.324  1.00  0.00     0.021 C 
ENDROOT
BRANCH   1   2
ATOM      2  C   UNL A   1      31.346  30.063  25.256  1.00  0.00     0.116 C 
BRANCH   2   3
ATOM      3  N   UNL A   1      30.868  30.088  23.889  1.00  0.00    -0.356 N 
ATOM      4  C   UNL A   1      30.250  29.102  23.176  1.00  0.00     0.224 C 
ATOM      5  O   UNL A   1      30.004  29.309  21.987  1.00  0.00    -0.275 OA
ATOM      6  H   UNL A   1      31.011  30.935  23.406  1.00  0.00     0.163 HD
BRANCH   4   7
ATOM      7  C   UNL A   1      29.828  27.803  23.857  1.00  0.00     0.136 C 
BRANCH   7   8
ATOM      8  C   UNL A   1      30.952  26.844  24.082  1.00  0.00    -0.027 C 
ATOM      9  C   UNL A   1      31.000  26.696  26.639  1.00  0.00     0.045 C 
ATOM     10  C   UNL A   1      31.468  26.397  25.251  1.00  0.00    -0.039 C 
ATOM     11  C   UNL A   1      32.594  25.492  24.977  1.00  0.00    -0.014 C 
ATOM     12  C   UNL A   1      31.679  26.176  22.987  1.00  0.00    -0.011 A 
ATOM     13  C   UNL A   1      32.664  25.320  23.519  1.00  0.00    -0.010 A 
ATOM     14  C   UNL A   1      33.383  24.974  25.934  1.00  0.00     0.017 C 
ATOM     15  C   UNL A   1      31.496  26.276  21.615  1.00  0.00     0.048 A 
ATOM     16  C   UNL A   1      33.452  24.537  22.686  1.00  0.00     0.012 A 
ATOM     17  C   UNL A   1      32.308  25.508  20.787  1.00  0.00     0.123 A 
ATOM     18  C   UNL A   1      33.274  24.641  21.305  1.00  0.00     0.040 A 
ATOM     19  F   UNL A   1      32.158  25.593  19.458  1.00  0.00    -0.207 F 
BRANCH  14  20
ATOM     20  C   UNL A   1      34.465  24.008  25.763  1.00  0.00    -0.021 A 
ATOM     21  C   UNL A   1      35.811  24.376  25.756  1.00  0.00     0.008 A 
ATOM     22  C   UNL A   1      34.108  22.661  25.625  1.00  0.00     0.054 A 
ATOM     23  C   UNL A   1      36.791  23.396  25.593  1.00  0.00     0.004 A 
ATOM     24  C   UNL A   1      35.080  21.672  25.514  1.00  0.00     0.120 A 
ATOM     25  C   UNL A   1      36.424  22.050  25.476  1.00  0.00     0.046 A 
BRANCH  24  26
ATOM     26  O   UNL A   1      34.843  20.326  25.445  1.00  0.00    -0.489 OA
BRANCH  26  27
ATOM     27  C   UNL A   1      33.699  19.872  24.708  1.00  0.00     0.265 C 
BRANCH  27  28
ATOM     28  C   UNL A   1      33.525  18.369  24.753  1.00  0.00    -0.011 A 
ATOM     29  C   UNL A   1      34.244  17.548  23.874  1.00  0.00     0.007 A 
ATOM     30  C   UNL A   1      32.654  17.768  25.677  1.00  0.00     0.007 A 
ATOM     31  C   UNL A   1      34.110  16.160  23.929  1.00  0.00     0.000 A 
ATOM     32  C   UNL A   1      32.534  16.379  25.742  1.00  0.00     0.000 A 
ATOM     33  C   UNL A   1      33.261  15.575  24.868  1.00  0.00     0.000 A 
ENDBRANCH  27  28
ENDBRANCH  26  27
ENDBRANCH  24  26
ENDBRANCH  14  20
ENDBRANCH   7   8
ENDBRANCH   4   7
ENDBRANCH   2   3
ENDBRANCH   1   2
BRANCH   1  34
ATOM     34  C   UNL A   1      33.342  29.432  26.747  1.00  0.00     0.002 C 
BRANCH  34  35
ATOM     35  C   UNL A   1      34.240  30.529  27.331  1.00  0.00     0.002 C 
BRANCH  35  36
ATOM     36  C   UNL A   1      33.501  31.679  28.015  1.00  0.00     0.021 C 
BRANCH  36  37
ATOM     37  C   UNL A   1      33.270  32.899  27.130  1.00  0.00     0.116 C 
BRANCH  37  38
ATOM     38  N   UNL A   1      32.763  34.039  27.878  1.00  0.00    -0.352 N 
ATOM     39  C   UNL A   1      33.238  34.582  29.048  1.00  0.00     0.251 C 
ATOM     40  H   UNL A   1      31.972  34.483  27.493  1.00  0.00     0.163 HD
ATOM     41  O   UNL A   1      32.602  35.448  29.643  1.00  0.00    -0.269 OA
BRANCH  39  42
ATOM     42  C   UNL A   1      34.513  34.089  29.605  1.00  0.00     0.039 A 
ATOM     43  C   UNL A   1      35.722  34.384  28.967  1.00  0.00     0.014 A 
ATOM     44  C   UNL A   1      34.495  33.287  30.749  1.00  0.00     0.014 A 
ATOM     45  C   UNL A   1      36.889  33.754  29.382  1.00  0.00     0.010 A 
ATOM     46  C   UNL A   1      35.683  32.713  31.208  1.00  0.00     0.010 A 
ATOM     47  C   UNL A   1      36.881  32.907  30.502  1.00  0.00    -0.014 A 
BRANCH  47  48
ATOM     48  C   UNL A   1      38.132  32.225  30.916  1.00  0.00     0.031 A 
ATOM     49  C   UNL A   1      38.971  32.776  32.037  1.00  0.00     0.074 A 
ATOM     50  C   UNL A   1      38.491  31.079  30.305  1.00  0.00     0.049 A 
ATOM     51  N   UNL A   1      40.118  32.347  32.499  1.00  0.00    -0.248 NA
ATOM     52  C   UNL A   1      38.453  33.967  32.731  1.00  0.00     0.031 C 
ATOM     53  C   UNL A   1      37.749  30.432  29.222  1.00  0.00     0.029 A 
ATOM     54  N   UNL A   1      39.566  30.254  30.513  1.00  0.00    -0.354 N 
ATOM     55  C   UNL A   1      40.464  33.216  33.527  1.00  0.00     0.074 A 
ATOM     56  C   UNL A   1      39.420  34.216  33.604  1.00  0.00     0.031 C 
ATOM     57  C   UNL A   1      38.377  29.297  28.877  1.00  0.00     0.029 A 
ATOM     58  C   UNL A   1      39.596  29.172  29.667  1.00  0.00     0.049 A 
ATOM     59  H   UNL A   1      40.250  30.421  31.201  1.00  0.00     0.167 HD
ATOM     60  C   UNL A   1      41.548  33.176  34.339  1.00  0.00     0.037 A 
ATOM     61  C   UNL A   1      40.520  28.205  29.520  1.00  0.00     0.037 A 
ATOM     62  C   UNL A   1      42.582  32.178  34.265  1.00  0.00     0.049 A 
ATOM     63  C   UNL A   1      41.749  28.233  30.381  1.00  0.00     0.074 A 
ATOM     64  C   UNL A   1      43.720  32.050  35.046  1.00  0.00     0.029 A 
ATOM     65  N   UNL A   1      42.606  31.133  33.353  1.00  0.00    -0.354 N 
ATOM     66  N   UNL A   1      42.069  29.067  31.339  1.00  0.00    -0.248 NA
ATOM     67  C   UNL A   1      42.753  27.191  30.126  1.00  0.00     0.031 C 
ATOM     68  C   UNL A   1      44.448  30.947  34.583  1.00  0.00     0.029 A 
ATOM     69  C   UNL A   1      43.747  30.369  33.538  1.00  0.00     0.049 A 
ATOM     70  H   UNL A   1      41.914  30.960  32.675  1.00  0.00     0.167 HD
ATOM     71  C   UNL A   1      43.312  28.655  31.799  1.00  0.00     0.074 A 
ATOM     72  C   UNL A   1      43.671  27.475  31.039  1.00  0.00     0.031 C 
ATOM     73  C   UNL A   1      44.094  29.210  32.757  1.00  0.00     0.037 A 
BRANCH  60  74
ATOM     74  C   UNL A   1      41.675  34.251  35.378  1.00  0.00     0.057 A 
ATOM     75  C   UNL A   1      41.128  34.081  36.656  1.00  0.00     0.134 A 
ATOM     76  C   UNL A   1      42.303  35.473  35.100  1.00  0.00     0.134 A 
ATOM     77  F   UNL A   1      40.511  32.937  36.985  1.00  0.00    -0.206 F 
ATOM     78  C   UNL A   1      41.195  35.090  37.620  1.00  0.00     0.040 A 
ATOM     79  C   UNL A   1      42.394  36.482  36.062  1.00  0.00     0.040 A 
ATOM     80  F   UNL A   1      42.860  35.693  33.899  1.00  0.00    -0.206 F 
ATOM     81  C   UNL A   1      41.834  36.293  37.323  1.00  0.00     0.006 A 
ENDBRANCH  60  74
BRANCH  61  82
ATOM     82  C   UNL A   1      40.345  27.164  28.479  1.00  0.00     0.057 A 
ATOM     83  C   UNL A   1      39.529  26.048  28.701  1.00  0.00     0.134 A 
ATOM     84  C   UNL A   1      40.972  27.271  27.234  1.00  0.00     0.134 A 
ATOM     85  F   UNL A   1      38.903  25.889  29.876  1.00  0.00    -0.206 F 
ATOM     86  C   UNL A   1      39.350  25.068  27.724  1.00  0.00     0.040 A 
ATOM     87  C   UNL A   1      40.781  26.311  26.238  1.00  0.00     0.040 A 
ATOM     88  F   UNL A   1      41.746  28.330  26.955  1.00  0.00    -0.206 F 
ATOM     89  C   UNL A   1      39.972  25.204  26.485  1.00  0.00     0.006 A 
ENDBRANCH  61  82
BRANCH  73  90
ATOM     90  C   UNL A   1      45.409  28.541  33.021  1.00  0.00     0.057 A 
ATOM     91  C   UNL A   1      45.513  27.499  33.948  1.00  0.00     0.134 A 
ATOM     92  C   UNL A   1      46.574  28.934  32.348  1.00  0.00     0.134 A 
ATOM     93  F   UNL A   1      44.434  27.080  34.627  1.00  0.00    -0.206 F 
ATOM     94  C   UNL A   1      46.731  26.866  34.197  1.00  0.00     0.040 A 
ATOM     95  C   UNL A   1      47.793  28.294  32.573  1.00  0.00     0.040 A 
ATOM     96  F   UNL A   1      46.533  29.915  31.434  1.00  0.00    -0.206 F 
ATOM     97  C   UNL A   1      47.874  27.259  33.502  1.00  0.00     0.006 A 
ENDBRANCH  73  90
ENDBRANCH  47  48
ENDBRANCH  39  42
ENDBRANCH  37  38
ENDBRANCH  36  37
ENDBRANCH  35  36
ENDBRANCH  34  35
ENDBRANCH   1  34
TORSDOF 18
ENDMDL
MODEL 3
REMARK VINA RESULT:     -12.3      3.779      9.618
REMARK SMILES CC1=C(CC(=O)NCCCCCCNC(=O)c2ccc(-c3c4nc(c(-c5c(F)cccc5F)c5ccc([nH]5)c(-c5c(F)cccc5F)c5nc(c(-c6c(F)cccc6F)c6ccc3[nH]6)C=C5)C=C4)cc2)c2cc(F)ccc2/C1=C\c1cccc(OCc2ccccc2)c1
REMARK SMILES IDX 9 1 8 2 7 3 5 4 6 5 4 7 3 8 1 9 2 10 78 11 71 12 77 13 79 14
REMARK SMILES IDX 72 15 76 16 73 17 75 18 74 19 80 20 81 21 93 22 82 23 84 24
REMARK SMILES IDX 83 25 85 26 86 27 87 28 88 29 92 30 89 31 91 32 90 33 10 34
REMARK SMILES IDX 11 35 12 36 13 37 14 38 15 39 16 41 17 42 18 43 70 44 19 45
REMARK SMILES IDX 69 46 20 47 21 48 22 49 63 50 23 51 68 52 62 53 64 54 24 55
REMARK SMILES IDX 67 56 61 57 60 58 25 60 51 61 34 62 50 63 35 64 38 65 49 66
REMARK SMILES IDX 65 67 36 68 37 69 48 71 66 72 39 73 26 74 27 75 32 76 28 77
REMARK SMILES IDX 29 78 31 79 33 80 30 81 52 82 53 83 58 84 54 85 55 86 57 87
REMARK SMILES IDX 59 88 56 89 40 90 41 91 46 92 42 93 43 94 45 95 47 96 44 97
REMARK H PARENT 7 6 14 40 64 59 38 70
REMARK Flexibility Score: inf
ROOT
ATOM      1  C   UNL A   1      32.910  29.701  25.226  1.00  0.00     0.021 C 
ENDROOT
BRANCH   1   2
ATOM      2  C   UNL A   1      31.417  30.029  25.227  1.00  0.00     0.116 C 
BRANCH   2   3
ATOM      3  N   UNL A   1      30.885  30.077  23.880  1.00  0.00    -0.356 N 
ATOM      4  C   UNL A   1      30.227  29.106  23.181  1.00  0.00     0.224 C 
ATOM      5  O   UNL A   1      29.935  29.331  22.006  1.00  0.00    -0.275 OA
ATOM      6  H   UNL A   1      31.017  30.927  23.403  1.00  0.00     0.163 HD
BRANCH   4   7
ATOM      7  C   UNL A   1      29.819  27.803  23.863  1.00  0.00     0.136 C 
BRANCH   7   8
ATOM      8  C   UNL A   1      30.952  26.856  24.089  1.00  0.00    -0.027 C 
ATOM      9  C   UNL A   1      31.018  26.730  26.647  1.00  0.00     0.045 C 
ATOM     10  C   UNL A   1      31.480  26.424  25.259  1.00  0.00    -0.039 C 
ATOM     11  C   UNL A   1      32.613  25.526  24.986  1.00  0.00    -0.014 C 
ATOM     12  C   UNL A   1      31.679  26.186  22.996  1.00  0.00    -0.011 A 
ATOM     13  C   UNL A   1      32.676  25.343  23.528  1.00  0.00    -0.010 A 
ATOM     14  C   UNL A   1      33.412  25.024  25.941  1.00  0.00     0.017 C 
ATOM     15  C   UNL A   1      31.487  26.272  21.624  1.00  0.00     0.048 A 
ATOM     16  C   UNL A   1      33.465  24.560  22.697  1.00  0.00     0.012 A 
ATOM     17  C   UNL A   1      32.301  25.505  20.797  1.00  0.00     0.123 A 
ATOM     18  C   UNL A   1      33.277  24.651  21.317  1.00  0.00     0.040 A 
ATOM     19  F   UNL A   1      32.142  25.577  19.469  1.00  0.00    -0.207 F 
BRANCH  14  20
ATOM     20  C   UNL A   1      34.502  24.066  25.772  1.00  0.00    -0.021 A 
ATOM     21  C   UNL A   1      35.844  24.447  25.749  1.00  0.00     0.008 A 
ATOM     22  C   UNL A   1      34.156  22.715  25.653  1.00  0.00     0.054 A 
ATOM     23  C   UNL A   1      36.831  23.474  25.588  1.00  0.00     0.004 A 
ATOM     24  C   UNL A   1      35.137  21.734  25.545  1.00  0.00     0.120 A 
ATOM     25  C   UNL A   1      36.477  22.124  25.490  1.00  0.00     0.046 A 
BRANCH  24  26
ATOM     26  O   UNL A   1      34.912  20.384  25.494  1.00  0.00    -0.489 OA
BRANCH  26  27
ATOM     27  C   UNL A   1      34.035  19.877  24.477  1.00  0.00     0.265 C 
BRANCH  27  28
ATOM     28  C   UNL A   1      33.735  18.402  24.638  1.00  0.00    -0.011 A 
ATOM     29  C   UNL A   1      32.829  17.969  25.616  1.00  0.00     0.007 A 
ATOM     30  C   UNL A   1      34.345  17.444  23.811  1.00  0.00     0.007 A 
ATOM     31  C   UNL A   1      32.525  16.613  25.751  1.00  0.00     0.000 A 
ATOM     32  C   UNL A   1      34.027  16.091  23.936  1.00  0.00     0.000 A 
ATOM     33  C   UNL A   1      33.119  15.676  24.906  1.00  0.00     0.000 A 
ENDBRANCH  27  28
ENDBRANCH  26  27
ENDBRANCH  24  26
ENDBRANCH  14  20
ENDBRANCH   7   8
ENDBRANCH   4   7
ENDBRANCH   2   3
ENDBRANCH   1   2
BRANCH   1  34
ATOM     34  C   UNL A   1      33.481  29.387  26.616  1.00  0.00     0.002 C 
BRANCH  34  35
ATOM     35  C   UNL A   1      34.200  30.550  27.310  1.00  0.00     0.002 C 
BRANCH  35  36
ATOM     36  C   UNL A   1      33.285  31.642  27.865  1.00  0.00     0.021 C 
BRANCH  36  37
ATOM     37  C   UNL A   1      33.445  33.002  27.196  1.00  0.00     0.116 C 
BRANCH  37  38
ATOM     38  N   UNL A   1      32.862  34.080  27.983  1.00  0.00    -0.352 N 
ATOM     39  C   UNL A   1      33.271  34.579  29.196  1.00  0.00     0.251 C 
ATOM     40  H   UNL A   1      32.067  34.510  27.591  1.00  0.00     0.163 HD
ATOM     41  O   UNL A   1      32.577  35.384  29.810  1.00  0.00    -0.269 OA
BRANCH  39  42
ATOM     42  C   UNL A   1      34.546  34.110  29.775  1.00  0.00     0.039 A 
ATOM     43  C   UNL A   1      35.758  34.411  29.145  1.00  0.00     0.014 A 
ATOM     44  C   UNL A   1      34.525  33.327  30.931  1.00  0.00     0.014 A 
ATOM     45  C   UNL A   1      36.928  33.802  29.583  1.00  0.00     0.010 A 
ATOM     46  C   UNL A   1      35.715  32.774  31.412  1.00  0.00     0.010 A 
ATOM     47  C   UNL A   1      36.918  32.972  30.716  1.00  0.00    -0.014 A 
BRANCH  47  48
ATOM     48  C   UNL A   1      38.173  32.312  31.155  1.00  0.00     0.031 A 
ATOM     49  C   UNL A   1      38.669  31.072  30.463  1.00  0.00     0.074 A 
ATOM     50  C   UNL A   1      38.889  32.858  32.157  1.00  0.00     0.049 A 
ATOM     51  N   UNL A   1      39.712  30.331  30.742  1.00  0.00    -0.248 NA
ATOM     52  C   UNL A   1      37.892  30.601  29.304  1.00  0.00     0.031 C 
ATOM     53  C   UNL A   1      38.525  34.072  32.890  1.00  0.00     0.029 A 
ATOM     54  N   UNL A   1      40.074  32.468  32.725  1.00  0.00    -0.354 N 
ATOM     55  C   UNL A   1      39.712  29.305  29.805  1.00  0.00     0.074 A 
ATOM     56  C   UNL A   1      38.549  29.500  28.965  1.00  0.00     0.031 C 
ATOM     57  C   UNL A   1      39.478  34.341  33.794  1.00  0.00     0.029 A 
ATOM     58  C   UNL A   1      40.485  33.287  33.748  1.00  0.00     0.049 A 
ATOM     59  H   UNL A   1      40.580  31.678  32.429  1.00  0.00     0.167 HD
ATOM     60  C   UNL A   1      40.607  28.299  29.653  1.00  0.00     0.037 A 
ATOM     61  C   UNL A   1      41.536  33.181  34.581  1.00  0.00     0.037 A 
ATOM     62  C   UNL A   1      41.766  28.109  30.486  1.00  0.00     0.049 A 
ATOM     63  C   UNL A   1      42.466  32.012  34.438  1.00  0.00     0.074 A 
ATOM     64  C   UNL A   1      42.734  27.121  30.410  1.00  0.00     0.029 A 
ATOM     65  N   UNL A   1      42.114  28.926  31.551  1.00  0.00    -0.354 N 
ATOM     66  N   UNL A   1      42.447  31.043  33.556  1.00  0.00    -0.248 NA
ATOM     67  C   UNL A   1      43.555  31.914  35.420  1.00  0.00     0.031 C 
ATOM     68  C   UNL A   1      43.648  27.322  31.451  1.00  0.00     0.029 A 
ATOM     69  C   UNL A   1      43.269  28.454  32.152  1.00  0.00     0.049 A 
ATOM     70  H   UNL A   1      41.613  29.724  31.837  1.00  0.00     0.167 HD
ATOM     71  C   UNL A   1      43.516  30.218  33.877  1.00  0.00     0.074 A 
ATOM     72  C   UNL A   1      44.184  30.821  35.014  1.00  0.00     0.031 C 
ATOM     73  C   UNL A   1      43.905  29.059  33.294  1.00  0.00     0.037 A 
BRANCH  60  74
ATOM     74  C   UNL A   1      40.363  27.316  28.545  1.00  0.00     0.057 A 
ATOM     75  C   UNL A   1      39.528  26.209  28.740  1.00  0.00     0.134 A 
ATOM     76  C   UNL A   1      40.989  27.444  27.298  1.00  0.00     0.134 A 
ATOM     77  F   UNL A   1      38.902  26.026  29.911  1.00  0.00    -0.206 F 
ATOM     78  C   UNL A   1      39.328  25.259  27.735  1.00  0.00     0.040 A 
ATOM     79  C   UNL A   1      40.781  26.511  26.278  1.00  0.00     0.040 A 
ATOM     80  F   UNL A   1      41.789  28.490  27.042  1.00  0.00    -0.206 F 
ATOM     81  C   UNL A   1      39.954  25.412  26.499  1.00  0.00     0.006 A 
ENDBRANCH  60  74
BRANCH  61  82
ATOM     82  C   UNL A   1      41.733  34.180  35.659  1.00  0.00     0.057 A 
ATOM     83  C   UNL A   1      41.151  34.008  36.921  1.00  0.00     0.134 A 
ATOM     84  C   UNL A   1      42.520  35.318  35.459  1.00  0.00     0.134 A 
ATOM     85  F   UNL A   1      40.384  32.937  37.172  1.00  0.00    -0.206 F 
ATOM     86  C   UNL A   1      41.338  34.937  37.944  1.00  0.00     0.040 A 
ATOM     87  C   UNL A   1      42.737  36.242  36.482  1.00  0.00     0.040 A 
ATOM     88  F   UNL A   1      43.122  35.525  34.278  1.00  0.00    -0.206 F 
ATOM     89  C   UNL A   1      42.141  36.055  37.727  1.00  0.00     0.006 A 
ENDBRANCH  61  82
BRANCH  73  90
ATOM     90  C   UNL A   1      45.102  28.377  33.885  1.00  0.00     0.057 A 
ATOM     91  C   UNL A   1      44.958  27.406  34.881  1.00  0.00     0.134 A 
ATOM     92  C   UNL A   1      46.401  28.687  33.459  1.00  0.00     0.134 A 
ATOM     93  F   UNL A   1      43.741  27.068  35.333  1.00  0.00    -0.206 F 
ATOM     94  C   UNL A   1      46.065  26.761  35.433  1.00  0.00     0.040 A 
ATOM     95  C   UNL A   1      47.514  28.034  33.988  1.00  0.00     0.040 A 
ATOM     96  F   UNL A   1      46.601  29.597  32.494  1.00  0.00    -0.206 F 
ATOM     97  C   UNL A   1      47.348  27.070  34.981  1.00  0.00     0.006 A 
ENDBRANCH  73  90
ENDBRANCH  47  48
ENDBRANCH  39  42
ENDBRANCH  37  38
ENDBRANCH  36  37
ENDBRANCH  35  36
ENDBRANCH  34  35
ENDBRANCH   1  34
TORSDOF 18
ENDMDL
