MODEL 1
REMARK VINA RESULT:     -10.7      0.000      0.000
REMARK SMILES C[C@H](/N=C(\Cc1ccccc1)C(=O)OC(C)(C)C)C(=O)NCCCCCCNC(=O)c1ccc(-c2c3nc(c(-c4c(F)cccc4F)c4ccc([nH]4)c(-c4c(F)cccc4F)c4nc(c(-c5c(F)cccc5F)c5ccc2[nH]5)C=C4)C=C3)cc1
REMARK SMILES IDX 23 1 22 2 21 3 19 4 20 5 2 7 1 8 3 9 4 10 5 11 6 12 7 13
REMARK SMILES IDX 11 14 8 15 10 16 9 17 12 18 13 19 14 20 15 21 16 22 17 23
REMARK SMILES IDX 18 24 24 25 25 26 26 27 27 28 28 29 29 30 30 32 31 33 32 34
REMARK SMILES IDX 84 35 33 36 83 37 34 38 35 39 36 40 77 41 37 42 82 43 76 44
REMARK SMILES IDX 78 45 38 46 81 47 75 48 74 49 39 51 65 52 48 53 64 54 49 55
REMARK SMILES IDX 52 56 63 57 79 58 50 59 51 60 62 62 80 63 53 64 40 65 41 66
REMARK SMILES IDX 46 67 42 68 43 69 45 70 47 71 44 72 66 73 67 74 72 75 68 76
REMARK SMILES IDX 69 77 71 78 73 79 70 80 54 81 55 82 60 83 56 84 57 85 59 86
REMARK SMILES IDX 61 87 58 88
REMARK H PARENT 21 6 28 31 78 50 52 61
REMARK Flexibility Score: inf
ROOT
ATOM      1  C   UNL A   1      35.463  31.841  28.112  1.00  0.00     0.021 C 
ENDROOT
BRANCH   1   2
ATOM      2  C   UNL A   1      34.869  30.537  27.576  1.00  0.00     0.116 C 
BRANCH   2   3
ATOM      3  N   UNL A   1      33.426  30.575  27.527  1.00  0.00    -0.354 N 
ATOM      4  C   UNL A   1      32.506  29.789  26.907  1.00  0.00     0.244 C 
ATOM      5  O   UNL A   1      31.321  30.054  27.141  1.00  0.00    -0.273 OA
ATOM      6  H   UNL A   1      33.031  31.314  28.043  1.00  0.00     0.163 HD
BRANCH   4   7
ATOM      7  C   UNL A   1      32.873  28.603  26.001  1.00  0.00     0.191 C 
ATOM      8  C   UNL A   1      33.618  28.974  24.737  1.00  0.00     0.044 C 
BRANCH   7   9
ATOM      9  N   UNL A   1      31.784  27.641  25.899  1.00  0.00    -0.269 NA
ATOM     10  C   UNL A   1      30.975  27.265  24.982  1.00  0.00     0.125 C 
BRANCH  10  11
ATOM     11  C   UNL A   1      30.770  27.846  23.606  1.00  0.00     0.099 C 
BRANCH  11  12
ATOM     12  C   UNL A   1      29.761  28.956  23.428  1.00  0.00    -0.042 A 
ATOM     13  C   UNL A   1      28.464  28.707  22.959  1.00  0.00     0.004 A 
ATOM     14  C   UNL A   1      30.062  30.250  23.883  1.00  0.00     0.004 A 
ATOM     15  C   UNL A   1      27.496  29.713  22.948  1.00  0.00     0.000 A 
ATOM     16  C   UNL A   1      29.091  31.253  23.886  1.00  0.00     0.000 A 
ATOM     17  C   UNL A   1      27.807  30.985  23.421  1.00  0.00     0.000 A 
ENDBRANCH  11  12
ENDBRANCH  10  11
BRANCH  10  18
ATOM     18  C   UNL A   1      30.026  26.129  25.396  1.00  0.00     0.353 C 
ATOM     19  O   UNL A   1      28.962  25.933  24.848  1.00  0.00    -0.245 OA
BRANCH  18  20
ATOM     20  O   UNL A   1      30.602  25.401  26.375  1.00  0.00    -0.455 OA
BRANCH  20  21
ATOM     21  C   UNL A   1      30.953  24.008  26.161  1.00  0.00     0.104 C 
ATOM     22  C   UNL A   1      30.050  23.014  26.908  1.00  0.00     0.056 C 
ATOM     23  C   UNL A   1      30.972  23.721  24.658  1.00  0.00     0.056 C 
ATOM     24  C   UNL A   1      32.376  23.881  26.723  1.00  0.00     0.056 C 
ENDBRANCH  20  21
ENDBRANCH  18  20
ENDBRANCH  10  18
ENDBRANCH   7   9
ENDBRANCH   4   7
ENDBRANCH   2   3
ENDBRANCH   1   2
BRANCH   1  25
ATOM     25  C   UNL A   1      34.463  32.679  28.919  1.00  0.00     0.002 C 
BRANCH  25  26
ATOM     26  C   UNL A   1      34.484  34.188  28.651  1.00  0.00     0.002 C 
BRANCH  26  27
ATOM     27  C   UNL A   1      33.153  34.922  28.829  1.00  0.00     0.021 C 
BRANCH  27  28
ATOM     28  C   UNL A   1      33.228  36.274  29.538  1.00  0.00     0.116 C 
BRANCH  28  29
ATOM     29  N   UNL A   1      32.420  36.321  30.745  1.00  0.00    -0.352 N 
ATOM     30  C   UNL A   1      32.582  35.719  31.967  1.00  0.00     0.251 C 
ATOM     31  H   UNL A   1      31.616  36.882  30.673  1.00  0.00     0.163 HD
ATOM     32  O   UNL A   1      31.670  35.781  32.789  1.00  0.00    -0.269 OA
BRANCH  30  33
ATOM     33  C   UNL A   1      33.821  34.989  32.317  1.00  0.00     0.039 A 
ATOM     34  C   UNL A   1      33.705  33.684  32.809  1.00  0.00     0.014 A 
ATOM     35  C   UNL A   1      35.081  35.591  32.246  1.00  0.00     0.014 A 
ATOM     36  C   UNL A   1      34.845  32.966  33.179  1.00  0.00     0.010 A 
ATOM     37  C   UNL A   1      36.225  34.857  32.563  1.00  0.00     0.010 A 
ATOM     38  C   UNL A   1      36.117  33.540  33.037  1.00  0.00    -0.014 A 
BRANCH  38  39
ATOM     39  C   UNL A   1      37.342  32.779  33.388  1.00  0.00     0.031 A 
ATOM     40  C   UNL A   1      38.072  33.063  34.671  1.00  0.00     0.074 A 
ATOM     41  C   UNL A   1      37.830  31.868  32.525  1.00  0.00     0.049 A 
ATOM     42  N   UNL A   1      39.197  32.559  35.110  1.00  0.00    -0.248 NA
ATOM     43  C   UNL A   1      37.466  34.058  35.568  1.00  0.00     0.031 C 
ATOM     44  C   UNL A   1      37.233  31.517  31.236  1.00  0.00     0.029 A 
ATOM     45  N   UNL A   1      38.950  31.077  32.602  1.00  0.00    -0.354 N 
ATOM     46  C   UNL A   1      39.448  33.192  36.321  1.00  0.00     0.074 A 
ATOM     47  C   UNL A   1      38.370  34.136  36.534  1.00  0.00     0.031 C 
ATOM     48  C   UNL A   1      37.981  30.567  30.651  1.00  0.00     0.029 A 
ATOM     49  C   UNL A   1      39.125  30.266  31.507  1.00  0.00     0.049 A 
ATOM     50  H   UNL A   1      39.568  31.090  33.367  1.00  0.00     0.167 HD
ATOM     51  C   UNL A   1      40.474  32.996  37.183  1.00  0.00     0.037 A 
ATOM     52  C   UNL A   1      40.099  29.382  31.225  1.00  0.00     0.037 A 
ATOM     53  C   UNL A   1      41.524  32.030  36.995  1.00  0.00     0.049 A 
ATOM     54  C   UNL A   1      41.222  29.179  32.199  1.00  0.00     0.074 A 
ATOM     55  C   UNL A   1      42.568  31.712  37.848  1.00  0.00     0.029 A 
ATOM     56  N   UNL A   1      41.661  31.221  35.877  1.00  0.00    -0.354 N 
ATOM     57  N   UNL A   1      41.423  29.755  33.359  1.00  0.00    -0.248 NA
ATOM     58  C   UNL A   1      42.256  28.202  31.824  1.00  0.00     0.031 C 
ATOM     59  C   UNL A   1      43.351  30.728  37.234  1.00  0.00     0.029 A 
ATOM     60  C   UNL A   1      42.780  30.417  36.011  1.00  0.00     0.049 A 
ATOM     61  H   UNL A   1      41.052  31.219  35.104  1.00  0.00     0.167 HD
ATOM     62  C   UNL A   1      42.590  29.197  33.862  1.00  0.00     0.074 A 
ATOM     63  C   UNL A   1      43.051  28.233  32.885  1.00  0.00     0.031 C 
ATOM     64  C   UNL A   1      43.222  29.459  35.031  1.00  0.00     0.037 A 
BRANCH  51  65
ATOM     65  C   UNL A   1      40.510  33.852  38.412  1.00  0.00     0.057 A 
ATOM     66  C   UNL A   1      39.801  33.508  39.570  1.00  0.00     0.134 A 
ATOM     67  C   UNL A   1      41.280  35.021  38.444  1.00  0.00     0.134 A 
ATOM     68  F   UNL A   1      39.035  32.408  39.595  1.00  0.00    -0.206 F 
ATOM     69  C   UNL A   1      39.840  34.310  40.711  1.00  0.00     0.040 A 
ATOM     70  C   UNL A   1      41.342  35.820  39.587  1.00  0.00     0.040 A 
ATOM     71  F   UNL A   1      41.984  35.404  37.368  1.00  0.00    -0.206 F 
ATOM     72  C   UNL A   1      40.616  35.468  40.723  1.00  0.00     0.006 A 
ENDBRANCH  51  65
BRANCH  52  73
ATOM     73  C   UNL A   1      40.041  28.599  29.969  1.00  0.00     0.057 A 
ATOM     74  C   UNL A   1      40.719  29.033  28.825  1.00  0.00     0.134 A 
ATOM     75  C   UNL A   1      39.317  27.405  29.881  1.00  0.00     0.134 A 
ATOM     76  F   UNL A   1      41.414  30.179  28.846  1.00  0.00    -0.206 F 
ATOM     77  C   UNL A   1      40.672  28.310  27.632  1.00  0.00     0.040 A 
ATOM     78  C   UNL A   1      39.274  26.664  28.700  1.00  0.00     0.040 A 
ATOM     79  F   UNL A   1      38.649  26.939  30.947  1.00  0.00    -0.206 F 
ATOM     80  C   UNL A   1      39.950  27.119  27.569  1.00  0.00     0.006 A 
ENDBRANCH  52  73
BRANCH  64  81
ATOM     81  C   UNL A   1      44.462  28.672  35.326  1.00  0.00     0.057 A 
ATOM     82  C   UNL A   1      45.732  29.153  34.989  1.00  0.00     0.134 A 
ATOM     83  C   UNL A   1      44.384  27.436  35.977  1.00  0.00     0.134 A 
ATOM     84  F   UNL A   1      45.868  30.324  34.349  1.00  0.00    -0.206 F 
ATOM     85  C   UNL A   1      46.885  28.422  35.277  1.00  0.00     0.040 A 
ATOM     86  C   UNL A   1      45.531  26.704  36.286  1.00  0.00     0.040 A 
ATOM     87  F   UNL A   1      43.195  26.924  36.329  1.00  0.00    -0.206 F 
ATOM     88  C   UNL A   1      46.786  27.195  35.932  1.00  0.00     0.006 A 
ENDBRANCH  64  81
ENDBRANCH  38  39
ENDBRANCH  30  33
ENDBRANCH  28  29
ENDBRANCH  27  28
ENDBRANCH  26  27
ENDBRANCH  25  26
ENDBRANCH   1  25
TORSDOF 19
ENDMDL
MODEL 2
REMARK VINA RESULT:     -10.7      4.833      7.591
REMARK SMILES C[C@H](/N=C(\Cc1ccccc1)C(=O)OC(C)(C)C)C(=O)NCCCCCCNC(=O)c1ccc(-c2c3nc(c(-c4c(F)cccc4F)c4ccc([nH]4)c(-c4c(F)cccc4F)c4nc(c(-c5c(F)cccc5F)c5ccc2[nH]5)C=C4)C=C3)cc1
REMARK SMILES IDX 23 1 22 2 21 3 19 4 20 5 2 7 1 8 3 9 4 10 5 11 6 12 7 13
REMARK SMILES IDX 11 14 8 15 10 16 9 17 12 18 13 19 14 20 15 21 16 22 17 23
REMARK SMILES IDX 18 24 24 25 25 26 26 27 27 28 28 29 29 30 30 32 31 33 32 34
REMARK SMILES IDX 84 35 33 36 83 37 34 38 35 39 36 40 77 41 37 42 82 43 76 44
REMARK SMILES IDX 78 45 38 46 81 47 75 48 74 49 39 51 65 52 48 53 64 54 49 55
REMARK SMILES IDX 52 56 63 57 79 58 50 59 51 60 62 62 80 63 53 64 40 65 41 66
REMARK SMILES IDX 46 67 42 68 43 69 45 70 47 71 44 72 66 73 67 74 72 75 68 76
REMARK SMILES IDX 69 77 71 78 73 79 70 80 54 81 55 82 60 83 56 84 57 85 59 86
REMARK SMILES IDX 61 87 58 88
REMARK H PARENT 21 6 28 31 78 50 52 61
REMARK Flexibility Score: inf
ROOT
ATOM      1  C   UNL A   1      32.971  25.700  22.691  1.00  0.00     0.021 C 
ENDROOT
BRANCH   1   2
ATOM      2  C   UNL A   1      31.650  24.972  22.949  1.00  0.00     0.116 C 
BRANCH   2   3
ATOM      3  N   UNL A   1      30.961  25.487  24.109  1.00  0.00    -0.354 N 
ATOM      4  C   UNL A   1      30.745  24.979  25.351  1.00  0.00     0.244 C 
ATOM      5  O   UNL A   1      30.173  25.729  26.151  1.00  0.00    -0.273 OA
ATOM      6  H   UNL A   1      30.571  26.381  23.974  1.00  0.00     0.163 HD
BRANCH   4   7
ATOM      7  C   UNL A   1      31.207  23.581  25.790  1.00  0.00     0.191 C 
ATOM      8  C   UNL A   1      30.385  22.955  26.895  1.00  0.00     0.044 C 
BRANCH   7   9
ATOM      9  N   UNL A   1      32.659  23.493  25.879  1.00  0.00    -0.269 NA
ATOM     10  C   UNL A   1      33.516  22.548  25.967  1.00  0.00     0.125 C 
BRANCH  10  11
ATOM     11  C   UNL A   1      33.280  21.072  26.161  1.00  0.00     0.099 C 
BRANCH  11  12
ATOM     12  C   UNL A   1      33.095  20.198  24.943  1.00  0.00    -0.042 A 
ATOM     13  C   UNL A   1      33.359  18.822  24.974  1.00  0.00     0.004 A 
ATOM     14  C   UNL A   1      32.499  20.731  23.789  1.00  0.00     0.004 A 
ATOM     15  C   UNL A   1      33.036  18.002  23.891  1.00  0.00     0.000 A 
ATOM     16  C   UNL A   1      32.161  19.910  22.711  1.00  0.00     0.000 A 
ATOM     17  C   UNL A   1      32.427  18.544  22.763  1.00  0.00     0.000 A 
ENDBRANCH  11  12
ENDBRANCH  10  11
BRANCH  10  18
ATOM     18  C   UNL A   1      34.981  23.015  25.969  1.00  0.00     0.353 C 
ATOM     19  O   UNL A   1      35.294  24.185  25.909  1.00  0.00    -0.245 OA
BRANCH  18  20
ATOM     20  O   UNL A   1      35.790  21.944  26.109  1.00  0.00    -0.455 OA
BRANCH  20  21
ATOM     21  C   UNL A   1      36.853  21.683  25.154  1.00  0.00     0.104 C 
ATOM     22  C   UNL A   1      36.617  22.304  23.770  1.00  0.00     0.056 C 
ATOM     23  C   UNL A   1      38.186  22.141  25.749  1.00  0.00     0.056 C 
ATOM     24  C   UNL A   1      36.861  20.154  25.000  1.00  0.00     0.056 C 
ENDBRANCH  20  21
ENDBRANCH  18  20
ENDBRANCH  10  18
ENDBRANCH   7   9
ENDBRANCH   4   7
ENDBRANCH   2   3
ENDBRANCH   1   2
BRANCH   1  25
ATOM     25  C   UNL A   1      32.961  27.162  23.155  1.00  0.00     0.002 C 
BRANCH  25  26
ATOM     26  C   UNL A   1      33.795  27.474  24.402  1.00  0.00     0.002 C 
BRANCH  26  27
ATOM     27  C   UNL A   1      33.025  28.015  25.609  1.00  0.00     0.021 C 
BRANCH  27  28
ATOM     28  C   UNL A   1      33.845  28.223  26.882  1.00  0.00     0.116 C 
BRANCH  28  29
ATOM     29  N   UNL A   1      33.733  29.573  27.408  1.00  0.00    -0.352 N 
ATOM     30  C   UNL A   1      34.628  30.356  28.090  1.00  0.00     0.251 C 
ATOM     31  H   UNL A   1      32.861  29.999  27.247  1.00  0.00     0.163 HD
ATOM     32  O   UNL A   1      34.242  31.417  28.579  1.00  0.00    -0.269 OA
BRANCH  30  33
ATOM     33  C   UNL A   1      36.041  29.953  28.263  1.00  0.00     0.039 A 
ATOM     34  C   UNL A   1      36.445  29.472  29.514  1.00  0.00     0.014 A 
ATOM     35  C   UNL A   1      36.988  30.115  27.247  1.00  0.00     0.014 A 
ATOM     36  C   UNL A   1      37.776  29.105  29.732  1.00  0.00     0.010 A 
ATOM     37  C   UNL A   1      38.305  29.699  27.446  1.00  0.00     0.010 A 
ATOM     38  C   UNL A   1      38.712  29.195  28.691  1.00  0.00    -0.014 A 
BRANCH  38  39
ATOM     39  C   UNL A   1      40.121  28.775  28.892  1.00  0.00     0.031 A 
ATOM     40  C   UNL A   1      41.122  29.727  29.485  1.00  0.00     0.074 A 
ATOM     41  C   UNL A   1      40.514  27.551  28.491  1.00  0.00     0.049 A 
ATOM     42  N   UNL A   1      42.408  29.567  29.664  1.00  0.00    -0.248 NA
ATOM     43  C   UNL A   1      40.611  31.037  29.914  1.00  0.00     0.031 C 
ATOM     44  C   UNL A   1      39.650  26.542  27.879  1.00  0.00     0.029 A 
ATOM     45  N   UNL A   1      41.749  26.953  28.532  1.00  0.00    -0.354 N 
ATOM     46  C   UNL A   1      42.866  30.763  30.203  1.00  0.00     0.074 A 
ATOM     47  C   UNL A   1      41.723  31.648  30.297  1.00  0.00     0.031 C 
ATOM     48  C   UNL A   1      40.376  25.443  27.619  1.00  0.00     0.029 A 
ATOM     49  C   UNL A   1      41.761  25.680  28.016  1.00  0.00     0.049 A 
ATOM     50  H   UNL A   1      42.551  27.394  28.896  1.00  0.00     0.167 HD
ATOM     51  C   UNL A   1      44.120  31.090  30.595  1.00  0.00     0.037 A 
ATOM     52  C   UNL A   1      42.774  24.806  27.876  1.00  0.00     0.037 A 
ATOM     53  C   UNL A   1      45.250  30.199  30.542  1.00  0.00     0.049 A 
ATOM     54  C   UNL A   1      44.153  25.190  28.324  1.00  0.00     0.074 A 
ATOM     55  C   UNL A   1      46.545  30.420  30.982  1.00  0.00     0.029 A 
ATOM     56  N   UNL A   1      45.218  28.916  30.021  1.00  0.00    -0.354 N 
ATOM     57  N   UNL A   1      44.562  26.309  28.869  1.00  0.00    -0.248 NA
ATOM     58  C   UNL A   1      45.214  24.188  28.136  1.00  0.00     0.031 C 
ATOM     59  C   UNL A   1      47.303  29.277  30.702  1.00  0.00     0.029 A 
ATOM     60  C   UNL A   1      46.473  28.338  30.113  1.00  0.00     0.049 A 
ATOM     61  H   UNL A   1      44.421  28.480  29.642  1.00  0.00     0.167 HD
ATOM     62  C   UNL A   1      45.919  26.140  29.110  1.00  0.00     0.074 A 
ATOM     63  C   UNL A   1      46.264  24.809  28.656  1.00  0.00     0.031 C 
ATOM     64  C   UNL A   1      46.799  27.010  29.661  1.00  0.00     0.037 A 
BRANCH  51  65
ATOM     65  C   UNL A   1      44.336  32.478  31.116  1.00  0.00     0.057 A 
ATOM     66  C   UNL A   1      44.222  32.778  32.480  1.00  0.00     0.134 A 
ATOM     67  C   UNL A   1      44.682  33.520  30.248  1.00  0.00     0.134 A 
ATOM     68  F   UNL A   1      43.879  31.826  33.359  1.00  0.00    -0.206 F 
ATOM     69  C   UNL A   1      44.425  34.074  32.958  1.00  0.00     0.040 A 
ATOM     70  C   UNL A   1      44.907  34.815  30.718  1.00  0.00     0.040 A 
ATOM     71  F   UNL A   1      44.809  33.296  28.931  1.00  0.00    -0.206 F 
ATOM     72  C   UNL A   1      44.773  35.096  32.076  1.00  0.00     0.006 A 
ENDBRANCH  51  65
BRANCH  52  73
ATOM     73  C   UNL A   1      42.514  23.464  27.305  1.00  0.00     0.057 A 
ATOM     74  C   UNL A   1      42.127  22.401  28.127  1.00  0.00     0.134 A 
ATOM     75  C   UNL A   1      42.640  23.212  25.935  1.00  0.00     0.134 A 
ATOM     76  F   UNL A   1      42.007  22.581  29.451  1.00  0.00    -0.206 F 
ATOM     77  C   UNL A   1      41.882  21.129  27.608  1.00  0.00     0.040 A 
ATOM     78  C   UNL A   1      42.383  21.950  25.399  1.00  0.00     0.040 A 
ATOM     79  F   UNL A   1      43.005  24.194  25.097  1.00  0.00    -0.206 F 
ATOM     80  C   UNL A   1      42.007  20.902  26.239  1.00  0.00     0.006 A 
ENDBRANCH  52  73
BRANCH  64  81
ATOM     81  C   UNL A   1      48.210  26.538  29.825  1.00  0.00     0.057 A 
ATOM     82  C   UNL A   1      48.631  25.872  30.982  1.00  0.00     0.134 A 
ATOM     83  C   UNL A   1      49.149  26.727  28.804  1.00  0.00     0.134 A 
ATOM     84  F   UNL A   1      47.780  25.675  32.000  1.00  0.00    -0.206 F 
ATOM     85  C   UNL A   1      49.944  25.422  31.124  1.00  0.00     0.040 A 
ATOM     86  C   UNL A   1      50.460  26.267  28.928  1.00  0.00     0.040 A 
ATOM     87  F   UNL A   1      48.805  27.355  27.670  1.00  0.00    -0.206 F 
ATOM     88  C   UNL A   1      50.862  25.616  30.093  1.00  0.00     0.006 A 
ENDBRANCH  64  81
ENDBRANCH  38  39
ENDBRANCH  30  33
ENDBRANCH  28  29
ENDBRANCH  27  28
ENDBRANCH  26  27
ENDBRANCH  25  26
ENDBRANCH   1  25
TORSDOF 19
ENDMDL
MODEL 3
REMARK VINA RESULT:     -10.5      1.320      2.672
REMARK SMILES C[C@H](/N=C(\Cc1ccccc1)C(=O)OC(C)(C)C)C(=O)NCCCCCCNC(=O)c1ccc(-c2c3nc(c(-c4c(F)cccc4F)c4ccc([nH]4)c(-c4c(F)cccc4F)c4nc(c(-c5c(F)cccc5F)c5ccc2[nH]5)C=C4)C=C3)cc1
REMARK SMILES IDX 23 1 22 2 21 3 19 4 20 5 2 7 1 8 3 9 4 10 5 11 6 12 7 13
REMARK SMILES IDX 11 14 8 15 10 16 9 17 12 18 13 19 14 20 15 21 16 22 17 23
REMARK SMILES IDX 18 24 24 25 25 26 26 27 27 28 28 29 29 30 30 32 31 33 32 34
REMARK SMILES IDX 84 35 33 36 83 37 34 38 35 39 36 40 77 41 37 42 82 43 76 44
REMARK SMILES IDX 78 45 38 46 81 47 75 48 74 49 39 51 65 52 48 53 64 54 49 55
REMARK SMILES IDX 52 56 63 57 79 58 50 59 51 60 62 62 80 63 53 64 40 65 41 66
REMARK SMILES IDX 46 67 42 68 43 69 45 70 47 71 44 72 66 73 67 74 72 75 68 76
REMARK SMILES IDX 69 77 71 78 73 79 70 80 54 81 55 82 60 83 56 84 57 85 59 86
REMARK SMILES IDX 61 87 58 88
REMARK H PARENT 21 6 28 31 78 50 52 61
REMARK Flexibility Score: inf
ROOT
ATOM      1  C   UNL A   1      34.645  31.519  28.444  1.00  0.00     0.021 C 
ENDROOT
BRANCH   1   2
ATOM      2  C   UNL A   1      34.393  30.588  27.256  1.00  0.00     0.116 C 
BRANCH   2   3
ATOM      3  N   UNL A   1      33.095  30.803  26.660  1.00  0.00    -0.354 N 
ATOM      4  C   UNL A   1      32.386  30.114  25.728  1.00  0.00     0.244 C 
ATOM      5  O   UNL A   1      31.246  30.534  25.493  1.00  0.00    -0.273 OA
ATOM      6  H   UNL A   1      32.634  31.606  26.994  1.00  0.00     0.163 HD
BRANCH   4   7
ATOM      7  C   UNL A   1      32.912  28.856  25.018  1.00  0.00     0.191 C 
ATOM      8  C   UNL A   1      33.419  29.084  23.611  1.00  0.00     0.044 C 
BRANCH   7   9
ATOM      9  N   UNL A   1      32.061  27.699  25.263  1.00  0.00    -0.269 NA
ATOM     10  C   UNL A   1      32.221  26.534  25.766  1.00  0.00     0.125 C 
BRANCH  10  11
ATOM     11  C   UNL A   1      33.498  25.854  26.191  1.00  0.00     0.099 C 
BRANCH  11  12
ATOM     12  C   UNL A   1      34.247  25.016  25.182  1.00  0.00    -0.042 A 
ATOM     13  C   UNL A   1      35.375  24.265  25.537  1.00  0.00     0.004 A 
ATOM     14  C   UNL A   1      33.724  24.853  23.889  1.00  0.00     0.004 A 
ATOM     15  C   UNL A   1      35.961  23.376  24.634  1.00  0.00     0.000 A 
ATOM     16  C   UNL A   1      34.301  23.953  22.990  1.00  0.00     0.000 A 
ATOM     17  C   UNL A   1      35.418  23.212  23.363  1.00  0.00     0.000 A 
ENDBRANCH  11  12
ENDBRANCH  10  11
BRANCH  10  18
ATOM     18  C   UNL A   1      30.936  25.694  25.850  1.00  0.00     0.353 C 
ATOM     19  O   UNL A   1      30.009  25.839  25.080  1.00  0.00    -0.245 OA
BRANCH  18  20
ATOM     20  O   UNL A   1      31.062  24.783  26.836  1.00  0.00    -0.455 OA
BRANCH  20  21
ATOM     21  C   UNL A   1      30.906  23.364  26.565  1.00  0.00     0.104 C 
ATOM     22  C   UNL A   1      29.650  22.742  27.193  1.00  0.00     0.056 C 
ATOM     23  C   UNL A   1      30.943  23.136  25.052  1.00  0.00     0.056 C 
ATOM     24  C   UNL A   1      32.139  22.713  27.210  1.00  0.00     0.056 C 
ENDBRANCH  20  21
ENDBRANCH  18  20
ENDBRANCH  10  18
ENDBRANCH   7   9
ENDBRANCH   4   7
ENDBRANCH   2   3
ENDBRANCH   1   2
BRANCH   1  25
ATOM     25  C   UNL A   1      34.893  32.976  28.033  1.00  0.00     0.002 C 
BRANCH  25  26
ATOM     26  C   UNL A   1      34.649  34.030  29.119  1.00  0.00     0.002 C 
BRANCH  26  27
ATOM     27  C   UNL A   1      33.255  34.661  29.143  1.00  0.00     0.021 C 
BRANCH  27  28
ATOM     28  C   UNL A   1      33.199  36.134  29.548  1.00  0.00     0.116 C 
BRANCH  28  29
ATOM     29  N   UNL A   1      32.465  36.350  30.784  1.00  0.00    -0.352 N 
ATOM     30  C   UNL A   1      32.645  35.841  32.044  1.00  0.00     0.251 C 
ATOM     31  H   UNL A   1      31.706  36.969  30.701  1.00  0.00     0.163 HD
ATOM     32  O   UNL A   1      31.786  36.047  32.900  1.00  0.00    -0.269 OA
BRANCH  30  33
ATOM     33  C   UNL A   1      33.838  35.040  32.397  1.00  0.00     0.039 A 
ATOM     34  C   UNL A   1      35.096  35.645  32.294  1.00  0.00     0.014 A 
ATOM     35  C   UNL A   1      33.747  33.689  32.747  1.00  0.00     0.014 A 
ATOM     36  C   UNL A   1      36.253  34.918  32.590  1.00  0.00     0.010 A 
ATOM     37  C   UNL A   1      34.897  32.979  33.095  1.00  0.00     0.010 A 
ATOM     38  C   UNL A   1      36.161  33.585  33.015  1.00  0.00    -0.014 A 
BRANCH  38  39
ATOM     39  C   UNL A   1      37.375  32.811  33.371  1.00  0.00     0.031 A 
ATOM     40  C   UNL A   1      38.101  33.083  34.658  1.00  0.00     0.074 A 
ATOM     41  C   UNL A   1      37.858  31.896  32.509  1.00  0.00     0.049 A 
ATOM     42  N   UNL A   1      39.218  32.566  35.102  1.00  0.00    -0.248 NA
ATOM     43  C   UNL A   1      37.502  34.084  35.554  1.00  0.00     0.031 C 
ATOM     44  C   UNL A   1      37.263  31.553  31.216  1.00  0.00     0.029 A 
ATOM     45  N   UNL A   1      38.967  31.092  32.590  1.00  0.00    -0.354 N 
ATOM     46  C   UNL A   1      39.470  33.194  36.315  1.00  0.00     0.074 A 
ATOM     47  C   UNL A   1      38.402  34.150  36.525  1.00  0.00     0.031 C 
ATOM     48  C   UNL A   1      38.003  30.596  30.633  1.00  0.00     0.029 A 
ATOM     49  C   UNL A   1      39.139  30.280  31.494  1.00  0.00     0.049 A 
ATOM     50  H   UNL A   1      39.582  31.096  33.358  1.00  0.00     0.167 HD
ATOM     51  C   UNL A   1      40.490  32.985  37.182  1.00  0.00     0.037 A 
ATOM     52  C   UNL A   1      40.105  29.387  31.216  1.00  0.00     0.037 A 
ATOM     53  C   UNL A   1      41.529  32.008  36.997  1.00  0.00     0.049 A 
ATOM     54  C   UNL A   1      41.221  29.169  32.195  1.00  0.00     0.074 A 
ATOM     55  C   UNL A   1      42.565  31.676  37.855  1.00  0.00     0.029 A 
ATOM     56  N   UNL A   1      41.663  31.200  35.879  1.00  0.00    -0.354 N 
ATOM     57  N   UNL A   1      41.422  29.741  33.357  1.00  0.00    -0.248 NA
ATOM     58  C   UNL A   1      42.245  28.181  31.823  1.00  0.00     0.031 C 
ATOM     59  C   UNL A   1      43.341  30.685  37.243  1.00  0.00     0.029 A 
ATOM     60  C   UNL A   1      42.773  30.382  36.017  1.00  0.00     0.049 A 
ATOM     61  H   UNL A   1      41.058  31.206  35.103  1.00  0.00     0.167 HD
ATOM     62  C   UNL A   1      42.580  29.169  33.865  1.00  0.00     0.074 A 
ATOM     63  C   UNL A   1      43.035  28.201  32.888  1.00  0.00     0.031 C 
ATOM     64  C   UNL A   1      43.209  29.421  35.038  1.00  0.00     0.037 A 
BRANCH  51  65
ATOM     65  C   UNL A   1      40.529  33.839  38.413  1.00  0.00     0.057 A 
ATOM     66  C   UNL A   1      39.799  33.508  39.561  1.00  0.00     0.134 A 
ATOM     67  C   UNL A   1      41.323  34.990  38.457  1.00  0.00     0.134 A 
ATOM     68  F   UNL A   1      39.008  32.425  39.575  1.00  0.00    -0.206 F 
ATOM     69  C   UNL A   1      39.840  34.308  40.705  1.00  0.00     0.040 A 
ATOM     70  C   UNL A   1      41.388  35.786  39.601  1.00  0.00     0.040 A 
ATOM     71  F   UNL A   1      42.049  35.360  37.390  1.00  0.00    -0.206 F 
ATOM     72  C   UNL A   1      40.641  35.449  40.728  1.00  0.00     0.006 A 
ENDBRANCH  51  65
BRANCH  52  73
ATOM     73  C   UNL A   1      40.045  28.606  29.958  1.00  0.00     0.057 A 
ATOM     74  C   UNL A   1      40.711  29.049  28.810  1.00  0.00     0.134 A 
ATOM     75  C   UNL A   1      39.330  27.407  29.872  1.00  0.00     0.134 A 
ATOM     76  F   UNL A   1      41.396  30.201  28.830  1.00  0.00    -0.206 F 
ATOM     77  C   UNL A   1      40.661  28.329  27.615  1.00  0.00     0.040 A 
ATOM     78  C   UNL A   1      39.285  26.668  28.689  1.00  0.00     0.040 A 
ATOM     79  F   UNL A   1      38.675  26.931  30.942  1.00  0.00    -0.206 F 
ATOM     80  C   UNL A   1      39.949  27.133  27.554  1.00  0.00     0.006 A 
ENDBRANCH  52  73
BRANCH  64  81
ATOM     81  C   UNL A   1      44.438  28.620  35.338  1.00  0.00     0.057 A 
ATOM     82  C   UNL A   1      44.368  27.390  36.000  1.00  0.00     0.134 A 
ATOM     83  C   UNL A   1      45.700  29.073  34.935  1.00  0.00     0.134 A 
ATOM     84  F   UNL A   1      43.189  26.912  36.424  1.00  0.00    -0.206 F 
ATOM     85  C   UNL A   1      45.517  26.642  36.265  1.00  0.00     0.040 A 
ATOM     86  C   UNL A   1      46.852  28.327  35.179  1.00  0.00     0.040 A 
ATOM     87  F   UNL A   1      45.831  30.244  34.292  1.00  0.00    -0.206 F 
ATOM     88  C   UNL A   1      46.763  27.108  35.850  1.00  0.00     0.006 A 
ENDBRANCH  64  81
ENDBRANCH  38  39
ENDBRANCH  30  33
ENDBRANCH  28  29
ENDBRANCH  27  28
ENDBRANCH  26  27
ENDBRANCH  25  26
ENDBRANCH   1  25
TORSDOF 19
ENDMDL
