MODEL 1
REMARK VINA RESULT:     -11.0      0.000      0.000
REMARK SMILES CC(C)[C@@H](CNC(=O)[C@@H]1CC[C@@H]2CCCC[C@@H]2[NH2+]1)C(=O)NCCCCCCNC(=O)c1ccc(-c2c3nc(c(-c4c(F)cccc4F)c4ccc([nH]4)c(-c4c(F)cccc4F)c4nc(c(-c5c(F)cccc5F)c5ccc2[nH]5)C=C4)C=C3)cc1
REMARK SMILES IDX 24 1 23 2 22 3 21 4 19 5 20 6 4 8 2 9 1 10 3 11 5 12 6 13
REMARK SMILES IDX 7 14 8 16 9 17 10 18 18 19 11 20 17 21 12 24 16 25 13 26
REMARK SMILES IDX 15 27 14 28 25 29 26 30 27 31 28 32 29 33 30 35 31 36 32 37
REMARK SMILES IDX 84 38 33 39 83 40 34 41 35 42 36 43 77 44 37 45 82 46 76 47
REMARK SMILES IDX 78 48 38 49 81 50 75 51 74 52 39 54 65 55 48 56 64 57 49 58
REMARK SMILES IDX 52 59 63 60 79 61 50 62 51 63 62 65 80 66 53 67 40 68 41 69
REMARK SMILES IDX 46 70 42 71 43 72 45 73 47 74 44 75 66 76 67 77 72 78 68 79
REMARK SMILES IDX 69 80 71 81 73 82 70 83 54 84 55 85 60 86 56 87 57 88 59 89
REMARK SMILES IDX 61 90 58 91
REMARK H PARENT 21 7 6 15 18 22 18 23 28 34 78 53 52 64
REMARK Flexibility Score: inf
ROOT
ATOM      1  C   UNL A   1      38.726  22.294  25.999  1.00  0.00     0.002 C 
ENDROOT
BRANCH   1   2
ATOM      2  C   UNL A   1      37.962  23.589  26.275  1.00  0.00     0.021 C 
BRANCH   2   3
ATOM      3  C   UNL A   1      36.531  23.575  25.764  1.00  0.00     0.116 C 
BRANCH   3   4
ATOM      4  N   UNL A   1      35.603  22.966  26.691  1.00  0.00    -0.356 N 
ATOM      5  C   UNL A   1      34.622  22.047  26.497  1.00  0.00     0.225 C 
ATOM      6  O   UNL A   1      34.107  21.551  27.504  1.00  0.00    -0.275 OA
ATOM      7  H   UNL A   1      35.698  23.268  27.624  1.00  0.00     0.163 HD
BRANCH   5   8
ATOM      8  C   UNL A   1      34.158  21.589  25.111  1.00  0.00     0.100 C 
BRANCH   8   9
ATOM      9  C   UNL A   1      33.602  20.142  25.040  1.00  0.00    -0.003 C 
ATOM     10  C   UNL A   1      32.504  19.988  23.984  1.00  0.00     0.008 C 
ATOM     11  C   UNL A   1      34.731  19.142  24.748  1.00  0.00     0.008 C 
ENDBRANCH   8   9
BRANCH   8  12
ATOM     12  C   UNL A   1      33.348  22.705  24.427  1.00  0.00     0.129 C 
BRANCH  12  13
ATOM     13  N   UNL A   1      32.316  23.299  25.253  1.00  0.00    -0.350 N 
ATOM     14  C   UNL A   1      32.326  24.497  25.920  1.00  0.00     0.278 C 
ATOM     15  H   UNL A   1      31.492  22.768  25.348  1.00  0.00     0.163 HD
ATOM     16  O   UNL A   1      31.502  24.640  26.826  1.00  0.00    -0.268 OA
BRANCH  14  17
ATOM     17  C   UNL A   1      33.344  25.586  25.519  1.00  0.00     0.272 C 
ATOM     18  C   UNL A   1      33.077  26.938  26.190  1.00  0.00     0.076 C 
ATOM     19  N   UNL A   1      33.402  25.754  24.054  1.00  0.00    -0.333 N 
ATOM     20  C   UNL A   1      31.807  27.609  25.672  1.00  0.00     0.016 C 
ATOM     21  C   UNL A   1      32.219  26.369  23.445  1.00  0.00     0.186 C 
ATOM     22  H   UNL A   1      33.529  24.832  23.636  1.00  0.00     0.347 HD
ATOM     23  H   UNL A   1      34.176  26.394  23.875  1.00  0.00     0.347 HD
ATOM     24  C   UNL A   1      31.776  27.670  24.139  1.00  0.00     0.048 C 
ATOM     25  C   UNL A   1      31.078  25.384  23.105  1.00  0.00     0.065 C 
ATOM     26  C   UNL A   1      30.399  28.086  23.610  1.00  0.00     0.010 C 
ATOM     27  C   UNL A   1      29.761  25.608  23.842  1.00  0.00     0.006 C 
ATOM     28  C   UNL A   1      29.306  27.063  23.917  1.00  0.00     0.001 C 
ENDBRANCH  14  17
ENDBRANCH  12  13
ENDBRANCH   8  12
ENDBRANCH   5   8
ENDBRANCH   3   4
ENDBRANCH   2   3
ENDBRANCH   1   2
BRANCH   1  29
ATOM     29  C   UNL A   1      38.063  21.340  24.996  1.00  0.00     0.002 C 
BRANCH  29  30
ATOM     30  C   UNL A   1      38.529  19.881  25.059  1.00  0.00     0.021 C 
BRANCH  30  31
ATOM     31  C   UNL A   1      39.430  19.545  26.239  1.00  0.00     0.116 C 
BRANCH  31  32
ATOM     32  N   UNL A   1      40.703  18.982  25.821  1.00  0.00    -0.352 N 
ATOM     33  C   UNL A   1      41.938  19.564  25.775  1.00  0.00     0.251 C 
ATOM     34  H   UNL A   1      40.670  18.042  25.528  1.00  0.00     0.163 HD
ATOM     35  O   UNL A   1      42.876  18.978  25.232  1.00  0.00    -0.269 OA
BRANCH  33  36
ATOM     36  C   UNL A   1      42.153  20.901  26.364  1.00  0.00     0.039 A 
ATOM     37  C   UNL A   1      42.444  21.970  25.515  1.00  0.00     0.014 A 
ATOM     38  C   UNL A   1      42.104  21.094  27.748  1.00  0.00     0.014 A 
ATOM     39  C   UNL A   1      42.658  23.241  26.050  1.00  0.00     0.010 A 
ATOM     40  C   UNL A   1      42.241  22.375  28.274  1.00  0.00     0.010 A 
ATOM     41  C   UNL A   1      42.543  23.456  27.432  1.00  0.00    -0.014 A 
BRANCH  41  42
ATOM     42  C   UNL A   1      42.786  24.796  28.020  1.00  0.00     0.031 A 
ATOM     43  C   UNL A   1      44.173  25.178  28.463  1.00  0.00     0.074 A 
ATOM     44  C   UNL A   1      41.760  25.650  28.190  1.00  0.00     0.049 A 
ATOM     45  N   UNL A   1      44.583  26.274  29.050  1.00  0.00    -0.248 NA
ATOM     46  C   UNL A   1      45.236  24.184  28.241  1.00  0.00     0.031 C 
ATOM     47  C   UNL A   1      40.365  25.382  27.834  1.00  0.00     0.029 A 
ATOM     48  N   UNL A   1      41.731  26.918  28.712  1.00  0.00    -0.354 N 
ATOM     49  C   UNL A   1      45.943  26.096  29.273  1.00  0.00     0.074 A 
ATOM     50  C   UNL A   1      46.276  24.763  28.820  1.00  0.00     0.031 C 
ATOM     51  C   UNL A   1      39.622  26.464  28.121  1.00  0.00     0.029 A 
ATOM     52  C   UNL A   1      40.479  27.485  28.716  1.00  0.00     0.049 A 
ATOM     53  H   UNL A   1      42.532  27.381  29.051  1.00  0.00     0.167 HD
ATOM     54  C   UNL A   1      46.839  26.973  29.785  1.00  0.00     0.037 A 
ATOM     55  C   UNL A   1      40.071  28.690  29.155  1.00  0.00     0.037 A 
ATOM     56  C   UNL A   1      46.508  28.306  30.212  1.00  0.00     0.049 A 
ATOM     57  C   UNL A   1      41.085  29.641  29.732  1.00  0.00     0.074 A 
ATOM     58  C   UNL A   1      47.347  29.286  30.711  1.00  0.00     0.029 A 
ATOM     59  N   UNL A   1      45.230  28.847  30.186  1.00  0.00    -0.354 N 
ATOM     60  N   UNL A   1      42.376  29.479  29.892  1.00  0.00    -0.248 NA
ATOM     61  C   UNL A   1      40.585  30.947  30.182  1.00  0.00     0.031 C 
ATOM     62  C   UNL A   1      46.571  30.407  31.025  1.00  0.00     0.029 A 
ATOM     63  C   UNL A   1      45.258  30.144  30.671  1.00  0.00     0.049 A 
ATOM     64  H   UNL A   1      44.424  28.379  29.869  1.00  0.00     0.167 HD
ATOM     65  C   UNL A   1      42.848  30.674  30.419  1.00  0.00     0.074 A 
ATOM     66  C   UNL A   1      41.706  31.554  30.545  1.00  0.00     0.031 C 
ATOM     67  C   UNL A   1      44.114  31.013  30.767  1.00  0.00     0.037 A 
BRANCH  54  68
ATOM     68  C   UNL A   1      48.265  26.517  29.898  1.00  0.00     0.057 A 
ATOM     69  C   UNL A   1      49.206  26.779  28.892  1.00  0.00     0.134 A 
ATOM     70  C   UNL A   1      48.714  25.838  31.038  1.00  0.00     0.134 A 
ATOM     71  F   UNL A   1      48.841  27.414  27.768  1.00  0.00    -0.206 F 
ATOM     72  C   UNL A   1      50.532  26.357  29.003  1.00  0.00     0.040 A 
ATOM     73  C   UNL A   1      50.044  25.438  31.173  1.00  0.00     0.040 A 
ATOM     74  F   UNL A   1      47.869  25.559  32.042  1.00  0.00    -0.206 F 
ATOM     75  C   UNL A   1      50.956  25.691  30.151  1.00  0.00     0.006 A 
ENDBRANCH  54  68
BRANCH  55  76
ATOM     76  C   UNL A   1      38.644  29.086  29.040  1.00  0.00     0.057 A 
ATOM     77  C   UNL A   1      38.125  29.571  27.834  1.00  0.00     0.134 A 
ATOM     78  C   UNL A   1      37.773  29.015  30.134  1.00  0.00     0.134 A 
ATOM     79  F   UNL A   1      38.914  29.680  26.754  1.00  0.00    -0.206 F 
ATOM     80  C   UNL A   1      36.801  30.000  27.726  1.00  0.00     0.040 A 
ATOM     81  C   UNL A   1      36.440  29.413  30.033  1.00  0.00     0.040 A 
ATOM     82  F   UNL A   1      38.206  28.551  31.315  1.00  0.00    -0.206 F 
ATOM     83  C   UNL A   1      35.953  29.918  28.828  1.00  0.00     0.006 A 
ENDBRANCH  55  76
BRANCH  67  84
ATOM     84  C   UNL A   1      44.339  32.414  31.258  1.00  0.00     0.057 A 
ATOM     85  C   UNL A   1      44.617  33.473  30.385  1.00  0.00     0.134 A 
ATOM     86  C   UNL A   1      44.238  32.710  32.624  1.00  0.00     0.134 A 
ATOM     87  F   UNL A   1      44.739  33.255  29.067  1.00  0.00    -0.206 F 
ATOM     88  C   UNL A   1      44.816  34.772  30.856  1.00  0.00     0.040 A 
ATOM     89  C   UNL A   1      44.404  34.008  33.103  1.00  0.00     0.040 A 
ATOM     90  F   UNL A   1      43.963  31.742  33.512  1.00  0.00    -0.206 F 
ATOM     91  C   UNL A   1      44.701  35.043  32.219  1.00  0.00     0.006 A 
ENDBRANCH  67  84
ENDBRANCH  41  42
ENDBRANCH  33  36
ENDBRANCH  31  32
ENDBRANCH  30  31
ENDBRANCH  29  30
ENDBRANCH   1  29
TORSDOF 17
ENDMDL
MODEL 2
REMARK VINA RESULT:     -10.9      3.828      9.157
REMARK SMILES CC(C)[C@@H](CNC(=O)[C@@H]1CC[C@@H]2CCCC[C@@H]2[NH2+]1)C(=O)NCCCCCCNC(=O)c1ccc(-c2c3nc(c(-c4c(F)cccc4F)c4ccc([nH]4)c(-c4c(F)cccc4F)c4nc(c(-c5c(F)cccc5F)c5ccc2[nH]5)C=C4)C=C3)cc1
REMARK SMILES IDX 24 1 23 2 22 3 21 4 19 5 20 6 4 8 2 9 1 10 3 11 5 12 6 13
REMARK SMILES IDX 7 14 8 16 9 17 10 18 18 19 11 20 17 21 12 24 16 25 13 26
REMARK SMILES IDX 15 27 14 28 25 29 26 30 27 31 28 32 29 33 30 35 31 36 32 37
REMARK SMILES IDX 84 38 33 39 83 40 34 41 35 42 36 43 77 44 37 45 82 46 76 47
REMARK SMILES IDX 78 48 38 49 81 50 75 51 74 52 39 54 65 55 48 56 64 57 49 58
REMARK SMILES IDX 52 59 63 60 79 61 50 62 51 63 62 65 80 66 53 67 40 68 41 69
REMARK SMILES IDX 46 70 42 71 43 72 45 73 47 74 44 75 66 76 67 77 72 78 68 79
REMARK SMILES IDX 69 80 71 81 73 82 70 83 54 84 55 85 60 86 56 87 57 88 59 89
REMARK SMILES IDX 61 90 58 91
REMARK H PARENT 21 7 6 15 18 22 18 23 28 34 78 53 52 64
REMARK Flexibility Score: inf
ROOT
ATOM      1  C   UNL A   1      33.685  30.293  27.321  1.00  0.00     0.002 C 
ENDROOT
BRANCH   1   2
ATOM      2  C   UNL A   1      34.250  28.898  27.050  1.00  0.00     0.021 C 
BRANCH   2   3
ATOM      3  C   UNL A   1      33.193  27.876  26.665  1.00  0.00     0.116 C 
BRANCH   3   4
ATOM      4  N   UNL A   1      33.422  27.283  25.365  1.00  0.00    -0.356 N 
ATOM      5  C   UNL A   1      32.555  26.907  24.391  1.00  0.00     0.225 C 
ATOM      6  O   UNL A   1      33.036  26.609  23.293  1.00  0.00    -0.275 OA
ATOM      7  H   UNL A   1      34.370  27.126  25.150  1.00  0.00     0.163 HD
BRANCH   5   8
ATOM      8  C   UNL A   1      31.036  26.867  24.584  1.00  0.00     0.100 C 
BRANCH   8   9
ATOM      9  C   UNL A   1      30.282  28.168  24.199  1.00  0.00    -0.003 C 
ATOM     10  C   UNL A   1      31.221  29.250  23.658  1.00  0.00     0.008 C 
ATOM     11  C   UNL A   1      29.193  27.874  23.157  1.00  0.00     0.008 C 
ENDBRANCH   8   9
BRANCH   8  12
ATOM     12  C   UNL A   1      30.472  25.530  24.071  1.00  0.00     0.129 C 
BRANCH  12  13
ATOM     13  N   UNL A   1      30.594  24.424  24.999  1.00  0.00    -0.350 N 
ATOM     14  C   UNL A   1      31.094  23.166  24.782  1.00  0.00     0.278 C 
ATOM     15  H   UNL A   1      30.275  24.600  25.914  1.00  0.00     0.163 HD
ATOM     16  O   UNL A   1      30.786  22.293  25.597  1.00  0.00    -0.268 OA
BRANCH  14  17
ATOM     17  C   UNL A   1      31.996  22.903  23.557  1.00  0.00     0.272 C 
ATOM     18  C   UNL A   1      32.313  21.418  23.348  1.00  0.00     0.076 C 
ATOM     19  N   UNL A   1      33.250  23.678  23.637  1.00  0.00    -0.333 N 
ATOM     20  C   UNL A   1      33.228  20.855  24.432  1.00  0.00     0.016 C 
ATOM     21  C   UNL A   1      34.197  23.237  24.666  1.00  0.00     0.186 C 
ATOM     22  H   UNL A   1      33.007  24.650  23.828  1.00  0.00     0.347 HD
ATOM     23  H   UNL A   1      33.722  23.542  22.743  1.00  0.00     0.347 HD
ATOM     24  C   UNL A   1      34.477  21.723  24.635  1.00  0.00     0.048 C 
ATOM     25  C   UNL A   1      33.952  23.831  26.071  1.00  0.00     0.065 C 
ATOM     26  C   UNL A   1      35.253  21.323  25.895  1.00  0.00     0.010 C 
ATOM     27  C   UNL A   1      33.608  22.830  27.169  1.00  0.00     0.006 C 
ATOM     28  C   UNL A   1      34.472  21.571  27.184  1.00  0.00     0.001 C 
ENDBRANCH  14  17
ENDBRANCH  12  13
ENDBRANCH   8  12
ENDBRANCH   5   8
ENDBRANCH   3   4
ENDBRANCH   2   3
ENDBRANCH   1   2
BRANCH   1  29
ATOM     29  C   UNL A   1      32.189  30.467  27.027  1.00  0.00     0.002 C 
BRANCH  29  30
ATOM     30  C   UNL A   1      31.680  31.912  27.002  1.00  0.00     0.021 C 
BRANCH  30  31
ATOM     31  C   UNL A   1      32.759  32.969  26.806  1.00  0.00     0.116 C 
BRANCH  31  32
ATOM     32  N   UNL A   1      32.503  34.170  27.582  1.00  0.00    -0.352 N 
ATOM     33  C   UNL A   1      33.087  34.596  28.743  1.00  0.00     0.251 C 
ATOM     34  H   UNL A   1      31.807  34.765  27.220  1.00  0.00     0.163 HD
ATOM     35  O   UNL A   1      32.622  35.564  29.347  1.00  0.00    -0.269 OA
BRANCH  33  36
ATOM     36  C   UNL A   1      34.269  33.895  29.282  1.00  0.00     0.039 A 
ATOM     37  C   UNL A   1      35.539  34.325  28.895  1.00  0.00     0.014 A 
ATOM     38  C   UNL A   1      34.128  32.795  30.134  1.00  0.00     0.014 A 
ATOM     39  C   UNL A   1      36.671  33.673  29.385  1.00  0.00     0.010 A 
ATOM     40  C   UNL A   1      35.256  32.195  30.683  1.00  0.00     0.010 A 
ATOM     41  C   UNL A   1      36.538  32.613  30.295  1.00  0.00    -0.014 A 
BRANCH  41  42
ATOM     42  C   UNL A   1      37.729  31.895  30.812  1.00  0.00     0.031 A 
ATOM     43  C   UNL A   1      38.301  32.264  32.154  1.00  0.00     0.074 A 
ATOM     44  C   UNL A   1      38.315  30.942  30.063  1.00  0.00     0.049 A 
ATOM     45  N   UNL A   1      39.365  31.798  32.758  1.00  0.00    -0.248 NA
ATOM     46  C   UNL A   1      37.599  33.317  32.905  1.00  0.00     0.031 C 
ATOM     47  C   UNL A   1      37.876  30.519  28.731  1.00  0.00     0.029 A 
ATOM     48  N   UNL A   1      39.413  30.158  30.314  1.00  0.00    -0.354 N 
ATOM     49  C   UNL A   1      39.463  32.506  33.949  1.00  0.00     0.074 A 
ATOM     50  C   UNL A   1      38.390  33.477  33.955  1.00  0.00     0.031 C 
ATOM     51  C   UNL A   1      38.678  29.534  28.296  1.00  0.00     0.029 A 
ATOM     52  C   UNL A   1      39.709  29.283  29.297  1.00  0.00     0.049 A 
ATOM     53  H   UNL A   1      39.938  30.216  31.145  1.00  0.00     0.167 HD
ATOM     54  C   UNL A   1      40.349  32.344  34.961  1.00  0.00     0.037 A 
ATOM     55  C   UNL A   1      40.704  28.383  29.188  1.00  0.00     0.037 A 
ATOM     56  C   UNL A   1      41.399  31.361  34.962  1.00  0.00     0.049 A 
ATOM     57  C   UNL A   1      41.684  28.232  30.320  1.00  0.00     0.074 A 
ATOM     58  C   UNL A   1      42.327  31.091  35.951  1.00  0.00     0.029 A 
ATOM     59  N   UNL A   1      41.657  30.483  33.919  1.00  0.00    -0.354 N 
ATOM     60  N   UNL A   1      41.735  28.873  31.463  1.00  0.00    -0.248 NA
ATOM     61  C   UNL A   1      42.740  27.225  30.150  1.00  0.00     0.031 C 
ATOM     62  C   UNL A   1      43.172  30.075  35.492  1.00  0.00     0.029 A 
ATOM     63  C   UNL A   1      42.737  29.677  34.238  1.00  0.00     0.049 A 
ATOM     64  H   UNL A   1      41.147  30.438  33.078  1.00  0.00     0.167 HD
ATOM     65  C   UNL A   1      42.798  28.319  32.163  1.00  0.00     0.074 A 
ATOM     66  C   UNL A   1      43.360  27.285  31.320  1.00  0.00     0.031 C 
ATOM     67  C   UNL A   1      43.267  28.637  33.395  1.00  0.00     0.037 A 
BRANCH  54  68
ATOM     68  C   UNL A   1      40.209  33.245  36.154  1.00  0.00     0.057 A 
ATOM     69  C   UNL A   1      40.938  34.437  36.268  1.00  0.00     0.134 A 
ATOM     70  C   UNL A   1      39.312  32.937  37.185  1.00  0.00     0.134 A 
ATOM     71  F   UNL A   1      41.822  34.786  35.322  1.00  0.00    -0.206 F 
ATOM     72  C   UNL A   1      40.801  35.274  37.377  1.00  0.00     0.040 A 
ATOM     73  C   UNL A   1      39.146  33.781  38.284  1.00  0.00     0.040 A 
ATOM     74  F   UNL A   1      38.578  31.815  37.138  1.00  0.00    -0.206 F 
ATOM     75  C   UNL A   1      39.897  34.951  38.386  1.00  0.00     0.006 A 
ENDBRANCH  54  68
BRANCH  55  76
ATOM     76  C   UNL A   1      40.812  27.529  27.976  1.00  0.00     0.057 A 
ATOM     77  C   UNL A   1      40.199  26.272  27.924  1.00  0.00     0.134 A 
ATOM     78  C   UNL A   1      41.549  27.934  26.857  1.00  0.00     0.134 A 
ATOM     79  F   UNL A   1      39.493  25.820  28.972  1.00  0.00    -0.206 F 
ATOM     80  C   UNL A   1      40.338  25.435  26.815  1.00  0.00     0.040 A 
ATOM     81  C   UNL A   1      41.673  27.120  25.731  1.00  0.00     0.040 A 
ATOM     82  F   UNL A   1      42.153  29.131  26.841  1.00  0.00    -0.206 F 
ATOM     83  C   UNL A   1      41.075  25.861  25.712  1.00  0.00     0.006 A 
ENDBRANCH  55  76
BRANCH  67  84
ATOM     84  C   UNL A   1      44.406  27.816  33.929  1.00  0.00     0.057 A 
ATOM     85  C   UNL A   1      44.198  26.628  34.639  1.00  0.00     0.134 A 
ATOM     86  C   UNL A   1      45.730  28.207  33.694  1.00  0.00     0.134 A 
ATOM     87  F   UNL A   1      42.953  26.204  34.908  1.00  0.00    -0.206 F 
ATOM     88  C   UNL A   1      45.267  25.871  35.122  1.00  0.00     0.040 A 
ATOM     89  C   UNL A   1      46.807  27.444  34.144  1.00  0.00     0.040 A 
ATOM     90  F   UNL A   1      45.999  29.329  33.010  1.00  0.00    -0.206 F 
ATOM     91  C   UNL A   1      46.577  26.275  34.868  1.00  0.00     0.006 A 
ENDBRANCH  67  84
ENDBRANCH  41  42
ENDBRANCH  33  36
ENDBRANCH  31  32
ENDBRANCH  30  31
ENDBRANCH  29  30
ENDBRANCH   1  29
TORSDOF 17
ENDMDL
MODEL 3
REMARK VINA RESULT:     -10.9      3.204      8.717
REMARK SMILES CC(C)[C@@H](CNC(=O)[C@@H]1CC[C@@H]2CCCC[C@@H]2[NH2+]1)C(=O)NCCCCCCNC(=O)c1ccc(-c2c3nc(c(-c4c(F)cccc4F)c4ccc([nH]4)c(-c4c(F)cccc4F)c4nc(c(-c5c(F)cccc5F)c5ccc2[nH]5)C=C4)C=C3)cc1
REMARK SMILES IDX 24 1 23 2 22 3 21 4 19 5 20 6 4 8 2 9 1 10 3 11 5 12 6 13
REMARK SMILES IDX 7 14 8 16 9 17 10 18 18 19 11 20 17 21 12 24 16 25 13 26
REMARK SMILES IDX 15 27 14 28 25 29 26 30 27 31 28 32 29 33 30 35 31 36 32 37
REMARK SMILES IDX 84 38 33 39 83 40 34 41 35 42 36 43 77 44 37 45 82 46 76 47
REMARK SMILES IDX 78 48 38 49 81 50 75 51 74 52 39 54 65 55 48 56 64 57 49 58
REMARK SMILES IDX 52 59 63 60 79 61 50 62 51 63 62 65 80 66 53 67 40 68 41 69
REMARK SMILES IDX 46 70 42 71 43 72 45 73 47 74 44 75 66 76 67 77 72 78 68 79
REMARK SMILES IDX 69 80 71 81 73 82 70 83 54 84 55 85 60 86 56 87 57 88 59 89
REMARK SMILES IDX 61 90 58 91
REMARK H PARENT 21 7 6 15 18 22 18 23 28 34 78 53 52 64
REMARK Flexibility Score: inf
ROOT
ATOM      1  C   UNL A   1      33.734  30.316  27.307  1.00  0.00     0.002 C 
ENDROOT
BRANCH   1   2
ATOM      2  C   UNL A   1      34.366  28.969  26.956  1.00  0.00     0.021 C 
BRANCH   2   3
ATOM      3  C   UNL A   1      33.351  27.880  26.653  1.00  0.00     0.116 C 
BRANCH   3   4
ATOM      4  N   UNL A   1      33.579  27.226  25.382  1.00  0.00    -0.356 N 
ATOM      5  C   UNL A   1      32.715  26.846  24.406  1.00  0.00     0.225 C 
ATOM      6  O   UNL A   1      33.204  26.485  23.332  1.00  0.00    -0.275 OA
ATOM      7  H   UNL A   1      34.524  27.022  25.192  1.00  0.00     0.163 HD
BRANCH   5   8
ATOM      8  C   UNL A   1      31.192  26.875  24.571  1.00  0.00     0.100 C 
BRANCH   8   9
ATOM      9  C   UNL A   1      30.504  28.205  24.164  1.00  0.00    -0.003 C 
ATOM     10  C   UNL A   1      31.502  29.246  23.649  1.00  0.00     0.008 C 
ATOM     11  C   UNL A   1      29.434  27.954  23.091  1.00  0.00     0.008 C 
ENDBRANCH   8   9
BRANCH   8  12
ATOM     12  C   UNL A   1      30.579  25.560  24.056  1.00  0.00     0.129 C 
BRANCH  12  13
ATOM     13  N   UNL A   1      30.643  24.453  24.989  1.00  0.00    -0.350 N 
ATOM     14  C   UNL A   1      31.097  23.176  24.785  1.00  0.00     0.278 C 
ATOM     15  H   UNL A   1      30.316  24.646  25.898  1.00  0.00     0.163 HD
ATOM     16  O   UNL A   1      30.742  22.319  25.597  1.00  0.00    -0.268 OA
BRANCH  14  17
ATOM     17  C   UNL A   1      32.009  22.874  23.575  1.00  0.00     0.272 C 
ATOM     18  C   UNL A   1      32.300  21.380  23.397  1.00  0.00     0.076 C 
ATOM     19  N   UNL A   1      33.276  23.627  23.656  1.00  0.00    -0.333 N 
ATOM     20  C   UNL A   1      33.191  20.820  24.503  1.00  0.00     0.016 C 
ATOM     21  C   UNL A   1      34.202  23.188  24.704  1.00  0.00     0.186 C 
ATOM     22  H   UNL A   1      33.049  24.607  23.826  1.00  0.00     0.347 HD
ATOM     23  H   UNL A   1      33.756  23.466  22.770  1.00  0.00     0.347 HD
ATOM     24  C   UNL A   1      34.454  21.669  24.705  1.00  0.00     0.048 C 
ATOM     25  C   UNL A   1      33.952  23.813  26.095  1.00  0.00     0.065 C 
ATOM     26  C   UNL A   1      35.208  21.278  25.981  1.00  0.00     0.010 C 
ATOM     27  C   UNL A   1      33.577  22.839  27.207  1.00  0.00     0.006 C 
ATOM     28  C   UNL A   1      34.416  21.565  27.256  1.00  0.00     0.001 C 
ENDBRANCH  14  17
ENDBRANCH  12  13
ENDBRANCH   8  12
ENDBRANCH   5   8
ENDBRANCH   3   4
ENDBRANCH   2   3
ENDBRANCH   1   2
BRANCH   1  29
ATOM     29  C   UNL A   1      32.223  30.420  27.061  1.00  0.00     0.002 C 
BRANCH  29  30
ATOM     30  C   UNL A   1      31.654  31.841  27.009  1.00  0.00     0.021 C 
BRANCH  30  31
ATOM     31  C   UNL A   1      32.692  32.944  26.850  1.00  0.00     0.116 C 
BRANCH  31  32
ATOM     32  N   UNL A   1      32.427  34.083  27.711  1.00  0.00    -0.352 N 
ATOM     33  C   UNL A   1      33.096  34.504  28.826  1.00  0.00     0.251 C 
ATOM     34  H   UNL A   1      31.651  34.632  27.454  1.00  0.00     0.163 HD
ATOM     35  O   UNL A   1      32.623  35.401  29.526  1.00  0.00    -0.269 OA
BRANCH  33  36
ATOM     36  C   UNL A   1      34.381  33.882  29.202  1.00  0.00     0.039 A 
ATOM     37  C   UNL A   1      35.528  34.222  28.482  1.00  0.00     0.014 A 
ATOM     38  C   UNL A   1      34.451  32.940  30.233  1.00  0.00     0.014 A 
ATOM     39  C   UNL A   1      36.751  33.640  28.813  1.00  0.00     0.010 A 
ATOM     40  C   UNL A   1      35.684  32.420  30.614  1.00  0.00     0.010 A 
ATOM     41  C   UNL A   1      36.842  32.747  29.892  1.00  0.00    -0.014 A 
BRANCH  41  42
ATOM     42  C   UNL A   1      38.131  32.104  30.247  1.00  0.00     0.031 A 
ATOM     43  C   UNL A   1      39.075  32.795  31.194  1.00  0.00     0.074 A 
ATOM     44  C   UNL A   1      38.467  30.924  29.693  1.00  0.00     0.049 A 
ATOM     45  N   UNL A   1      40.269  32.429  31.587  1.00  0.00    -0.248 NA
ATOM     46  C   UNL A   1      38.629  34.081  31.752  1.00  0.00     0.031 C 
ATOM     47  C   UNL A   1      37.653  30.174  28.735  1.00  0.00     0.029 A 
ATOM     48  N   UNL A   1      39.588  30.150  29.853  1.00  0.00    -0.354 N 
ATOM     49  C   UNL A   1      40.716  33.442  32.426  1.00  0.00     0.074 A 
ATOM     50  C   UNL A   1      39.695  34.467  32.436  1.00  0.00     0.031 C 
ATOM     51  C   UNL A   1      38.288  29.035  28.415  1.00  0.00     0.029 A 
ATOM     52  C   UNL A   1      39.569  28.992  29.113  1.00  0.00     0.049 A 
ATOM     53  H   UNL A   1      40.336  30.400  30.444  1.00  0.00     0.167 HD
ATOM     54  C   UNL A   1      41.861  33.501  33.147  1.00  0.00     0.037 A 
ATOM     55  C   UNL A   1      40.485  28.012  29.009  1.00  0.00     0.037 A 
ATOM     56  C   UNL A   1      42.863  32.468  33.154  1.00  0.00     0.049 A 
ATOM     57  C   UNL A   1      41.756  28.109  29.809  1.00  0.00     0.074 A 
ATOM     58  C   UNL A   1      44.041  32.414  33.875  1.00  0.00     0.029 A 
ATOM     59  N   UNL A   1      42.799  31.304  32.402  1.00  0.00    -0.354 N 
ATOM     60  N   UNL A   1      42.144  29.048  30.638  1.00  0.00    -0.248 NA
ATOM     61  C   UNL A   1      42.713  27.003  29.666  1.00  0.00     0.031 C 
ATOM     62  C   UNL A   1      44.711  31.236  33.531  1.00  0.00     0.029 A 
ATOM     63  C   UNL A   1      43.924  30.531  32.635  1.00  0.00     0.049 A 
ATOM     64  H   UNL A   1      42.063  31.063  31.793  1.00  0.00     0.167 HD
ATOM     65  C   UNL A   1      43.366  28.627  31.146  1.00  0.00     0.074 A 
ATOM     66  C   UNL A   1      43.651  27.344  30.538  1.00  0.00     0.031 C 
ATOM     67  C   UNL A   1      44.179  29.245  32.037  1.00  0.00     0.037 A 
BRANCH  54  68
ATOM     68  C   UNL A   1      42.082  34.720  33.996  1.00  0.00     0.057 A 
ATOM     69  C   UNL A   1      41.693  34.763  35.341  1.00  0.00     0.134 A 
ATOM     70  C   UNL A   1      42.721  35.852  33.473  1.00  0.00     0.134 A 
ATOM     71  F   UNL A   1      41.066  33.718  35.902  1.00  0.00    -0.206 F 
ATOM     72  C   UNL A   1      41.904  35.897  36.128  1.00  0.00     0.040 A 
ATOM     73  C   UNL A   1      42.964  36.980  34.258  1.00  0.00     0.040 A 
ATOM     74  F   UNL A   1      43.125  35.878  32.194  1.00  0.00    -0.206 F 
ATOM     75  C   UNL A   1      42.549  37.008  35.588  1.00  0.00     0.006 A 
ENDBRANCH  54  68
BRANCH  55  76
ATOM     76  C   UNL A   1      40.228  26.836  28.138  1.00  0.00     0.057 A 
ATOM     77  C   UNL A   1      40.779  26.755  26.854  1.00  0.00     0.134 A 
ATOM     78  C   UNL A   1      39.407  25.781  28.554  1.00  0.00     0.134 A 
ATOM     79  F   UNL A   1      41.560  27.744  26.391  1.00  0.00    -0.206 F 
ATOM     80  C   UNL A   1      40.501  25.684  26.003  1.00  0.00     0.040 A 
ATOM     81  C   UNL A   1      39.143  24.690  27.725  1.00  0.00     0.040 A 
ATOM     82  F   UNL A   1      38.856  25.793  29.776  1.00  0.00    -0.206 F 
ATOM     83  C   UNL A   1      39.683  24.645  26.441  1.00  0.00     0.006 A 
ENDBRANCH  55  76
BRANCH  67  84
ATOM     84  C   UNL A   1      45.423  28.514  32.455  1.00  0.00     0.057 A 
ATOM     85  C   UNL A   1      46.647  28.693  31.800  1.00  0.00     0.134 A 
ATOM     86  C   UNL A   1      45.397  27.646  33.555  1.00  0.00     0.134 A 
ATOM     87  F   UNL A   1      46.737  29.501  30.733  1.00  0.00    -0.206 F 
ATOM     88  C   UNL A   1      47.796  28.013  32.206  1.00  0.00     0.040 A 
ATOM     89  C   UNL A   1      46.544  26.984  33.988  1.00  0.00     0.040 A 
ATOM     90  F   UNL A   1      44.258  27.439  34.233  1.00  0.00    -0.206 F 
ATOM     91  C   UNL A   1      47.748  27.161  33.309  1.00  0.00     0.006 A 
ENDBRANCH  67  84
ENDBRANCH  41  42
ENDBRANCH  33  36
ENDBRANCH  31  32
ENDBRANCH  30  31
ENDBRANCH  29  30
ENDBRANCH   1  29
TORSDOF 17
ENDMDL
