MODEL 1
REMARK VINA RESULT:     -11.8      0.000      0.000
REMARK SMILES CCCOc1ccccc1O[C@@H]1CC[C@@]([NH3+])(C(=O)NCCCCCCNC(=O)c2ccc(-c3c4nc(c(-c5c(F)cccc5F)c5ccc([nH]5)c(-c5c(F)cccc5F)c5nc(c(-c6c(F)cccc6F)c6ccc3[nH]6)C=C5)C=C4)cc2)C1
REMARK SMILES IDX 21 1 20 2 19 3 17 4 18 5 15 7 12 8 13 9 83 10 14 11 11 12
REMARK SMILES IDX 10 13 5 14 6 15 7 16 9 17 8 18 4 19 3 20 2 21 1 22 16 23
REMARK SMILES IDX 22 27 23 28 24 29 25 30 26 31 27 32 28 34 29 35 30 36 82 37
REMARK SMILES IDX 31 38 81 39 32 40 33 41 34 42 75 43 35 44 80 45 74 46 76 47
REMARK SMILES IDX 36 48 79 49 73 50 72 51 37 53 63 54 46 55 62 56 47 57 50 58
REMARK SMILES IDX 61 59 77 60 48 61 49 62 60 64 78 65 51 66 38 67 39 68 44 69
REMARK SMILES IDX 40 70 41 71 43 72 45 73 42 74 64 75 65 76 70 77 66 78 67 79
REMARK SMILES IDX 69 80 71 81 68 82 52 83 53 84 58 85 54 86 55 87 57 88 59 89
REMARK SMILES IDX 56 90
REMARK H PARENT 19 6 16 24 16 25 16 26 26 33 76 52 50 63
REMARK Flexibility Score: inf
ROOT
ATOM      1  C   UNL A   1      33.526  27.881  22.639  1.00  0.00     0.021 C 
ENDROOT
BRANCH   1   2
ATOM      2  C   UNL A   1      32.296  27.028  22.299  1.00  0.00     0.116 C 
BRANCH   2   3
ATOM      3  N   UNL A   1      31.038  27.770  22.259  1.00  0.00    -0.351 N 
ATOM      4  C   UNL A   1      29.916  27.618  23.054  1.00  0.00     0.281 C 
ATOM      5  O   UNL A   1      29.085  28.524  23.109  1.00  0.00    -0.268 OA
ATOM      6  H   UNL A   1      30.981  28.474  21.573  1.00  0.00     0.163 HD
BRANCH   4   7
ATOM      7  C   UNL A   1      29.760  26.248  23.906  1.00  0.00     0.177 C 
ATOM      8  C   UNL A   1      31.992  23.885  24.451  1.00  0.00     0.180 C 
ATOM      9  C   UNL A   1      31.928  25.072  26.075  1.00  0.00     0.052 C 
ATOM     10  C   UNL A   1      30.588  24.566  23.125  1.00  0.00     0.124 C 
ATOM     11  C   UNL A   1      30.696  26.582  25.660  1.00  0.00     0.083 C 
BRANCH   8  12
ATOM     12  O   UNL A   1      32.310  22.510  24.516  1.00  0.00    -0.486 OA
BRANCH  12  13
ATOM     13  C   UNL A   1      33.617  22.222  24.437  1.00  0.00     0.161 A 
ATOM     14  C   UNL A   1      34.131  21.103  25.049  1.00  0.00     0.161 A 
ATOM     15  C   UNL A   1      35.497  20.856  24.991  1.00  0.00     0.050 A 
ATOM     16  C   UNL A   1      36.332  21.762  24.319  1.00  0.00     0.004 A 
ATOM     17  C   UNL A   1      34.437  23.154  23.812  1.00  0.00     0.050 A 
ATOM     18  C   UNL A   1      35.805  22.924  23.751  1.00  0.00     0.004 A 
BRANCH  14  19
ATOM     19  O   UNL A   1      33.312  20.454  25.922  1.00  0.00    -0.490 OA
BRANCH  19  20
ATOM     20  C   UNL A   1      32.967  18.998  25.642  1.00  0.00     0.229 C 
BRANCH  20  21
ATOM     21  C   UNL A   1      32.901  17.819  23.807  1.00  0.00     0.038 C 
ATOM     22  C   UNL A   1      34.073  16.809  22.976  1.00  0.00     0.007 C 
ENDBRANCH  20  21
ENDBRANCH  19  20
ENDBRANCH  14  19
ENDBRANCH  12  13
ENDBRANCH   8  12
BRANCH   7  23
ATOM     23  N   UNL A   1      28.256  26.169  23.953  1.00  0.00    -0.345 N 
ATOM     24  H   UNL A   1      27.970  25.592  24.744  1.00  0.00     0.345 HD
ATOM     25  H   UNL A   1      27.910  25.757  23.086  1.00  0.00     0.345 HD
ATOM     26  H   UNL A   1      27.871  27.107  24.061  1.00  0.00     0.345 HD
ENDBRANCH   7  23
ENDBRANCH   4   7
ENDBRANCH   2   3
ENDBRANCH   1   2
BRANCH   1  27
ATOM     27  C   UNL A   1      33.328  28.875  23.781  1.00  0.00     0.002 C 
BRANCH  27  28
ATOM     28  C   UNL A   1      33.743  28.350  25.154  1.00  0.00     0.002 C 
BRANCH  28  29
ATOM     29  C   UNL A   1      33.817  29.417  26.249  1.00  0.00     0.021 C 
BRANCH  29  30
ATOM     30  C   UNL A   1      34.821  29.113  27.355  1.00  0.00     0.116 C 
BRANCH  30  31
ATOM     31  N   UNL A   1      34.802  30.133  28.391  1.00  0.00    -0.352 N 
ATOM     32  C   UNL A   1      35.782  30.486  29.281  1.00  0.00     0.251 C 
ATOM     33  H   UNL A   1      33.963  30.643  28.464  1.00  0.00     0.163 HD
ATOM     34  O   UNL A   1      35.510  31.190  30.249  1.00  0.00    -0.269 OA
BRANCH  32  35
ATOM     35  C   UNL A   1      37.168  30.016  29.076  1.00  0.00     0.039 A 
ATOM     36  C   UNL A   1      37.882  29.526  30.170  1.00  0.00     0.014 A 
ATOM     37  C   UNL A   1      37.774  30.093  27.818  1.00  0.00     0.014 A 
ATOM     38  C   UNL A   1      39.196  29.096  29.997  1.00  0.00     0.010 A 
ATOM     39  C   UNL A   1      39.047  29.568  27.628  1.00  0.00     0.010 A 
ATOM     40  C   UNL A   1      39.785  29.095  28.721  1.00  0.00    -0.014 A 
BRANCH  40  41
ATOM     41  C   UNL A   1      41.188  28.647  28.534  1.00  0.00     0.031 A 
ATOM     42  C   UNL A   1      41.484  27.211  28.189  1.00  0.00     0.074 A 
ATOM     43  C   UNL A   1      42.195  29.528  28.683  1.00  0.00     0.049 A 
ATOM     44  N   UNL A   1      42.639  26.635  27.969  1.00  0.00    -0.248 NA
ATOM     45  C   UNL A   1      40.335  26.294  28.105  1.00  0.00     0.031 C 
ATOM     46  C   UNL A   1      42.040  30.934  29.057  1.00  0.00     0.029 A 
ATOM     47  N   UNL A   1      43.549  29.373  28.527  1.00  0.00    -0.354 N 
ATOM     48  C   UNL A   1      42.354  25.297  27.723  1.00  0.00     0.074 A 
ATOM     49  C   UNL A   1      40.929  25.129  27.897  1.00  0.00     0.031 C 
ATOM     50  C   UNL A   1      43.245  31.524  29.059  1.00  0.00     0.029 A 
ATOM     51  C   UNL A   1      44.262  30.530  28.731  1.00  0.00     0.049 A 
ATOM     52  H   UNL A   1      43.970  28.515  28.291  1.00  0.00     0.167 HD
ATOM     53  C   UNL A   1      43.198  24.304  27.356  1.00  0.00     0.037 A 
ATOM     54  C   UNL A   1      45.586  30.761  28.663  1.00  0.00     0.037 A 
ATOM     55  C   UNL A   1      44.616  24.475  27.180  1.00  0.00     0.049 A 
ATOM     56  C   UNL A   1      46.505  29.631  28.284  1.00  0.00     0.074 A 
ATOM     57  C   UNL A   1      45.554  23.543  26.776  1.00  0.00     0.029 A 
ATOM     58  N   UNL A   1      45.302  25.660  27.410  1.00  0.00    -0.354 N 
ATOM     59  N   UNL A   1      46.215  28.386  27.992  1.00  0.00    -0.248 NA
ATOM     60  C   UNL A   1      47.937  29.947  28.211  1.00  0.00     0.031 C 
ATOM     61  C   UNL A   1      46.816  24.143  26.827  1.00  0.00     0.029 A 
ATOM     62  C   UNL A   1      46.655  25.473  27.179  1.00  0.00     0.049 A 
ATOM     63  H   UNL A   1      44.889  26.507  27.693  1.00  0.00     0.167 HD
ATOM     64  C   UNL A   1      47.421  27.782  27.657  1.00  0.00     0.074 A 
ATOM     65  C   UNL A   1      48.441  28.803  27.769  1.00  0.00     0.031 C 
ATOM     66  C   UNL A   1      47.661  26.500  27.286  1.00  0.00     0.037 A 
BRANCH  53  67
ATOM     67  C   UNL A   1      42.606  22.939  27.126  1.00  0.00     0.057 A 
ATOM     68  C   UNL A   1      42.427  22.413  25.840  1.00  0.00     0.134 A 
ATOM     69  C   UNL A   1      42.238  22.130  28.208  1.00  0.00     0.134 A 
ATOM     70  F   UNL A   1      42.747  23.137  24.756  1.00  0.00    -0.206 F 
ATOM     71  C   UNL A   1      41.873  21.147  25.636  1.00  0.00     0.040 A 
ATOM     72  C   UNL A   1      41.717  20.848  28.019  1.00  0.00     0.040 A 
ATOM     73  F   UNL A   1      42.386  22.565  29.468  1.00  0.00    -0.206 F 
ATOM     74  C   UNL A   1      41.524  20.357  26.729  1.00  0.00     0.006 A 
ENDBRANCH  53  67
BRANCH  54  75
ATOM     75  C   UNL A   1      46.125  32.119  28.938  1.00  0.00     0.057 A 
ATOM     76  C   UNL A   1      46.459  32.519  30.238  1.00  0.00     0.134 A 
ATOM     77  C   UNL A   1      46.291  33.059  27.915  1.00  0.00     0.134 A 
ATOM     78  F   UNL A   1      46.310  31.669  31.266  1.00  0.00    -0.206 F 
ATOM     79  C   UNL A   1      46.904  33.812  30.515  1.00  0.00     0.040 A 
ATOM     80  C   UNL A   1      46.767  34.345  28.171  1.00  0.00     0.040 A 
ATOM     81  F   UNL A   1      45.999  32.738  26.646  1.00  0.00    -0.206 F 
ATOM     82  C   UNL A   1      47.062  34.729  29.478  1.00  0.00     0.006 A 
ENDBRANCH  54  75
BRANCH  66  83
ATOM     83  C   UNL A   1      49.074  26.149  26.903  1.00  0.00     0.057 A 
ATOM     84  C   UNL A   1      49.980  25.580  27.808  1.00  0.00     0.134 A 
ATOM     85  C   UNL A   1      49.529  26.383  25.598  1.00  0.00     0.134 A 
ATOM     86  F   UNL A   1      49.615  25.334  29.075  1.00  0.00    -0.206 F 
ATOM     87  C   UNL A   1      51.300  25.306  27.444  1.00  0.00     0.040 A 
ATOM     88  C   UNL A   1      50.834  26.073  25.211  1.00  0.00     0.040 A 
ATOM     89  F   UNL A   1      48.712  26.909  24.673  1.00  0.00    -0.206 F 
ATOM     90  C   UNL A   1      51.728  25.547  26.139  1.00  0.00     0.006 A 
ENDBRANCH  66  83
ENDBRANCH  40  41
ENDBRANCH  32  35
ENDBRANCH  30  31
ENDBRANCH  29  30
ENDBRANCH  28  29
ENDBRANCH  27  28
ENDBRANCH   1  27
TORSDOF 19
ENDMDL
MODEL 2
REMARK VINA RESULT:     -11.7      2.833      8.465
REMARK SMILES CCCOc1ccccc1O[C@@H]1CC[C@@]([NH3+])(C(=O)NCCCCCCNC(=O)c2ccc(-c3c4nc(c(-c5c(F)cccc5F)c5ccc([nH]5)c(-c5c(F)cccc5F)c5nc(c(-c6c(F)cccc6F)c6ccc3[nH]6)C=C5)C=C4)cc2)C1
REMARK SMILES IDX 21 1 20 2 19 3 17 4 18 5 15 7 12 8 13 9 83 10 14 11 11 12
REMARK SMILES IDX 10 13 5 14 6 15 7 16 9 17 8 18 4 19 3 20 2 21 1 22 16 23
REMARK SMILES IDX 22 27 23 28 24 29 25 30 26 31 27 32 28 34 29 35 30 36 82 37
REMARK SMILES IDX 31 38 81 39 32 40 33 41 34 42 75 43 35 44 80 45 74 46 76 47
REMARK SMILES IDX 36 48 79 49 73 50 72 51 37 53 63 54 46 55 62 56 47 57 50 58
REMARK SMILES IDX 61 59 77 60 48 61 49 62 60 64 78 65 51 66 38 67 39 68 44 69
REMARK SMILES IDX 40 70 41 71 43 72 45 73 42 74 64 75 65 76 70 77 66 78 67 79
REMARK SMILES IDX 69 80 71 81 68 82 52 83 53 84 58 85 54 86 55 87 57 88 59 89
REMARK SMILES IDX 56 90
REMARK H PARENT 19 6 16 24 16 25 16 26 26 33 76 52 50 63
REMARK Flexibility Score: inf
ROOT
ATOM      1  C   UNL A   1      36.834  23.439  25.133  1.00  0.00     0.021 C 
ENDROOT
BRANCH   1   2
ATOM      2  C   UNL A   1      35.614  23.743  26.012  1.00  0.00     0.116 C 
BRANCH   2   3
ATOM      3  N   UNL A   1      35.105  22.595  26.759  1.00  0.00    -0.351 N 
ATOM      4  C   UNL A   1      33.937  21.880  26.561  1.00  0.00     0.281 C 
ATOM      5  O   UNL A   1      33.820  20.760  27.056  1.00  0.00    -0.268 OA
ATOM      6  H   UNL A   1      35.671  22.287  27.504  1.00  0.00     0.163 HD
BRANCH   4   7
ATOM      7  C   UNL A   1      32.772  22.551  25.654  1.00  0.00     0.177 C 
ATOM      8  C   UNL A   1      32.456  25.684  24.680  1.00  0.00     0.180 C 
ATOM      9  C   UNL A   1      33.236  24.629  23.153  1.00  0.00     0.052 C 
ATOM     10  C   UNL A   1      32.092  24.380  26.216  1.00  0.00     0.124 C 
ATOM     11  C   UNL A   1      33.570  22.780  23.817  1.00  0.00     0.083 C 
BRANCH   8  12
ATOM     12  O   UNL A   1      31.633  26.817  24.490  1.00  0.00    -0.486 OA
BRANCH  12  13
ATOM     13  C   UNL A   1      31.911  27.862  25.280  1.00  0.00     0.161 A 
ATOM     14  C   UNL A   1      31.541  29.137  24.921  1.00  0.00     0.161 A 
ATOM     15  C   UNL A   1      31.884  30.207  25.738  1.00  0.00     0.050 A 
ATOM     16  C   UNL A   1      32.618  29.970  26.911  1.00  0.00     0.004 A 
ATOM     17  C   UNL A   1      32.680  27.617  26.412  1.00  0.00     0.050 A 
ATOM     18  C   UNL A   1      33.037  28.677  27.235  1.00  0.00     0.004 A 
BRANCH  14  19
ATOM     19  O   UNL A   1      31.110  29.310  23.641  1.00  0.00    -0.490 OA
BRANCH  19  20
ATOM     20  C   UNL A   1      29.641  29.634  23.411  1.00  0.00     0.229 C 
BRANCH  20  21
ATOM     21  C   UNL A   1      28.598  31.476  22.881  1.00  0.00     0.038 C 
ATOM     22  C   UNL A   1      28.971  33.179  23.089  1.00  0.00     0.007 C 
ENDBRANCH  20  21
ENDBRANCH  19  20
ENDBRANCH  14  19
ENDBRANCH  12  13
ENDBRANCH   8  12
BRANCH   7  23
ATOM     23  N   UNL A   1      31.718  21.486  25.800  1.00  0.00    -0.345 N 
ATOM     24  H   UNL A   1      31.757  21.094  26.741  1.00  0.00     0.345 HD
ATOM     25  H   UNL A   1      31.884  20.746  25.116  1.00  0.00     0.345 HD
ATOM     26  H   UNL A   1      30.797  21.895  25.640  1.00  0.00     0.345 HD
ENDBRANCH   7  23
ENDBRANCH   4   7
ENDBRANCH   2   3
ENDBRANCH   1   2
BRANCH   1  27
ATOM     27  C   UNL A   1      37.589  22.161  25.493  1.00  0.00     0.002 C 
BRANCH  27  28
ATOM     28  C   UNL A   1      37.338  20.990  24.544  1.00  0.00     0.002 C 
BRANCH  28  29
ATOM     29  C   UNL A   1      38.242  19.777  24.775  1.00  0.00     0.021 C 
BRANCH  29  30
ATOM     30  C   UNL A   1      39.091  19.858  26.038  1.00  0.00     0.116 C 
BRANCH  30  31
ATOM     31  N   UNL A   1      40.327  19.103  25.902  1.00  0.00    -0.352 N 
ATOM     32  C   UNL A   1      41.623  19.541  25.968  1.00  0.00     0.251 C 
ATOM     33  H   UNL A   1      40.216  18.139  25.738  1.00  0.00     0.163 HD
ATOM     34  O   UNL A   1      42.537  18.819  25.580  1.00  0.00    -0.269 OA
BRANCH  32  35
ATOM     35  C   UNL A   1      41.922  20.884  26.505  1.00  0.00     0.039 A 
ATOM     36  C   UNL A   1      41.883  21.082  27.886  1.00  0.00     0.014 A 
ATOM     37  C   UNL A   1      42.203  21.955  25.650  1.00  0.00     0.014 A 
ATOM     38  C   UNL A   1      42.146  22.347  28.408  1.00  0.00     0.010 A 
ATOM     39  C   UNL A   1      42.565  23.189  26.178  1.00  0.00     0.010 A 
ATOM     40  C   UNL A   1      42.507  23.409  27.560  1.00  0.00    -0.014 A 
BRANCH  40  41
ATOM     41  C   UNL A   1      42.778  24.760  28.111  1.00  0.00     0.031 A 
ATOM     42  C   UNL A   1      44.184  25.165  28.466  1.00  0.00     0.074 A 
ATOM     43  C   UNL A   1      41.759  25.619  28.300  1.00  0.00     0.049 A 
ATOM     44  N   UNL A   1      44.622  26.304  28.940  1.00  0.00    -0.248 NA
ATOM     45  C   UNL A   1      45.236  24.150  28.289  1.00  0.00     0.031 C 
ATOM     46  C   UNL A   1      40.348  25.329  28.036  1.00  0.00     0.029 A 
ATOM     47  N   UNL A   1      41.753  26.915  28.750  1.00  0.00    -0.354 N 
ATOM     48  C   UNL A   1      45.990  26.141  29.117  1.00  0.00     0.074 A 
ATOM     49  C   UNL A   1      46.300  24.771  28.775  1.00  0.00     0.031 C 
ATOM     50  C   UNL A   1      39.620  26.429  28.286  1.00  0.00     0.029 A 
ATOM     51  C   UNL A   1      40.503  27.485  28.770  1.00  0.00     0.049 A 
ATOM     52  H   UNL A   1      42.568  27.391  29.031  1.00  0.00     0.167 HD
ATOM     53  C   UNL A   1      46.911  27.056  29.501  1.00  0.00     0.037 A 
ATOM     54  C   UNL A   1      40.114  28.719  29.139  1.00  0.00     0.037 A 
ATOM     55  C   UNL A   1      46.600  28.420  29.838  1.00  0.00     0.049 A 
ATOM     56  C   UNL A   1      41.155  29.707  29.593  1.00  0.00     0.074 A 
ATOM     57  C   UNL A   1      47.463  29.436  30.204  1.00  0.00     0.029 A 
ATOM     58  N   UNL A   1      45.320  28.955  29.859  1.00  0.00    -0.354 N 
ATOM     59  N   UNL A   1      42.454  29.558  29.695  1.00  0.00    -0.248 NA
ATOM     60  C   UNL A   1      40.673  31.042  29.969  1.00  0.00     0.031 C 
ATOM     61  C   UNL A   1      46.700  30.567  30.514  1.00  0.00     0.029 A 
ATOM     62  C   UNL A   1      45.369  30.281  30.257  1.00  0.00     0.049 A 
ATOM     63  H   UNL A   1      44.498  28.466  29.624  1.00  0.00     0.167 HD
ATOM     64  C   UNL A   1      42.948  30.791  30.103  1.00  0.00     0.074 A 
ATOM     65  C   UNL A   1      41.809  31.678  30.214  1.00  0.00     0.031 C 
ATOM     66  C   UNL A   1      44.229  31.157  30.356  1.00  0.00     0.037 A 
BRANCH  53  67
ATOM     67  C   UNL A   1      48.345  26.605  29.583  1.00  0.00     0.057 A 
ATOM     68  C   UNL A   1      49.246  26.794  28.525  1.00  0.00     0.134 A 
ATOM     69  C   UNL A   1      48.839  26.002  30.746  1.00  0.00     0.134 A 
ATOM     70  F   UNL A   1      48.839  27.355  27.376  1.00  0.00    -0.206 F 
ATOM     71  C   UNL A   1      50.574  26.369  28.609  1.00  0.00     0.040 A 
ATOM     72  C   UNL A   1      50.173  25.606  30.856  1.00  0.00     0.040 A 
ATOM     73  F   UNL A   1      48.036  25.795  31.801  1.00  0.00    -0.206 F 
ATOM     74  C   UNL A   1      51.042  25.780  29.781  1.00  0.00     0.006 A 
ENDBRANCH  53  67
BRANCH  54  75
ATOM     75  C   UNL A   1      38.679  29.102  29.078  1.00  0.00     0.057 A 
ATOM     76  C   UNL A   1      38.111  29.609  27.902  1.00  0.00     0.134 A 
ATOM     77  C   UNL A   1      37.847  28.999  30.199  1.00  0.00     0.134 A 
ATOM     78  F   UNL A   1      38.858  29.746  26.796  1.00  0.00    -0.206 F 
ATOM     79  C   UNL A   1      36.782  30.032  27.854  1.00  0.00     0.040 A 
ATOM     80  C   UNL A   1      36.507  29.385  30.156  1.00  0.00     0.040 A 
ATOM     81  F   UNL A   1      38.325  28.511  31.354  1.00  0.00    -0.206 F 
ATOM     82  C   UNL A   1      35.975  29.916  28.984  1.00  0.00     0.006 A 
ENDBRANCH  54  75
BRANCH  66  83
ATOM     83  C   UNL A   1      44.474  32.599  30.709  1.00  0.00     0.057 A 
ATOM     84  C   UNL A   1      44.528  33.052  32.034  1.00  0.00     0.134 A 
ATOM     85  C   UNL A   1      44.664  33.550  29.697  1.00  0.00     0.134 A 
ATOM     86  F   UNL A   1      44.348  32.198  33.054  1.00  0.00    -0.206 F 
ATOM     87  C   UNL A   1      44.710  34.402  32.338  1.00  0.00     0.040 A 
ATOM     88  C   UNL A   1      44.890  34.896  29.989  1.00  0.00     0.040 A 
ATOM     89  F   UNL A   1      44.643  33.187  28.406  1.00  0.00    -0.206 F 
ATOM     90  C   UNL A   1      44.897  35.329  31.313  1.00  0.00     0.006 A 
ENDBRANCH  66  83
ENDBRANCH  40  41
ENDBRANCH  32  35
ENDBRANCH  30  31
ENDBRANCH  29  30
ENDBRANCH  28  29
ENDBRANCH  27  28
ENDBRANCH   1  27
TORSDOF 19
ENDMDL
MODEL 3
REMARK VINA RESULT:     -11.6      2.820      8.229
REMARK SMILES CCCOc1ccccc1O[C@@H]1CC[C@@]([NH3+])(C(=O)NCCCCCCNC(=O)c2ccc(-c3c4nc(c(-c5c(F)cccc5F)c5ccc([nH]5)c(-c5c(F)cccc5F)c5nc(c(-c6c(F)cccc6F)c6ccc3[nH]6)C=C5)C=C4)cc2)C1
REMARK SMILES IDX 21 1 20 2 19 3 17 4 18 5 15 7 12 8 13 9 83 10 14 11 11 12
REMARK SMILES IDX 10 13 5 14 6 15 7 16 9 17 8 18 4 19 3 20 2 21 1 22 16 23
REMARK SMILES IDX 22 27 23 28 24 29 25 30 26 31 27 32 28 34 29 35 30 36 82 37
REMARK SMILES IDX 31 38 81 39 32 40 33 41 34 42 75 43 35 44 80 45 74 46 76 47
REMARK SMILES IDX 36 48 79 49 73 50 72 51 37 53 63 54 46 55 62 56 47 57 50 58
REMARK SMILES IDX 61 59 77 60 48 61 49 62 60 64 78 65 51 66 38 67 39 68 44 69
REMARK SMILES IDX 40 70 41 71 43 72 45 73 42 74 64 75 65 76 70 77 66 78 67 79
REMARK SMILES IDX 69 80 71 81 68 82 52 83 53 84 58 85 54 86 55 87 57 88 59 89
REMARK SMILES IDX 56 90
REMARK H PARENT 19 6 16 24 16 25 16 26 26 33 76 52 50 63
REMARK Flexibility Score: inf
ROOT
ATOM      1  C   UNL A   1      35.513  22.359  25.799  1.00  0.00     0.021 C 
ENDROOT
BRANCH   1   2
ATOM      2  C   UNL A   1      34.010  22.475  25.516  1.00  0.00     0.116 C 
BRANCH   2   3
ATOM      3  N   UNL A   1      33.361  21.215  25.164  1.00  0.00    -0.351 N 
ATOM      4  C   UNL A   1      32.709  20.872  23.993  1.00  0.00     0.281 C 
ATOM      5  O   UNL A   1      32.511  19.685  23.734  1.00  0.00    -0.268 OA
ATOM      6  H   UNL A   1      33.391  20.513  25.855  1.00  0.00     0.163 HD
BRANCH   4   7
ATOM      7  C   UNL A   1      32.253  22.063  22.992  1.00  0.00     0.177 C 
ATOM      8  C   UNL A   1      31.807  25.262  23.652  1.00  0.00     0.180 C 
ATOM      9  C   UNL A   1      33.618  25.045  22.801  1.00  0.00     0.052 C 
ATOM     10  C   UNL A   1      30.918  23.418  23.704  1.00  0.00     0.124 C 
ATOM     11  C   UNL A   1      33.934  23.092  22.562  1.00  0.00     0.083 C 
BRANCH   8  12
ATOM     12  O   UNL A   1      31.026  26.431  23.510  1.00  0.00    -0.486 OA
BRANCH  12  13
ATOM     13  C   UNL A   1      31.219  27.363  24.453  1.00  0.00     0.161 A 
ATOM     14  C   UNL A   1      31.311  28.695  24.121  1.00  0.00     0.161 A 
ATOM     15  C   UNL A   1      31.558  29.634  25.113  1.00  0.00     0.050 A 
ATOM     16  C   UNL A   1      31.727  29.206  26.439  1.00  0.00     0.004 A 
ATOM     17  C   UNL A   1      31.433  26.919  25.752  1.00  0.00     0.050 A 
ATOM     18  C   UNL A   1      31.689  27.846  26.755  1.00  0.00     0.004 A 
BRANCH  14  19
ATOM     19  O   UNL A   1      31.438  28.986  22.797  1.00  0.00    -0.490 OA
BRANCH  19  20
ATOM     20  C   UNL A   1      30.261  29.634  22.082  1.00  0.00     0.229 C 
BRANCH  20  21
ATOM     21  C   UNL A   1      28.223  30.098  22.708  1.00  0.00     0.038 C 
ATOM     22  C   UNL A   1      27.528  31.336  23.741  1.00  0.00     0.007 C 
ENDBRANCH  20  21
ENDBRANCH  19  20
ENDBRANCH  14  19
ENDBRANCH  12  13
ENDBRANCH   8  12
BRANCH   7  23
ATOM     23  N   UNL A   1      31.675  21.228  21.880  1.00  0.00    -0.345 N 
ATOM     24  H   UNL A   1      32.332  21.200  21.100  1.00  0.00     0.345 HD
ATOM     25  H   UNL A   1      30.794  21.638  21.569  1.00  0.00     0.345 HD
ATOM     26  H   UNL A   1      31.509  20.281  22.218  1.00  0.00     0.345 HD
ENDBRANCH   7  23
ENDBRANCH   4   7
ENDBRANCH   2   3
ENDBRANCH   1   2
BRANCH   1  27
ATOM     27  C   UNL A   1      36.323  21.653  24.712  1.00  0.00     0.002 C 
BRANCH  27  28
ATOM     28  C   UNL A   1      36.482  20.148  24.921  1.00  0.00     0.002 C 
BRANCH  28  29
ATOM     29  C   UNL A   1      37.905  19.623  24.713  1.00  0.00     0.021 C 
BRANCH  29  30
ATOM     30  C   UNL A   1      38.919  20.138  25.727  1.00  0.00     0.116 C 
BRANCH  30  31
ATOM     31  N   UNL A   1      40.074  19.260  25.823  1.00  0.00    -0.352 N 
ATOM     32  C   UNL A   1      41.382  19.571  26.082  1.00  0.00     0.251 C 
ATOM     33  H   UNL A   1      39.889  18.304  25.681  1.00  0.00     0.163 HD
ATOM     34  O   UNL A   1      42.264  18.743  25.877  1.00  0.00    -0.269 OA
BRANCH  32  35
ATOM     35  C   UNL A   1      41.732  20.907  26.609  1.00  0.00     0.039 A 
ATOM     36  C   UNL A   1      42.167  21.890  25.719  1.00  0.00     0.014 A 
ATOM     37  C   UNL A   1      41.668  21.179  27.979  1.00  0.00     0.014 A 
ATOM     38  C   UNL A   1      42.517  23.149  26.201  1.00  0.00     0.010 A 
ATOM     39  C   UNL A   1      41.919  22.465  28.444  1.00  0.00     0.010 A 
ATOM     40  C   UNL A   1      42.379  23.455  27.566  1.00  0.00    -0.014 A 
BRANCH  40  41
ATOM     41  C   UNL A   1      42.760  24.792  28.086  1.00  0.00     0.031 A 
ATOM     42  C   UNL A   1      41.709  25.848  28.302  1.00  0.00     0.074 A 
ATOM     43  C   UNL A   1      44.052  25.059  28.354  1.00  0.00     0.049 A 
ATOM     44  N   UNL A   1      41.843  27.065  28.765  1.00  0.00    -0.248 NA
ATOM     45  C   UNL A   1      40.328  25.502  27.928  1.00  0.00     0.031 C 
ATOM     46  C   UNL A   1      45.168  24.135  28.145  1.00  0.00     0.029 A 
ATOM     47  N   UNL A   1      44.645  26.184  28.870  1.00  0.00    -0.354 N 
ATOM     48  C   UNL A   1      40.571  27.624  28.735  1.00  0.00     0.074 A 
ATOM     49  C   UNL A   1      39.693  26.644  28.137  1.00  0.00     0.031 C 
ATOM     50  C   UNL A   1      46.303  24.713  28.571  1.00  0.00     0.029 A 
ATOM     51  C   UNL A   1      46.003  26.062  29.038  1.00  0.00     0.049 A 
ATOM     52  H   UNL A   1      44.144  27.000  29.098  1.00  0.00     0.167 HD
ATOM     53  C   UNL A   1      40.164  28.832  29.191  1.00  0.00     0.037 A 
ATOM     54  C   UNL A   1      46.904  26.941  29.516  1.00  0.00     0.037 A 
ATOM     55  C   UNL A   1      41.042  29.805  29.788  1.00  0.00     0.049 A 
ATOM     56  C   UNL A   1      46.429  28.289  29.985  1.00  0.00     0.074 A 
ATOM     57  C   UNL A   1      40.724  31.043  30.315  1.00  0.00     0.029 A 
ATOM     58  N   UNL A   1      42.413  29.649  29.929  1.00  0.00    -0.354 N 
ATOM     59  N   UNL A   1      45.214  28.780  30.010  1.00  0.00    -0.248 NA
ATOM     60  C   UNL A   1      47.455  29.200  30.510  1.00  0.00     0.031 C 
ATOM     61  C   UNL A   1      41.912  31.667  30.711  1.00  0.00     0.029 A 
ATOM     62  C   UNL A   1      42.959  30.782  30.511  1.00  0.00     0.049 A 
ATOM     63  H   UNL A   1      42.923  28.852  29.657  1.00  0.00     0.167 HD
ATOM     64  C   UNL A   1      45.323  30.038  30.592  1.00  0.00     0.074 A 
ATOM     65  C   UNL A   1      46.721  30.224  30.918  1.00  0.00     0.031 C 
ATOM     66  C   UNL A   1      44.352  30.953  30.839  1.00  0.00     0.037 A 
BRANCH  53  67
ATOM     67  C   UNL A   1      38.705  29.171  29.053  1.00  0.00     0.057 A 
ATOM     68  C   UNL A   1      37.813  29.076  30.131  1.00  0.00     0.134 A 
ATOM     69  C   UNL A   1      38.189  29.627  27.833  1.00  0.00     0.134 A 
ATOM     70  F   UNL A   1      38.235  28.635  31.326  1.00  0.00    -0.206 F 
ATOM     71  C   UNL A   1      36.460  29.390  29.992  1.00  0.00     0.040 A 
ATOM     72  C   UNL A   1      36.846  29.978  27.692  1.00  0.00     0.040 A 
ATOM     73  F   UNL A   1      38.984  29.749  26.760  1.00  0.00    -0.206 F 
ATOM     74  C   UNL A   1      35.974  29.850  28.771  1.00  0.00     0.006 A 
ENDBRANCH  53  67
BRANCH  54  75
ATOM     75  C   UNL A   1      48.342  26.571  29.594  1.00  0.00     0.057 A 
ATOM     76  C   UNL A   1      49.233  26.895  28.563  1.00  0.00     0.134 A 
ATOM     77  C   UNL A   1      48.854  25.861  30.686  1.00  0.00     0.134 A 
ATOM     78  F   UNL A   1      48.802  27.562  27.482  1.00  0.00    -0.206 F 
ATOM     79  C   UNL A   1      50.570  26.495  28.598  1.00  0.00     0.040 A 
ATOM     80  C   UNL A   1      50.196  25.485  30.751  1.00  0.00     0.040 A 
ATOM     81  F   UNL A   1      48.057  25.529  31.713  1.00  0.00    -0.206 F 
ATOM     82  C   UNL A   1      51.055  25.790  29.698  1.00  0.00     0.006 A 
ENDBRANCH  54  75
BRANCH  66  83
ATOM     83  C   UNL A   1      44.760  32.209  31.561  1.00  0.00     0.057 A 
ATOM     84  C   UNL A   1      45.162  33.369  30.885  1.00  0.00     0.134 A 
ATOM     85  C   UNL A   1      44.743  32.254  32.961  1.00  0.00     0.134 A 
ATOM     86  F   UNL A   1      45.208  33.396  29.544  1.00  0.00    -0.206 F 
ATOM     87  C   UNL A   1      45.581  34.508  31.575  1.00  0.00     0.040 A 
ATOM     88  C   UNL A   1      45.119  33.401  33.662  1.00  0.00     0.040 A 
ATOM     89  F   UNL A   1      44.353  31.187  33.675  1.00  0.00    -0.206 F 
ATOM     90  C   UNL A   1      45.555  34.528  32.969  1.00  0.00     0.006 A 
ENDBRANCH  66  83
ENDBRANCH  40  41
ENDBRANCH  32  35
ENDBRANCH  30  31
ENDBRANCH  29  30
ENDBRANCH  28  29
ENDBRANCH  27  28
ENDBRANCH   1  27
TORSDOF 19
ENDMDL
