MODEL 1
REMARK VINA RESULT:     -12.1      0.000      0.000
REMARK SMILES CS(=O)(=O)c1ccc(/C=C(/C(=O)NCCCCCCNC(=O)c2ccc(-c3c4nc(c(-c5c(F)cccc5F)c5ccc([nH]5)c(-c5c(F)cccc5F)c5nc(c(-c6c(F)cccc6F)c6ccc3[nH]6)C=C5)C=C4)cc2)c2ccccc2)cc1
REMARK SMILES IDX 16 1 15 2 14 3 13 4 11 5 12 6 10 8 9 9 8 10 5 11 6 12 84 13
REMARK SMILES IDX 7 14 83 15 2 16 1 17 3 18 4 19 77 20 78 21 82 22 79 23 81 24
REMARK SMILES IDX 80 25 17 26 18 27 19 28 20 29 21 30 22 32 23 33 24 34 76 35
REMARK SMILES IDX 25 36 75 37 26 38 27 39 28 40 69 41 29 42 74 43 68 44 70 45
REMARK SMILES IDX 30 46 73 47 67 48 66 49 31 51 57 52 40 53 56 54 41 55 44 56
REMARK SMILES IDX 55 57 71 58 42 59 43 60 54 62 72 63 45 64 32 65 33 66 38 67
REMARK SMILES IDX 34 68 35 69 37 70 39 71 36 72 58 73 59 74 64 75 60 76 61 77
REMARK SMILES IDX 63 78 65 79 62 80 46 81 47 82 52 83 48 84 49 85 51 86 53 87
REMARK SMILES IDX 50 88
REMARK H PARENT 13 7 20 31 70 50 44 61
REMARK Flexibility Score: inf
ROOT
ATOM      1  C   UNL A   1      32.124  29.299  27.002  1.00  0.00     0.002 C 
ENDROOT
BRANCH   1   2
ATOM      2  C   UNL A   1      31.723  27.842  26.709  1.00  0.00     0.021 C 
BRANCH   2   3
ATOM      3  C   UNL A   1      32.884  26.985  26.197  1.00  0.00     0.116 C 
BRANCH   3   4
ATOM      4  N   UNL A   1      32.952  27.085  24.754  1.00  0.00    -0.352 N 
ATOM      5  C   UNL A   1      33.254  26.220  23.754  1.00  0.00     0.251 C 
ATOM      6  O   UNL A   1      33.334  26.719  22.629  1.00  0.00    -0.269 OA
ATOM      7  H   UNL A   1      32.730  27.985  24.425  1.00  0.00     0.163 HD
BRANCH   5   8
ATOM      8  C   UNL A   1      33.382  24.724  23.942  1.00  0.00     0.047 C 
ATOM      9  C   UNL A   1      32.311  23.900  24.036  1.00  0.00     0.022 C 
BRANCH   9  10
ATOM     10  C   UNL A   1      32.274  22.418  24.051  1.00  0.00    -0.025 A 
ATOM     11  C   UNL A   1      32.460  19.614  23.885  1.00  0.00     0.067 A 
ATOM     12  C   UNL A   1      32.502  20.250  25.128  1.00  0.00     0.021 A 
ATOM     13  C   UNL A   1      32.254  20.359  22.726  1.00  0.00     0.021 A 
ATOM     14  C   UNL A   1      32.380  21.640  25.209  1.00  0.00     0.009 A 
ATOM     15  C   UNL A   1      32.163  21.755  22.815  1.00  0.00     0.009 A 
BRANCH  11  16
ATOM     16  S   UNL A   1      32.707  17.854  23.855  1.00  0.00     0.175 S 
ATOM     17  C   UNL A   1      34.402  17.547  24.254  1.00  0.00     0.163 C 
ATOM     18  O   UNL A   1      32.510  17.431  22.484  1.00  0.00    -0.224 OA
ATOM     19  O   UNL A   1      31.897  17.313  24.933  1.00  0.00    -0.224 OA
ENDBRANCH  11  16
ENDBRANCH   9  10
BRANCH   8  20
ATOM     20  C   UNL A   1      34.755  24.217  24.197  1.00  0.00    -0.013 A 
ATOM     21  C   UNL A   1      35.294  24.377  25.486  1.00  0.00     0.009 A 
ATOM     22  C   UNL A   1      35.495  23.516  23.237  1.00  0.00     0.009 A 
ATOM     23  C   UNL A   1      36.527  23.822  25.822  1.00  0.00     0.001 A 
ATOM     24  C   UNL A   1      36.723  22.943  23.582  1.00  0.00     0.001 A 
ATOM     25  C   UNL A   1      37.234  23.091  24.873  1.00  0.00     0.000 A 
ENDBRANCH   8  20
ENDBRANCH   5   8
ENDBRANCH   3   4
ENDBRANCH   2   3
ENDBRANCH   1   2
BRANCH   1  26
ATOM     26  C   UNL A   1      31.651  30.319  25.958  1.00  0.00     0.002 C 
BRANCH  26  27
ATOM     27  C   UNL A   1      31.451  31.736  26.496  1.00  0.00     0.021 C 
BRANCH  27  28
ATOM     28  C   UNL A   1      32.682  32.322  27.176  1.00  0.00     0.116 C 
BRANCH  28  29
ATOM     29  N   UNL A   1      32.474  33.706  27.566  1.00  0.00    -0.352 N 
ATOM     30  C   UNL A   1      33.155  34.456  28.491  1.00  0.00     0.251 C 
ATOM     31  H   UNL A   1      31.741  34.172  27.101  1.00  0.00     0.163 HD
ATOM     32  O   UNL A   1      32.707  35.535  28.867  1.00  0.00    -0.269 OA
BRANCH  30  33
ATOM     33  C   UNL A   1      34.428  33.952  29.045  1.00  0.00     0.039 A 
ATOM     34  C   UNL A   1      34.400  33.157  30.193  1.00  0.00     0.014 A 
ATOM     35  C   UNL A   1      35.646  34.273  28.438  1.00  0.00     0.014 A 
ATOM     36  C   UNL A   1      35.593  32.643  30.705  1.00  0.00     0.010 A 
ATOM     37  C   UNL A   1      36.824  33.698  28.904  1.00  0.00     0.010 A 
ATOM     38  C   UNL A   1      36.810  32.887  30.048  1.00  0.00    -0.014 A 
BRANCH  38  39
ATOM     39  C   UNL A   1      38.084  32.316  30.554  1.00  0.00     0.031 A 
ATOM     40  C   UNL A   1      38.622  31.039  29.971  1.00  0.00     0.074 A 
ATOM     41  C   UNL A   1      38.724  32.917  31.575  1.00  0.00     0.049 A 
ATOM     42  N   UNL A   1      39.678  30.351  30.320  1.00  0.00    -0.248 NA
ATOM     43  C   UNL A   1      37.852  30.440  28.868  1.00  0.00     0.031 C 
ATOM     44  C   UNL A   1      38.282  34.137  32.253  1.00  0.00     0.029 A 
ATOM     45  N   UNL A   1      39.882  32.576  32.227  1.00  0.00    -0.354 N 
ATOM     46  C   UNL A   1      39.694  29.237  29.490  1.00  0.00     0.074 A 
ATOM     47  C   UNL A   1      38.510  29.309  28.662  1.00  0.00     0.031 C 
ATOM     48  C   UNL A   1      39.170  34.456  33.208  1.00  0.00     0.029 A 
ATOM     49  C   UNL A   1      40.222  33.445  33.237  1.00  0.00     0.049 A 
ATOM     50  H   UNL A   1      40.420  31.785  31.995  1.00  0.00     0.167 HD
ATOM     51  C   UNL A   1      40.624  28.255  29.407  1.00  0.00     0.037 A 
ATOM     52  C   UNL A   1      41.261  33.423  34.092  1.00  0.00     0.037 A 
ATOM     53  C   UNL A   1      41.812  28.199  30.219  1.00  0.00     0.049 A 
ATOM     54  C   UNL A   1      42.272  32.314  33.992  1.00  0.00     0.074 A 
ATOM     55  C   UNL A   1      42.843  27.278  30.174  1.00  0.00     0.029 A 
ATOM     56  N   UNL A   1      42.125  29.102  31.223  1.00  0.00    -0.354 N 
ATOM     57  N   UNL A   1      42.309  31.302  33.158  1.00  0.00    -0.248 NA
ATOM     58  C   UNL A   1      43.389  32.348  34.945  1.00  0.00     0.031 C 
ATOM     59  C   UNL A   1      43.755  27.595  31.185  1.00  0.00     0.029 A 
ATOM     60  C   UNL A   1      43.322  28.745  31.822  1.00  0.00     0.049 A 
ATOM     61  H   UNL A   1      41.578  29.883  31.473  1.00  0.00     0.167 HD
ATOM     62  C   UNL A   1      43.465  30.597  33.467  1.00  0.00     0.074 A 
ATOM     63  C   UNL A   1      44.108  31.306  34.554  1.00  0.00     0.031 C 
ATOM     64  C   UNL A   1      43.952  29.465  32.900  1.00  0.00     0.037 A 
BRANCH  51  65
ATOM     65  C   UNL A   1      40.391  27.164  28.402  1.00  0.00     0.057 A 
ATOM     66  C   UNL A   1      39.548  26.076  28.671  1.00  0.00     0.134 A 
ATOM     67  C   UNL A   1      40.991  27.215  27.138  1.00  0.00     0.134 A 
ATOM     68  F   UNL A   1      38.951  25.960  29.867  1.00  0.00    -0.206 F 
ATOM     69  C   UNL A   1      39.338  25.065  27.733  1.00  0.00     0.040 A 
ATOM     70  C   UNL A   1      40.764  26.225  26.180  1.00  0.00     0.040 A 
ATOM     71  F   UNL A   1      41.805  28.231  26.810  1.00  0.00    -0.206 F 
ATOM     72  C   UNL A   1      39.942  25.142  26.480  1.00  0.00     0.006 A 
ENDBRANCH  51  65
BRANCH  52  73
ATOM     73  C   UNL A   1      41.412  34.497  35.107  1.00  0.00     0.057 A 
ATOM     74  C   UNL A   1      40.839  34.374  36.379  1.00  0.00     0.134 A 
ATOM     75  C   UNL A   1      42.121  35.672  34.832  1.00  0.00     0.134 A 
ATOM     76  F   UNL A   1      40.132  33.278  36.697  1.00  0.00    -0.206 F 
ATOM     77  C   UNL A   1      40.946  35.388  37.331  1.00  0.00     0.040 A 
ATOM     78  C   UNL A   1      42.258  36.683  35.784  1.00  0.00     0.040 A 
ATOM     79  F   UNL A   1      42.702  35.849  33.636  1.00  0.00    -0.206 F 
ATOM     80  C   UNL A   1      41.663  36.546  37.036  1.00  0.00     0.006 A 
ENDBRANCH  52  73
BRANCH  64  81
ATOM     81  C   UNL A   1      45.260  28.943  33.420  1.00  0.00     0.057 A 
ATOM     82  C   UNL A   1      45.323  27.978  34.432  1.00  0.00     0.134 A 
ATOM     83  C   UNL A   1      46.470  29.387  32.872  1.00  0.00     0.134 A 
ATOM     84  F   UNL A   1      44.200  27.521  35.008  1.00  0.00    -0.206 F 
ATOM     85  C   UNL A   1      46.545  27.488  34.896  1.00  0.00     0.040 A 
ATOM     86  C   UNL A   1      47.697  28.883  33.308  1.00  0.00     0.040 A 
ATOM     87  F   UNL A   1      46.480  30.304  31.894  1.00  0.00    -0.206 F 
ATOM     88  C   UNL A   1      47.736  27.935  34.328  1.00  0.00     0.006 A 
ENDBRANCH  64  81
ENDBRANCH  38  39
ENDBRANCH  30  33
ENDBRANCH  28  29
ENDBRANCH  27  28
ENDBRANCH  26  27
ENDBRANCH   1  26
TORSDOF 16
ENDMDL
MODEL 2
REMARK VINA RESULT:     -12.0      0.629      6.220
REMARK SMILES CS(=O)(=O)c1ccc(/C=C(/C(=O)NCCCCCCNC(=O)c2ccc(-c3c4nc(c(-c5c(F)cccc5F)c5ccc([nH]5)c(-c5c(F)cccc5F)c5nc(c(-c6c(F)cccc6F)c6ccc3[nH]6)C=C5)C=C4)cc2)c2ccccc2)cc1
REMARK SMILES IDX 16 1 15 2 14 3 13 4 11 5 12 6 10 8 9 9 8 10 5 11 6 12 84 13
REMARK SMILES IDX 7 14 83 15 2 16 1 17 3 18 4 19 77 20 78 21 82 22 79 23 81 24
REMARK SMILES IDX 80 25 17 26 18 27 19 28 20 29 21 30 22 32 23 33 24 34 76 35
REMARK SMILES IDX 25 36 75 37 26 38 27 39 28 40 69 41 29 42 74 43 68 44 70 45
REMARK SMILES IDX 30 46 73 47 67 48 66 49 31 51 57 52 40 53 56 54 41 55 44 56
REMARK SMILES IDX 55 57 71 58 42 59 43 60 54 62 72 63 45 64 32 65 33 66 38 67
REMARK SMILES IDX 34 68 35 69 37 70 39 71 36 72 58 73 59 74 64 75 60 76 61 77
REMARK SMILES IDX 63 78 65 79 62 80 46 81 47 82 52 83 48 84 49 85 51 86 53 87
REMARK SMILES IDX 50 88
REMARK H PARENT 13 7 20 31 70 50 44 61
REMARK Flexibility Score: inf
ROOT
ATOM      1  C   UNL A   1      32.049  29.118  26.317  1.00  0.00     0.002 C 
ENDROOT
BRANCH   1   2
ATOM      2  C   UNL A   1      32.980  28.153  25.561  1.00  0.00     0.021 C 
BRANCH   2   3
ATOM      3  C   UNL A   1      32.227  27.055  24.803  1.00  0.00     0.116 C 
BRANCH   3   4
ATOM      4  N   UNL A   1      32.762  26.945  23.463  1.00  0.00    -0.352 N 
ATOM      5  C   UNL A   1      33.397  25.968  22.769  1.00  0.00     0.251 C 
ATOM      6  O   UNL A   1      33.830  26.299  21.662  1.00  0.00    -0.269 OA
ATOM      7  H   UNL A   1      32.638  27.767  22.935  1.00  0.00     0.163 HD
BRANCH   5   8
ATOM      8  C   UNL A   1      33.494  24.530  23.233  1.00  0.00     0.047 C 
ATOM      9  C   UNL A   1      32.433  23.688  23.246  1.00  0.00     0.022 C 
BRANCH   9  10
ATOM     10  C   UNL A   1      32.403  22.230  23.507  1.00  0.00    -0.025 A 
ATOM     11  C   UNL A   1      32.575  19.432  23.773  1.00  0.00     0.067 A 
ATOM     12  C   UNL A   1      32.786  20.259  24.879  1.00  0.00     0.021 A 
ATOM     13  C   UNL A   1      32.206  19.984  22.549  1.00  0.00     0.021 A 
ATOM     14  C   UNL A   1      32.672  21.646  24.750  1.00  0.00     0.009 A 
ATOM     15  C   UNL A   1      32.124  21.378  22.422  1.00  0.00     0.009 A 
BRANCH  11  16
ATOM     16  S   UNL A   1      32.821  17.687  23.997  1.00  0.00     0.175 S 
ATOM     17  C   UNL A   1      34.468  17.453  24.597  1.00  0.00     0.163 C 
ATOM     18  O   UNL A   1      32.761  17.087  22.679  1.00  0.00    -0.224 OA
ATOM     19  O   UNL A   1      31.908  17.279  25.050  1.00  0.00    -0.224 OA
ENDBRANCH  11  16
ENDBRANCH   9  10
BRANCH   8  20
ATOM     20  C   UNL A   1      34.787  24.131  23.845  1.00  0.00    -0.013 A 
ATOM     21  C   UNL A   1      35.034  24.504  25.179  1.00  0.00     0.009 A 
ATOM     22  C   UNL A   1      35.726  23.333  23.181  1.00  0.00     0.009 A 
ATOM     23  C   UNL A   1      36.173  24.062  25.848  1.00  0.00     0.001 A 
ATOM     24  C   UNL A   1      36.860  22.875  23.861  1.00  0.00     0.001 A 
ATOM     25  C   UNL A   1      37.079  23.234  25.192  1.00  0.00     0.000 A 
ENDBRANCH   8  20
ENDBRANCH   5   8
ENDBRANCH   3   4
ENDBRANCH   2   3
ENDBRANCH   1   2
BRANCH   1  26
ATOM     26  C   UNL A   1      31.399  30.200  25.445  1.00  0.00     0.002 C 
BRANCH  26  27
ATOM     27  C   UNL A   1      31.167  31.535  26.154  1.00  0.00     0.021 C 
BRANCH  27  28
ATOM     28  C   UNL A   1      32.364  32.029  26.956  1.00  0.00     0.116 C 
BRANCH  28  29
ATOM     29  N   UNL A   1      32.231  33.431  27.314  1.00  0.00    -0.352 N 
ATOM     30  C   UNL A   1      32.973  34.172  28.199  1.00  0.00     0.251 C 
ATOM     31  H   UNL A   1      31.506  33.918  26.858  1.00  0.00     0.163 HD
ATOM     32  O   UNL A   1      32.586  35.279  28.559  1.00  0.00    -0.269 OA
BRANCH  30  33
ATOM     33  C   UNL A   1      34.237  33.623  28.730  1.00  0.00     0.039 A 
ATOM     34  C   UNL A   1      34.228  32.973  29.966  1.00  0.00     0.014 A 
ATOM     35  C   UNL A   1      35.430  33.761  28.013  1.00  0.00     0.014 A 
ATOM     36  C   UNL A   1      35.410  32.418  30.461  1.00  0.00     0.010 A 
ATOM     37  C   UNL A   1      36.588  33.141  28.471  1.00  0.00     0.010 A 
ATOM     38  C   UNL A   1      36.592  32.474  29.704  1.00  0.00    -0.014 A 
BRANCH  38  39
ATOM     39  C   UNL A   1      37.848  31.854  30.196  1.00  0.00     0.031 A 
ATOM     40  C   UNL A   1      38.634  32.514  31.294  1.00  0.00     0.074 A 
ATOM     41  C   UNL A   1      38.309  30.731  29.614  1.00  0.00     0.049 A 
ATOM     42  N   UNL A   1      39.783  32.166  31.813  1.00  0.00    -0.248 NA
ATOM     43  C   UNL A   1      38.067  33.747  31.865  1.00  0.00     0.031 C 
ATOM     44  C   UNL A   1      37.660  30.019  28.511  1.00  0.00     0.029 A 
ATOM     45  N   UNL A   1      39.439  29.994  29.864  1.00  0.00    -0.354 N 
ATOM     46  C   UNL A   1      40.080  33.138  32.760  1.00  0.00     0.074 A 
ATOM     47  C   UNL A   1      39.023  34.123  32.702  1.00  0.00     0.031 C 
ATOM     48  C   UNL A   1      38.388  28.935  28.198  1.00  0.00     0.029 A 
ATOM     49  C   UNL A   1      39.574  28.897  29.048  1.00  0.00     0.049 A 
ATOM     50  H   UNL A   1      40.093  30.228  30.563  1.00  0.00     0.167 HD
ATOM     51  C   UNL A   1      41.127  33.193  33.618  1.00  0.00     0.037 A 
ATOM     52  C   UNL A   1      40.548  27.970  28.988  1.00  0.00     0.037 A 
ATOM     53  C   UNL A   1      42.166  32.199  33.688  1.00  0.00     0.049 A 
ATOM     54  C   UNL A   1      41.708  28.060  29.941  1.00  0.00     0.074 A 
ATOM     55  C   UNL A   1      43.239  32.134  34.559  1.00  0.00     0.029 A 
ATOM     56  N   UNL A   1      42.262  31.097  32.851  1.00  0.00    -0.354 N 
ATOM     57  N   UNL A   1      41.942  28.950  30.876  1.00  0.00    -0.248 NA
ATOM     58  C   UNL A   1      42.735  27.015  29.836  1.00  0.00     0.031 C 
ATOM     59  C   UNL A   1      44.012  31.020  34.217  1.00  0.00     0.029 A 
ATOM     60  C   UNL A   1      43.391  30.360  33.169  1.00  0.00     0.049 A 
ATOM     61  H   UNL A   1      41.623  30.873  32.137  1.00  0.00     0.167 HD
ATOM     62  C   UNL A   1      43.126  28.556  31.488  1.00  0.00     0.074 A 
ATOM     63  C   UNL A   1      43.551  27.339  30.828  1.00  0.00     0.031 C 
ATOM     64  C   UNL A   1      43.798  29.147  32.506  1.00  0.00     0.037 A 
BRANCH  51  65
ATOM     65  C   UNL A   1      41.196  34.367  34.551  1.00  0.00     0.057 A 
ATOM     66  C   UNL A   1      41.845  35.558  34.198  1.00  0.00     0.134 A 
ATOM     67  C   UNL A   1      40.579  34.320  35.808  1.00  0.00     0.134 A 
ATOM     68  F   UNL A   1      42.466  35.667  33.014  1.00  0.00    -0.206 F 
ATOM     69  C   UNL A   1      41.906  36.645  35.071  1.00  0.00     0.040 A 
ATOM     70  C   UNL A   1      40.608  35.412  36.679  1.00  0.00     0.040 A 
ATOM     71  F   UNL A   1      39.934  33.214  36.210  1.00  0.00    -0.206 F 
ATOM     72  C   UNL A   1      41.280  36.576  36.313  1.00  0.00     0.006 A 
ENDBRANCH  51  65
BRANCH  52  73
ATOM     73  C   UNL A   1      40.460  26.860  28.005  1.00  0.00     0.057 A 
ATOM     74  C   UNL A   1      41.114  26.937  26.770  1.00  0.00     0.134 A 
ATOM     75  C   UNL A   1      39.715  25.704  28.268  1.00  0.00     0.134 A 
ATOM     76  F   UNL A   1      41.829  28.027  26.451  1.00  0.00    -0.206 F 
ATOM     77  C   UNL A   1      41.014  25.916  25.823  1.00  0.00     0.040 A 
ATOM     78  C   UNL A   1      39.628  24.664  27.342  1.00  0.00     0.040 A 
ATOM     79  F   UNL A   1      39.072  25.563  29.436  1.00  0.00    -0.206 F 
ATOM     80  C   UNL A   1      40.273  24.772  26.111  1.00  0.00     0.006 A 
ENDBRANCH  52  73
BRANCH  64  81
ATOM     81  C   UNL A   1      45.045  28.467  32.993  1.00  0.00     0.057 A 
ATOM     82  C   UNL A   1      46.311  28.793  32.491  1.00  0.00     0.134 A 
ATOM     83  C   UNL A   1      44.978  27.502  34.006  1.00  0.00     0.134 A 
ATOM     84  F   UNL A   1      46.442  29.699  31.510  1.00  0.00    -0.206 F 
ATOM     85  C   UNL A   1      47.465  28.165  32.963  1.00  0.00     0.040 A 
ATOM     86  C   UNL A   1      46.128  26.890  34.507  1.00  0.00     0.040 A 
ATOM     87  F   UNL A   1      43.798  27.151  34.537  1.00  0.00    -0.206 F 
ATOM     88  C   UNL A   1      47.376  27.216  33.980  1.00  0.00     0.006 A 
ENDBRANCH  64  81
ENDBRANCH  38  39
ENDBRANCH  30  33
ENDBRANCH  28  29
ENDBRANCH  27  28
ENDBRANCH  26  27
ENDBRANCH   1  26
TORSDOF 16
ENDMDL
MODEL 3
REMARK VINA RESULT:     -11.9      2.949      7.260
REMARK SMILES CS(=O)(=O)c1ccc(/C=C(/C(=O)NCCCCCCNC(=O)c2ccc(-c3c4nc(c(-c5c(F)cccc5F)c5ccc([nH]5)c(-c5c(F)cccc5F)c5nc(c(-c6c(F)cccc6F)c6ccc3[nH]6)C=C5)C=C4)cc2)c2ccccc2)cc1
REMARK SMILES IDX 16 1 15 2 14 3 13 4 11 5 12 6 10 8 9 9 8 10 5 11 6 12 84 13
REMARK SMILES IDX 7 14 83 15 2 16 1 17 3 18 4 19 77 20 78 21 82 22 79 23 81 24
REMARK SMILES IDX 80 25 17 26 18 27 19 28 20 29 21 30 22 32 23 33 24 34 76 35
REMARK SMILES IDX 25 36 75 37 26 38 27 39 28 40 69 41 29 42 74 43 68 44 70 45
REMARK SMILES IDX 30 46 73 47 67 48 66 49 31 51 57 52 40 53 56 54 41 55 44 56
REMARK SMILES IDX 55 57 71 58 42 59 43 60 54 62 72 63 45 64 32 65 33 66 38 67
REMARK SMILES IDX 34 68 35 69 37 70 39 71 36 72 58 73 59 74 64 75 60 76 61 77
REMARK SMILES IDX 63 78 65 79 62 80 46 81 47 82 52 83 48 84 49 85 51 86 53 87
REMARK SMILES IDX 50 88
REMARK H PARENT 13 7 20 31 70 50 44 61
REMARK Flexibility Score: inf
ROOT
ATOM      1  C   UNL A   1      32.021  27.154  24.864  1.00  0.00     0.002 C 
ENDROOT
BRANCH   1   2
ATOM      2  C   UNL A   1      31.345  25.791  25.098  1.00  0.00     0.021 C 
BRANCH   2   3
ATOM      3  C   UNL A   1      30.620  25.254  23.861  1.00  0.00     0.116 C 
BRANCH   3   4
ATOM      4  N   UNL A   1      31.511  25.315  22.721  1.00  0.00    -0.352 N 
ATOM      5  C   UNL A   1      32.599  24.607  22.326  1.00  0.00     0.251 C 
ATOM      6  O   UNL A   1      33.187  25.049  21.335  1.00  0.00    -0.269 OA
ATOM      7  H   UNL A   1      31.275  26.032  22.091  1.00  0.00     0.163 HD
BRANCH   5   8
ATOM      8  C   UNL A   1      33.031  23.301  22.957  1.00  0.00     0.047 C 
ATOM      9  C   UNL A   1      32.242  22.201  22.986  1.00  0.00     0.022 C 
BRANCH   9  10
ATOM     10  C   UNL A   1      32.580  20.821  23.409  1.00  0.00    -0.025 A 
ATOM     11  C   UNL A   1      33.374  18.171  23.927  1.00  0.00     0.067 A 
ATOM     12  C   UNL A   1      33.732  19.197  24.805  1.00  0.00     0.021 A 
ATOM     13  C   UNL A   1      32.561  18.442  22.829  1.00  0.00     0.021 A 
ATOM     14  C   UNL A   1      33.311  20.507  24.560  1.00  0.00     0.009 A 
ATOM     15  C   UNL A   1      32.170  19.764  22.576  1.00  0.00     0.009 A 
BRANCH  11  16
ATOM     16  S   UNL A   1      34.016  16.547  24.260  1.00  0.00     0.175 S 
ATOM     17  C   UNL A   1      32.802  15.678  25.207  1.00  0.00     0.163 C 
ATOM     18  O   UNL A   1      35.173  16.726  25.115  1.00  0.00    -0.224 OA
ATOM     19  O   UNL A   1      34.128  15.883  22.973  1.00  0.00    -0.224 OA
ENDBRANCH  11  16
ENDBRANCH   9  10
BRANCH   8  20
ATOM     20  C   UNL A   1      34.313  23.335  23.706  1.00  0.00    -0.013 A 
ATOM     21  C   UNL A   1      35.494  23.002  23.019  1.00  0.00     0.009 A 
ATOM     22  C   UNL A   1      34.403  23.763  25.036  1.00  0.00     0.009 A 
ATOM     23  C   UNL A   1      36.740  23.127  23.630  1.00  0.00     0.001 A 
ATOM     24  C   UNL A   1      35.656  23.907  25.642  1.00  0.00     0.001 A 
ATOM     25  C   UNL A   1      36.821  23.595  24.938  1.00  0.00     0.000 A 
ENDBRANCH   8  20
ENDBRANCH   5   8
ENDBRANCH   3   4
ENDBRANCH   2   3
ENDBRANCH   1   2
BRANCH   1  26
ATOM     26  C   UNL A   1      33.523  27.190  25.175  1.00  0.00     0.002 C 
BRANCH  26  27
ATOM     27  C   UNL A   1      34.021  28.510  25.765  1.00  0.00     0.021 C 
BRANCH  27  28
ATOM     28  C   UNL A   1      33.868  28.611  27.278  1.00  0.00     0.116 C 
BRANCH  28  29
ATOM     29  N   UNL A   1      33.794  29.993  27.720  1.00  0.00    -0.352 N 
ATOM     30  C   UNL A   1      34.720  30.729  28.415  1.00  0.00     0.251 C 
ATOM     31  H   UNL A   1      32.963  30.468  27.488  1.00  0.00     0.163 HD
ATOM     32  O   UNL A   1      34.410  31.808  28.911  1.00  0.00    -0.269 OA
BRANCH  30  33
ATOM     33  C   UNL A   1      36.093  30.210  28.577  1.00  0.00     0.039 A 
ATOM     34  C   UNL A   1      36.976  30.280  27.496  1.00  0.00     0.014 A 
ATOM     35  C   UNL A   1      36.504  29.646  29.788  1.00  0.00     0.014 A 
ATOM     36  C   UNL A   1      38.288  29.827  27.648  1.00  0.00     0.010 A 
ATOM     37  C   UNL A   1      37.831  29.266  29.960  1.00  0.00     0.010 A 
ATOM     38  C   UNL A   1      38.732  29.342  28.889  1.00  0.00    -0.014 A 
BRANCH  38  39
ATOM     39  C   UNL A   1      40.134  28.893  29.080  1.00  0.00     0.031 A 
ATOM     40  C   UNL A   1      41.151  29.828  29.673  1.00  0.00     0.074 A 
ATOM     41  C   UNL A   1      40.503  27.666  28.668  1.00  0.00     0.049 A 
ATOM     42  N   UNL A   1      42.433  29.646  29.860  1.00  0.00    -0.248 NA
ATOM     43  C   UNL A   1      40.667  31.156  30.084  1.00  0.00     0.031 C 
ATOM     44  C   UNL A   1      39.620  26.681  28.039  1.00  0.00     0.029 A 
ATOM     45  N   UNL A   1      41.723  27.038  28.707  1.00  0.00    -0.354 N 
ATOM     46  C   UNL A   1      42.908  30.835  30.398  1.00  0.00     0.074 A 
ATOM     47  C   UNL A   1      41.792  31.752  30.451  1.00  0.00     0.031 C 
ATOM     48  C   UNL A   1      40.320  25.566  27.775  1.00  0.00     0.029 A 
ATOM     49  C   UNL A   1      41.708  25.770  28.179  1.00  0.00     0.049 A 
ATOM     50  H   UNL A   1      42.533  27.457  29.079  1.00  0.00     0.167 HD
ATOM     51  C   UNL A   1      44.158  31.129  30.832  1.00  0.00     0.037 A 
ATOM     52  C   UNL A   1      42.703  24.876  28.031  1.00  0.00     0.037 A 
ATOM     53  C   UNL A   1      45.262  30.205  30.797  1.00  0.00     0.049 A 
ATOM     54  C   UNL A   1      44.086  25.230  28.506  1.00  0.00     0.074 A 
ATOM     55  C   UNL A   1      46.552  30.386  31.263  1.00  0.00     0.029 A 
ATOM     56  N   UNL A   1      45.205  28.926  30.264  1.00  0.00    -0.354 N 
ATOM     57  N   UNL A   1      44.507  26.336  29.073  1.00  0.00    -0.248 NA
ATOM     58  C   UNL A   1      45.129  24.211  28.328  1.00  0.00     0.031 C 
ATOM     59  C   UNL A   1      47.289  29.235  30.966  1.00  0.00     0.029 A 
ATOM     60  C   UNL A   1      46.444  28.316  30.366  1.00  0.00     0.049 A 
ATOM     61  H   UNL A   1      44.401  28.513  29.871  1.00  0.00     0.167 HD
ATOM     62  C   UNL A   1      45.854  26.134  29.345  1.00  0.00     0.074 A 
ATOM     63  C   UNL A   1      46.175  24.796  28.894  1.00  0.00     0.031 C 
ATOM     64  C   UNL A   1      46.745  26.980  29.918  1.00  0.00     0.037 A 
BRANCH  51  65
ATOM     65  C   UNL A   1      44.394  32.505  31.383  1.00  0.00     0.057 A 
ATOM     66  C   UNL A   1      44.801  33.570  30.567  1.00  0.00     0.134 A 
ATOM     67  C   UNL A   1      44.182  32.779  32.740  1.00  0.00     0.134 A 
ATOM     68  F   UNL A   1      45.033  33.374  29.260  1.00  0.00    -0.206 F 
ATOM     69  C   UNL A   1      45.019  34.847  31.087  1.00  0.00     0.040 A 
ATOM     70  C   UNL A   1      44.368  34.059  33.266  1.00  0.00     0.040 A 
ATOM     71  F   UNL A   1      43.786  31.808  33.578  1.00  0.00    -0.206 F 
ATOM     72  C   UNL A   1      44.796  35.096  32.439  1.00  0.00     0.006 A 
ENDBRANCH  51  65
BRANCH  52  73
ATOM     73  C   UNL A   1      42.427  23.548  27.425  1.00  0.00     0.057 A 
ATOM     74  C   UNL A   1      42.072  22.452  28.219  1.00  0.00     0.134 A 
ATOM     75  C   UNL A   1      42.520  23.339  26.044  1.00  0.00     0.134 A 
ATOM     76  F   UNL A   1      41.983  22.585  29.552  1.00  0.00    -0.206 F 
ATOM     77  C   UNL A   1      41.840  21.191  27.667  1.00  0.00     0.040 A 
ATOM     78  C   UNL A   1      42.265  22.090  25.475  1.00  0.00     0.040 A 
ATOM     79  F   UNL A   1      42.847  24.350  25.225  1.00  0.00    -0.206 F 
ATOM     80  C   UNL A   1      41.932  21.010  26.288  1.00  0.00     0.006 A 
ENDBRANCH  52  73
BRANCH  64  81
ATOM     81  C   UNL A   1      48.143  26.471  30.123  1.00  0.00     0.057 A 
ATOM     82  C   UNL A   1      49.149  26.663  29.168  1.00  0.00     0.134 A 
ATOM     83  C   UNL A   1      48.493  25.815  31.310  1.00  0.00     0.134 A 
ATOM     84  F   UNL A   1      48.876  27.272  28.004  1.00  0.00    -0.206 F 
ATOM     85  C   UNL A   1      50.449  26.200  29.377  1.00  0.00     0.040 A 
ATOM     86  C   UNL A   1      49.796  25.374  31.542  1.00  0.00     0.040 A 
ATOM     87  F   UNL A   1      47.579  25.607  32.269  1.00  0.00    -0.206 F 
ATOM     88  C   UNL A   1      50.777  25.560  30.571  1.00  0.00     0.006 A 
ENDBRANCH  64  81
ENDBRANCH  38  39
ENDBRANCH  30  33
ENDBRANCH  28  29
ENDBRANCH  27  28
ENDBRANCH  26  27
ENDBRANCH   1  26
TORSDOF 16
ENDMDL
