MODEL 1
REMARK VINA RESULT:      -9.3      0.000      0.000
REMARK SMILES COCC[N@H+](C)[C@H](C)[C@@H](C)C(=O)NCCCCCCNC(=O)c1ccc(-c2c3nc(c(-c4c(F)cccc4F)c4ccc([nH]4)c(-c4c(F)cccc4F)c4nc(c(-c5c(F)cccc5F)c5ccc2[nH]5)C=C4)C=C3)cc1
REMARK SMILES IDX 15 1 14 2 13 3 11 4 12 5 9 7 10 8 7 9 8 10 5 11 6 12 4 14
REMARK SMILES IDX 3 15 2 16 1 17 16 18 17 19 18 20 19 21 20 22 21 23 22 25
REMARK SMILES IDX 23 26 24 27 76 28 25 29 75 30 26 31 27 32 28 33 69 34 29 35
REMARK SMILES IDX 74 36 68 37 70 38 30 39 73 40 67 41 66 42 31 44 57 45 40 46
REMARK SMILES IDX 56 47 41 48 44 49 55 50 71 51 42 52 43 53 54 55 72 56 45 57
REMARK SMILES IDX 32 58 33 59 38 60 34 61 35 62 37 63 39 64 36 65 58 66 59 67
REMARK SMILES IDX 64 68 60 69 61 70 63 71 65 72 62 73 46 74 47 75 52 76 48 77
REMARK SMILES IDX 49 78 51 79 53 80 50 81
REMARK H PARENT 13 6 5 13 20 24 70 43 44 54
REMARK Flexibility Score: inf
ROOT
ATOM      1  C   UNL A   1      36.394  22.810  23.506  1.00  0.00     0.021 C 
ENDROOT
BRANCH   1   2
ATOM      2  C   UNL A   1      34.869  22.677  23.534  1.00  0.00     0.116 C 
BRANCH   2   3
ATOM      3  N   UNL A   1      34.206  23.654  22.687  1.00  0.00    -0.356 N 
ATOM      4  C   UNL A   1      33.028  24.322  22.793  1.00  0.00     0.228 C 
ATOM      5  O   UNL A   1      32.726  25.066  21.854  1.00  0.00    -0.275 OA
ATOM      6  H   UNL A   1      34.713  23.877  21.872  1.00  0.00     0.163 HD
BRANCH   4   7
ATOM      7  C   UNL A   1      32.107  24.219  24.010  1.00  0.00     0.133 C 
ATOM      8  C   UNL A   1      30.701  23.859  23.509  1.00  0.00     0.024 C 
BRANCH   7   9
ATOM      9  C   UNL A   1      32.216  25.435  24.984  1.00  0.00     0.193 C 
ATOM     10  C   UNL A   1      33.549  25.448  25.763  1.00  0.00     0.076 C 
BRANCH   9  11
ATOM     11  N   UNL A   1      31.958  26.792  24.415  1.00  0.00    -0.333 N 
ATOM     12  C   UNL A   1      30.584  27.270  24.598  1.00  0.00     0.333 C 
ATOM     13  H   UNL A   1      32.122  26.612  23.425  1.00  0.00     0.348 HD
BRANCH  11  14
ATOM     14  C   UNL A   1      32.902  27.864  24.813  1.00  0.00     0.291 C 
BRANCH  14  15
ATOM     15  C   UNL A   1      32.369  29.310  24.836  1.00  0.00     0.221 C 
BRANCH  15  16
ATOM     16  O   UNL A   1      32.958  30.165  25.817  1.00  0.00    -0.379 OA
ATOM     17  C   UNL A   1      32.584  29.865  27.153  1.00  0.00     0.195 C 
ENDBRANCH  15  16
ENDBRANCH  14  15
ENDBRANCH  11  14
ENDBRANCH   9  11
ENDBRANCH   7   9
ENDBRANCH   4   7
ENDBRANCH   2   3
ENDBRANCH   1   2
BRANCH   1  18
ATOM     18  C   UNL A   1      37.142  22.024  24.589  1.00  0.00     0.002 C 
BRANCH  18  19
ATOM     19  C   UNL A   1      36.657  20.587  24.796  1.00  0.00     0.002 C 
BRANCH  19  20
ATOM     20  C   UNL A   1      37.766  19.548  24.985  1.00  0.00     0.021 C 
BRANCH  20  21
ATOM     21  C   UNL A   1      38.984  20.031  25.769  1.00  0.00     0.116 C 
BRANCH  21  22
ATOM     22  N   UNL A   1      40.064  19.060  25.771  1.00  0.00    -0.352 N 
ATOM     23  C   UNL A   1      41.411  19.256  25.956  1.00  0.00     0.251 C 
ATOM     24  H   UNL A   1      39.791  18.126  25.618  1.00  0.00     0.163 HD
ATOM     25  O   UNL A   1      42.200  18.341  25.753  1.00  0.00    -0.269 OA
BRANCH  23  26
ATOM     26  C   UNL A   1      41.918  20.581  26.376  1.00  0.00     0.039 A 
ATOM     27  C   UNL A   1      42.327  21.483  25.390  1.00  0.00     0.014 A 
ATOM     28  C   UNL A   1      42.014  20.930  27.727  1.00  0.00     0.014 A 
ATOM     29  C   UNL A   1      42.781  22.752  25.756  1.00  0.00     0.010 A 
ATOM     30  C   UNL A   1      42.409  22.219  28.088  1.00  0.00     0.010 A 
ATOM     31  C   UNL A   1      42.800  23.141  27.106  1.00  0.00    -0.014 A 
BRANCH  31  32
ATOM     32  C   UNL A   1      43.214  24.514  27.486  1.00  0.00     0.031 A 
ATOM     33  C   UNL A   1      44.657  24.929  27.421  1.00  0.00     0.074 A 
ATOM     34  C   UNL A   1      42.285  25.386  27.926  1.00  0.00     0.049 A 
ATOM     35  N   UNL A   1      45.194  26.093  27.689  1.00  0.00    -0.248 NA
ATOM     36  C   UNL A   1      45.627  23.898  27.028  1.00  0.00     0.031 C 
ATOM     37  C   UNL A   1      40.862  25.087  28.101  1.00  0.00     0.029 A 
ATOM     38  N   UNL A   1      42.399  26.699  28.307  1.00  0.00    -0.354 N 
ATOM     39  C   UNL A   1      46.560  25.931  27.505  1.00  0.00     0.074 A 
ATOM     40  C   UNL A   1      46.777  24.545  27.151  1.00  0.00     0.031 C 
ATOM     41  C   UNL A   1      40.231  26.194  28.525  1.00  0.00     0.029 A 
ATOM     42  C   UNL A   1      41.205  27.271  28.672  1.00  0.00     0.049 A 
ATOM     43  H   UNL A   1      43.255  27.186  28.317  1.00  0.00     0.167 HD
ATOM     44  C   UNL A   1      47.544  26.859  27.599  1.00  0.00     0.037 A 
ATOM     45  C   UNL A   1      40.923  28.526  29.070  1.00  0.00     0.037 A 
ATOM     46  C   UNL A   1      47.327  28.245  27.925  1.00  0.00     0.049 A 
ATOM     47  C   UNL A   1      42.025  29.545  29.132  1.00  0.00     0.074 A 
ATOM     48  C   UNL A   1      48.250  29.276  27.968  1.00  0.00     0.029 A 
ATOM     49  N   UNL A   1      46.100  28.792  28.268  1.00  0.00    -0.354 N 
ATOM     50  N   UNL A   1      43.301  29.399  28.868  1.00  0.00    -0.248 NA
ATOM     51  C   UNL A   1      41.645  30.906  29.535  1.00  0.00     0.031 C 
ATOM     52  C   UNL A   1      47.587  30.441  28.374  1.00  0.00     0.029 A 
ATOM     53  C   UNL A   1      46.245  30.142  28.545  1.00  0.00     0.049 A 
ATOM     54  H   UNL A   1      45.251  28.295  28.308  1.00  0.00     0.167 HD
ATOM     55  C   UNL A   1      43.874  30.649  29.058  1.00  0.00     0.074 A 
ATOM     56  C   UNL A   1      42.801  31.547  29.436  1.00  0.00     0.031 C 
ATOM     57  C   UNL A   1      45.171  31.020  28.932  1.00  0.00     0.037 A 
BRANCH  44  58
ATOM     58  C   UNL A   1      48.949  26.402  27.337  1.00  0.00     0.057 A 
ATOM     59  C   UNL A   1      49.506  26.431  26.051  1.00  0.00     0.134 A 
ATOM     60  C   UNL A   1      49.766  25.960  28.384  1.00  0.00     0.134 A 
ATOM     61  F   UNL A   1      48.773  26.834  25.002  1.00  0.00    -0.206 F 
ATOM     62  C   UNL A   1      50.815  26.011  25.813  1.00  0.00     0.040 A 
ATOM     63  C   UNL A   1      51.085  25.560  28.163  1.00  0.00     0.040 A 
ATOM     64  F   UNL A   1      49.297  25.913  29.641  1.00  0.00    -0.206 F 
ATOM     65  C   UNL A   1      51.611  25.579  26.873  1.00  0.00     0.006 A 
ENDBRANCH  44  58
BRANCH  45  66
ATOM     66  C   UNL A   1      39.527  28.898  29.401  1.00  0.00     0.057 A 
ATOM     67  C   UNL A   1      38.652  29.367  28.413  1.00  0.00     0.134 A 
ATOM     68  C   UNL A   1      39.032  28.791  30.705  1.00  0.00     0.134 A 
ATOM     69  F   UNL A   1      39.075  29.507  27.149  1.00  0.00    -0.206 F 
ATOM     70  C   UNL A   1      37.339  29.731  28.714  1.00  0.00     0.040 A 
ATOM     71  C   UNL A   1      37.715  29.131  31.016  1.00  0.00     0.040 A 
ATOM     72  F   UNL A   1      39.819  28.341  31.693  1.00  0.00    -0.206 F 
ATOM     73  C   UNL A   1      36.865  29.608  30.019  1.00  0.00     0.006 A 
ENDBRANCH  45  66
BRANCH  57  74
ATOM     74  C   UNL A   1      45.495  32.460  29.199  1.00  0.00     0.057 A 
ATOM     75  C   UNL A   1      45.901  32.900  30.466  1.00  0.00     0.134 A 
ATOM     76  C   UNL A   1      45.413  33.415  28.177  1.00  0.00     0.134 A 
ATOM     77  F   UNL A   1      45.984  32.037  31.489  1.00  0.00    -0.206 F 
ATOM     78  C   UNL A   1      46.189  34.243  30.712  1.00  0.00     0.040 A 
ATOM     79  C   UNL A   1      45.722  34.756  28.407  1.00  0.00     0.040 A 
ATOM     80  F   UNL A   1      45.036  33.058  26.940  1.00  0.00    -0.206 F 
ATOM     81  C   UNL A   1      46.104  35.175  29.680  1.00  0.00     0.006 A 
ENDBRANCH  57  74
ENDBRANCH  31  32
ENDBRANCH  23  26
ENDBRANCH  21  22
ENDBRANCH  20  21
ENDBRANCH  19  20
ENDBRANCH  18  19
ENDBRANCH   1  18
TORSDOF 18
ENDMDL
MODEL 2
REMARK VINA RESULT:      -9.2      2.362      7.920
REMARK SMILES COCC[N@H+](C)[C@H](C)[C@@H](C)C(=O)NCCCCCCNC(=O)c1ccc(-c2c3nc(c(-c4c(F)cccc4F)c4ccc([nH]4)c(-c4c(F)cccc4F)c4nc(c(-c5c(F)cccc5F)c5ccc2[nH]5)C=C4)C=C3)cc1
REMARK SMILES IDX 15 1 14 2 13 3 11 4 12 5 9 7 10 8 7 9 8 10 5 11 6 12 4 14
REMARK SMILES IDX 3 15 2 16 1 17 16 18 17 19 18 20 19 21 20 22 21 23 22 25
REMARK SMILES IDX 23 26 24 27 76 28 25 29 75 30 26 31 27 32 28 33 69 34 29 35
REMARK SMILES IDX 74 36 68 37 70 38 30 39 73 40 67 41 66 42 31 44 57 45 40 46
REMARK SMILES IDX 56 47 41 48 44 49 55 50 71 51 42 52 43 53 54 55 72 56 45 57
REMARK SMILES IDX 32 58 33 59 38 60 34 61 35 62 37 63 39 64 36 65 58 66 59 67
REMARK SMILES IDX 64 68 60 69 61 70 63 71 65 72 62 73 46 74 47 75 52 76 48 77
REMARK SMILES IDX 49 78 51 79 53 80 50 81
REMARK H PARENT 13 6 5 13 20 24 70 43 44 54
REMARK Flexibility Score: inf
ROOT
ATOM      1  C   UNL A   1      33.460  26.355  24.905  1.00  0.00     0.021 C 
ENDROOT
BRANCH   1   2
ATOM      2  C   UNL A   1      34.222  25.087  25.300  1.00  0.00     0.116 C 
BRANCH   2   3
ATOM      3  N   UNL A   1      34.886  24.457  24.171  1.00  0.00    -0.356 N 
ATOM      4  C   UNL A   1      35.667  23.352  24.056  1.00  0.00     0.228 C 
ATOM      5  O   UNL A   1      36.124  23.111  22.934  1.00  0.00    -0.275 OA
ATOM      6  H   UNL A   1      34.740  24.927  23.317  1.00  0.00     0.163 HD
BRANCH   4   7
ATOM      7  C   UNL A   1      35.961  22.404  25.219  1.00  0.00     0.133 C 
ATOM      8  C   UNL A   1      37.475  22.425  25.474  1.00  0.00     0.024 C 
BRANCH   7   9
ATOM      9  C   UNL A   1      35.295  20.999  25.068  1.00  0.00     0.193 C 
ATOM     10  C   UNL A   1      36.334  19.866  24.927  1.00  0.00     0.076 C 
BRANCH   9  11
ATOM     11  N   UNL A   1      34.273  20.614  26.088  1.00  0.00    -0.333 N 
ATOM     12  C   UNL A   1      33.979  21.663  27.070  1.00  0.00     0.333 C 
ATOM     13  H   UNL A   1      34.756  19.845  26.553  1.00  0.00     0.348 HD
BRANCH  11  14
ATOM     14  C   UNL A   1      32.998  20.063  25.569  1.00  0.00     0.291 C 
BRANCH  14  15
ATOM     15  C   UNL A   1      32.799  18.536  25.644  1.00  0.00     0.221 C 
BRANCH  15  16
ATOM     16  O   UNL A   1      32.083  17.958  24.550  1.00  0.00    -0.379 OA
ATOM     17  C   UNL A   1      32.662  18.205  23.278  1.00  0.00     0.195 C 
ENDBRANCH  15  16
ENDBRANCH  14  15
ENDBRANCH  11  14
ENDBRANCH   9  11
ENDBRANCH   7   9
ENDBRANCH   4   7
ENDBRANCH   2   3
ENDBRANCH   1   2
BRANCH   1  18
ATOM     18  C   UNL A   1      32.102  26.545  25.591  1.00  0.00     0.002 C 
BRANCH  18  19
ATOM     19  C   UNL A   1      31.896  27.911  26.248  1.00  0.00     0.002 C 
BRANCH  19  20
ATOM     20  C   UNL A   1      32.700  28.144  27.530  1.00  0.00     0.021 C 
BRANCH  20  21
ATOM     21  C   UNL A   1      33.998  28.927  27.351  1.00  0.00     0.116 C 
BRANCH  21  22
ATOM     22  N   UNL A   1      33.950  30.235  27.978  1.00  0.00    -0.352 N 
ATOM     23  C   UNL A   1      34.910  30.883  28.717  1.00  0.00     0.251 C 
ATOM     24  H   UNL A   1      33.107  30.729  27.858  1.00  0.00     0.163 HD
ATOM     25  O   UNL A   1      34.633  31.914  29.317  1.00  0.00    -0.269 OA
BRANCH  23  26
ATOM     26  C   UNL A   1      36.277  30.325  28.811  1.00  0.00     0.039 A 
ATOM     27  C   UNL A   1      37.107  30.397  27.689  1.00  0.00     0.014 A 
ATOM     28  C   UNL A   1      36.735  29.713  29.983  1.00  0.00     0.014 A 
ATOM     29  C   UNL A   1      38.412  29.905  27.759  1.00  0.00     0.010 A 
ATOM     30  C   UNL A   1      38.058  29.279  30.071  1.00  0.00     0.010 A 
ATOM     31  C   UNL A   1      38.908  29.367  28.959  1.00  0.00    -0.014 A 
BRANCH  31  32
ATOM     32  C   UNL A   1      40.318  28.912  29.052  1.00  0.00     0.031 A 
ATOM     33  C   UNL A   1      40.706  27.519  28.640  1.00  0.00     0.074 A 
ATOM     34  C   UNL A   1      41.251  29.750  29.543  1.00  0.00     0.049 A 
ATOM     35  N   UNL A   1      41.890  26.962  28.629  1.00  0.00    -0.248 NA
ATOM     36  C   UNL A   1      39.620  26.628  28.209  1.00  0.00     0.031 C 
ATOM     37  C   UNL A   1      40.993  31.104  30.040  1.00  0.00     0.029 A 
ATOM     38  N   UNL A   1      42.604  29.588  29.705  1.00  0.00    -0.354 N 
ATOM     39  C   UNL A   1      41.692  25.657  28.198  1.00  0.00     0.074 A 
ATOM     40  C   UNL A   1      40.268  25.489  28.006  1.00  0.00     0.031 C 
ATOM     41  C   UNL A   1      42.155  31.658  30.423  1.00  0.00     0.029 A 
ATOM     42  C   UNL A   1      43.233  30.695  30.219  1.00  0.00     0.049 A 
ATOM     43  H   UNL A   1      43.079  28.756  29.474  1.00  0.00     0.167 HD
ATOM     44  C   UNL A   1      42.614  24.693  27.962  1.00  0.00     0.037 A 
ATOM     45  C   UNL A   1      44.534  30.916  30.485  1.00  0.00     0.037 A 
ATOM     46  C   UNL A   1      44.034  24.867  28.127  1.00  0.00     0.049 A 
ATOM     47  C   UNL A   1      45.541  29.844  30.181  1.00  0.00     0.074 A 
ATOM     48  C   UNL A   1      45.053  23.974  27.838  1.00  0.00     0.029 A 
ATOM     49  N   UNL A   1      44.635  26.011  28.629  1.00  0.00    -0.354 N 
ATOM     50  N   UNL A   1      45.348  28.644  29.689  1.00  0.00    -0.248 NA
ATOM     51  C   UNL A   1      46.949  30.161  30.457  1.00  0.00     0.031 C 
ATOM     52  C   UNL A   1      46.269  24.565  28.202  1.00  0.00     0.029 A 
ATOM     53  C   UNL A   1      46.010  25.839  28.680  1.00  0.00     0.049 A 
ATOM     54  H   UNL A   1      44.157  26.825  28.909  1.00  0.00     0.167 HD
ATOM     55  C   UNL A   1      46.607  28.069  29.582  1.00  0.00     0.074 A 
ATOM     56  C   UNL A   1      47.559  29.061  30.039  1.00  0.00     0.031 C 
ATOM     57  C   UNL A   1      46.944  26.831  29.147  1.00  0.00     0.037 A 
BRANCH  44  58
ATOM     58  C   UNL A   1      42.112  23.361  27.489  1.00  0.00     0.057 A 
ATOM     59  C   UNL A   1      41.980  23.063  26.126  1.00  0.00     0.134 A 
ATOM     60  C   UNL A   1      41.787  22.351  28.404  1.00  0.00     0.134 A 
ATOM     61  F   UNL A   1      42.265  23.989  25.198  1.00  0.00    -0.206 F 
ATOM     62  C   UNL A   1      41.518  21.820  25.691  1.00  0.00     0.040 A 
ATOM     63  C   UNL A   1      41.347  21.096  27.981  1.00  0.00     0.040 A 
ATOM     64  F   UNL A   1      41.896  22.568  29.724  1.00  0.00    -0.206 F 
ATOM     65  C   UNL A   1      41.206  20.830  26.620  1.00  0.00     0.006 A 
ENDBRANCH  44  58
BRANCH  45  66
ATOM     66  C   UNL A   1      44.962  32.225  31.035  1.00  0.00     0.057 A 
ATOM     67  C   UNL A   1      44.989  32.452  32.415  1.00  0.00     0.134 A 
ATOM     68  C   UNL A   1      45.358  33.274  30.198  1.00  0.00     0.134 A 
ATOM     69  F   UNL A   1      44.603  31.489  33.265  1.00  0.00    -0.206 F 
ATOM     70  C   UNL A   1      45.379  33.682  32.945  1.00  0.00     0.040 A 
ATOM     71  C   UNL A   1      45.772  34.502  30.715  1.00  0.00     0.040 A 
ATOM     72  F   UNL A   1      45.362  33.114  28.867  1.00  0.00    -0.206 F 
ATOM     73  C   UNL A   1      45.778  34.711  32.093  1.00  0.00     0.006 A 
ENDBRANCH  45  66
BRANCH  57  74
ATOM     74  C   UNL A   1      48.404  26.488  29.139  1.00  0.00     0.057 A 
ATOM     75  C   UNL A   1      49.218  26.764  28.033  1.00  0.00     0.134 A 
ATOM     76  C   UNL A   1      49.005  25.888  30.253  1.00  0.00     0.134 A 
ATOM     77  F   UNL A   1      48.699  27.324  26.930  1.00  0.00    -0.206 F 
ATOM     78  C   UNL A   1      50.574  26.431  28.026  1.00  0.00     0.040 A 
ATOM     79  C   UNL A   1      50.364  25.573  30.265  1.00  0.00     0.040 A 
ATOM     80  F   UNL A   1      48.282  25.603  31.347  1.00  0.00    -0.206 F 
ATOM     81  C   UNL A   1      51.151  25.838  29.147  1.00  0.00     0.006 A 
ENDBRANCH  57  74
ENDBRANCH  31  32
ENDBRANCH  23  26
ENDBRANCH  21  22
ENDBRANCH  20  21
ENDBRANCH  19  20
ENDBRANCH  18  19
ENDBRANCH   1  18
TORSDOF 18
ENDMDL
MODEL 3
REMARK VINA RESULT:      -9.1      1.570      6.596
REMARK SMILES COCC[N@H+](C)[C@H](C)[C@@H](C)C(=O)NCCCCCCNC(=O)c1ccc(-c2c3nc(c(-c4c(F)cccc4F)c4ccc([nH]4)c(-c4c(F)cccc4F)c4nc(c(-c5c(F)cccc5F)c5ccc2[nH]5)C=C4)C=C3)cc1
REMARK SMILES IDX 15 1 14 2 13 3 11 4 12 5 9 7 10 8 7 9 8 10 5 11 6 12 4 14
REMARK SMILES IDX 3 15 2 16 1 17 16 18 17 19 18 20 19 21 20 22 21 23 22 25
REMARK SMILES IDX 23 26 24 27 76 28 25 29 75 30 26 31 27 32 28 33 69 34 29 35
REMARK SMILES IDX 74 36 68 37 70 38 30 39 73 40 67 41 66 42 31 44 57 45 40 46
REMARK SMILES IDX 56 47 41 48 44 49 55 50 71 51 42 52 43 53 54 55 72 56 45 57
REMARK SMILES IDX 32 58 33 59 38 60 34 61 35 62 37 63 39 64 36 65 58 66 59 67
REMARK SMILES IDX 64 68 60 69 61 70 63 71 65 72 62 73 46 74 47 75 52 76 48 77
REMARK SMILES IDX 49 78 51 79 53 80 50 81
REMARK H PARENT 13 6 5 13 20 24 70 43 44 54
REMARK Flexibility Score: inf
ROOT
ATOM      1  C   UNL A   1      36.119  22.994  23.362  1.00  0.00     0.021 C 
ENDROOT
BRANCH   1   2
ATOM      2  C   UNL A   1      34.605  22.796  23.482  1.00  0.00     0.116 C 
BRANCH   2   3
ATOM      3  N   UNL A   1      33.849  23.784  22.731  1.00  0.00    -0.356 N 
ATOM      4  C   UNL A   1      32.753  24.530  23.026  1.00  0.00     0.228 C 
ATOM      5  O   UNL A   1      32.321  25.260  22.127  1.00  0.00    -0.275 OA
ATOM      6  H   UNL A   1      34.203  23.946  21.826  1.00  0.00     0.163 HD
BRANCH   4   7
ATOM      7  C   UNL A   1      32.078  24.530  24.397  1.00  0.00     0.133 C 
ATOM      8  C   UNL A   1      31.065  23.376  24.425  1.00  0.00     0.024 C 
BRANCH   7   9
ATOM      9  C   UNL A   1      31.554  25.934  24.841  1.00  0.00     0.193 C 
ATOM     10  C   UNL A   1      32.695  26.872  25.288  1.00  0.00     0.076 C 
BRANCH   9  11
ATOM     11  N   UNL A   1      30.656  26.658  23.892  1.00  0.00    -0.333 N 
ATOM     12  C   UNL A   1      29.228  26.388  24.090  1.00  0.00     0.333 C 
ATOM     13  H   UNL A   1      30.955  26.252  23.006  1.00  0.00     0.348 HD
BRANCH  11  14
ATOM     14  C   UNL A   1      30.861  28.123  23.778  1.00  0.00     0.291 C 
BRANCH  14  15
ATOM     15  C   UNL A   1      30.723  28.754  22.379  1.00  0.00     0.221 C 
BRANCH  15  16
ATOM     16  O   UNL A   1      29.893  29.916  22.310  1.00  0.00    -0.379 OA
ATOM     17  C   UNL A   1      28.511  29.636  22.152  1.00  0.00     0.195 C 
ENDBRANCH  15  16
ENDBRANCH  14  15
ENDBRANCH  11  14
ENDBRANCH   9  11
ENDBRANCH   7   9
ENDBRANCH   4   7
ENDBRANCH   2   3
ENDBRANCH   1   2
BRANCH   1  18
ATOM     18  C   UNL A   1      36.959  22.294  24.437  1.00  0.00     0.002 C 
BRANCH  18  19
ATOM     19  C   UNL A   1      36.521  20.867  24.771  1.00  0.00     0.002 C 
BRANCH  19  20
ATOM     20  C   UNL A   1      37.662  19.859  24.941  1.00  0.00     0.021 C 
BRANCH  20  21
ATOM     21  C   UNL A   1      38.868  20.368  25.726  1.00  0.00     0.116 C 
BRANCH  21  22
ATOM     22  N   UNL A   1      39.957  19.408  25.757  1.00  0.00    -0.352 N 
ATOM     23  C   UNL A   1      41.279  19.599  26.075  1.00  0.00     0.251 C 
ATOM     24  H   UNL A   1      39.712  18.485  25.514  1.00  0.00     0.163 HD
ATOM     25  O   UNL A   1      42.095  18.706  25.879  1.00  0.00    -0.269 OA
BRANCH  23  26
ATOM     26  C   UNL A   1      41.729  20.894  26.631  1.00  0.00     0.039 A 
ATOM     27  C   UNL A   1      42.183  21.878  25.749  1.00  0.00     0.014 A 
ATOM     28  C   UNL A   1      41.728  21.135  28.009  1.00  0.00     0.014 A 
ATOM     29  C   UNL A   1      42.585  23.121  26.244  1.00  0.00     0.010 A 
ATOM     30  C   UNL A   1      42.070  22.397  28.496  1.00  0.00     0.010 A 
ATOM     31  C   UNL A   1      42.506  23.401  27.619  1.00  0.00    -0.014 A 
BRANCH  31  32
ATOM     32  C   UNL A   1      42.864  24.746  28.133  1.00  0.00     0.031 A 
ATOM     33  C   UNL A   1      41.808  25.792  28.356  1.00  0.00     0.074 A 
ATOM     34  C   UNL A   1      44.158  25.039  28.370  1.00  0.00     0.049 A 
ATOM     35  N   UNL A   1      41.936  27.007  28.826  1.00  0.00    -0.248 NA
ATOM     36  C   UNL A   1      40.432  25.436  27.982  1.00  0.00     0.031 C 
ATOM     37  C   UNL A   1      45.286  24.137  28.130  1.00  0.00     0.029 A 
ATOM     38  N   UNL A   1      44.742  26.178  28.865  1.00  0.00    -0.354 N 
ATOM     39  C   UNL A   1      40.664  27.562  28.795  1.00  0.00     0.074 A 
ATOM     40  C   UNL A   1      39.785  26.569  28.216  1.00  0.00     0.031 C 
ATOM     41  C   UNL A   1      46.422  24.746  28.507  1.00  0.00     0.029 A 
ATOM     42  C   UNL A   1      46.106  26.085  28.993  1.00  0.00     0.049 A 
ATOM     43  H   UNL A   1      44.231  26.985  29.106  1.00  0.00     0.167 HD
ATOM     44  C   UNL A   1      40.259  28.780  29.232  1.00  0.00     0.037 A 
ATOM     45  C   UNL A   1      47.002  26.974  29.462  1.00  0.00     0.037 A 
ATOM     46  C   UNL A   1      41.127  29.758  29.833  1.00  0.00     0.049 A 
ATOM     47  C   UNL A   1      46.523  28.303  29.973  1.00  0.00     0.074 A 
ATOM     48  C   UNL A   1      40.796  30.988  30.376  1.00  0.00     0.029 A 
ATOM     49  N   UNL A   1      42.500  29.620  29.965  1.00  0.00    -0.354 N 
ATOM     50  N   UNL A   1      45.303  28.780  30.020  1.00  0.00    -0.248 NA
ATOM     51  C   UNL A   1      47.546  29.213  30.507  1.00  0.00     0.031 C 
ATOM     52  C   UNL A   1      41.975  31.609  30.805  1.00  0.00     0.029 A 
ATOM     53  C   UNL A   1      43.034  30.750  30.562  1.00  0.00     0.049 A 
ATOM     54  H   UNL A   1      43.019  28.834  29.678  1.00  0.00     0.167 HD
ATOM     55  C   UNL A   1      45.408  30.036  30.602  1.00  0.00     0.074 A 
ATOM     56  C   UNL A   1      46.808  30.238  30.911  1.00  0.00     0.031 C 
ATOM     57  C   UNL A   1      44.432  30.941  30.854  1.00  0.00     0.037 A 
BRANCH  44  58
ATOM     58  C   UNL A   1      38.805  29.117  29.081  1.00  0.00     0.057 A 
ATOM     59  C   UNL A   1      37.915  29.047  30.161  1.00  0.00     0.134 A 
ATOM     60  C   UNL A   1      38.293  29.547  27.850  1.00  0.00     0.134 A 
ATOM     61  F   UNL A   1      38.339  28.632  31.364  1.00  0.00    -0.206 F 
ATOM     62  C   UNL A   1      36.564  29.367  30.017  1.00  0.00     0.040 A 
ATOM     63  C   UNL A   1      36.949  29.894  27.699  1.00  0.00     0.040 A 
ATOM     64  F   UNL A   1      39.091  29.642  26.776  1.00  0.00    -0.206 F 
ATOM     65  C   UNL A   1      36.079  29.798  28.784  1.00  0.00     0.006 A 
ENDBRANCH  44  58
BRANCH  45  66
ATOM     66  C   UNL A   1      48.440  26.618  29.506  1.00  0.00     0.057 A 
ATOM     67  C   UNL A   1      48.972  25.901  30.585  1.00  0.00     0.134 A 
ATOM     68  C   UNL A   1      49.314  26.978  28.475  1.00  0.00     0.134 A 
ATOM     69  F   UNL A   1      48.186  25.544  31.611  1.00  0.00    -0.206 F 
ATOM     70  C   UNL A   1      50.326  25.569  30.644  1.00  0.00     0.040 A 
ATOM     71  C   UNL A   1      50.666  26.634  28.511  1.00  0.00     0.040 A 
ATOM     72  F   UNL A   1      48.863  27.658  27.412  1.00  0.00    -0.206 F 
ATOM     73  C   UNL A   1      51.176  25.931  29.601  1.00  0.00     0.006 A 
ENDBRANCH  45  66
BRANCH  57  74
ATOM     74  C   UNL A   1      44.850  32.227  31.504  1.00  0.00     0.057 A 
ATOM     75  C   UNL A   1      44.897  32.365  32.898  1.00  0.00     0.134 A 
ATOM     76  C   UNL A   1      45.222  33.334  30.730  1.00  0.00     0.134 A 
ATOM     77  F   UNL A   1      44.539  31.347  33.693  1.00  0.00    -0.206 F 
ATOM     78  C   UNL A   1      45.275  33.568  33.497  1.00  0.00     0.040 A 
ATOM     79  C   UNL A   1      45.624  34.533  31.320  1.00  0.00     0.040 A 
ATOM     80  F   UNL A   1      45.205  33.264  29.390  1.00  0.00    -0.206 F 
ATOM     81  C   UNL A   1      45.645  34.655  32.707  1.00  0.00     0.006 A 
ENDBRANCH  57  74
ENDBRANCH  31  32
ENDBRANCH  23  26
ENDBRANCH  21  22
ENDBRANCH  20  21
ENDBRANCH  19  20
ENDBRANCH  18  19
ENDBRANCH   1  18
TORSDOF 18
ENDMDL
