MODEL 1
REMARK VINA RESULT:     -11.7      0.000      0.000
REMARK SMILES C[C@@H]1CCC[C@H](C)[N@H+]1Cc1cc2c(cc1Cl)C=C(C(=O)NCCCCCCNC(=O)c1ccc(-c3c4nc(c(-c5c(F)cccc5F)c5ccc([nH]5)c(-c5c(F)cccc5F)c5nc(c(-c6c(F)cccc6F)c6ccc3[nH]6)C=C5)C=C4)cc1)[C@@H](C(F)(F)F)O2
REMARK SMILES IDX 24 1 23 2 22 3 21 4 19 5 20 6 18 8 10 9 11 10 15 11 12 12
REMARK SMILES IDX 14 13 16 14 13 15 90 16 17 17 85 18 9 19 8 20 7 21 6 22 5 23
REMARK SMILES IDX 4 24 2 25 3 27 1 28 86 29 87 30 88 31 89 32 25 33 26 34
REMARK SMILES IDX 27 35 28 36 29 37 30 39 31 40 32 41 84 42 33 43 83 44 34 45
REMARK SMILES IDX 35 46 36 47 77 48 37 49 82 50 76 51 78 52 38 53 81 54 75 55
REMARK SMILES IDX 74 56 39 58 65 59 48 60 64 61 49 62 52 63 63 64 79 65 50 66
REMARK SMILES IDX 51 67 62 69 80 70 53 71 40 72 41 73 46 74 42 75 43 76 45 77
REMARK SMILES IDX 47 78 44 79 66 80 67 81 72 82 68 83 69 84 71 85 73 86 70 87
REMARK SMILES IDX 54 88 55 89 60 90 56 91 57 92 59 93 61 94 58 95
REMARK H PARENT 21 7 8 26 28 38 78 57 52 68
REMARK Flexibility Score: inf
ROOT
ATOM      1  C   UNL A   1      33.887  29.450  27.051  1.00  0.00     0.002 C 
ENDROOT
BRANCH   1   2
ATOM      2  C   UNL A   1      33.098  29.486  25.738  1.00  0.00     0.021 C 
BRANCH   2   3
ATOM      3  C   UNL A   1      31.690  30.057  25.873  1.00  0.00     0.116 C 
BRANCH   3   4
ATOM      4  N   UNL A   1      31.035  30.164  24.582  1.00  0.00    -0.352 N 
ATOM      5  C   UNL A   1      30.482  29.319  23.683  1.00  0.00     0.251 C 
ATOM      6  O   UNL A   1      29.950  29.865  22.711  1.00  0.00    -0.270 OA
ATOM      7  H   UNL A   1      30.978  31.100  24.283  1.00  0.00     0.163 HD
BRANCH   5   8
ATOM      8  C   UNL A   1      30.490  27.832  23.780  1.00  0.00     0.067 C 
ATOM      9  C   UNL A   1      32.091  23.047  23.733  1.00  0.00     0.029 A 
ATOM     10  C   UNL A   1      31.222  23.789  24.551  1.00  0.00     0.058 A 
ATOM     11  C   UNL A   1      32.529  23.640  22.534  1.00  0.00     0.050 A 
ATOM     12  C   UNL A   1      30.949  25.123  24.267  1.00  0.00     0.128 A 
ATOM     13  C   UNL A   1      32.294  24.997  22.281  1.00  0.00     0.033 A 
ATOM     14  Cl  UNL A   1      33.386  22.762  21.318  1.00  0.00    -0.084 Cl
ATOM     15  C   UNL A   1      31.544  25.753  23.177  1.00  0.00     0.019 A 
ATOM     16  O   UNL A   1      30.144  25.789  25.146  1.00  0.00    -0.475 OA
ATOM     17  C   UNL A   1      31.432  27.201  23.054  1.00  0.00     0.025 C 
ATOM     18  C   UNL A   1      29.554  27.014  24.623  1.00  0.00     0.314 C 
BRANCH   9  19
ATOM     19  C   UNL A   1      32.577  21.701  24.233  1.00  0.00     0.301 C 
BRANCH  19  20
ATOM     20  N   UNL A   1      33.798  21.709  25.072  1.00  0.00    -0.327 N 
ATOM     21  C   UNL A   1      34.391  21.996  27.460  1.00  0.00     0.075 C 
ATOM     22  C   UNL A   1      33.787  22.648  26.205  1.00  0.00     0.181 C 
ATOM     23  C   UNL A   1      34.476  23.995  25.927  1.00  0.00     0.065 C 
ATOM     24  C   UNL A   1      35.837  23.848  25.258  1.00  0.00     0.012 C 
ATOM     25  C   UNL A   1      35.058  21.600  24.323  1.00  0.00     0.181 C 
ATOM     26  H   UNL A   1      33.756  20.816  25.561  1.00  0.00     0.348 HD
ATOM     27  C   UNL A   1      35.746  22.945  24.036  1.00  0.00     0.065 C 
ATOM     28  C   UNL A   1      36.027  20.622  25.001  1.00  0.00     0.075 C 
ENDBRANCH  19  20
ENDBRANCH   9  19
BRANCH  18  29
ATOM     29  C   UNL A   1      28.242  26.701  23.876  1.00  0.00     0.429 C 
ATOM     30  F   UNL A   1      28.402  25.638  23.050  1.00  0.00    -0.167 F 
ATOM     31  F   UNL A   1      27.235  26.376  24.726  1.00  0.00    -0.167 F 
ATOM     32  F   UNL A   1      27.800  27.736  23.127  1.00  0.00    -0.167 F 
ENDBRANCH  18  29
ENDBRANCH   5   8
ENDBRANCH   3   4
ENDBRANCH   2   3
ENDBRANCH   1   2
BRANCH   1  33
ATOM     33  C   UNL A   1      34.468  30.794  27.508  1.00  0.00     0.002 C 
BRANCH  33  34
ATOM     34  C   UNL A   1      33.455  31.797  28.065  1.00  0.00     0.021 C 
BRANCH  34  35
ATOM     35  C   UNL A   1      33.299  33.073  27.248  1.00  0.00     0.116 C 
BRANCH  35  36
ATOM     36  N   UNL A   1      32.797  34.186  28.039  1.00  0.00    -0.352 N 
ATOM     37  C   UNL A   1      33.281  34.696  29.220  1.00  0.00     0.251 C 
ATOM     38  H   UNL A   1      32.000  34.637  27.678  1.00  0.00     0.163 HD
ATOM     39  O   UNL A   1      32.646  35.546  29.836  1.00  0.00    -0.269 OA
BRANCH  37  40
ATOM     40  C   UNL A   1      34.557  34.186  29.761  1.00  0.00     0.039 A 
ATOM     41  C   UNL A   1      35.766  34.477  29.125  1.00  0.00     0.014 A 
ATOM     42  C   UNL A   1      34.538  33.379  30.902  1.00  0.00     0.014 A 
ATOM     43  C   UNL A   1      36.929  33.835  29.532  1.00  0.00     0.010 A 
ATOM     44  C   UNL A   1      35.724  32.797  31.358  1.00  0.00     0.010 A 
ATOM     45  C   UNL A   1      36.920  32.981  30.647  1.00  0.00    -0.014 A 
BRANCH  45  46
ATOM     46  C   UNL A   1      38.169  32.279  31.040  1.00  0.00     0.031 A 
ATOM     47  C   UNL A   1      38.973  32.746  32.224  1.00  0.00     0.074 A 
ATOM     48  C   UNL A   1      38.550  31.183  30.356  1.00  0.00     0.049 A 
ATOM     49  N   UNL A   1      40.077  32.247  32.722  1.00  0.00    -0.248 NA
ATOM     50  C   UNL A   1      38.475  33.929  32.943  1.00  0.00     0.031 C 
ATOM     51  C   UNL A   1      37.849  30.624  29.199  1.00  0.00     0.029 A 
ATOM     52  N   UNL A   1      39.605  30.330  30.551  1.00  0.00    -0.354 N 
ATOM     53  C   UNL A   1      40.415  33.063  33.794  1.00  0.00     0.074 A 
ATOM     54  C   UNL A   1      39.415  34.108  33.859  1.00  0.00     0.031 C 
ATOM     55  C   UNL A   1      38.464  29.494  28.818  1.00  0.00     0.029 A 
ATOM     56  C   UNL A   1      39.633  29.282  29.664  1.00  0.00     0.049 A 
ATOM     57  H   UNL A   1      40.279  30.456  31.258  1.00  0.00     0.167 HD
ATOM     58  C   UNL A   1      41.457  32.948  34.652  1.00  0.00     0.037 A 
ATOM     59  C   UNL A   1      40.510  28.270  29.538  1.00  0.00     0.037 A 
ATOM     60  C   UNL A   1      42.441  31.897  34.600  1.00  0.00     0.049 A 
ATOM     61  C   UNL A   1      41.683  28.196  30.471  1.00  0.00     0.074 A 
ATOM     62  C   UNL A   1      43.517  31.677  35.443  1.00  0.00     0.029 A 
ATOM     63  N   UNL A   1      42.467  30.889  33.649  1.00  0.00    -0.354 N 
ATOM     64  N   UNL A   1      41.980  28.967  31.489  1.00  0.00    -0.248 NA
ATOM     65  C   UNL A   1      42.649  27.116  30.229  1.00  0.00     0.031 C 
ATOM     66  C   UNL A   1      44.218  30.559  34.978  1.00  0.00     0.029 A 
ATOM     67  C   UNL A   1      43.554  30.057  33.870  1.00  0.00     0.049 A 
ATOM     68  H   UNL A   1      41.811  30.778  32.923  1.00  0.00     0.167 HD
ATOM     69  C   UNL A   1      43.158  28.456  32.018  1.00  0.00     0.074 A 
ATOM     70  C   UNL A   1      43.507  27.298  31.223  1.00  0.00     0.031 C 
ATOM     71  C   UNL A   1      43.887  28.910  33.067  1.00  0.00     0.037 A 
BRANCH  58  72
ATOM     72  C   UNL A   1      41.599  34.000  35.713  1.00  0.00     0.057 A 
ATOM     73  C   UNL A   1      42.348  35.160  35.474  1.00  0.00     0.134 A 
ATOM     74  C   UNL A   1      41.020  33.858  36.981  1.00  0.00     0.134 A 
ATOM     75  F   UNL A   1      42.934  35.357  34.283  1.00  0.00    -0.206 F 
ATOM     76  C   UNL A   1      42.517  36.138  36.455  1.00  0.00     0.040 A 
ATOM     77  C   UNL A   1      41.163  34.839  37.964  1.00  0.00     0.040 A 
ATOM     78  F   UNL A   1      40.278  32.778  37.272  1.00  0.00    -0.206 F 
ATOM     79  C   UNL A   1      41.918  35.981  37.703  1.00  0.00     0.006 A 
ENDBRANCH  58  72
BRANCH  59  80
ATOM     80  C   UNL A   1      40.321  27.247  28.479  1.00  0.00     0.057 A 
ATOM     81  C   UNL A   1      40.953  27.359  27.235  1.00  0.00     0.134 A 
ATOM     82  C   UNL A   1      39.518  26.123  28.697  1.00  0.00     0.134 A 
ATOM     83  F   UNL A   1      41.734  28.415  26.964  1.00  0.00    -0.206 F 
ATOM     84  C   UNL A   1      40.786  26.394  26.241  1.00  0.00     0.040 A 
ATOM     85  C   UNL A   1      39.363  25.136  27.722  1.00  0.00     0.040 A 
ATOM     86  F   UNL A   1      38.903  25.952  29.877  1.00  0.00    -0.206 F 
ATOM     87  C   UNL A   1      39.995  25.274  26.487  1.00  0.00     0.006 A 
ENDBRANCH  59  80
BRANCH  71  88
ATOM     88  C   UNL A   1      45.119  28.130  33.419  1.00  0.00     0.057 A 
ATOM     89  C   UNL A   1      45.048  27.040  34.295  1.00  0.00     0.134 A 
ATOM     90  C   UNL A   1      46.375  28.460  32.893  1.00  0.00     0.134 A 
ATOM     91  F   UNL A   1      43.876  26.676  34.836  1.00  0.00    -0.206 F 
ATOM     92  C   UNL A   1      46.184  26.303  34.633  1.00  0.00     0.040 A 
ATOM     93  C   UNL A   1      47.513  27.715  33.204  1.00  0.00     0.040 A 
ATOM     94  F   UNL A   1      46.505  29.482  32.034  1.00  0.00    -0.206 F 
ATOM     95  C   UNL A   1      47.419  26.635  34.080  1.00  0.00     0.006 A 
ENDBRANCH  71  88
ENDBRANCH  45  46
ENDBRANCH  37  40
ENDBRANCH  35  36
ENDBRANCH  34  35
ENDBRANCH  33  34
ENDBRANCH   1  33
TORSDOF 16
ENDMDL
MODEL 2
REMARK VINA RESULT:     -11.7      4.180      9.449
REMARK SMILES C[C@@H]1CCC[C@H](C)[N@H+]1Cc1cc2c(cc1Cl)C=C(C(=O)NCCCCCCNC(=O)c1ccc(-c3c4nc(c(-c5c(F)cccc5F)c5ccc([nH]5)c(-c5c(F)cccc5F)c5nc(c(-c6c(F)cccc6F)c6ccc3[nH]6)C=C5)C=C4)cc1)[C@@H](C(F)(F)F)O2
REMARK SMILES IDX 24 1 23 2 22 3 21 4 19 5 20 6 18 8 10 9 11 10 15 11 12 12
REMARK SMILES IDX 14 13 16 14 13 15 90 16 17 17 85 18 9 19 8 20 7 21 6 22 5 23
REMARK SMILES IDX 4 24 2 25 3 27 1 28 86 29 87 30 88 31 89 32 25 33 26 34
REMARK SMILES IDX 27 35 28 36 29 37 30 39 31 40 32 41 84 42 33 43 83 44 34 45
REMARK SMILES IDX 35 46 36 47 77 48 37 49 82 50 76 51 78 52 38 53 81 54 75 55
REMARK SMILES IDX 74 56 39 58 65 59 48 60 64 61 49 62 52 63 63 64 79 65 50 66
REMARK SMILES IDX 51 67 62 69 80 70 53 71 40 72 41 73 46 74 42 75 43 76 45 77
REMARK SMILES IDX 47 78 44 79 66 80 67 81 72 82 68 83 69 84 71 85 73 86 70 87
REMARK SMILES IDX 54 88 55 89 60 90 56 91 57 92 59 93 61 94 58 95
REMARK H PARENT 21 7 8 26 28 38 78 57 52 68
REMARK Flexibility Score: inf
ROOT
ATOM      1  C   UNL A   1      35.424  18.323  24.587  1.00  0.00     0.002 C 
ENDROOT
BRANCH   1   2
ATOM      2  C   UNL A   1      33.951  18.579  24.923  1.00  0.00     0.021 C 
BRANCH   2   3
ATOM      3  C   UNL A   1      33.340  19.763  24.179  1.00  0.00     0.116 C 
BRANCH   3   4
ATOM      4  N   UNL A   1      32.177  20.283  24.874  1.00  0.00    -0.352 N 
ATOM      5  C   UNL A   1      31.754  21.485  25.327  1.00  0.00     0.251 C 
ATOM      6  O   UNL A   1      30.621  21.490  25.818  1.00  0.00    -0.270 OA
ATOM      7  H   UNL A   1      31.523  19.573  25.066  1.00  0.00     0.163 HD
BRANCH   5   8
ATOM      8  C   UNL A   1      32.545  22.747  25.290  1.00  0.00     0.067 C 
ATOM      9  C   UNL A   1      33.934  27.490  24.268  1.00  0.00     0.029 A 
ATOM     10  C   UNL A   1      34.002  26.665  25.404  1.00  0.00     0.058 A 
ATOM     11  C   UNL A   1      33.569  26.895  23.047  1.00  0.00     0.050 A 
ATOM     12  C   UNL A   1      33.554  25.349  25.350  1.00  0.00     0.128 A 
ATOM     13  C   UNL A   1      33.070  25.588  23.009  1.00  0.00     0.033 A 
ATOM     14  Cl  UNL A   1      33.689  27.722  21.534  1.00  0.00    -0.084 Cl
ATOM     15  C   UNL A   1      33.015  24.830  24.176  1.00  0.00     0.019 A 
ATOM     16  O   UNL A   1      33.596  24.634  26.512  1.00  0.00    -0.475 OA
ATOM     17  C   UNL A   1      32.335  23.541  24.223  1.00  0.00     0.025 C 
ATOM     18  C   UNL A   1      33.521  23.189  26.342  1.00  0.00     0.314 C 
BRANCH   9  19
ATOM     19  C   UNL A   1      34.165  28.977  24.445  1.00  0.00     0.301 C 
BRANCH  19  20
ATOM     20  N   UNL A   1      33.249  29.683  25.373  1.00  0.00    -0.327 N 
ATOM     21  C   UNL A   1      33.411  31.132  27.376  1.00  0.00     0.075 C 
ATOM     22  C   UNL A   1      33.685  29.742  26.777  1.00  0.00     0.181 C 
ATOM     23  C   UNL A   1      33.084  28.651  27.680  1.00  0.00     0.065 C 
ATOM     24  C   UNL A   1      31.580  28.486  27.505  1.00  0.00     0.012 C 
ATOM     25  C   UNL A   1      31.821  29.424  25.140  1.00  0.00     0.181 C 
ATOM     26  H   UNL A   1      33.342  30.661  25.101  1.00  0.00     0.348 HD
ATOM     27  C   UNL A   1      31.219  28.329  26.036  1.00  0.00     0.065 C 
ATOM     28  C   UNL A   1      30.998  30.717  25.227  1.00  0.00     0.075 C 
ENDBRANCH  19  20
ENDBRANCH   9  19
BRANCH  18  29
ATOM     29  C   UNL A   1      34.927  22.605  26.095  1.00  0.00     0.429 C 
ATOM     30  F   UNL A   1      35.884  23.447  26.554  1.00  0.00    -0.167 F 
ATOM     31  F   UNL A   1      35.111  21.427  26.742  1.00  0.00    -0.167 F 
ATOM     32  F   UNL A   1      35.181  22.374  24.788  1.00  0.00    -0.167 F 
ENDBRANCH  18  29
ENDBRANCH   5   8
ENDBRANCH   3   4
ENDBRANCH   2   3
ENDBRANCH   1   2
BRANCH   1  33
ATOM     33  C   UNL A   1      36.367  19.514  24.804  1.00  0.00     0.002 C 
BRANCH  33  34
ATOM     34  C   UNL A   1      37.853  19.231  24.578  1.00  0.00     0.021 C 
BRANCH  34  35
ATOM     35  C   UNL A   1      38.767  19.649  25.722  1.00  0.00     0.116 C 
BRANCH  35  36
ATOM     36  N   UNL A   1      39.999  18.877  25.766  1.00  0.00    -0.352 N 
ATOM     37  C   UNL A   1      41.269  19.292  26.081  1.00  0.00     0.251 C 
ATOM     38  H   UNL A   1      39.909  17.923  25.538  1.00  0.00     0.163 HD
ATOM     39  O   UNL A   1      42.227  18.541  25.923  1.00  0.00    -0.269 OA
BRANCH  37  40
ATOM     40  C   UNL A   1      41.480  20.666  26.582  1.00  0.00     0.039 A 
ATOM     41  C   UNL A   1      41.263  21.767  25.750  1.00  0.00     0.014 A 
ATOM     42  C   UNL A   1      41.933  20.851  27.891  1.00  0.00     0.014 A 
ATOM     43  C   UNL A   1      41.649  23.034  26.171  1.00  0.00     0.010 A 
ATOM     44  C   UNL A   1      42.246  22.136  28.340  1.00  0.00     0.010 A 
ATOM     45  C   UNL A   1      42.153  23.232  27.468  1.00  0.00    -0.014 A 
BRANCH  45  46
ATOM     46  C   UNL A   1      42.591  24.590  27.881  1.00  0.00     0.031 A 
ATOM     47  C   UNL A   1      44.047  24.971  27.844  1.00  0.00     0.074 A 
ATOM     48  C   UNL A   1      41.665  25.500  28.238  1.00  0.00     0.049 A 
ATOM     49  N   UNL A   1      44.610  26.113  28.152  1.00  0.00    -0.248 NA
ATOM     50  C   UNL A   1      44.997  23.935  27.409  1.00  0.00     0.031 C 
ATOM     51  C   UNL A   1      40.223  25.256  28.302  1.00  0.00     0.029 A 
ATOM     52  N   UNL A   1      41.796  26.818  28.592  1.00  0.00    -0.354 N 
ATOM     53  C   UNL A   1      45.975  25.928  27.968  1.00  0.00     0.074 A 
ATOM     54  C   UNL A   1      46.160  24.555  27.549  1.00  0.00     0.031 C 
ATOM     55  C   UNL A   1      39.598  26.400  28.622  1.00  0.00     0.029 A 
ATOM     56  C   UNL A   1      40.597  27.438  28.844  1.00  0.00     0.049 A 
ATOM     57  H   UNL A   1      42.665  27.276  28.660  1.00  0.00     0.167 HD
ATOM     58  C   UNL A   1      46.981  26.822  28.124  1.00  0.00     0.037 A 
ATOM     59  C   UNL A   1      40.333  28.701  29.226  1.00  0.00     0.037 A 
ATOM     60  C   UNL A   1      46.795  28.194  28.521  1.00  0.00     0.049 A 
ATOM     61  C   UNL A   1      41.472  29.656  29.440  1.00  0.00     0.074 A 
ATOM     62  C   UNL A   1      47.748  29.185  28.678  1.00  0.00     0.029 A 
ATOM     63  N   UNL A   1      45.570  28.767  28.826  1.00  0.00    -0.354 N 
ATOM     64  N   UNL A   1      42.755  29.469  29.246  1.00  0.00    -0.248 NA
ATOM     65  C   UNL A   1      41.124  30.994  29.936  1.00  0.00     0.031 C 
ATOM     66  C   UNL A   1      47.105  30.348  29.117  1.00  0.00     0.029 A 
ATOM     67  C   UNL A   1      45.745  30.093  29.192  1.00  0.00     0.049 A 
ATOM     68  H   UNL A   1      44.703  28.302  28.788  1.00  0.00     0.167 HD
ATOM     69  C   UNL A   1      43.366  30.669  29.583  1.00  0.00     0.074 A 
ATOM     70  C   UNL A   1      42.311  31.583  29.969  1.00  0.00     0.031 C 
ATOM     71  C   UNL A   1      44.684  30.986  29.576  1.00  0.00     0.037 A 
BRANCH  58  72
ATOM     72  C   UNL A   1      48.381  26.337  27.883  1.00  0.00     0.057 A 
ATOM     73  C   UNL A   1      49.096  25.686  28.897  1.00  0.00     0.134 A 
ATOM     74  C   UNL A   1      49.034  26.535  26.659  1.00  0.00     0.134 A 
ATOM     75  F   UNL A   1      48.533  25.469  30.094  1.00  0.00    -0.206 F 
ATOM     76  C   UNL A   1      50.409  25.252  28.703  1.00  0.00     0.040 A 
ATOM     77  C   UNL A   1      50.339  26.085  26.445  1.00  0.00     0.040 A 
ATOM     78  F   UNL A   1      48.401  27.138  25.641  1.00  0.00    -0.206 F 
ATOM     79  C   UNL A   1      51.031  25.446  27.472  1.00  0.00     0.006 A 
ENDBRANCH  58  72
BRANCH  59  80
ATOM     80  C   UNL A   1      38.931  29.137  29.442  1.00  0.00     0.057 A 
ATOM     81  C   UNL A   1      38.157  29.651  28.396  1.00  0.00     0.134 A 
ATOM     82  C   UNL A   1      38.327  29.028  30.700  1.00  0.00     0.134 A 
ATOM     83  F   UNL A   1      38.679  29.782  27.168  1.00  0.00    -0.206 F 
ATOM     84  C   UNL A   1      36.835  30.050  28.594  1.00  0.00     0.040 A 
ATOM     85  C   UNL A   1      36.998  29.399  30.906  1.00  0.00     0.040 A 
ATOM     86  F   UNL A   1      39.014  28.524  31.736  1.00  0.00    -0.206 F 
ATOM     87  C   UNL A   1      36.250  29.917  29.850  1.00  0.00     0.006 A 
ENDBRANCH  59  80
BRANCH  71  88
ATOM     88  C   UNL A   1      45.043  32.386  29.978  1.00  0.00     0.057 A 
ATOM     89  C   UNL A   1      45.079  33.414  29.029  1.00  0.00     0.134 A 
ATOM     90  C   UNL A   1      45.357  32.713  31.304  1.00  0.00     0.134 A 
ATOM     91  F   UNL A   1      44.795  33.164  27.742  1.00  0.00    -0.206 F 
ATOM     92  C   UNL A   1      45.411  34.722  29.385  1.00  0.00     0.040 A 
ATOM     93  C   UNL A   1      45.666  34.021  31.676  1.00  0.00     0.040 A 
ATOM     94  F   UNL A   1      45.323  31.775  32.262  1.00  0.00    -0.206 F 
ATOM     95  C   UNL A   1      45.698  35.030  30.713  1.00  0.00     0.006 A 
ENDBRANCH  71  88
ENDBRANCH  45  46
ENDBRANCH  37  40
ENDBRANCH  35  36
ENDBRANCH  34  35
ENDBRANCH  33  34
ENDBRANCH   1  33
TORSDOF 16
ENDMDL
MODEL 3
REMARK VINA RESULT:     -11.7      5.586      8.551
REMARK SMILES C[C@@H]1CCC[C@H](C)[N@H+]1Cc1cc2c(cc1Cl)C=C(C(=O)NCCCCCCNC(=O)c1ccc(-c3c4nc(c(-c5c(F)cccc5F)c5ccc([nH]5)c(-c5c(F)cccc5F)c5nc(c(-c6c(F)cccc6F)c6ccc3[nH]6)C=C5)C=C4)cc1)[C@@H](C(F)(F)F)O2
REMARK SMILES IDX 24 1 23 2 22 3 21 4 19 5 20 6 18 8 10 9 11 10 15 11 12 12
REMARK SMILES IDX 14 13 16 14 13 15 90 16 17 17 85 18 9 19 8 20 7 21 6 22 5 23
REMARK SMILES IDX 4 24 2 25 3 27 1 28 86 29 87 30 88 31 89 32 25 33 26 34
REMARK SMILES IDX 27 35 28 36 29 37 30 39 31 40 32 41 84 42 33 43 83 44 34 45
REMARK SMILES IDX 35 46 36 47 77 48 37 49 82 50 76 51 78 52 38 53 81 54 75 55
REMARK SMILES IDX 74 56 39 58 65 59 48 60 64 61 49 62 52 63 63 64 79 65 50 66
REMARK SMILES IDX 51 67 62 69 80 70 53 71 40 72 41 73 46 74 42 75 43 76 45 77
REMARK SMILES IDX 47 78 44 79 66 80 67 81 72 82 68 83 69 84 71 85 73 86 70 87
REMARK SMILES IDX 54 88 55 89 60 90 56 91 57 92 59 93 61 94 58 95
REMARK H PARENT 21 7 8 26 28 38 78 57 52 68
REMARK Flexibility Score: inf
ROOT
ATOM      1  C   UNL A   1      35.388  32.834  33.378  1.00  0.00     0.002 C 
ENDROOT
BRANCH   1   2
ATOM      2  C   UNL A   1      34.143  33.218  32.572  1.00  0.00     0.021 C 
BRANCH   2   3
ATOM      3  C   UNL A   1      34.401  34.254  31.482  1.00  0.00     0.116 C 
BRANCH   3   4
ATOM      4  N   UNL A   1      34.115  33.720  30.164  1.00  0.00    -0.352 N 
ATOM      5  C   UNL A   1      34.688  32.843  29.309  1.00  0.00     0.251 C 
ATOM      6  O   UNL A   1      34.042  32.619  28.279  1.00  0.00    -0.270 OA
ATOM      7  H   UNL A   1      33.283  34.096  29.795  1.00  0.00     0.163 HD
BRANCH   5   8
ATOM      8  C   UNL A   1      36.003  32.174  29.513  1.00  0.00     0.067 C 
ATOM      9  C   UNL A   1      39.487  28.587  30.190  1.00  0.00     0.029 A 
ATOM     10  C   UNL A   1      39.424  29.772  29.435  1.00  0.00     0.058 A 
ATOM     11  C   UNL A   1      38.466  28.352  31.128  1.00  0.00     0.050 A 
ATOM     12  C   UNL A   1      38.300  30.589  29.496  1.00  0.00     0.128 A 
ATOM     13  C   UNL A   1      37.316  29.149  31.147  1.00  0.00     0.033 A 
ATOM     14  Cl  UNL A   1      38.545  27.078  32.293  1.00  0.00    -0.084 Cl
ATOM     15  C   UNL A   1      37.211  30.241  30.291  1.00  0.00     0.019 A 
ATOM     16  O   UNL A   1      38.292  31.688  28.687  1.00  0.00    -0.475 OA
ATOM     17  C   UNL A   1      35.965  30.983  30.141  1.00  0.00     0.025 C 
ATOM     18  C   UNL A   1      37.330  32.715  29.062  1.00  0.00     0.314 C 
BRANCH   9  19
ATOM     19  C   UNL A   1      40.592  27.596  29.881  1.00  0.00     0.301 C 
BRANCH  19  20
ATOM     20  N   UNL A   1      40.786  27.244  28.455  1.00  0.00    -0.327 N 
ATOM     21  C   UNL A   1      40.020  25.505  26.864  1.00  0.00     0.075 C 
ATOM     22  C   UNL A   1      40.809  25.805  28.150  1.00  0.00     0.181 C 
ATOM     23  C   UNL A   1      42.218  25.193  28.059  1.00  0.00     0.065 C 
ATOM     24  C   UNL A   1      43.179  26.020  27.216  1.00  0.00     0.012 C 
ATOM     25  C   UNL A   1      41.763  28.081  27.743  1.00  0.00     0.181 C 
ATOM     26  H   UNL A   1      39.905  27.519  28.020  1.00  0.00     0.348 HD
ATOM     27  C   UNL A   1      43.174  27.476  27.658  1.00  0.00     0.065 C 
ATOM     28  C   UNL A   1      41.251  28.478  26.352  1.00  0.00     0.075 C 
ENDBRANCH  19  20
ENDBRANCH   9  19
BRANCH  18  29
ATOM     29  C   UNL A   1      37.942  33.665  30.111  1.00  0.00     0.429 C 
ATOM     30  F   UNL A   1      39.240  33.927  29.822  1.00  0.00    -0.167 F 
ATOM     31  F   UNL A   1      37.308  34.864  30.145  1.00  0.00    -0.167 F 
ATOM     32  F   UNL A   1      37.897  33.166  31.367  1.00  0.00    -0.167 F 
ENDBRANCH  18  29
ENDBRANCH   5   8
ENDBRANCH   3   4
ENDBRANCH   2   3
ENDBRANCH   1   2
BRANCH   1  33
ATOM     33  C   UNL A   1      35.814  33.841  34.454  1.00  0.00     0.002 C 
BRANCH  33  34
ATOM     34  C   UNL A   1      37.222  34.420  34.298  1.00  0.00     0.021 C 
BRANCH  34  35
ATOM     35  C   UNL A   1      38.081  34.365  35.555  1.00  0.00     0.116 C 
BRANCH  35  36
ATOM     36  N   UNL A   1      37.796  33.200  36.377  1.00  0.00    -0.352 N 
ATOM     37  C   UNL A   1      38.235  31.907  36.227  1.00  0.00     0.251 C 
ATOM     38  H   UNL A   1      37.206  33.360  37.149  1.00  0.00     0.163 HD
ATOM     39  O   UNL A   1      37.776  31.010  36.928  1.00  0.00    -0.269 OA
BRANCH  37  40
ATOM     40  C   UNL A   1      39.241  31.599  35.190  1.00  0.00     0.039 A 
ATOM     41  C   UNL A   1      38.848  31.115  33.940  1.00  0.00     0.014 A 
ATOM     42  C   UNL A   1      40.597  31.766  35.488  1.00  0.00     0.014 A 
ATOM     43  C   UNL A   1      39.809  30.649  33.051  1.00  0.00     0.010 A 
ATOM     44  C   UNL A   1      41.562  31.369  34.559  1.00  0.00     0.010 A 
ATOM     45  C   UNL A   1      41.176  30.763  33.353  1.00  0.00    -0.014 A 
BRANCH  45  46
ATOM     46  C   UNL A   1      42.182  30.224  32.401  1.00  0.00     0.031 A 
ATOM     47  C   UNL A   1      42.688  31.067  31.261  1.00  0.00     0.074 A 
ATOM     48  C   UNL A   1      42.679  28.988  32.599  1.00  0.00     0.049 A 
ATOM     49  N   UNL A   1      43.574  30.769  30.344  1.00  0.00    -0.248 NA
ATOM     50  C   UNL A   1      42.123  32.419  31.130  1.00  0.00     0.031 C 
ATOM     51  C   UNL A   1      42.278  28.080  33.674  1.00  0.00     0.029 A 
ATOM     52  N   UNL A   1      43.646  28.294  31.919  1.00  0.00    -0.354 N 
ATOM     53  C   UNL A   1      43.659  31.884  29.519  1.00  0.00     0.074 A 
ATOM     54  C   UNL A   1      42.713  32.855  30.026  1.00  0.00     0.031 C 
ATOM     55  C   UNL A   1      43.029  26.969  33.612  1.00  0.00     0.029 A 
ATOM     56  C   UNL A   1      43.918  27.062  32.461  1.00  0.00     0.049 A 
ATOM     57  H   UNL A   1      44.101  28.644  31.119  1.00  0.00     0.167 HD
ATOM     58  C   UNL A   1      44.459  32.084  28.444  1.00  0.00     0.037 A 
ATOM     59  C   UNL A   1      44.780  26.108  32.065  1.00  0.00     0.037 A 
ATOM     60  C   UNL A   1      45.415  31.126  27.951  1.00  0.00     0.049 A 
ATOM     61  C   UNL A   1      45.617  26.338  30.840  1.00  0.00     0.074 A 
ATOM     62  C   UNL A   1      46.292  31.248  26.887  1.00  0.00     0.029 A 
ATOM     63  N   UNL A   1      45.617  29.866  28.492  1.00  0.00    -0.354 N 
ATOM     64  N   UNL A   1      45.696  27.403  30.081  1.00  0.00    -0.248 NA
ATOM     65  C   UNL A   1      46.476  25.226  30.412  1.00  0.00     0.031 C 
ATOM     66  C   UNL A   1      46.997  30.046  26.759  1.00  0.00     0.029 A 
ATOM     67  C   UNL A   1      46.589  29.191  27.770  1.00  0.00     0.049 A 
ATOM     68  H   UNL A   1      45.142  29.503  29.274  1.00  0.00     0.167 HD
ATOM     69  C   UNL A   1      46.624  27.096  29.095  1.00  0.00     0.074 A 
ATOM     70  C   UNL A   1      47.096  25.754  29.367  1.00  0.00     0.031 C 
ATOM     71  C   UNL A   1      47.045  27.855  28.054  1.00  0.00     0.037 A 
BRANCH  58  72
ATOM     72  C   UNL A   1      44.319  33.388  27.711  1.00  0.00     0.057 A 
ATOM     73  C   UNL A   1      44.706  34.591  28.316  1.00  0.00     0.134 A 
ATOM     74  C   UNL A   1      43.779  33.460  26.421  1.00  0.00     0.134 A 
ATOM     75  F   UNL A   1      45.225  34.595  29.553  1.00  0.00    -0.206 F 
ATOM     76  C   UNL A   1      44.559  35.817  27.666  1.00  0.00     0.040 A 
ATOM     77  C   UNL A   1      43.649  34.678  25.750  1.00  0.00     0.040 A 
ATOM     78  F   UNL A   1      43.403  32.343  25.778  1.00  0.00    -0.206 F 
ATOM     79  C   UNL A   1      44.035  35.862  26.376  1.00  0.00     0.006 A 
ENDBRANCH  58  72
BRANCH  59  80
ATOM     80  C   UNL A   1      44.889  24.839  32.828  1.00  0.00     0.057 A 
ATOM     81  C   UNL A   1      45.674  24.749  33.983  1.00  0.00     0.134 A 
ATOM     82  C   UNL A   1      44.192  23.694  32.429  1.00  0.00     0.134 A 
ATOM     83  F   UNL A   1      46.368  25.811  34.416  1.00  0.00    -0.206 F 
ATOM     84  C   UNL A   1      45.770  23.561  34.709  1.00  0.00     0.040 A 
ATOM     85  C   UNL A   1      44.257  22.507  33.159  1.00  0.00     0.040 A 
ATOM     86  F   UNL A   1      43.408  23.727  31.340  1.00  0.00    -0.206 F 
ATOM     87  C   UNL A   1      45.053  22.438  34.302  1.00  0.00     0.006 A 
ENDBRANCH  59  80
BRANCH  71  88
ATOM     88  C   UNL A   1      48.083  27.252  27.155  1.00  0.00     0.057 A 
ATOM     89  C   UNL A   1      47.707  26.520  26.021  1.00  0.00     0.134 A 
ATOM     90  C   UNL A   1      49.452  27.393  27.413  1.00  0.00     0.134 A 
ATOM     91  F   UNL A   1      46.412  26.344  25.722  1.00  0.00    -0.206 F 
ATOM     92  C   UNL A   1      48.659  25.952  25.174  1.00  0.00     0.040 A 
ATOM     93  C   UNL A   1      50.413  26.852  26.559  1.00  0.00     0.040 A 
ATOM     94  F   UNL A   1      49.875  28.098  28.473  1.00  0.00    -0.206 F 
ATOM     95  C   UNL A   1      50.017  26.125  25.437  1.00  0.00     0.006 A 
ENDBRANCH  71  88
ENDBRANCH  45  46
ENDBRANCH  37  40
ENDBRANCH  35  36
ENDBRANCH  34  35
ENDBRANCH  33  34
ENDBRANCH   1  33
TORSDOF 16
ENDMDL
