MODEL 1
REMARK VINA RESULT:     -13.2      0.000      0.000
REMARK SMILES COc1cc2ccccc2cc1C(=O)Nc1cc(C(=O)NCCCCCCNC(=O)c2ccc(-c3c4nc(c(-c5c(F)cccc5F)c5ccc([nH]5)c(-c5c(F)cccc5F)c5nc(c(-c6c(F)cccc6F)c6ccc3[nH]6)C=C5)C=C4)cc2)ccc1C
REMARK SMILES IDX 24 1 23 2 22 3 21 4 19 5 20 6 18 8 16 9 17 10 87 11 86 12
REMARK SMILES IDX 88 13 85 14 15 15 13 16 14 17 12 19 3 20 4 21 5 22 11 23
REMARK SMILES IDX 6 24 10 25 7 26 9 27 8 28 2 29 1 30 25 31 26 32 27 33 28 34
REMARK SMILES IDX 29 35 30 37 31 38 32 39 84 40 33 41 83 42 34 43 35 44 36 45
REMARK SMILES IDX 77 46 37 47 82 48 76 49 78 50 38 51 81 52 75 53 74 54 39 56
REMARK SMILES IDX 65 57 48 58 64 59 49 60 52 61 63 62 79 63 50 64 51 65 62 67
REMARK SMILES IDX 80 68 53 69 40 70 41 71 46 72 42 73 43 74 45 75 47 76 44 77
REMARK SMILES IDX 66 78 67 79 72 80 68 81 69 82 71 83 73 84 70 85 54 86 55 87
REMARK SMILES IDX 60 88 56 89 57 90 59 91 61 92 58 93
REMARK H PARENT 21 7 15 18 28 36 78 55 52 66
REMARK Flexibility Score: inf
ROOT
ATOM      1  C   UNL A   1      35.678  20.940  25.562  1.00  0.00     0.002 C 
ENDROOT
BRANCH   1   2
ATOM      2  C   UNL A   1      34.658  20.123  24.755  1.00  0.00     0.021 C 
BRANCH   2   3
ATOM      3  C   UNL A   1      33.296  19.987  25.437  1.00  0.00     0.116 C 
BRANCH   3   4
ATOM      4  N   UNL A   1      33.102  21.020  26.433  1.00  0.00    -0.352 N 
ATOM      5  C   UNL A   1      32.747  22.343  26.384  1.00  0.00     0.251 C 
ATOM      6  O   UNL A   1      32.664  22.922  27.471  1.00  0.00    -0.269 OA
ATOM      7  H   UNL A   1      33.260  20.701  27.351  1.00  0.00     0.163 HD
BRANCH   5   8
ATOM      8  C   UNL A   1      32.406  23.104  25.142  1.00  0.00     0.041 A 
ATOM      9  C   UNL A   1      30.935  24.376  23.678  1.00  0.00     0.045 A 
ATOM     10  C   UNL A   1      31.126  23.485  24.746  1.00  0.00     0.040 A 
ATOM     11  C   UNL A   1      32.002  24.700  22.823  1.00  0.00    -0.027 A 
ATOM     12  C   UNL A   1      33.284  24.258  23.176  1.00  0.00     0.006 A 
ATOM     13  C   UNL A   1      31.882  25.638  21.652  1.00  0.00     0.046 C 
ATOM     14  C   UNL A   1      33.484  23.502  24.333  1.00  0.00     0.014 A 
BRANCH   9  15
ATOM     15  N   UNL A   1      29.695  25.011  23.502  1.00  0.00    -0.322 N 
ATOM     16  C   UNL A   1      29.273  26.276  23.859  1.00  0.00     0.259 C 
ATOM     17  O   UNL A   1      28.068  26.524  23.740  1.00  0.00    -0.269 OA
ATOM     18  H   UNL A   1      29.014  24.463  23.049  1.00  0.00     0.170 HD
BRANCH  16  19
ATOM     19  C   UNL A   1      30.170  27.389  24.306  1.00  0.00     0.082 A 
ATOM     20  C   UNL A   1      30.264  28.668  23.741  1.00  0.00     0.132 A 
ATOM     21  C   UNL A   1      31.221  29.585  24.195  1.00  0.00     0.056 A 
ATOM     22  C   UNL A   1      32.010  29.307  25.317  1.00  0.00    -0.015 A 
ATOM     23  C   UNL A   1      30.933  27.134  25.464  1.00  0.00     0.026 A 
ATOM     24  C   UNL A   1      32.951  30.234  25.795  1.00  0.00     0.009 A 
ATOM     25  C   UNL A   1      31.829  28.083  25.992  1.00  0.00    -0.017 A 
ATOM     26  C   UNL A   1      33.668  29.978  26.963  1.00  0.00     0.001 A 
ATOM     27  C   UNL A   1      32.547  27.849  27.177  1.00  0.00     0.009 A 
ATOM     28  C   UNL A   1      33.452  28.795  27.664  1.00  0.00     0.001 A 
BRANCH  20  29
ATOM     29  O   UNL A   1      29.504  29.112  22.694  1.00  0.00    -0.496 OA
ATOM     30  C   UNL A   1      28.589  30.123  23.105  1.00  0.00     0.278 C 
ENDBRANCH  20  29
ENDBRANCH  16  19
ENDBRANCH   9  15
ENDBRANCH   5   8
ENDBRANCH   3   4
ENDBRANCH   2   3
ENDBRANCH   1   2
BRANCH   1  31
ATOM     31  C   UNL A   1      36.823  21.584  24.757  1.00  0.00     0.002 C 
BRANCH  31  32
ATOM     32  C   UNL A   1      38.217  21.494  25.386  1.00  0.00     0.021 C 
BRANCH  32  33
ATOM     33  C   UNL A   1      38.660  22.774  26.081  1.00  0.00     0.116 C 
BRANCH  33  34
ATOM     34  N   UNL A   1      40.109  22.862  26.286  1.00  0.00    -0.352 N 
ATOM     35  C   UNL A   1      40.880  23.945  26.642  1.00  0.00     0.251 C 
ATOM     36  H   UNL A   1      40.603  22.022  26.147  1.00  0.00     0.163 HD
ATOM     37  O   UNL A   1      42.087  23.836  26.757  1.00  0.00    -0.269 OA
BRANCH  35  38
ATOM     38  C   UNL A   1      40.210  25.216  27.025  1.00  0.00     0.039 A 
ATOM     39  C   UNL A   1      40.591  26.375  26.340  1.00  0.00     0.014 A 
ATOM     40  C   UNL A   1      39.415  25.299  28.167  1.00  0.00     0.014 A 
ATOM     41  C   UNL A   1      40.410  27.611  26.950  1.00  0.00     0.010 A 
ATOM     42  C   UNL A   1      39.302  26.517  28.808  1.00  0.00     0.010 A 
ATOM     43  C   UNL A   1      39.884  27.656  28.238  1.00  0.00    -0.014 A 
BRANCH  43  44
ATOM     44  C   UNL A   1      40.080  28.798  29.124  1.00  0.00     0.031 A 
ATOM     45  C   UNL A   1      39.066  29.862  29.239  1.00  0.00     0.074 A 
ATOM     46  C   UNL A   1      41.205  28.854  29.875  1.00  0.00     0.049 A 
ATOM     47  N   UNL A   1      39.307  31.025  29.747  1.00  0.00    -0.248 NA
ATOM     48  C   UNL A   1      37.710  29.735  28.713  1.00  0.00     0.031 C 
ATOM     49  C   UNL A   1      41.487  29.747  30.997  1.00  0.00     0.029 A 
ATOM     50  N   UNL A   1      42.444  28.263  29.582  1.00  0.00    -0.354 N 
ATOM     51  C   UNL A   1      38.106  31.667  29.895  1.00  0.00     0.074 A 
ATOM     52  C   UNL A   1      37.177  30.898  29.104  1.00  0.00     0.031 C 
ATOM     53  C   UNL A   1      42.817  29.890  31.105  1.00  0.00     0.029 A 
ATOM     54  C   UNL A   1      43.418  29.212  29.972  1.00  0.00     0.049 A 
ATOM     55  H   UNL A   1      42.602  27.375  29.189  1.00  0.00     0.167 HD
ATOM     56  C   UNL A   1      38.018  32.694  30.784  1.00  0.00     0.037 A 
ATOM     57  C   UNL A   1      44.237  29.795  29.049  1.00  0.00     0.037 A 
ATOM     58  C   UNL A   1      39.343  33.197  31.152  1.00  0.00     0.049 A 
ATOM     59  C   UNL A   1      44.118  31.303  28.947  1.00  0.00     0.074 A 
ATOM     60  C   UNL A   1      40.138  33.159  32.283  1.00  0.00     0.029 A 
ATOM     61  N   UNL A   1      40.147  33.702  30.141  1.00  0.00    -0.354 N 
ATOM     62  N   UNL A   1      43.273  32.028  29.627  1.00  0.00    -0.248 NA
ATOM     63  C   UNL A   1      44.880  32.097  27.980  1.00  0.00     0.031 C 
ATOM     64  C   UNL A   1      41.454  33.573  31.910  1.00  0.00     0.029 A 
ATOM     65  C   UNL A   1      41.446  33.894  30.564  1.00  0.00     0.049 A 
ATOM     66  H   UNL A   1      39.829  33.900  29.230  1.00  0.00     0.167 HD
ATOM     67  C   UNL A   1      43.303  33.313  29.155  1.00  0.00     0.074 A 
ATOM     68  C   UNL A   1      44.335  33.314  28.136  1.00  0.00     0.031 C 
ATOM     69  C   UNL A   1      42.447  34.283  29.584  1.00  0.00     0.037 A 
BRANCH  56  70
ATOM     70  C   UNL A   1      36.735  33.169  31.433  1.00  0.00     0.057 A 
ATOM     71  C   UNL A   1      36.407  32.757  32.741  1.00  0.00     0.134 A 
ATOM     72  C   UNL A   1      35.720  33.911  30.793  1.00  0.00     0.134 A 
ATOM     73  F   UNL A   1      37.257  32.025  33.477  1.00  0.00    -0.206 F 
ATOM     74  C   UNL A   1      35.179  33.054  33.350  1.00  0.00     0.040 A 
ATOM     75  C   UNL A   1      34.512  34.261  31.411  1.00  0.00     0.040 A 
ATOM     76  F   UNL A   1      35.799  34.286  29.512  1.00  0.00    -0.206 F 
ATOM     77  C   UNL A   1      34.229  33.820  32.691  1.00  0.00     0.006 A 
ENDBRANCH  56  70
BRANCH  57  78
ATOM     78  C   UNL A   1      44.569  28.899  27.910  1.00  0.00     0.057 A 
ATOM     79  C   UNL A   1      45.478  27.847  28.114  1.00  0.00     0.134 A 
ATOM     80  C   UNL A   1      43.782  28.847  26.756  1.00  0.00     0.134 A 
ATOM     81  F   UNL A   1      46.264  27.836  29.203  1.00  0.00    -0.206 F 
ATOM     82  C   UNL A   1      45.526  26.739  27.267  1.00  0.00     0.040 A 
ATOM     83  C   UNL A   1      43.835  27.750  25.889  1.00  0.00     0.040 A 
ATOM     84  F   UNL A   1      42.873  29.799  26.504  1.00  0.00    -0.206 F 
ATOM     85  C   UNL A   1      44.680  26.676  26.165  1.00  0.00     0.006 A 
ENDBRANCH  57  78
BRANCH  69  86
ATOM     86  C   UNL A   1      42.496  35.683  29.056  1.00  0.00     0.057 A 
ATOM     87  C   UNL A   1      41.724  36.092  27.959  1.00  0.00     0.134 A 
ATOM     88  C   UNL A   1      43.395  36.635  29.568  1.00  0.00     0.134 A 
ATOM     89  F   UNL A   1      40.858  35.250  27.377  1.00  0.00    -0.206 F 
ATOM     90  C   UNL A   1      41.824  37.378  27.418  1.00  0.00     0.040 A 
ATOM     91  C   UNL A   1      43.535  37.908  29.010  1.00  0.00     0.040 A 
ATOM     92  F   UNL A   1      44.153  36.372  30.644  1.00  0.00    -0.206 F 
ATOM     93  C   UNL A   1      42.743  38.286  27.934  1.00  0.00     0.006 A 
ENDBRANCH  69  86
ENDBRANCH  43  44
ENDBRANCH  35  38
ENDBRANCH  33  34
ENDBRANCH  32  33
ENDBRANCH  31  32
ENDBRANCH   1  31
TORSDOF 16
ENDMDL
MODEL 2
REMARK VINA RESULT:     -13.0      3.603      9.452
REMARK SMILES COc1cc2ccccc2cc1C(=O)Nc1cc(C(=O)NCCCCCCNC(=O)c2ccc(-c3c4nc(c(-c5c(F)cccc5F)c5ccc([nH]5)c(-c5c(F)cccc5F)c5nc(c(-c6c(F)cccc6F)c6ccc3[nH]6)C=C5)C=C4)cc2)ccc1C
REMARK SMILES IDX 24 1 23 2 22 3 21 4 19 5 20 6 18 8 16 9 17 10 87 11 86 12
REMARK SMILES IDX 88 13 85 14 15 15 13 16 14 17 12 19 3 20 4 21 5 22 11 23
REMARK SMILES IDX 6 24 10 25 7 26 9 27 8 28 2 29 1 30 25 31 26 32 27 33 28 34
REMARK SMILES IDX 29 35 30 37 31 38 32 39 84 40 33 41 83 42 34 43 35 44 36 45
REMARK SMILES IDX 77 46 37 47 82 48 76 49 78 50 38 51 81 52 75 53 74 54 39 56
REMARK SMILES IDX 65 57 48 58 64 59 49 60 52 61 63 62 79 63 50 64 51 65 62 67
REMARK SMILES IDX 80 68 53 69 40 70 41 71 46 72 42 73 43 74 45 75 47 76 44 77
REMARK SMILES IDX 66 78 67 79 72 80 68 81 69 82 71 83 73 84 70 85 54 86 55 87
REMARK SMILES IDX 60 88 56 89 57 90 59 91 61 92 58 93
REMARK H PARENT 21 7 15 18 28 36 78 55 52 66
REMARK Flexibility Score: inf
ROOT
ATOM      1  C   UNL A   1      31.828  28.903  26.511  1.00  0.00     0.002 C 
ENDROOT
BRANCH   1   2
ATOM      2  C   UNL A   1      31.421  29.837  25.362  1.00  0.00     0.021 C 
BRANCH   2   3
ATOM      3  C   UNL A   1      31.483  29.181  23.981  1.00  0.00     0.116 C 
BRANCH   3   4
ATOM      4  N   UNL A   1      30.570  28.061  23.889  1.00  0.00    -0.352 N 
ATOM      5  C   UNL A   1      30.727  26.701  23.831  1.00  0.00     0.251 C 
ATOM      6  O   UNL A   1      29.687  26.038  23.771  1.00  0.00    -0.269 OA
ATOM      7  H   UNL A   1      29.626  28.338  23.862  1.00  0.00     0.163 HD
BRANCH   5   8
ATOM      8  C   UNL A   1      32.034  25.975  23.890  1.00  0.00     0.041 A 
ATOM      9  C   UNL A   1      33.801  24.717  24.995  1.00  0.00     0.045 A 
ATOM     10  C   UNL A   1      32.692  25.575  25.052  1.00  0.00     0.040 A 
ATOM     11  C   UNL A   1      34.432  24.450  23.767  1.00  0.00    -0.027 A 
ATOM     12  C   UNL A   1      33.814  24.913  22.598  1.00  0.00     0.006 A 
ATOM     13  C   UNL A   1      35.629  23.551  23.619  1.00  0.00     0.046 C 
ATOM     14  C   UNL A   1      32.618  25.633  22.659  1.00  0.00     0.014 A 
BRANCH   9  15
ATOM     15  N   UNL A   1      34.243  24.057  26.152  1.00  0.00    -0.322 N 
ATOM     16  C   UNL A   1      34.067  22.752  26.567  1.00  0.00     0.259 C 
ATOM     17  O   UNL A   1      34.416  22.474  27.720  1.00  0.00    -0.269 OA
ATOM     18  H   UNL A   1      34.763  24.618  26.771  1.00  0.00     0.170 HD
BRANCH  16  19
ATOM     19  C   UNL A   1      33.560  21.636  25.706  1.00  0.00     0.082 A 
ATOM     20  C   UNL A   1      32.344  21.602  25.009  1.00  0.00     0.132 A 
ATOM     21  C   UNL A   1      31.946  20.450  24.318  1.00  0.00     0.056 A 
ATOM     22  C   UNL A   1      32.808  19.357  24.181  1.00  0.00    -0.015 A 
ATOM     23  C   UNL A   1      34.443  20.553  25.524  1.00  0.00     0.026 A 
ATOM     24  C   UNL A   1      32.426  18.211  23.464  1.00  0.00     0.009 A 
ATOM     25  C   UNL A   1      34.096  19.428  24.750  1.00  0.00    -0.017 A 
ATOM     26  C   UNL A   1      33.327  17.166  23.264  1.00  0.00     0.001 A 
ATOM     27  C   UNL A   1      34.997  18.375  24.523  1.00  0.00     0.009 A 
ATOM     28  C   UNL A   1      34.619  17.257  23.776  1.00  0.00     0.001 A 
BRANCH  20  29
ATOM     29  O   UNL A   1      31.435  22.623  24.983  1.00  0.00    -0.496 OA
ATOM     30  C   UNL A   1      30.590  22.599  26.129  1.00  0.00     0.278 C 
ENDBRANCH  20  29
ENDBRANCH  16  19
ENDBRANCH   9  15
ENDBRANCH   5   8
ENDBRANCH   3   4
ENDBRANCH   2   3
ENDBRANCH   1   2
BRANCH   1  31
ATOM     31  C   UNL A   1      33.144  29.248  27.234  1.00  0.00     0.002 C 
BRANCH  31  32
ATOM     32  C   UNL A   1      33.374  30.732  27.534  1.00  0.00     0.021 C 
BRANCH  32  33
ATOM     33  C   UNL A   1      34.843  31.135  27.549  1.00  0.00     0.116 C 
BRANCH  33  34
ATOM     34  N   UNL A   1      35.290  31.677  28.835  1.00  0.00    -0.352 N 
ATOM     35  C   UNL A   1      36.243  31.198  29.705  1.00  0.00     0.251 C 
ATOM     36  H   UNL A   1      34.843  32.508  29.119  1.00  0.00     0.163 HD
ATOM     37  O   UNL A   1      36.481  31.780  30.747  1.00  0.00    -0.269 OA
BRANCH  35  38
ATOM     38  C   UNL A   1      37.081  30.040  29.294  1.00  0.00     0.039 A 
ATOM     39  C   UNL A   1      37.242  29.002  30.218  1.00  0.00     0.014 A 
ATOM     40  C   UNL A   1      37.864  30.087  28.141  1.00  0.00     0.014 A 
ATOM     41  C   UNL A   1      38.359  28.181  30.126  1.00  0.00     0.010 A 
ATOM     42  C   UNL A   1      39.013  29.322  28.089  1.00  0.00     0.010 A 
ATOM     43  C   UNL A   1      39.302  28.436  29.133  1.00  0.00    -0.014 A 
BRANCH  43  44
ATOM     44  C   UNL A   1      40.681  27.967  29.225  1.00  0.00     0.031 A 
ATOM     45  C   UNL A   1      41.068  26.626  28.753  1.00  0.00     0.074 A 
ATOM     46  C   UNL A   1      41.620  28.804  29.725  1.00  0.00     0.049 A 
ATOM     47  N   UNL A   1      42.172  26.045  29.085  1.00  0.00    -0.248 NA
ATOM     48  C   UNL A   1      40.201  25.786  27.931  1.00  0.00     0.031 C 
ATOM     49  C   UNL A   1      43.073  28.651  29.672  1.00  0.00     0.029 A 
ATOM     50  N   UNL A   1      41.416  29.857  30.631  1.00  0.00    -0.354 N 
ATOM     51  C   UNL A   1      42.301  24.928  28.303  1.00  0.00     0.074 A 
ATOM     52  C   UNL A   1      40.996  24.730  27.724  1.00  0.00     0.031 C 
ATOM     53  C   UNL A   1      43.612  29.327  30.697  1.00  0.00     0.029 A 
ATOM     54  C   UNL A   1      42.517  29.813  31.518  1.00  0.00     0.049 A 
ATOM     55  H   UNL A   1      40.664  30.492  30.646  1.00  0.00     0.167 HD
ATOM     56  C   UNL A   1      43.539  24.387  28.131  1.00  0.00     0.037 A 
ATOM     57  C   UNL A   1      42.340  29.532  32.842  1.00  0.00     0.037 A 
ATOM     58  C   UNL A   1      44.478  24.873  29.145  1.00  0.00     0.049 A 
ATOM     59  C   UNL A   1      43.052  28.288  33.334  1.00  0.00     0.074 A 
ATOM     60  C   UNL A   1      45.573  25.718  29.156  1.00  0.00     0.029 A 
ATOM     61  N   UNL A   1      44.185  24.614  30.475  1.00  0.00    -0.354 N 
ATOM     62  N   UNL A   1      43.746  27.482  32.579  1.00  0.00    -0.248 NA
ATOM     63  C   UNL A   1      42.939  27.800  34.712  1.00  0.00     0.031 C 
ATOM     64  C   UNL A   1      45.877  26.025  30.518  1.00  0.00     0.029 A 
ATOM     65  C   UNL A   1      44.990  25.339  31.329  1.00  0.00     0.049 A 
ATOM     66  H   UNL A   1      43.486  23.989  30.775  1.00  0.00     0.167 HD
ATOM     67  C   UNL A   1      44.087  26.370  33.302  1.00  0.00     0.074 A 
ATOM     68  C   UNL A   1      43.575  26.620  34.637  1.00  0.00     0.031 C 
ATOM     69  C   UNL A   1      44.714  25.291  32.756  1.00  0.00     0.037 A 
BRANCH  56  70
ATOM     70  C   UNL A   1      43.949  23.514  26.964  1.00  0.00     0.057 A 
ATOM     71  C   UNL A   1      44.692  24.059  25.897  1.00  0.00     0.134 A 
ATOM     72  C   UNL A   1      43.536  22.181  26.755  1.00  0.00     0.134 A 
ATOM     73  F   UNL A   1      45.140  25.323  25.931  1.00  0.00    -0.206 F 
ATOM     74  C   UNL A   1      44.992  23.341  24.730  1.00  0.00     0.040 A 
ATOM     75  C   UNL A   1      43.877  21.437  25.618  1.00  0.00     0.040 A 
ATOM     76  F   UNL A   1      42.725  21.536  27.600  1.00  0.00    -0.206 F 
ATOM     77  C   UNL A   1      44.595  22.020  24.590  1.00  0.00     0.006 A 
ENDBRANCH  56  70
BRANCH  57  78
ATOM     78  C   UNL A   1      41.046  30.029  33.379  1.00  0.00     0.057 A 
ATOM     79  C   UNL A   1      40.915  31.395  33.682  1.00  0.00     0.134 A 
ATOM     80  C   UNL A   1      39.870  29.281  33.284  1.00  0.00     0.134 A 
ATOM     81  F   UNL A   1      42.006  32.172  33.786  1.00  0.00    -0.206 F 
ATOM     82  C   UNL A   1      39.666  32.013  33.778  1.00  0.00     0.040 A 
ATOM     83  C   UNL A   1      38.613  29.884  33.397  1.00  0.00     0.040 A 
ATOM     84  F   UNL A   1      39.911  27.978  32.973  1.00  0.00    -0.206 F 
ATOM     85  C   UNL A   1      38.510  31.259  33.606  1.00  0.00     0.006 A 
ENDBRANCH  57  78
BRANCH  69  86
ATOM     86  C   UNL A   1      45.078  24.084  33.564  1.00  0.00     0.057 A 
ATOM     87  C   UNL A   1      46.390  23.850  34.002  1.00  0.00     0.134 A 
ATOM     88  C   UNL A   1      44.145  23.069  33.838  1.00  0.00     0.134 A 
ATOM     89  F   UNL A   1      47.363  24.742  33.763  1.00  0.00    -0.206 F 
ATOM     90  C   UNL A   1      46.747  22.687  34.692  1.00  0.00     0.040 A 
ATOM     91  C   UNL A   1      44.498  21.884  34.489  1.00  0.00     0.040 A 
ATOM     92  F   UNL A   1      42.852  23.202  33.507  1.00  0.00    -0.206 F 
ATOM     93  C   UNL A   1      45.803  21.692  34.925  1.00  0.00     0.006 A 
ENDBRANCH  69  86
ENDBRANCH  43  44
ENDBRANCH  35  38
ENDBRANCH  33  34
ENDBRANCH  32  33
ENDBRANCH  31  32
ENDBRANCH   1  31
TORSDOF 16
ENDMDL
MODEL 3
REMARK VINA RESULT:     -12.8      3.582      9.197
REMARK SMILES COc1cc2ccccc2cc1C(=O)Nc1cc(C(=O)NCCCCCCNC(=O)c2ccc(-c3c4nc(c(-c5c(F)cccc5F)c5ccc([nH]5)c(-c5c(F)cccc5F)c5nc(c(-c6c(F)cccc6F)c6ccc3[nH]6)C=C5)C=C4)cc2)ccc1C
REMARK SMILES IDX 24 1 23 2 22 3 21 4 19 5 20 6 18 8 16 9 17 10 87 11 86 12
REMARK SMILES IDX 88 13 85 14 15 15 13 16 14 17 12 19 3 20 4 21 5 22 11 23
REMARK SMILES IDX 6 24 10 25 7 26 9 27 8 28 2 29 1 30 25 31 26 32 27 33 28 34
REMARK SMILES IDX 29 35 30 37 31 38 32 39 84 40 33 41 83 42 34 43 35 44 36 45
REMARK SMILES IDX 77 46 37 47 82 48 76 49 78 50 38 51 81 52 75 53 74 54 39 56
REMARK SMILES IDX 65 57 48 58 64 59 49 60 52 61 63 62 79 63 50 64 51 65 62 67
REMARK SMILES IDX 80 68 53 69 40 70 41 71 46 72 42 73 43 74 45 75 47 76 44 77
REMARK SMILES IDX 66 78 67 79 72 80 68 81 69 82 71 83 73 84 70 85 54 86 55 87
REMARK SMILES IDX 60 88 56 89 57 90 59 91 61 92 58 93
REMARK H PARENT 21 7 15 18 28 36 78 55 52 66
REMARK Flexibility Score: inf
ROOT
ATOM      1  C   UNL A   1      31.609  31.053  26.222  1.00  0.00     0.002 C 
ENDROOT
BRANCH   1   2
ATOM      2  C   UNL A   1      31.783  29.584  25.808  1.00  0.00     0.021 C 
BRANCH   2   3
ATOM      3  C   UNL A   1      31.703  29.354  24.298  1.00  0.00     0.116 C 
BRANCH   3   4
ATOM      4  N   UNL A   1      30.401  28.854  23.911  1.00  0.00    -0.352 N 
ATOM      5  C   UNL A   1      29.939  27.656  23.430  1.00  0.00     0.251 C 
ATOM      6  O   UNL A   1      28.725  27.588  23.219  1.00  0.00    -0.269 OA
ATOM      7  H   UNL A   1      29.686  29.523  24.016  1.00  0.00     0.163 HD
BRANCH   5   8
ATOM      8  C   UNL A   1      30.773  26.435  23.200  1.00  0.00     0.041 A 
ATOM      9  C   UNL A   1      31.463  24.136  23.608  1.00  0.00     0.045 A 
ATOM     10  C   UNL A   1      30.813  25.310  24.022  1.00  0.00     0.040 A 
ATOM     11  C   UNL A   1      32.303  24.148  22.480  1.00  0.00    -0.027 A 
ATOM     12  C   UNL A   1      32.323  25.303  21.689  1.00  0.00     0.006 A 
ATOM     13  C   UNL A   1      33.042  22.939  21.975  1.00  0.00     0.046 C 
ATOM     14  C   UNL A   1      31.545  26.413  22.027  1.00  0.00     0.014 A 
BRANCH   9  15
ATOM     15  N   UNL A   1      31.218  22.923  24.271  1.00  0.00    -0.322 N 
ATOM     16  C   UNL A   1      32.086  22.041  24.884  1.00  0.00     0.259 C 
ATOM     17  O   UNL A   1      31.624  20.952  25.244  1.00  0.00    -0.269 OA
ATOM     18  H   UNL A   1      30.271  22.657  24.303  1.00  0.00     0.170 HD
BRANCH  16  19
ATOM     19  C   UNL A   1      33.519  22.331  25.213  1.00  0.00     0.082 A 
ATOM     20  C   UNL A   1      34.018  23.479  25.842  1.00  0.00     0.132 A 
ATOM     21  C   UNL A   1      35.398  23.668  26.000  1.00  0.00     0.056 A 
ATOM     22  C   UNL A   1      36.306  22.657  25.669  1.00  0.00    -0.015 A 
ATOM     23  C   UNL A   1      34.434  21.297  24.926  1.00  0.00     0.026 A 
ATOM     24  C   UNL A   1      37.688  22.829  25.852  1.00  0.00     0.009 A 
ATOM     25  C   UNL A   1      35.814  21.433  25.171  1.00  0.00    -0.017 A 
ATOM     26  C   UNL A   1      38.573  21.781  25.598  1.00  0.00     0.001 A 
ATOM     27  C   UNL A   1      36.717  20.383  24.937  1.00  0.00     0.009 A 
ATOM     28  C   UNL A   1      38.086  20.553  25.159  1.00  0.00     0.001 A 
BRANCH  20  29
ATOM     29  O   UNL A   1      33.248  24.515  26.293  1.00  0.00    -0.496 OA
ATOM     30  C   UNL A   1      33.794  25.774  25.915  1.00  0.00     0.278 C 
ENDBRANCH  20  29
ENDBRANCH  16  19
ENDBRANCH   9  15
ENDBRANCH   5   8
ENDBRANCH   3   4
ENDBRANCH   2   3
ENDBRANCH   1   2
BRANCH   1  31
ATOM     31  C   UNL A   1      32.674  31.619  27.182  1.00  0.00     0.002 C 
BRANCH  31  32
ATOM     32  C   UNL A   1      34.025  30.897  27.184  1.00  0.00     0.021 C 
BRANCH  32  33
ATOM     33  C   UNL A   1      34.624  30.723  28.573  1.00  0.00     0.116 C 
BRANCH  33  34
ATOM     34  N   UNL A   1      35.673  31.698  28.887  1.00  0.00    -0.352 N 
ATOM     35  C   UNL A   1      37.028  31.509  29.038  1.00  0.00     0.251 C 
ATOM     36  H   UNL A   1      35.362  32.624  29.009  1.00  0.00     0.163 HD
ATOM     37  O   UNL A   1      37.758  32.443  29.313  1.00  0.00    -0.269 OA
BRANCH  35  38
ATOM     38  C   UNL A   1      37.613  30.179  28.720  1.00  0.00     0.039 A 
ATOM     39  C   UNL A   1      37.691  29.246  29.760  1.00  0.00     0.014 A 
ATOM     40  C   UNL A   1      38.271  29.947  27.513  1.00  0.00     0.014 A 
ATOM     41  C   UNL A   1      38.638  28.232  29.690  1.00  0.00     0.010 A 
ATOM     42  C   UNL A   1      39.263  28.987  27.473  1.00  0.00     0.010 A 
ATOM     43  C   UNL A   1      39.504  28.194  28.600  1.00  0.00    -0.014 A 
BRANCH  43  44
ATOM     44  C   UNL A   1      40.787  27.499  28.644  1.00  0.00     0.031 A 
ATOM     45  C   UNL A   1      40.873  26.038  28.470  1.00  0.00     0.074 A 
ATOM     46  C   UNL A   1      41.915  28.226  28.814  1.00  0.00     0.049 A 
ATOM     47  N   UNL A   1      41.908  25.341  28.804  1.00  0.00    -0.248 NA
ATOM     48  C   UNL A   1      39.764  25.223  27.982  1.00  0.00     0.031 C 
ATOM     49  C   UNL A   1      43.297  27.788  28.634  1.00  0.00     0.029 A 
ATOM     50  N   UNL A   1      42.028  29.470  29.455  1.00  0.00    -0.354 N 
ATOM     51  C   UNL A   1      41.731  24.077  28.306  1.00  0.00     0.074 A 
ATOM     52  C   UNL A   1      40.336  24.014  27.947  1.00  0.00     0.031 C 
ATOM     53  C   UNL A   1      44.093  28.554  29.395  1.00  0.00     0.029 A 
ATOM     54  C   UNL A   1      43.233  29.408  30.194  1.00  0.00     0.049 A 
ATOM     55  H   UNL A   1      41.400  30.226  29.402  1.00  0.00     0.167 HD
ATOM     56  C   UNL A   1      42.823  23.283  28.129  1.00  0.00     0.037 A 
ATOM     57  C   UNL A   1      43.223  29.462  31.557  1.00  0.00     0.037 A 
ATOM     58  C   UNL A   1      43.975  23.787  28.880  1.00  0.00     0.049 A 
ATOM     59  C   UNL A   1      43.793  28.242  32.252  1.00  0.00     0.074 A 
ATOM     60  C   UNL A   1      45.180  24.386  28.560  1.00  0.00     0.029 A 
ATOM     61  N   UNL A   1      43.856  23.886  30.258  1.00  0.00    -0.354 N 
ATOM     62  N   UNL A   1      44.221  27.172  31.640  1.00  0.00    -0.248 NA
ATOM     63  C   UNL A   1      43.821  28.097  33.710  1.00  0.00     0.031 C 
ATOM     64  C   UNL A   1      45.739  24.918  29.763  1.00  0.00     0.029 A 
ATOM     65  C   UNL A   1      44.892  24.610  30.812  1.00  0.00     0.049 A 
ATOM     66  H   UNL A   1      43.121  23.488  30.779  1.00  0.00     0.167 HD
ATOM     67  C   UNL A   1      44.487  26.200  32.567  1.00  0.00     0.074 A 
ATOM     68  C   UNL A   1      44.238  26.829  33.851  1.00  0.00     0.031 C 
ATOM     69  C   UNL A   1      44.838  24.927  32.230  1.00  0.00     0.037 A 
BRANCH  56  70
ATOM     70  C   UNL A   1      42.898  22.115  27.170  1.00  0.00     0.057 A 
ATOM     71  C   UNL A   1      42.077  20.985  27.362  1.00  0.00     0.134 A 
ATOM     72  C   UNL A   1      43.839  21.971  26.128  1.00  0.00     0.134 A 
ATOM     73  F   UNL A   1      41.145  20.954  28.327  1.00  0.00    -0.206 F 
ATOM     74  C   UNL A   1      42.188  19.819  26.589  1.00  0.00     0.040 A 
ATOM     75  C   UNL A   1      43.922  20.833  25.314  1.00  0.00     0.040 A 
ATOM     76  F   UNL A   1      44.780  22.886  25.874  1.00  0.00    -0.206 F 
ATOM     77  C   UNL A   1      43.104  19.743  25.551  1.00  0.00     0.006 A 
ENDBRANCH  56  70
BRANCH  57  78
ATOM     78  C   UNL A   1      42.127  30.305  32.103  1.00  0.00     0.057 A 
ATOM     79  C   UNL A   1      42.268  31.703  32.081  1.00  0.00     0.134 A 
ATOM     80  C   UNL A   1      40.844  29.797  32.325  1.00  0.00     0.134 A 
ATOM     81  F   UNL A   1      43.473  32.257  31.871  1.00  0.00    -0.206 F 
ATOM     82  C   UNL A   1      41.166  32.557  32.168  1.00  0.00     0.040 A 
ATOM     83  C   UNL A   1      39.735  30.643  32.433  1.00  0.00     0.040 A 
ATOM     84  F   UNL A   1      40.624  28.475  32.335  1.00  0.00    -0.206 F 
ATOM     85  C   UNL A   1      39.890  32.024  32.316  1.00  0.00     0.006 A 
ENDBRANCH  57  78
BRANCH  69  86
ATOM     86  C   UNL A   1      45.126  23.878  33.260  1.00  0.00     0.057 A 
ATOM     87  C   UNL A   1      44.153  22.959  33.677  1.00  0.00     0.134 A 
ATOM     88  C   UNL A   1      46.356  23.825  33.937  1.00  0.00     0.134 A 
ATOM     89  F   UNL A   1      42.934  22.947  33.116  1.00  0.00    -0.206 F 
ATOM     90  C   UNL A   1      44.396  22.028  34.692  1.00  0.00     0.040 A 
ATOM     91  C   UNL A   1      46.598  22.928  34.980  1.00  0.00     0.040 A 
ATOM     92  F   UNL A   1      47.377  24.625  33.594  1.00  0.00    -0.206 F 
ATOM     93  C   UNL A   1      45.618  22.020  35.358  1.00  0.00     0.006 A 
ENDBRANCH  69  86
ENDBRANCH  43  44
ENDBRANCH  35  38
ENDBRANCH  33  34
ENDBRANCH  32  33
ENDBRANCH  31  32
ENDBRANCH   1  31
TORSDOF 16
ENDMDL
