MODEL 1
REMARK VINA RESULT:     -12.5      0.000      0.000
REMARK SMILES Nc1ccc(-c2cc(Cl)cc3c2O[C@H](C(F)(F)F)C(C(=O)NCCCCCCNC(=O)c2ccc(-c4c5nc(c(-c6c(F)cccc6F)c6ccc([nH]6)c(-c6c(F)cccc6F)c6nc(c(-c7c(F)cccc7F)c7ccc4[nH]7)C=C6)C=C5)cc2)=C3)cc1
REMARK SMILES IDX 25 1 24 2 23 3 22 4 20 5 21 6 19 8 6 9 7 10 12 11 8 12 11 13
REMARK SMILES IDX 13 14 9 15 10 16 86 17 14 18 5 19 2 20 3 21 88 22 4 23 87 24
REMARK SMILES IDX 1 25 15 28 16 29 17 30 18 31 26 32 27 33 28 34 29 35 30 36
REMARK SMILES IDX 31 38 32 39 33 40 85 41 34 42 84 43 35 44 36 45 37 46 78 47
REMARK SMILES IDX 38 48 83 49 77 50 79 51 39 52 82 53 76 54 75 55 40 57 66 58
REMARK SMILES IDX 49 59 65 60 50 61 53 62 64 63 80 64 51 65 52 66 63 68 81 69
REMARK SMILES IDX 54 70 41 71 42 72 47 73 43 74 44 75 46 76 48 77 45 78 67 79
REMARK SMILES IDX 68 80 73 81 69 82 70 83 72 84 74 85 71 86 55 87 56 88 61 89
REMARK SMILES IDX 57 90 58 91 60 92 62 93 59 94
REMARK H PARENT 22 7 1 26 1 27 29 37 79 56 53 67
REMARK Flexibility Score: inf
ROOT
ATOM      1  C   UNL A   1      31.680  29.239  24.349  1.00  0.00     0.002 C 
ENDROOT
BRANCH   1   2
ATOM      2  C   UNL A   1      31.895  28.303  23.154  1.00  0.00     0.021 C 
BRANCH   2   3
ATOM      3  C   UNL A   1      31.180  26.961  23.279  1.00  0.00     0.116 C 
BRANCH   3   4
ATOM      4  N   UNL A   1      30.809  26.668  24.653  1.00  0.00    -0.352 N 
ATOM      5  C   UNL A   1      31.123  25.750  25.597  1.00  0.00     0.251 C 
ATOM      6  O   UNL A   1      30.564  25.909  26.688  1.00  0.00    -0.270 OA
ATOM      7  H   UNL A   1      30.148  27.316  24.990  1.00  0.00     0.163 HD
BRANCH   5   8
ATOM      8  C   UNL A   1      32.062  24.603  25.415  1.00  0.00     0.067 C 
ATOM      9  C   UNL A   1      34.788  21.399  25.102  1.00  0.00     0.026 A 
ATOM     10  C   UNL A   1      36.155  21.655  25.279  1.00  0.00     0.033 A 
ATOM     11  C   UNL A   1      33.888  22.471  25.267  1.00  0.00     0.135 A 
ATOM     12  C   UNL A   1      36.595  22.941  25.604  1.00  0.00     0.042 A 
ATOM     13  C   UNL A   1      34.326  23.761  25.584  1.00  0.00     0.019 A 
ATOM     14  O   UNL A   1      32.554  22.180  25.178  1.00  0.00    -0.475 OA
ATOM     15  Cl  UNL A   1      38.277  23.229  25.827  1.00  0.00    -0.084 Cl
ATOM     16  C   UNL A   1      35.691  23.992  25.756  1.00  0.00     0.032 A 
ATOM     17  C   UNL A   1      33.344  24.827  25.764  1.00  0.00     0.025 C 
ATOM     18  C   UNL A   1      31.662  23.271  24.854  1.00  0.00     0.314 C 
BRANCH   9  19
ATOM     19  C   UNL A   1      34.305  20.054  24.749  1.00  0.00    -0.014 A 
ATOM     20  C   UNL A   1      33.328  17.439  24.253  1.00  0.00     0.031 A 
ATOM     21  C   UNL A   1      32.455  18.524  24.311  1.00  0.00     0.026 A 
ATOM     22  C   UNL A   1      34.690  17.668  24.458  1.00  0.00     0.026 A 
ATOM     23  C   UNL A   1      32.937  19.817  24.539  1.00  0.00     0.011 A 
ATOM     24  C   UNL A   1      35.177  18.960  24.692  1.00  0.00     0.011 A 
BRANCH  20  25
ATOM     25  N   UNL A   1      32.840  16.151  24.121  1.00  0.00    -0.399 N 
ATOM     26  H   UNL A   1      31.869  15.993  24.101  1.00  0.00     0.156 HD
ATOM     27  H   UNL A   1      33.464  15.394  24.048  1.00  0.00     0.156 HD
ENDBRANCH  20  25
ENDBRANCH   9  19
BRANCH  18  28
ATOM     28  C   UNL A   1      31.429  23.302  23.333  1.00  0.00     0.429 C 
ATOM     29  F   UNL A   1      32.374  24.058  22.719  1.00  0.00    -0.167 F 
ATOM     30  F   UNL A   1      31.503  22.073  22.770  1.00  0.00    -0.167 F 
ATOM     31  F   UNL A   1      30.224  23.817  23.001  1.00  0.00    -0.167 F 
ENDBRANCH  18  28
ENDBRANCH   5   8
ENDBRANCH   3   4
ENDBRANCH   2   3
ENDBRANCH   1   2
BRANCH   1  32
ATOM     32  C   UNL A   1      32.953  29.666  25.093  1.00  0.00     0.002 C 
BRANCH  32  33
ATOM     33  C   UNL A   1      33.693  28.553  25.838  1.00  0.00     0.021 C 
BRANCH  33  34
ATOM     34  C   UNL A   1      33.674  28.673  27.358  1.00  0.00     0.116 C 
BRANCH  34  35
ATOM     35  N   UNL A   1      33.684  30.055  27.809  1.00  0.00    -0.352 N 
ATOM     36  C   UNL A   1      34.702  30.771  28.389  1.00  0.00     0.251 C 
ATOM     37  H   UNL A   1      32.842  30.548  27.680  1.00  0.00     0.163 HD
ATOM     38  O   UNL A   1      34.493  31.890  28.848  1.00  0.00    -0.269 OA
BRANCH  36  39
ATOM     39  C   UNL A   1      36.051  30.172  28.490  1.00  0.00     0.039 A 
ATOM     40  C   UNL A   1      36.466  29.545  29.666  1.00  0.00     0.014 A 
ATOM     41  C   UNL A   1      36.918  30.264  27.397  1.00  0.00     0.014 A 
ATOM     42  C   UNL A   1      37.793  29.155  29.806  1.00  0.00     0.010 A 
ATOM     43  C   UNL A   1      38.231  29.799  27.514  1.00  0.00     0.010 A 
ATOM     44  C   UNL A   1      38.693  29.286  28.737  1.00  0.00    -0.014 A 
BRANCH  44  45
ATOM     45  C   UNL A   1      40.114  28.896  28.924  1.00  0.00     0.031 A 
ATOM     46  C   UNL A   1      41.081  29.825  29.611  1.00  0.00     0.074 A 
ATOM     47  C   UNL A   1      40.524  27.679  28.516  1.00  0.00     0.049 A 
ATOM     48  N   UNL A   1      42.353  29.648  29.873  1.00  0.00    -0.248 NA
ATOM     49  C   UNL A   1      40.556  31.125  30.059  1.00  0.00     0.031 C 
ATOM     50  C   UNL A   1      39.683  26.686  27.844  1.00  0.00     0.029 A 
ATOM     51  N   UNL A   1      41.745  27.064  28.622  1.00  0.00    -0.354 N 
ATOM     52  C   UNL A   1      42.783  30.816  30.488  1.00  0.00     0.074 A 
ATOM     53  C   UNL A   1      41.644  31.707  30.544  1.00  0.00     0.031 C 
ATOM     54  C   UNL A   1      40.399  25.569  27.641  1.00  0.00     0.029 A 
ATOM     55  C   UNL A   1      41.762  25.788  28.114  1.00  0.00     0.049 A 
ATOM     56  H   UNL A   1      42.533  27.494  29.025  1.00  0.00     0.167 HD
ATOM     57  C   UNL A   1      44.014  31.118  30.970  1.00  0.00     0.037 A 
ATOM     58  C   UNL A   1      42.768  24.899  28.024  1.00  0.00     0.037 A 
ATOM     59  C   UNL A   1      45.138  30.218  30.947  1.00  0.00     0.049 A 
ATOM     60  C   UNL A   1      44.129  25.278  28.533  1.00  0.00     0.074 A 
ATOM     61  C   UNL A   1      46.408  30.412  31.463  1.00  0.00     0.029 A 
ATOM     62  N   UNL A   1      45.126  28.954  30.380  1.00  0.00    -0.354 N 
ATOM     63  N   UNL A   1      44.509  26.372  29.145  1.00  0.00    -0.248 NA
ATOM     64  C   UNL A   1      45.204  24.298  28.326  1.00  0.00     0.031 C 
ATOM     65  C   UNL A   1      47.178  29.282  31.169  1.00  0.00     0.029 A 
ATOM     66  C   UNL A   1      46.376  28.368  30.506  1.00  0.00     0.049 A 
ATOM     67  H   UNL A   1      44.347  28.535  29.949  1.00  0.00     0.167 HD
ATOM     68  C   UNL A   1      45.860  26.205  29.414  1.00  0.00     0.074 A 
ATOM     69  C   UNL A   1      46.228  24.895  28.919  1.00  0.00     0.031 C 
ATOM     70  C   UNL A   1      46.723  27.062  30.014  1.00  0.00     0.037 A 
BRANCH  57  71
ATOM     71  C   UNL A   1      44.221  32.485  31.550  1.00  0.00     0.057 A 
ATOM     72  C   UNL A   1      44.697  33.532  30.749  1.00  0.00     0.134 A 
ATOM     73  C   UNL A   1      44.007  32.756  32.907  1.00  0.00     0.134 A 
ATOM     74  F   UNL A   1      44.928  33.336  29.442  1.00  0.00    -0.206 F 
ATOM     75  C   UNL A   1      44.959  34.796  31.278  1.00  0.00     0.040 A 
ATOM     76  C   UNL A   1      44.246  34.023  33.444  1.00  0.00     0.040 A 
ATOM     77  F   UNL A   1      43.541  31.801  33.726  1.00  0.00    -0.206 F 
ATOM     78  C   UNL A   1      44.731  35.046  32.630  1.00  0.00     0.006 A 
ENDBRANCH  57  71
BRANCH  58  79
ATOM     79  C   UNL A   1      42.541  23.565  27.412  1.00  0.00     0.057 A 
ATOM     80  C   UNL A   1      42.651  23.368  26.030  1.00  0.00     0.134 A 
ATOM     81  C   UNL A   1      42.253  22.448  28.204  1.00  0.00     0.134 A 
ATOM     82  F   UNL A   1      42.924  24.400  25.218  1.00  0.00    -0.206 F 
ATOM     83  C   UNL A   1      42.482  22.107  25.457  1.00  0.00     0.040 A 
ATOM     84  C   UNL A   1      42.108  21.177  27.646  1.00  0.00     0.040 A 
ATOM     85  F   UNL A   1      42.157  22.570  29.535  1.00  0.00    -0.206 F 
ATOM     86  C   UNL A   1      42.221  21.005  26.268  1.00  0.00     0.006 A 
ENDBRANCH  58  79
BRANCH  70  87
ATOM     87  C   UNL A   1      48.134  26.587  30.189  1.00  0.00     0.057 A 
ATOM     88  C   UNL A   1      48.504  25.854  31.323  1.00  0.00     0.134 A 
ATOM     89  C   UNL A   1      49.125  26.859  29.239  1.00  0.00     0.134 A 
ATOM     90  F   UNL A   1      47.601  25.565  32.273  1.00  0.00    -0.206 F 
ATOM     91  C   UNL A   1      49.812  25.404  31.504  1.00  0.00     0.040 A 
ATOM     92  C   UNL A   1      50.432  26.393  29.396  1.00  0.00     0.040 A 
ATOM     93  F   UNL A   1      48.829  27.541  28.123  1.00  0.00    -0.206 F 
ATOM     94  C   UNL A   1      50.778  25.667  30.535  1.00  0.00     0.006 A 
ENDBRANCH  70  87
ENDBRANCH  44  45
ENDBRANCH  36  39
ENDBRANCH  34  35
ENDBRANCH  33  34
ENDBRANCH  32  33
ENDBRANCH   1  32
TORSDOF 16
ENDMDL
MODEL 2
REMARK VINA RESULT:     -12.5      0.445      5.936
REMARK SMILES Nc1ccc(-c2cc(Cl)cc3c2O[C@H](C(F)(F)F)C(C(=O)NCCCCCCNC(=O)c2ccc(-c4c5nc(c(-c6c(F)cccc6F)c6ccc([nH]6)c(-c6c(F)cccc6F)c6nc(c(-c7c(F)cccc7F)c7ccc4[nH]7)C=C6)C=C5)cc2)=C3)cc1
REMARK SMILES IDX 25 1 24 2 23 3 22 4 20 5 21 6 19 8 6 9 7 10 12 11 8 12 11 13
REMARK SMILES IDX 13 14 9 15 10 16 86 17 14 18 5 19 2 20 3 21 88 22 4 23 87 24
REMARK SMILES IDX 1 25 15 28 16 29 17 30 18 31 26 32 27 33 28 34 29 35 30 36
REMARK SMILES IDX 31 38 32 39 33 40 85 41 34 42 84 43 35 44 36 45 37 46 78 47
REMARK SMILES IDX 38 48 83 49 77 50 79 51 39 52 82 53 76 54 75 55 40 57 66 58
REMARK SMILES IDX 49 59 65 60 50 61 53 62 64 63 80 64 51 65 52 66 63 68 81 69
REMARK SMILES IDX 54 70 41 71 42 72 47 73 43 74 44 75 46 76 48 77 45 78 67 79
REMARK SMILES IDX 68 80 73 81 69 82 70 83 72 84 74 85 71 86 55 87 56 88 61 89
REMARK SMILES IDX 57 90 58 91 60 92 62 93 59 94
REMARK H PARENT 22 7 1 26 1 27 29 37 79 56 53 67
REMARK Flexibility Score: inf
ROOT
ATOM      1  C   UNL A   1      31.595  29.213  24.457  1.00  0.00     0.002 C 
ENDROOT
BRANCH   1   2
ATOM      2  C   UNL A   1      31.781  28.324  23.223  1.00  0.00     0.021 C 
BRANCH   2   3
ATOM      3  C   UNL A   1      31.260  26.900  23.397  1.00  0.00     0.116 C 
BRANCH   3   4
ATOM      4  N   UNL A   1      30.893  26.620  24.774  1.00  0.00    -0.352 N 
ATOM      5  C   UNL A   1      31.203  25.707  25.724  1.00  0.00     0.251 C 
ATOM      6  O   UNL A   1      30.650  25.878  26.816  1.00  0.00    -0.270 OA
ATOM      7  H   UNL A   1      30.238  27.276  25.110  1.00  0.00     0.163 HD
BRANCH   5   8
ATOM      8  C   UNL A   1      32.132  24.551  25.546  1.00  0.00     0.067 C 
ATOM      9  C   UNL A   1      34.829  21.321  25.245  1.00  0.00     0.026 A 
ATOM     10  C   UNL A   1      36.197  21.564  25.429  1.00  0.00     0.033 A 
ATOM     11  C   UNL A   1      33.938  22.402  25.407  1.00  0.00     0.135 A 
ATOM     12  C   UNL A   1      36.648  22.846  25.757  1.00  0.00     0.042 A 
ATOM     13  C   UNL A   1      34.387  23.687  25.726  1.00  0.00     0.019 A 
ATOM     14  O   UNL A   1      32.602  22.124  25.311  1.00  0.00    -0.475 OA
ATOM     15  Cl  UNL A   1      38.332  23.118  25.987  1.00  0.00    -0.084 Cl
ATOM     16  C   UNL A   1      35.753  23.906  25.904  1.00  0.00     0.032 A 
ATOM     17  C   UNL A   1      33.414  24.763  25.901  1.00  0.00     0.025 C 
ATOM     18  C   UNL A   1      31.721  23.223  24.983  1.00  0.00     0.314 C 
BRANCH   9  19
ATOM     19  C   UNL A   1      34.334  19.981  24.890  1.00  0.00    -0.014 A 
ATOM     20  C   UNL A   1      33.367  17.363  24.393  1.00  0.00     0.031 A 
ATOM     21  C   UNL A   1      32.484  18.408  24.658  1.00  0.00     0.026 A 
ATOM     22  C   UNL A   1      34.737  17.632  24.392  1.00  0.00     0.026 A 
ATOM     23  C   UNL A   1      32.958  19.703  24.888  1.00  0.00     0.011 A 
ATOM     24  C   UNL A   1      35.218  18.927  24.626  1.00  0.00     0.011 A 
BRANCH  20  25
ATOM     25  N   UNL A   1      32.902  16.066  24.260  1.00  0.00    -0.399 N 
ATOM     26  H   UNL A   1      31.935  15.886  24.279  1.00  0.00     0.156 HD
ATOM     27  H   UNL A   1      33.539  15.324  24.148  1.00  0.00     0.156 HD
ENDBRANCH  20  25
ENDBRANCH   9  19
BRANCH  18  28
ATOM     28  C   UNL A   1      31.497  23.256  23.461  1.00  0.00     0.429 C 
ATOM     29  F   UNL A   1      31.565  22.006  22.940  1.00  0.00    -0.167 F 
ATOM     30  F   UNL A   1      30.278  23.741  23.125  1.00  0.00    -0.167 F 
ATOM     31  F   UNL A   1      32.413  24.012  22.816  1.00  0.00    -0.167 F 
ENDBRANCH  18  28
ENDBRANCH   5   8
ENDBRANCH   3   4
ENDBRANCH   2   3
ENDBRANCH   1   2
BRANCH   1  32
ATOM     32  C   UNL A   1      32.887  29.677  25.142  1.00  0.00     0.002 C 
BRANCH  32  33
ATOM     33  C   UNL A   1      33.762  28.567  25.731  1.00  0.00     0.021 C 
BRANCH  33  34
ATOM     34  C   UNL A   1      33.878  28.579  27.251  1.00  0.00     0.116 C 
BRANCH  34  35
ATOM     35  N   UNL A   1      33.867  29.925  27.802  1.00  0.00    -0.352 N 
ATOM     36  C   UNL A   1      34.870  30.608  28.445  1.00  0.00     0.251 C 
ATOM     37  H   UNL A   1      33.020  30.416  27.699  1.00  0.00     0.163 HD
ATOM     38  O   UNL A   1      34.642  31.687  28.981  1.00  0.00    -0.269 OA
BRANCH  36  39
ATOM     39  C   UNL A   1      36.224  30.018  28.518  1.00  0.00     0.039 A 
ATOM     40  C   UNL A   1      36.654  29.362  29.673  1.00  0.00     0.014 A 
ATOM     41  C   UNL A   1      37.081  30.147  27.421  1.00  0.00     0.014 A 
ATOM     42  C   UNL A   1      37.987  28.980  29.791  1.00  0.00     0.010 A 
ATOM     43  C   UNL A   1      38.399  29.690  27.514  1.00  0.00     0.010 A 
ATOM     44  C   UNL A   1      38.876  29.147  28.718  1.00  0.00    -0.014 A 
BRANCH  44  45
ATOM     45  C   UNL A   1      40.302  28.765  28.883  1.00  0.00     0.031 A 
ATOM     46  C   UNL A   1      40.793  27.417  28.426  1.00  0.00     0.074 A 
ATOM     47  C   UNL A   1      41.168  29.657  29.403  1.00  0.00     0.049 A 
ATOM     48  N   UNL A   1      42.004  26.918  28.478  1.00  0.00    -0.248 NA
ATOM     49  C   UNL A   1      39.798  26.506  27.838  1.00  0.00     0.031 C 
ATOM     50  C   UNL A   1      40.818  30.998  29.876  1.00  0.00     0.029 A 
ATOM     51  N   UNL A   1      42.522  29.578  29.603  1.00  0.00    -0.354 N 
ATOM     52  C   UNL A   1      41.911  25.633  27.959  1.00  0.00     0.074 A 
ATOM     53  C   UNL A   1      40.521  25.418  27.614  1.00  0.00     0.031 C 
ATOM     54  C   UNL A   1      41.934  31.632  30.267  1.00  0.00     0.029 A 
ATOM     55  C   UNL A   1      43.067  30.724  30.128  1.00  0.00     0.049 A 
ATOM     56  H   UNL A   1      43.053  28.777  29.390  1.00  0.00     0.167 HD
ATOM     57  C   UNL A   1      42.893  24.718  27.777  1.00  0.00     0.037 A 
ATOM     58  C   UNL A   1      44.337  31.007  30.474  1.00  0.00     0.037 A 
ATOM     59  C   UNL A   1      44.282  24.945  28.086  1.00  0.00     0.049 A 
ATOM     60  C   UNL A   1      45.396  29.957  30.295  1.00  0.00     0.074 A 
ATOM     61  C   UNL A   1      45.359  24.099  27.883  1.00  0.00     0.029 A 
ATOM     62  N   UNL A   1      44.784  26.100  28.661  1.00  0.00    -0.354 N 
ATOM     63  N   UNL A   1      45.296  28.762  29.768  1.00  0.00    -0.248 NA
ATOM     64  C   UNL A   1      46.744  30.296  30.773  1.00  0.00     0.031 C 
ATOM     65  C   UNL A   1      46.508  24.727  28.375  1.00  0.00     0.029 A 
ATOM     66  C   UNL A   1      46.152  25.979  28.848  1.00  0.00     0.049 A 
ATOM     67  H   UNL A   1      44.249  26.890  28.902  1.00  0.00     0.167 HD
ATOM     68  C   UNL A   1      46.571  28.214  29.832  1.00  0.00     0.074 A 
ATOM     69  C   UNL A   1      47.429  29.216  30.428  1.00  0.00     0.031 C 
ATOM     70  C   UNL A   1      46.992  26.988  29.437  1.00  0.00     0.037 A 
BRANCH  57  71
ATOM     71  C   UNL A   1      42.505  23.374  27.234  1.00  0.00     0.057 A 
ATOM     72  C   UNL A   1      42.085  22.354  28.097  1.00  0.00     0.134 A 
ATOM     73  C   UNL A   1      42.601  23.069  25.871  1.00  0.00     0.134 A 
ATOM     74  F   UNL A   1      41.978  22.580  29.416  1.00  0.00    -0.206 F 
ATOM     75  C   UNL A   1      41.780  21.077  27.625  1.00  0.00     0.040 A 
ATOM     76  C   UNL A   1      42.279  21.800  25.384  1.00  0.00     0.040 A 
ATOM     77  F   UNL A   1      42.986  24.004  24.990  1.00  0.00    -0.206 F 
ATOM     78  C   UNL A   1      41.874  20.798  26.263  1.00  0.00     0.006 A 
ENDBRANCH  57  71
BRANCH  58  79
ATOM     79  C   UNL A   1      44.684  32.334  31.042  1.00  0.00     0.057 A 
ATOM     80  C   UNL A   1      45.055  33.405  30.220  1.00  0.00     0.134 A 
ATOM     81  C   UNL A   1      44.608  32.571  32.419  1.00  0.00     0.134 A 
ATOM     82  F   UNL A   1      45.147  33.241  28.893  1.00  0.00    -0.206 F 
ATOM     83  C   UNL A   1      45.338  34.666  30.747  1.00  0.00     0.040 A 
ATOM     84  C   UNL A   1      44.863  33.833  32.957  1.00  0.00     0.040 A 
ATOM     85  F   UNL A   1      44.238  31.589  33.254  1.00  0.00    -0.206 F 
ATOM     86  C   UNL A   1      45.232  34.884  32.119  1.00  0.00     0.006 A 
ENDBRANCH  58  79
BRANCH  70  87
ATOM     87  C   UNL A   1      48.450  26.686  29.612  1.00  0.00     0.057 A 
ATOM     88  C   UNL A   1      48.908  26.024  30.757  1.00  0.00     0.134 A 
ATOM     89  C   UNL A   1      49.398  27.054  28.650  1.00  0.00     0.134 A 
ATOM     90  F   UNL A   1      48.050  25.649  31.718  1.00  0.00    -0.206 F 
ATOM     91  C   UNL A   1      50.261  25.734  30.938  1.00  0.00     0.040 A 
ATOM     92  C   UNL A   1      50.751  26.748  28.808  1.00  0.00     0.040 A 
ATOM     93  F   UNL A   1      49.019  27.675  27.524  1.00  0.00    -0.206 F 
ATOM     94  C   UNL A   1      51.185  26.090  29.957  1.00  0.00     0.006 A 
ENDBRANCH  70  87
ENDBRANCH  44  45
ENDBRANCH  36  39
ENDBRANCH  34  35
ENDBRANCH  33  34
ENDBRANCH  32  33
ENDBRANCH   1  32
TORSDOF 16
ENDMDL
MODEL 3
REMARK VINA RESULT:     -12.4      1.680      6.217
REMARK SMILES Nc1ccc(-c2cc(Cl)cc3c2O[C@H](C(F)(F)F)C(C(=O)NCCCCCCNC(=O)c2ccc(-c4c5nc(c(-c6c(F)cccc6F)c6ccc([nH]6)c(-c6c(F)cccc6F)c6nc(c(-c7c(F)cccc7F)c7ccc4[nH]7)C=C6)C=C5)cc2)=C3)cc1
REMARK SMILES IDX 25 1 24 2 23 3 22 4 20 5 21 6 19 8 6 9 7 10 12 11 8 12 11 13
REMARK SMILES IDX 13 14 9 15 10 16 86 17 14 18 5 19 2 20 3 21 88 22 4 23 87 24
REMARK SMILES IDX 1 25 15 28 16 29 17 30 18 31 26 32 27 33 28 34 29 35 30 36
REMARK SMILES IDX 31 38 32 39 33 40 85 41 34 42 84 43 35 44 36 45 37 46 78 47
REMARK SMILES IDX 38 48 83 49 77 50 79 51 39 52 82 53 76 54 75 55 40 57 66 58
REMARK SMILES IDX 49 59 65 60 50 61 53 62 64 63 80 64 51 65 52 66 63 68 81 69
REMARK SMILES IDX 54 70 41 71 42 72 47 73 43 74 44 75 46 76 48 77 45 78 67 79
REMARK SMILES IDX 68 80 73 81 69 82 70 83 72 84 74 85 71 86 55 87 56 88 61 89
REMARK SMILES IDX 57 90 58 91 60 92 62 93 59 94
REMARK H PARENT 22 7 1 26 1 27 29 37 79 56 53 67
REMARK Flexibility Score: inf
ROOT
ATOM      1  C   UNL A   1      31.591  29.857  25.448  1.00  0.00     0.002 C 
ENDROOT
BRANCH   1   2
ATOM      2  C   UNL A   1      32.321  29.019  24.393  1.00  0.00     0.021 C 
BRANCH   2   3
ATOM      3  C   UNL A   1      31.525  27.817  23.891  1.00  0.00     0.116 C 
BRANCH   3   4
ATOM      4  N   UNL A   1      30.754  27.195  24.954  1.00  0.00    -0.352 N 
ATOM      5  C   UNL A   1      30.780  26.040  25.661  1.00  0.00     0.251 C 
ATOM      6  O   UNL A   1      29.907  25.939  26.531  1.00  0.00    -0.270 OA
ATOM      7  H   UNL A   1      30.007  27.771  25.238  1.00  0.00     0.163 HD
BRANCH   5   8
ATOM      8  C   UNL A   1      31.753  24.924  25.466  1.00  0.00     0.067 C 
ATOM      9  C   UNL A   1      34.574  21.808  25.117  1.00  0.00     0.026 A 
ATOM     10  C   UNL A   1      35.933  22.103  25.299  1.00  0.00     0.033 A 
ATOM     11  C   UNL A   1      33.642  22.850  25.294  1.00  0.00     0.135 A 
ATOM     12  C   UNL A   1      36.334  23.398  25.640  1.00  0.00     0.042 A 
ATOM     13  C   UNL A   1      34.041  24.149  25.627  1.00  0.00     0.019 A 
ATOM     14  O   UNL A   1      32.317  22.521  25.200  1.00  0.00    -0.475 OA
ATOM     15  Cl  UNL A   1      38.007  23.734  25.867  1.00  0.00    -0.084 Cl
ATOM     16  C   UNL A   1      35.398  24.420  25.803  1.00  0.00     0.032 A 
ATOM     17  C   UNL A   1      33.027  25.183  25.818  1.00  0.00     0.025 C 
ATOM     18  C   UNL A   1      31.393  23.588  24.888  1.00  0.00     0.314 C 
BRANCH   9  19
ATOM     19  C   UNL A   1      34.132  20.453  24.747  1.00  0.00    -0.014 A 
ATOM     20  C   UNL A   1      33.375  17.866  23.871  1.00  0.00     0.031 A 
ATOM     21  C   UNL A   1      34.621  18.081  24.457  1.00  0.00     0.026 A 
ATOM     22  C   UNL A   1      32.516  18.956  23.713  1.00  0.00     0.026 A 
ATOM     23  C   UNL A   1      34.990  19.353  24.905  1.00  0.00     0.011 A 
ATOM     24  C   UNL A   1      32.882  20.233  24.155  1.00  0.00     0.011 A 
BRANCH  20  25
ATOM     25  N   UNL A   1      33.050  16.629  23.344  1.00  0.00    -0.399 N 
ATOM     26  H   UNL A   1      33.735  16.098  22.877  1.00  0.00     0.156 HD
ATOM     27  H   UNL A   1      32.134  16.280  23.435  1.00  0.00     0.156 HD
ENDBRANCH  20  25
ENDBRANCH   9  19
BRANCH  18  28
ATOM     28  C   UNL A   1      31.161  23.630  23.368  1.00  0.00     0.429 C 
ATOM     29  F   UNL A   1      32.024  24.493  22.775  1.00  0.00    -0.167 F 
ATOM     30  F   UNL A   1      31.361  22.429  22.776  1.00  0.00    -0.167 F 
ATOM     31  F   UNL A   1      29.910  24.026  23.042  1.00  0.00    -0.167 F 
ENDBRANCH  18  28
ENDBRANCH   5   8
ENDBRANCH   3   4
ENDBRANCH   2   3
ENDBRANCH   1   2
BRANCH   1  32
ATOM     32  C   UNL A   1      32.246  29.895  26.835  1.00  0.00     0.002 C 
BRANCH  32  33
ATOM     33  C   UNL A   1      33.246  28.774  27.128  1.00  0.00     0.021 C 
BRANCH  33  34
ATOM     34  C   UNL A   1      34.673  29.240  27.394  1.00  0.00     0.116 C 
BRANCH  34  35
ATOM     35  N   UNL A   1      34.755  30.196  28.487  1.00  0.00    -0.352 N 
ATOM     36  C   UNL A   1      35.807  30.464  29.328  1.00  0.00     0.251 C 
ATOM     37  H   UNL A   1      33.941  30.726  28.646  1.00  0.00     0.163 HD
ATOM     38  O   UNL A   1      35.655  31.201  30.297  1.00  0.00    -0.269 OA
BRANCH  36  39
ATOM     39  C   UNL A   1      37.120  29.832  29.079  1.00  0.00     0.039 A 
ATOM     40  C   UNL A   1      37.809  29.191  30.111  1.00  0.00     0.014 A 
ATOM     41  C   UNL A   1      37.678  29.906  27.800  1.00  0.00     0.014 A 
ATOM     42  C   UNL A   1      39.119  28.769  29.905  1.00  0.00     0.010 A 
ATOM     43  C   UNL A   1      38.965  29.409  27.576  1.00  0.00     0.010 A 
ATOM     44  C   UNL A   1      39.715  28.881  28.639  1.00  0.00    -0.014 A 
BRANCH  44  45
ATOM     45  C   UNL A   1      41.126  28.456  28.455  1.00  0.00     0.031 A 
ATOM     46  C   UNL A   1      41.457  27.040  28.064  1.00  0.00     0.074 A 
ATOM     47  C   UNL A   1      42.112  29.365  28.593  1.00  0.00     0.049 A 
ATOM     48  N   UNL A   1      42.629  26.495  27.847  1.00  0.00    -0.248 NA
ATOM     49  C   UNL A   1      40.329  26.110  27.899  1.00  0.00     0.031 C 
ATOM     50  C   UNL A   1      41.921  30.770  28.962  1.00  0.00     0.029 A 
ATOM     51  N   UNL A   1      43.467  29.248  28.422  1.00  0.00    -0.354 N 
ATOM     52  C   UNL A   1      42.382  25.162  27.549  1.00  0.00     0.074 A 
ATOM     53  C   UNL A   1      40.950  24.970  27.631  1.00  0.00     0.031 C 
ATOM     54  C   UNL A   1      43.108  31.394  28.943  1.00  0.00     0.029 A 
ATOM     55  C   UNL A   1      44.148  30.425  28.620  1.00  0.00     0.049 A 
ATOM     56  H   UNL A   1      43.910  28.403  28.180  1.00  0.00     0.167 HD
ATOM     57  C   UNL A   1      43.267  24.186  27.228  1.00  0.00     0.037 A 
ATOM     58  C   UNL A   1      45.467  30.689  28.562  1.00  0.00     0.037 A 
ATOM     59  C   UNL A   1      44.688  24.385  27.109  1.00  0.00     0.049 A 
ATOM     60  C   UNL A   1      46.423  29.577  28.240  1.00  0.00     0.074 A 
ATOM     61  C   UNL A   1      45.658  23.471  26.732  1.00  0.00     0.029 A 
ATOM     62  N   UNL A   1      45.342  25.579  27.365  1.00  0.00    -0.354 N 
ATOM     63  N   UNL A   1      46.169  28.331  27.925  1.00  0.00    -0.248 NA
ATOM     64  C   UNL A   1      47.855  29.910  28.280  1.00  0.00     0.031 C 
ATOM     65  C   UNL A   1      46.904  24.102  26.802  1.00  0.00     0.029 A 
ATOM     66  C   UNL A   1      46.707  25.419  27.184  1.00  0.00     0.049 A 
ATOM     67  H   UNL A   1      44.903  26.417  27.637  1.00  0.00     0.167 HD
ATOM     68  C   UNL A   1      47.405  27.737  27.709  1.00  0.00     0.074 A 
ATOM     69  C   UNL A   1      48.406  28.764  27.907  1.00  0.00     0.031 C 
ATOM     70  C   UNL A   1      47.687  26.453  27.379  1.00  0.00     0.037 A 
BRANCH  57  71
ATOM     71  C   UNL A   1      42.729  22.805  26.995  1.00  0.00     0.057 A 
ATOM     72  C   UNL A   1      42.343  22.003  28.077  1.00  0.00     0.134 A 
ATOM     73  C   UNL A   1      42.647  22.246  25.714  1.00  0.00     0.134 A 
ATOM     74  F   UNL A   1      42.403  22.477  29.331  1.00  0.00    -0.206 F 
ATOM     75  C   UNL A   1      41.900  20.692  27.893  1.00  0.00     0.040 A 
ATOM     76  C   UNL A   1      42.187  20.943  25.516  1.00  0.00     0.040 A 
ATOM     77  F   UNL A   1      42.991  22.965  24.635  1.00  0.00    -0.206 F 
ATOM     78  C   UNL A   1      41.818  20.159  26.608  1.00  0.00     0.006 A 
ENDBRANCH  57  71
BRANCH  58  79
ATOM     79  C   UNL A   1      45.972  32.059  28.832  1.00  0.00     0.057 A 
ATOM     80  C   UNL A   1      46.144  32.989  27.800  1.00  0.00     0.134 A 
ATOM     81  C   UNL A   1      46.250  32.481  30.136  1.00  0.00     0.134 A 
ATOM     82  F   UNL A   1      45.894  32.644  26.528  1.00  0.00    -0.206 F 
ATOM     83  C   UNL A   1      46.575  34.291  28.055  1.00  0.00     0.040 A 
ATOM     84  C   UNL A   1      46.658  33.788  30.408  1.00  0.00     0.040 A 
ATOM     85  F   UNL A   1      46.084  31.641  31.168  1.00  0.00    -0.206 F 
ATOM     86  C   UNL A   1      46.823  34.696  29.365  1.00  0.00     0.006 A 
ENDBRANCH  58  79
BRANCH  70  87
ATOM     87  C   UNL A   1      49.133  26.108  27.185  1.00  0.00     0.057 A 
ATOM     88  C   UNL A   1      49.737  26.244  25.930  1.00  0.00     0.134 A 
ATOM     89  C   UNL A   1      49.925  25.637  28.239  1.00  0.00     0.134 A 
ATOM     90  F   UNL A   1      49.031  26.685  24.878  1.00  0.00    -0.206 F 
ATOM     91  C   UNL A   1      51.081  25.927  25.730  1.00  0.00     0.040 A 
ATOM     92  C   UNL A   1      51.277  25.341  28.059  1.00  0.00     0.040 A 
ATOM     93  F   UNL A   1      49.409  25.502  29.470  1.00  0.00    -0.206 F 
ATOM     94  C   UNL A   1      51.857  25.481  26.799  1.00  0.00     0.006 A 
ENDBRANCH  70  87
ENDBRANCH  44  45
ENDBRANCH  36  39
ENDBRANCH  34  35
ENDBRANCH  33  34
ENDBRANCH  32  33
ENDBRANCH   1  32
TORSDOF 16
ENDMDL
