MODEL 1
REMARK VINA RESULT:     -11.1      0.000      0.000
REMARK SMILES O=C(Cc1ccccc1Nc1c(F)cccc1C(F)(F)F)NCCCCCCNC(=O)c1ccc(-c2c3nc(c(-c4c(F)cccc4F)c4ccc([nH]4)c(-c4c(F)cccc4F)c4nc(c(-c5c(F)cccc5F)c5ccc2[nH]5)C=C4)C=C3)cc1
REMARK SMILES IDX 24 1 23 2 22 3 1 4 2 5 3 7 4 8 5 9 9 10 6 11 8 12 7 13 10 14
REMARK SMILES IDX 11 16 12 17 17 18 13 19 14 20 16 21 15 22 18 23 19 24 20 25
REMARK SMILES IDX 21 26 25 27 26 28 27 29 28 30 29 31 30 32 31 34 32 35 33 36
REMARK SMILES IDX 85 37 34 38 84 39 35 40 36 41 37 42 78 43 38 44 83 45 77 46
REMARK SMILES IDX 79 47 39 48 82 49 76 50 75 51 40 53 66 54 49 55 65 56 50 57
REMARK SMILES IDX 53 58 64 59 80 60 51 61 52 62 63 64 81 65 54 66 41 67 42 68
REMARK SMILES IDX 47 69 43 70 44 71 46 72 48 73 45 74 67 75 68 76 73 77 69 78
REMARK SMILES IDX 70 79 72 80 74 81 71 82 55 83 56 84 61 85 57 86 58 87 60 88
REMARK SMILES IDX 62 89 59 90
REMARK H PARENT 22 6 10 15 29 33 79 52 53 63
REMARK Flexibility Score: inf
ROOT
ATOM      1  C   UNL A   1      35.434  31.375  28.001  1.00  0.00     0.021 C 
ENDROOT
BRANCH   1   2
ATOM      2  C   UNL A   1      35.189  29.865  27.977  1.00  0.00     0.116 C 
BRANCH   2   3
ATOM      3  N   UNL A   1      33.821  29.529  27.629  1.00  0.00    -0.356 N 
ATOM      4  O   UNL A   1      34.338  28.714  25.544  1.00  0.00    -0.275 OA
ATOM      5  C   UNL A   1      33.507  28.941  26.416  1.00  0.00     0.224 C 
ATOM      6  H   UNL A   1      33.100  29.725  28.271  1.00  0.00     0.163 HD
BRANCH   5   7
ATOM      7  C   UNL A   1      32.040  28.584  26.288  1.00  0.00     0.137 C 
BRANCH   7   8
ATOM      8  C   UNL A   1      31.504  28.514  24.869  1.00  0.00    -0.015 A 
ATOM      9  C   UNL A   1      30.608  29.534  24.481  1.00  0.00     0.006 A 
ATOM     10  C   UNL A   1      31.766  27.456  23.967  1.00  0.00     0.042 A 
ATOM     11  C   UNL A   1      29.965  29.507  23.246  1.00  0.00     0.000 A 
ATOM     12  C   UNL A   1      31.077  27.437  22.739  1.00  0.00     0.026 A 
ATOM     13  C   UNL A   1      30.190  28.450  22.378  1.00  0.00     0.002 A 
BRANCH  10  14
ATOM     14  N   UNL A   1      32.645  26.401  24.281  1.00  0.00    -0.352 N 
ATOM     15  H   UNL A   1      33.471  26.657  24.752  1.00  0.00     0.167 HD
BRANCH  14  16
ATOM     16  C   UNL A   1      32.495  25.023  24.008  1.00  0.00     0.087 A 
ATOM     17  C   UNL A   1      33.066  24.505  22.830  1.00  0.00     0.147 A 
ATOM     18  C   UNL A   1      31.633  24.196  24.753  1.00  0.00     0.082 A 
ATOM     19  F   UNL A   1      33.805  25.303  22.043  1.00  0.00    -0.205 F 
ATOM     20  C   UNL A   1      32.844  23.194  22.416  1.00  0.00     0.041 A 
ATOM     21  C   UNL A   1      31.422  22.865  24.328  1.00  0.00     0.015 A 
ATOM     22  C   UNL A   1      32.019  22.369  23.169  1.00  0.00     0.004 A 
BRANCH  18  23
ATOM     23  C   UNL A   1      30.929  24.675  26.001  1.00  0.00     0.418 C 
ATOM     24  F   UNL A   1      30.356  23.645  26.697  1.00  0.00    -0.166 F 
ATOM     25  F   UNL A   1      31.773  25.274  26.883  1.00  0.00    -0.166 F 
ATOM     26  F   UNL A   1      29.911  25.544  25.768  1.00  0.00    -0.166 F 
ENDBRANCH  18  23
ENDBRANCH  14  16
ENDBRANCH  10  14
ENDBRANCH   7   8
ENDBRANCH   5   7
ENDBRANCH   2   3
ENDBRANCH   1   2
BRANCH   1  27
ATOM     27  C   UNL A   1      34.170  32.241  28.063  1.00  0.00     0.002 C 
BRANCH  27  28
ATOM     28  C   UNL A   1      34.269  33.466  28.969  1.00  0.00     0.002 C 
BRANCH  28  29
ATOM     29  C   UNL A   1      33.255  34.575  28.718  1.00  0.00     0.021 C 
BRANCH  29  30
ATOM     30  C   UNL A   1      33.529  35.868  29.473  1.00  0.00     0.116 C 
BRANCH  30  31
ATOM     31  N   UNL A   1      32.523  36.172  30.482  1.00  0.00    -0.352 N 
ATOM     32  C   UNL A   1      32.495  35.825  31.814  1.00  0.00     0.251 C 
ATOM     33  H   UNL A   1      31.754  36.701  30.167  1.00  0.00     0.163 HD
ATOM     34  O   UNL A   1      31.510  36.063  32.498  1.00  0.00    -0.269 OA
BRANCH  32  35
ATOM     35  C   UNL A   1      33.655  35.119  32.402  1.00  0.00     0.039 A 
ATOM     36  C   UNL A   1      33.495  33.804  32.847  1.00  0.00     0.014 A 
ATOM     37  C   UNL A   1      34.907  35.735  32.467  1.00  0.00     0.014 A 
ATOM     38  C   UNL A   1      34.609  33.079  33.274  1.00  0.00     0.010 A 
ATOM     39  C   UNL A   1      36.027  34.986  32.802  1.00  0.00     0.010 A 
ATOM     40  C   UNL A   1      35.891  33.650  33.208  1.00  0.00    -0.014 A 
BRANCH  40  41
ATOM     41  C   UNL A   1      37.107  32.872  33.552  1.00  0.00     0.031 A 
ATOM     42  C   UNL A   1      37.853  33.165  34.824  1.00  0.00     0.074 A 
ATOM     43  C   UNL A   1      37.596  31.972  32.677  1.00  0.00     0.049 A 
ATOM     44  N   UNL A   1      38.988  32.674  35.250  1.00  0.00    -0.248 NA
ATOM     45  C   UNL A   1      37.262  34.176  35.715  1.00  0.00     0.031 C 
ATOM     46  C   UNL A   1      37.005  31.644  31.378  1.00  0.00     0.029 A 
ATOM     47  N   UNL A   1      38.713  31.177  32.742  1.00  0.00    -0.354 N 
ATOM     48  C   UNL A   1      39.259  33.334  36.442  1.00  0.00     0.074 A 
ATOM     49  C   UNL A   1      38.201  34.300  36.642  1.00  0.00     0.031 C 
ATOM     50  C   UNL A   1      37.751  30.702  30.780  1.00  0.00     0.029 A 
ATOM     51  C   UNL A   1      38.890  30.384  31.635  1.00  0.00     0.049 A 
ATOM     52  H   UNL A   1      39.328  31.177  33.510  1.00  0.00     0.167 HD
ATOM     53  C   UNL A   1      40.282  33.137  37.307  1.00  0.00     0.037 A 
ATOM     54  C   UNL A   1      39.864  29.503  31.340  1.00  0.00     0.037 A 
ATOM     55  C   UNL A   1      41.312  32.149  37.125  1.00  0.00     0.049 A 
ATOM     56  C   UNL A   1      40.974  29.276  32.327  1.00  0.00     0.074 A 
ATOM     57  C   UNL A   1      42.348  31.815  37.980  1.00  0.00     0.029 A 
ATOM     58  N   UNL A   1      41.433  31.333  36.010  1.00  0.00    -0.354 N 
ATOM     59  N   UNL A   1      41.179  29.854  33.485  1.00  0.00    -0.248 NA
ATOM     60  C   UNL A   1      41.983  28.269  31.971  1.00  0.00     0.031 C 
ATOM     61  C   UNL A   1      43.117  30.820  37.366  1.00  0.00     0.029 A 
ATOM     62  C   UNL A   1      42.536  30.506  36.147  1.00  0.00     0.049 A 
ATOM     63  H   UNL A   1      40.824  31.340  35.237  1.00  0.00     0.167 HD
ATOM     64  C   UNL A   1      42.325  29.269  34.006  1.00  0.00     0.074 A 
ATOM     65  C   UNL A   1      42.763  28.280  33.042  1.00  0.00     0.031 C 
ATOM     66  C   UNL A   1      42.957  29.528  35.177  1.00  0.00     0.037 A 
BRANCH  53  67
ATOM     67  C   UNL A   1      40.325  34.009  38.528  1.00  0.00     0.057 A 
ATOM     68  C   UNL A   1      41.051  35.206  38.556  1.00  0.00     0.134 A 
ATOM     69  C   UNL A   1      39.631  33.647  39.689  1.00  0.00     0.134 A 
ATOM     70  F   UNL A   1      41.750  35.603  37.481  1.00  0.00    -0.206 F 
ATOM     71  C   UNL A   1      41.118  35.994  39.706  1.00  0.00     0.040 A 
ATOM     72  C   UNL A   1      39.667  34.442  40.836  1.00  0.00     0.040 A 
ATOM     73  F   UNL A   1      38.912  32.516  39.730  1.00  0.00    -0.206 F 
ATOM     74  C   UNL A   1      40.420  35.614  40.851  1.00  0.00     0.006 A 
ENDBRANCH  53  67
BRANCH  54  75
ATOM     75  C   UNL A   1      39.809  28.743  30.066  1.00  0.00     0.057 A 
ATOM     76  C   UNL A   1      39.139  27.517  29.991  1.00  0.00     0.134 A 
ATOM     77  C   UNL A   1      40.403  29.230  28.896  1.00  0.00     0.134 A 
ATOM     78  F   UNL A   1      38.565  26.993  31.084  1.00  0.00    -0.206 F 
ATOM     79  C   UNL A   1      39.070  26.794  28.798  1.00  0.00     0.040 A 
ATOM     80  C   UNL A   1      40.323  28.528  27.692  1.00  0.00     0.040 A 
ATOM     81  F   UNL A   1      41.051  30.404  28.903  1.00  0.00    -0.206 F 
ATOM     82  C   UNL A   1      39.658  27.304  27.642  1.00  0.00     0.006 A 
ENDBRANCH  54  75
BRANCH  66  83
ATOM     83  C   UNL A   1      44.175  28.711  35.492  1.00  0.00     0.057 A 
ATOM     84  C   UNL A   1      45.461  29.138  35.137  1.00  0.00     0.134 A 
ATOM     85  C   UNL A   1      44.062  27.505  36.195  1.00  0.00     0.134 A 
ATOM     86  F   UNL A   1      45.632  30.278  34.451  1.00  0.00    -0.206 F 
ATOM     87  C   UNL A   1      46.591  28.384  35.455  1.00  0.00     0.040 A 
ATOM     88  C   UNL A   1      45.186  26.755  36.539  1.00  0.00     0.040 A 
ATOM     89  F   UNL A   1      42.859  27.045  36.570  1.00  0.00    -0.206 F 
ATOM     90  C   UNL A   1      46.455  27.192  36.165  1.00  0.00     0.006 A 
ENDBRANCH  66  83
ENDBRANCH  40  41
ENDBRANCH  32  35
ENDBRANCH  30  31
ENDBRANCH  29  30
ENDBRANCH  28  29
ENDBRANCH  27  28
ENDBRANCH   1  27
TORSDOF 17
ENDMDL
MODEL 2
REMARK VINA RESULT:     -11.1      0.977      2.033
REMARK SMILES O=C(Cc1ccccc1Nc1c(F)cccc1C(F)(F)F)NCCCCCCNC(=O)c1ccc(-c2c3nc(c(-c4c(F)cccc4F)c4ccc([nH]4)c(-c4c(F)cccc4F)c4nc(c(-c5c(F)cccc5F)c5ccc2[nH]5)C=C4)C=C3)cc1
REMARK SMILES IDX 24 1 23 2 22 3 1 4 2 5 3 7 4 8 5 9 9 10 6 11 8 12 7 13 10 14
REMARK SMILES IDX 11 16 12 17 17 18 13 19 14 20 16 21 15 22 18 23 19 24 20 25
REMARK SMILES IDX 21 26 25 27 26 28 27 29 28 30 29 31 30 32 31 34 32 35 33 36
REMARK SMILES IDX 85 37 34 38 84 39 35 40 36 41 37 42 78 43 38 44 83 45 77 46
REMARK SMILES IDX 79 47 39 48 82 49 76 50 75 51 40 53 66 54 49 55 65 56 50 57
REMARK SMILES IDX 53 58 64 59 80 60 51 61 52 62 63 64 81 65 54 66 41 67 42 68
REMARK SMILES IDX 47 69 43 70 44 71 46 72 48 73 45 74 67 75 68 76 73 77 69 78
REMARK SMILES IDX 70 79 72 80 74 81 71 82 55 83 56 84 61 85 57 86 58 87 60 88
REMARK SMILES IDX 62 89 59 90
REMARK H PARENT 22 6 10 15 29 33 79 52 53 63
REMARK Flexibility Score: inf
ROOT
ATOM      1  C   UNL A   1      35.466  31.817  28.060  1.00  0.00     0.021 C 
ENDROOT
BRANCH   1   2
ATOM      2  C   UNL A   1      34.059  31.297  27.760  1.00  0.00     0.116 C 
BRANCH   2   3
ATOM      3  N   UNL A   1      34.049  30.288  26.719  1.00  0.00    -0.356 N 
ATOM      4  O   UNL A   1      31.862  29.670  27.060  1.00  0.00    -0.275 OA
ATOM      5  C   UNL A   1      32.909  29.556  26.432  1.00  0.00     0.224 C 
ATOM      6  H   UNL A   1      34.872  30.119  26.205  1.00  0.00     0.163 HD
BRANCH   5   7
ATOM      7  C   UNL A   1      33.080  28.623  25.250  1.00  0.00     0.137 C 
BRANCH   7   8
ATOM      8  C   UNL A   1      31.795  28.177  24.575  1.00  0.00    -0.015 A 
ATOM      9  C   UNL A   1      31.197  29.098  23.688  1.00  0.00     0.006 A 
ATOM     10  C   UNL A   1      31.125  26.963  24.854  1.00  0.00     0.042 A 
ATOM     11  C   UNL A   1      29.959  28.845  23.102  1.00  0.00     0.000 A 
ATOM     12  C   UNL A   1      29.860  26.748  24.274  1.00  0.00     0.026 A 
ATOM     13  C   UNL A   1      29.282  27.673  23.406  1.00  0.00     0.002 A 
BRANCH  10  14
ATOM     14  N   UNL A   1      31.655  25.996  25.731  1.00  0.00    -0.352 N 
ATOM     15  H   UNL A   1      31.974  26.334  26.598  1.00  0.00     0.167 HD
BRANCH  14  16
ATOM     16  C   UNL A   1      31.789  24.604  25.527  1.00  0.00     0.087 A 
ATOM     17  C   UNL A   1      30.777  23.753  26.008  1.00  0.00     0.147 A 
ATOM     18  C   UNL A   1      32.979  24.024  25.048  1.00  0.00     0.082 A 
ATOM     19  F   UNL A   1      29.677  24.281  26.570  1.00  0.00    -0.205 F 
ATOM     20  C   UNL A   1      30.899  22.367  25.976  1.00  0.00     0.041 A 
ATOM     21  C   UNL A   1      33.089  22.616  25.010  1.00  0.00     0.015 A 
ATOM     22  C   UNL A   1      32.061  21.795  25.473  1.00  0.00     0.004 A 
BRANCH  18  23
ATOM     23  C   UNL A   1      34.145  24.851  24.559  1.00  0.00     0.418 C 
ATOM     24  F   UNL A   1      35.188  24.074  24.138  1.00  0.00    -0.166 F 
ATOM     25  F   UNL A   1      33.825  25.628  23.490  1.00  0.00    -0.166 F 
ATOM     26  F   UNL A   1      34.681  25.670  25.502  1.00  0.00    -0.166 F 
ENDBRANCH  18  23
ENDBRANCH  14  16
ENDBRANCH  10  14
ENDBRANCH   7   8
ENDBRANCH   5   7
ENDBRANCH   2   3
ENDBRANCH   1   2
BRANCH   1  27
ATOM     27  C   UNL A   1      35.657  33.327  27.873  1.00  0.00     0.002 C 
BRANCH  27  28
ATOM     28  C   UNL A   1      35.457  34.166  29.133  1.00  0.00     0.002 C 
BRANCH  28  29
ATOM     29  C   UNL A   1      34.317  35.176  29.098  1.00  0.00     0.021 C 
BRANCH  29  30
ATOM     30  C   UNL A   1      33.024  34.696  29.742  1.00  0.00     0.116 C 
BRANCH  30  31
ATOM     31  N   UNL A   1      32.471  35.640  30.704  1.00  0.00    -0.352 N 
ATOM     32  C   UNL A   1      32.834  35.860  32.014  1.00  0.00     0.251 C 
ATOM     33  H   UNL A   1      31.733  36.201  30.371  1.00  0.00     0.163 HD
ATOM     34  O   UNL A   1      32.181  36.614  32.722  1.00  0.00    -0.269 OA
BRANCH  32  35
ATOM     35  C   UNL A   1      33.999  35.138  32.573  1.00  0.00     0.039 A 
ATOM     36  C   UNL A   1      33.819  33.848  33.079  1.00  0.00     0.014 A 
ATOM     37  C   UNL A   1      35.271  35.713  32.551  1.00  0.00     0.014 A 
ATOM     38  C   UNL A   1      34.930  33.103  33.480  1.00  0.00     0.010 A 
ATOM     39  C   UNL A   1      36.382  34.939  32.861  1.00  0.00     0.010 A 
ATOM     40  C   UNL A   1      36.224  33.626  33.328  1.00  0.00    -0.014 A 
BRANCH  40  41
ATOM     41  C   UNL A   1      37.431  32.821  33.643  1.00  0.00     0.031 A 
ATOM     42  C   UNL A   1      38.207  33.091  34.902  1.00  0.00     0.074 A 
ATOM     43  C   UNL A   1      37.883  31.917  32.753  1.00  0.00     0.049 A 
ATOM     44  N   UNL A   1      39.340  32.574  35.303  1.00  0.00    -0.248 NA
ATOM     45  C   UNL A   1      37.655  34.109  35.810  1.00  0.00     0.031 C 
ATOM     46  C   UNL A   1      37.260  31.610  31.464  1.00  0.00     0.029 A 
ATOM     47  N   UNL A   1      38.985  31.099  32.792  1.00  0.00    -0.354 N 
ATOM     48  C   UNL A   1      39.648  33.221  36.493  1.00  0.00     0.074 A 
ATOM     49  C   UNL A   1      38.613  34.208  36.719  1.00  0.00     0.031 C 
ATOM     50  C   UNL A   1      37.975  30.656  30.846  1.00  0.00     0.029 A 
ATOM     51  C   UNL A   1      39.123  30.310  31.677  1.00  0.00     0.049 A 
ATOM     52  H   UNL A   1      39.615  31.081  33.547  1.00  0.00     0.167 HD
ATOM     53  C   UNL A   1      40.683  32.997  37.336  1.00  0.00     0.037 A 
ATOM     54  C   UNL A   1      40.073  29.410  31.358  1.00  0.00     0.037 A 
ATOM     55  C   UNL A   1      41.689  31.989  37.129  1.00  0.00     0.049 A 
ATOM     56  C   UNL A   1      41.197  29.154  32.321  1.00  0.00     0.074 A 
ATOM     57  C   UNL A   1      42.734  31.628  37.961  1.00  0.00     0.029 A 
ATOM     58  N   UNL A   1      41.770  31.178  36.006  1.00  0.00    -0.354 N 
ATOM     59  N   UNL A   1      41.436  29.721  33.479  1.00  0.00    -0.248 NA
ATOM     60  C   UNL A   1      42.178  28.129  31.939  1.00  0.00     0.031 C 
ATOM     61  C   UNL A   1      43.470  30.622  37.326  1.00  0.00     0.029 A 
ATOM     62  C   UNL A   1      42.859  30.328  36.117  1.00  0.00     0.049 A 
ATOM     63  H   UNL A   1      41.147  31.202  35.245  1.00  0.00     0.167 HD
ATOM     64  C   UNL A   1      42.580  29.109  33.973  1.00  0.00     0.074 A 
ATOM     65  C   UNL A   1      42.978  28.117  32.995  1.00  0.00     0.031 C 
ATOM     66  C   UNL A   1      43.240  29.347  35.133  1.00  0.00     0.037 A 
BRANCH  53  67
ATOM     67  C   UNL A   1      40.768  33.860  38.561  1.00  0.00     0.057 A 
ATOM     68  C   UNL A   1      41.556  35.018  38.597  1.00  0.00     0.134 A 
ATOM     69  C   UNL A   1      40.052  33.531  39.719  1.00  0.00     0.134 A 
ATOM     70  F   UNL A   1      42.278  35.381  37.526  1.00  0.00    -0.206 F 
ATOM     71  C   UNL A   1      41.660  35.796  39.750  1.00  0.00     0.040 A 
ATOM     72  C   UNL A   1      40.126  34.318  40.870  1.00  0.00     0.040 A 
ATOM     73  F   UNL A   1      39.274  32.439  39.753  1.00  0.00    -0.206 F 
ATOM     74  C   UNL A   1      40.940  35.448  40.891  1.00  0.00     0.006 A 
ENDBRANCH  53  67
BRANCH  54  75
ATOM     75  C   UNL A   1      39.978  28.659  30.081  1.00  0.00     0.057 A 
ATOM     76  C   UNL A   1      40.593  29.139  28.919  1.00  0.00     0.134 A 
ATOM     77  C   UNL A   1      39.292  27.442  29.996  1.00  0.00     0.134 A 
ATOM     78  F   UNL A   1      41.250  30.307  28.937  1.00  0.00    -0.206 F 
ATOM     79  C   UNL A   1      40.520  28.440  27.712  1.00  0.00     0.040 A 
ATOM     80  C   UNL A   1      39.229  26.723  28.801  1.00  0.00     0.040 A 
ATOM     81  F   UNL A   1      38.691  26.927  31.078  1.00  0.00    -0.206 F 
ATOM     82  C   UNL A   1      39.842  27.224  27.654  1.00  0.00     0.006 A 
ENDBRANCH  54  75
BRANCH  66  83
ATOM     83  C   UNL A   1      44.447  28.503  35.419  1.00  0.00     0.057 A 
ATOM     84  C   UNL A   1      44.348  27.280  36.093  1.00  0.00     0.134 A 
ATOM     85  C   UNL A   1      45.715  28.900  34.976  1.00  0.00     0.134 A 
ATOM     86  F   UNL A   1      43.162  26.852  36.553  1.00  0.00    -0.206 F 
ATOM     87  C   UNL A   1      45.472  26.488  36.334  1.00  0.00     0.040 A 
ATOM     88  C   UNL A   1      46.842  28.106  35.190  1.00  0.00     0.040 A 
ATOM     89  F   UNL A   1      45.876  30.057  34.317  1.00  0.00    -0.206 F 
ATOM     90  C   UNL A   1      46.723  26.899  35.875  1.00  0.00     0.006 A 
ENDBRANCH  66  83
ENDBRANCH  40  41
ENDBRANCH  32  35
ENDBRANCH  30  31
ENDBRANCH  29  30
ENDBRANCH  28  29
ENDBRANCH  27  28
ENDBRANCH   1  27
TORSDOF 17
ENDMDL
MODEL 3
REMARK VINA RESULT:     -11.0      1.950      3.702
REMARK SMILES O=C(Cc1ccccc1Nc1c(F)cccc1C(F)(F)F)NCCCCCCNC(=O)c1ccc(-c2c3nc(c(-c4c(F)cccc4F)c4ccc([nH]4)c(-c4c(F)cccc4F)c4nc(c(-c5c(F)cccc5F)c5ccc2[nH]5)C=C4)C=C3)cc1
REMARK SMILES IDX 24 1 23 2 22 3 1 4 2 5 3 7 4 8 5 9 9 10 6 11 8 12 7 13 10 14
REMARK SMILES IDX 11 16 12 17 17 18 13 19 14 20 16 21 15 22 18 23 19 24 20 25
REMARK SMILES IDX 21 26 25 27 26 28 27 29 28 30 29 31 30 32 31 34 32 35 33 36
REMARK SMILES IDX 85 37 34 38 84 39 35 40 36 41 37 42 78 43 38 44 83 45 77 46
REMARK SMILES IDX 79 47 39 48 82 49 76 50 75 51 40 53 66 54 49 55 65 56 50 57
REMARK SMILES IDX 53 58 64 59 80 60 51 61 52 62 63 64 81 65 54 66 41 67 42 68
REMARK SMILES IDX 47 69 43 70 44 71 46 72 48 73 45 74 67 75 68 76 73 77 69 78
REMARK SMILES IDX 70 79 72 80 74 81 71 82 55 83 56 84 61 85 57 86 58 87 60 88
REMARK SMILES IDX 62 89 59 90
REMARK H PARENT 22 6 10 15 29 33 79 52 53 63
REMARK Flexibility Score: inf
ROOT
ATOM      1  C   UNL A   1      33.538  28.946  26.777  1.00  0.00     0.021 C 
ENDROOT
BRANCH   1   2
ATOM      2  C   UNL A   1      34.040  27.596  26.262  1.00  0.00     0.116 C 
BRANCH   2   3
ATOM      3  N   UNL A   1      32.998  26.587  26.239  1.00  0.00    -0.356 N 
ATOM      4  O   UNL A   1      34.351  24.921  25.416  1.00  0.00    -0.275 OA
ATOM      5  C   UNL A   1      33.257  25.289  25.829  1.00  0.00     0.224 C 
ATOM      6  H   UNL A   1      32.086  26.831  26.520  1.00  0.00     0.163 HD
BRANCH   5   7
ATOM      7  C   UNL A   1      32.060  24.370  25.968  1.00  0.00     0.137 C 
BRANCH   7   8
ATOM      8  C   UNL A   1      32.071  23.142  25.076  1.00  0.00    -0.015 A 
ATOM      9  C   UNL A   1      32.651  21.974  25.617  1.00  0.00     0.006 A 
ATOM     10  C   UNL A   1      31.635  23.128  23.730  1.00  0.00     0.042 A 
ATOM     11  C   UNL A   1      32.820  20.823  24.851  1.00  0.00     0.000 A 
ATOM     12  C   UNL A   1      31.849  21.962  22.970  1.00  0.00     0.026 A 
ATOM     13  C   UNL A   1      32.430  20.821  23.520  1.00  0.00     0.002 A 
BRANCH  10  14
ATOM     14  N   UNL A   1      31.050  24.253  23.117  1.00  0.00    -0.352 N 
ATOM     15  H   UNL A   1      30.101  24.162  22.871  1.00  0.00     0.167 HD
BRANCH  14  16
ATOM     16  C   UNL A   1      31.648  25.495  22.809  1.00  0.00     0.087 A 
ATOM     17  C   UNL A   1      32.921  25.499  22.208  1.00  0.00     0.147 A 
ATOM     18  C   UNL A   1      31.119  26.720  23.261  1.00  0.00     0.082 A 
ATOM     19  F   UNL A   1      33.497  24.335  21.867  1.00  0.00    -0.205 F 
ATOM     20  C   UNL A   1      33.639  26.674  22.005  1.00  0.00     0.041 A 
ATOM     21  C   UNL A   1      31.852  27.907  23.041  1.00  0.00     0.015 A 
ATOM     22  C   UNL A   1      33.102  27.885  22.422  1.00  0.00     0.004 A 
BRANCH  18  23
ATOM     23  C   UNL A   1      29.786  26.816  23.966  1.00  0.00     0.418 C 
ATOM     24  F   UNL A   1      28.862  25.953  23.442  1.00  0.00    -0.166 F 
ATOM     25  F   UNL A   1      29.865  26.494  25.285  1.00  0.00    -0.166 F 
ATOM     26  F   UNL A   1      29.201  28.040  23.887  1.00  0.00    -0.166 F 
ENDBRANCH  18  23
ENDBRANCH  14  16
ENDBRANCH  10  14
ENDBRANCH   7   8
ENDBRANCH   5   7
ENDBRANCH   2   3
ENDBRANCH   1   2
BRANCH   1  27
ATOM     27  C   UNL A   1      32.046  29.217  26.550  1.00  0.00     0.002 C 
BRANCH  27  28
ATOM     28  C   UNL A   1      31.729  30.510  25.803  1.00  0.00     0.002 C 
BRANCH  28  29
ATOM     29  C   UNL A   1      31.404  31.725  26.663  1.00  0.00     0.021 C 
BRANCH  29  30
ATOM     30  C   UNL A   1      32.619  32.474  27.189  1.00  0.00     0.116 C 
BRANCH  30  31
ATOM     31  N   UNL A   1      32.336  33.857  27.548  1.00  0.00    -0.352 N 
ATOM     32  C   UNL A   1      32.968  34.664  28.468  1.00  0.00     0.251 C 
ATOM     33  H   UNL A   1      31.586  34.275  27.065  1.00  0.00     0.163 HD
ATOM     34  O   UNL A   1      32.522  35.772  28.732  1.00  0.00    -0.269 OA
BRANCH  32  35
ATOM     35  C   UNL A   1      34.168  34.159  29.170  1.00  0.00     0.039 A 
ATOM     36  C   UNL A   1      34.007  33.401  30.332  1.00  0.00     0.014 A 
ATOM     37  C   UNL A   1      35.445  34.391  28.654  1.00  0.00     0.014 A 
ATOM     38  C   UNL A   1      35.119  32.801  30.926  1.00  0.00     0.010 A 
ATOM     39  C   UNL A   1      36.537  33.719  29.189  1.00  0.00     0.010 A 
ATOM     40  C   UNL A   1      36.386  32.916  30.330  1.00  0.00    -0.014 A 
BRANCH  40  41
ATOM     41  C   UNL A   1      37.569  32.204  30.874  1.00  0.00     0.031 A 
ATOM     42  C   UNL A   1      38.255  32.720  32.108  1.00  0.00     0.074 A 
ATOM     43  C   UNL A   1      38.084  31.154  30.206  1.00  0.00     0.049 A 
ATOM     44  N   UNL A   1      39.359  32.306  32.676  1.00  0.00    -0.248 NA
ATOM     45  C   UNL A   1      37.640  33.883  32.766  1.00  0.00     0.031 C 
ATOM     46  C   UNL A   1      37.553  30.599  28.959  1.00  0.00     0.029 A 
ATOM     47  N   UNL A   1      39.182  30.375  30.474  1.00  0.00    -0.354 N 
ATOM     48  C   UNL A   1      39.582  33.172  33.739  1.00  0.00     0.074 A 
ATOM     49  C   UNL A   1      38.533  34.167  33.702  1.00  0.00     0.031 C 
ATOM     50  C   UNL A   1      38.311  29.556  28.584  1.00  0.00     0.029 A 
ATOM     51  C   UNL A   1      39.399  29.391  29.541  1.00  0.00     0.049 A 
ATOM     52  H   UNL A   1      39.758  30.511  31.259  1.00  0.00     0.167 HD
ATOM     53  C   UNL A   1      40.557  33.128  34.678  1.00  0.00     0.037 A 
ATOM     54  C   UNL A   1      40.371  28.462  29.465  1.00  0.00     0.037 A 
ATOM     55  C   UNL A   1      41.576  32.114  34.735  1.00  0.00     0.049 A 
ATOM     56  C   UNL A   1      41.425  28.410  30.533  1.00  0.00     0.074 A 
ATOM     57  C   UNL A   1      42.562  31.934  35.689  1.00  0.00     0.029 A 
ATOM     58  N   UNL A   1      41.737  31.106  33.795  1.00  0.00    -0.354 N 
ATOM     59  N   UNL A   1      41.583  29.190  31.575  1.00  0.00    -0.248 NA
ATOM     60  C   UNL A   1      42.432  27.346  30.421  1.00  0.00     0.031 C 
ATOM     61  C   UNL A   1      43.342  30.836  35.309  1.00  0.00     0.029 A 
ATOM     62  C   UNL A   1      42.817  30.309  34.139  1.00  0.00     0.049 A 
ATOM     63  H   UNL A   1      41.168  30.976  33.003  1.00  0.00     0.167 HD
ATOM     64  C   UNL A   1      42.690  28.701  32.253  1.00  0.00     0.074 A 
ATOM     65  C   UNL A   1      43.158  27.547  31.511  1.00  0.00     0.031 C 
ATOM     66  C   UNL A   1      43.268  29.164  33.389  1.00  0.00     0.037 A 
BRANCH  53  67
ATOM     67  C   UNL A   1      40.555  34.209  35.719  1.00  0.00     0.057 A 
ATOM     68  C   UNL A   1      39.905  34.048  36.949  1.00  0.00     0.134 A 
ATOM     69  C   UNL A   1      41.211  35.425  35.489  1.00  0.00     0.134 A 
ATOM     70  F   UNL A   1      39.245  32.913  37.227  1.00  0.00    -0.206 F 
ATOM     71  C   UNL A   1      39.874  35.070  37.899  1.00  0.00     0.040 A 
ATOM     72  C   UNL A   1      41.211  36.444  36.443  1.00  0.00     0.040 A 
ATOM     73  F   UNL A   1      41.857  35.644  34.334  1.00  0.00    -0.206 F 
ATOM     74  C   UNL A   1      40.532  36.273  37.648  1.00  0.00     0.006 A 
ENDBRANCH  53  67
BRANCH  54  75
ATOM     75  C   UNL A   1      40.365  27.481  28.351  1.00  0.00     0.057 A 
ATOM     76  C   UNL A   1      41.070  27.734  27.168  1.00  0.00     0.134 A 
ATOM     77  C   UNL A   1      39.678  26.265  28.448  1.00  0.00     0.134 A 
ATOM     78  F   UNL A   1      41.734  28.889  27.013  1.00  0.00    -0.206 F 
ATOM     79  C   UNL A   1      41.083  26.817  26.115  1.00  0.00     0.040 A 
ATOM     80  C   UNL A   1      39.700  25.331  27.411  1.00  0.00     0.040 A 
ATOM     81  F   UNL A   1      38.993  25.961  29.560  1.00  0.00    -0.206 F 
ATOM     82  C   UNL A   1      40.401  25.608  26.239  1.00  0.00     0.006 A 
ENDBRANCH  54  75
BRANCH  66  83
ATOM     83  C   UNL A   1      44.453  28.409  33.911  1.00  0.00     0.057 A 
ATOM     84  C   UNL A   1      44.308  27.314  34.773  1.00  0.00     0.134 A 
ATOM     85  C   UNL A   1      45.750  28.754  33.513  1.00  0.00     0.134 A 
ATOM     86  F   UNL A   1      43.092  26.944  35.201  1.00  0.00    -0.206 F 
ATOM     87  C   UNL A   1      45.415  26.601  35.236  1.00  0.00     0.040 A 
ATOM     88  C   UNL A   1      46.863  28.033  33.949  1.00  0.00     0.040 A 
ATOM     89  F   UNL A   1      45.956  29.787  32.682  1.00  0.00    -0.206 F 
ATOM     90  C   UNL A   1      46.696  26.956  34.817  1.00  0.00     0.006 A 
ENDBRANCH  66  83
ENDBRANCH  40  41
ENDBRANCH  32  35
ENDBRANCH  30  31
ENDBRANCH  29  30
ENDBRANCH  28  29
ENDBRANCH  27  28
ENDBRANCH   1  27
TORSDOF 17
ENDMDL
