MODEL 1
REMARK VINA RESULT:     -11.8      0.000      0.000
REMARK SMILES O=C(NCCCCCCNC(=O)c1cnn(Cc2ccccc2)c1-n1cccc1)c1ccc(-c2c3nc(c(-c4c(F)cccc4F)c4ccc([nH]4)c(-c4c(F)cccc4F)c4nc(c(-c5c(F)cccc5F)c5ccc2[nH]5)C=C4)C=C3)cc1
REMARK SMILES IDX 6 1 5 2 4 3 3 4 1 5 2 6 30 8 31 9 83 10 32 11 82 12 33 13
REMARK SMILES IDX 34 14 35 15 76 16 36 17 81 18 75 19 77 20 37 21 80 22 74 23
REMARK SMILES IDX 73 24 38 26 64 27 47 28 63 29 48 30 51 31 62 32 78 33 49 34
REMARK SMILES IDX 50 35 61 37 79 38 52 39 39 40 40 41 45 42 41 43 42 44 44 45
REMARK SMILES IDX 46 46 43 47 65 48 66 49 71 50 67 51 68 52 70 53 72 54 69 55
REMARK SMILES IDX 53 56 54 57 59 58 55 59 56 60 58 61 60 62 57 63 7 64 8 65
REMARK SMILES IDX 9 66 10 67 11 68 12 70 13 71 14 72 24 73 15 74 16 75 25 76
REMARK SMILES IDX 26 77 29 78 27 79 28 80 17 81 18 82 19 83 23 84 20 85 22 86
REMARK SMILES IDX 21 87
REMARK H PARENT 3 7 77 25 51 36 10 69
REMARK Flexibility Score: inf
ROOT
ATOM      1  C   UNL A   1      35.322  21.433  25.016  1.00  0.00     0.002 C 
ENDROOT
BRANCH   1   2
ATOM      2  C   UNL A   1      36.392  22.334  24.386  1.00  0.00     0.021 C 
BRANCH   2   3
ATOM      3  C   UNL A   1      37.169  23.199  25.377  1.00  0.00     0.116 C 
BRANCH   3   4
ATOM      4  N   UNL A   1      38.396  22.590  25.847  1.00  0.00    -0.352 N 
ATOM      5  O   UNL A   1      40.381  22.187  26.728  1.00  0.00    -0.269 OA
ATOM      6  C   UNL A   1      39.512  23.036  26.503  1.00  0.00     0.251 C 
ATOM      7  H   UNL A   1      38.438  21.627  25.646  1.00  0.00     0.163 HD
BRANCH   6   8
ATOM      8  C   UNL A   1      39.765  24.443  26.940  1.00  0.00     0.039 A 
ATOM      9  C   UNL A   1      40.390  25.435  26.186  1.00  0.00     0.014 A 
ATOM     10  C   UNL A   1      39.273  24.803  28.210  1.00  0.00     0.014 A 
ATOM     11  C   UNL A   1      40.546  26.733  26.696  1.00  0.00     0.010 A 
ATOM     12  C   UNL A   1      39.407  26.105  28.713  1.00  0.00     0.010 A 
ATOM     13  C   UNL A   1      40.063  27.083  27.965  1.00  0.00    -0.014 A 
BRANCH  13  14
ATOM     14  C   UNL A   1      40.210  28.487  28.406  1.00  0.00     0.031 A 
ATOM     15  C   UNL A   1      41.499  29.183  28.099  1.00  0.00     0.074 A 
ATOM     16  C   UNL A   1      39.241  29.272  28.922  1.00  0.00     0.049 A 
ATOM     17  N   UNL A   1      42.298  29.805  28.912  1.00  0.00    -0.248 NA
ATOM     18  C   UNL A   1      41.912  29.233  26.687  1.00  0.00     0.031 C 
ATOM     19  C   UNL A   1      37.807  28.998  28.978  1.00  0.00     0.029 A 
ATOM     20  N   UNL A   1      39.344  30.546  29.439  1.00  0.00    -0.354 N 
ATOM     21  C   UNL A   1      43.268  30.401  28.113  1.00  0.00     0.074 A 
ATOM     22  C   UNL A   1      43.000  30.000  26.751  1.00  0.00     0.031 C 
ATOM     23  C   UNL A   1      37.156  30.125  29.336  1.00  0.00     0.029 A 
ATOM     24  C   UNL A   1      38.128  31.159  29.669  1.00  0.00     0.049 A 
ATOM     25  H   UNL A   1      40.208  30.979  29.628  1.00  0.00     0.167 HD
ATOM     26  C   UNL A   1      44.181  31.304  28.557  1.00  0.00     0.037 A 
ATOM     27  C   UNL A   1      37.873  32.415  30.105  1.00  0.00     0.037 A 
ATOM     28  C   UNL A   1      44.200  31.552  29.964  1.00  0.00     0.049 A 
ATOM     29  C   UNL A   1      39.058  33.031  30.743  1.00  0.00     0.074 A 
ATOM     30  C   UNL A   1      45.012  31.265  31.037  1.00  0.00     0.029 A 
ATOM     31  N   UNL A   1      43.102  32.200  30.451  1.00  0.00    -0.354 N 
ATOM     32  N   UNL A   1      39.548  32.672  31.895  1.00  0.00    -0.248 NA
ATOM     33  C   UNL A   1      39.838  34.032  30.014  1.00  0.00     0.031 C 
ATOM     34  C   UNL A   1      44.312  31.675  32.212  1.00  0.00     0.029 A 
ATOM     35  C   UNL A   1      43.092  32.206  31.823  1.00  0.00     0.049 A 
ATOM     36  H   UNL A   1      42.408  32.613  29.889  1.00  0.00     0.167 HD
ATOM     37  C   UNL A   1      40.845  33.139  31.880  1.00  0.00     0.074 A 
ATOM     38  C   UNL A   1      40.929  34.085  30.782  1.00  0.00     0.031 C 
ATOM     39  C   UNL A   1      41.841  32.446  32.489  1.00  0.00     0.037 A 
BRANCH  26  40
ATOM     40  C   UNL A   1      44.874  32.239  27.633  1.00  0.00     0.057 A 
ATOM     41  C   UNL A   1      46.190  32.031  27.217  1.00  0.00     0.134 A 
ATOM     42  C   UNL A   1      44.289  33.479  27.320  1.00  0.00     0.134 A 
ATOM     43  F   UNL A   1      46.827  30.890  27.515  1.00  0.00    -0.206 F 
ATOM     44  C   UNL A   1      46.891  33.009  26.504  1.00  0.00     0.040 A 
ATOM     45  C   UNL A   1      44.971  34.456  26.596  1.00  0.00     0.040 A 
ATOM     46  F   UNL A   1      43.055  33.779  27.759  1.00  0.00    -0.206 F 
ATOM     47  C   UNL A   1      46.281  34.224  26.191  1.00  0.00     0.006 A 
ENDBRANCH  26  40
BRANCH  27  48
ATOM     48  C   UNL A   1      36.606  33.164  30.002  1.00  0.00     0.057 A 
ATOM     49  C   UNL A   1      36.080  33.554  28.765  1.00  0.00     0.134 A 
ATOM     50  C   UNL A   1      35.791  33.372  31.126  1.00  0.00     0.134 A 
ATOM     51  F   UNL A   1      36.766  33.348  27.633  1.00  0.00    -0.206 F 
ATOM     52  C   UNL A   1      34.816  34.142  28.653  1.00  0.00     0.040 A 
ATOM     53  C   UNL A   1      34.533  33.969  31.031  1.00  0.00     0.040 A 
ATOM     54  F   UNL A   1      36.176  32.947  32.339  1.00  0.00    -0.206 F 
ATOM     55  C   UNL A   1      34.040  34.354  29.788  1.00  0.00     0.006 A 
ENDBRANCH  27  48
BRANCH  39  56
ATOM     56  C   UNL A   1      41.468  31.630  33.670  1.00  0.00     0.057 A 
ATOM     57  C   UNL A   1      41.422  32.159  34.964  1.00  0.00     0.134 A 
ATOM     58  C   UNL A   1      41.133  30.284  33.501  1.00  0.00     0.134 A 
ATOM     59  F   UNL A   1      41.702  33.453  35.185  1.00  0.00    -0.206 F 
ATOM     60  C   UNL A   1      41.076  31.365  36.058  1.00  0.00     0.040 A 
ATOM     61  C   UNL A   1      40.771  29.483  34.583  1.00  0.00     0.040 A 
ATOM     62  F   UNL A   1      41.135  29.733  32.276  1.00  0.00    -0.206 F 
ATOM     63  C   UNL A   1      40.749  30.022  35.869  1.00  0.00     0.006 A 
ENDBRANCH  39  56
ENDBRANCH  13  14
ENDBRANCH   6   8
ENDBRANCH   3   4
ENDBRANCH   2   3
ENDBRANCH   1   2
BRANCH   1  64
ATOM     64  C   UNL A   1      33.865  21.816  24.731  1.00  0.00     0.002 C 
BRANCH  64  65
ATOM     65  C   UNL A   1      33.420  21.725  23.265  1.00  0.00     0.021 C 
BRANCH  65  66
ATOM     66  C   UNL A   1      32.345  22.729  22.847  1.00  0.00     0.116 C 
BRANCH  66  67
ATOM     67  N   UNL A   1      32.892  23.776  22.003  1.00  0.00    -0.352 N 
ATOM     68  C   UNL A   1      33.222  25.071  22.312  1.00  0.00     0.256 C 
ATOM     69  H   UNL A   1      33.050  23.517  21.067  1.00  0.00     0.163 HD
ATOM     70  O   UNL A   1      33.482  25.846  21.396  1.00  0.00    -0.269 OA
BRANCH  68  71
ATOM     71  C   UNL A   1      33.284  25.473  23.703  1.00  0.00     0.102 A 
ATOM     72  C   UNL A   1      34.366  25.278  24.586  1.00  0.00     0.151 A 
ATOM     73  C   UNL A   1      32.417  26.299  24.410  1.00  0.00     0.148 A 
ATOM     74  N   UNL A   1      34.197  25.879  25.761  1.00  0.00    -0.178 NA
ATOM     75  N   UNL A   1      32.976  26.467  25.660  1.00  0.00    -0.244 N 
BRANCH  73  76
ATOM     76  N   UNL A   1      31.206  26.839  23.969  1.00  0.00    -0.308 N 
ATOM     77  C   UNL A   1      29.961  26.247  24.083  1.00  0.00     0.093 A 
ATOM     78  C   UNL A   1      31.012  28.035  23.305  1.00  0.00     0.093 A 
ATOM     79  C   UNL A   1      29.002  27.079  23.552  1.00  0.00     0.020 A 
ATOM     80  C   UNL A   1      29.669  28.215  23.056  1.00  0.00     0.020 A 
ENDBRANCH  73  76
BRANCH  75  81
ATOM     81  C   UNL A   1      32.435  27.073  26.874  1.00  0.00     0.182 C 
BRANCH  81  82
ATOM     82  C   UNL A   1      32.762  28.543  26.991  1.00  0.00    -0.026 A 
ATOM     83  C   UNL A   1      31.775  29.518  26.793  1.00  0.00     0.005 A 
ATOM     84  C   UNL A   1      34.074  28.957  27.275  1.00  0.00     0.005 A 
ATOM     85  C   UNL A   1      32.098  30.876  26.860  1.00  0.00     0.000 A 
ATOM     86  C   UNL A   1      34.394  30.314  27.344  1.00  0.00     0.000 A 
ATOM     87  C   UNL A   1      33.407  31.272  27.132  1.00  0.00     0.000 A 
ENDBRANCH  81  82
ENDBRANCH  75  81
ENDBRANCH  68  71
ENDBRANCH  66  67
ENDBRANCH  65  66
ENDBRANCH  64  65
ENDBRANCH   1  64
TORSDOF 16
ENDMDL
MODEL 2
REMARK VINA RESULT:     -11.6      3.366      8.264
REMARK SMILES O=C(NCCCCCCNC(=O)c1cnn(Cc2ccccc2)c1-n1cccc1)c1ccc(-c2c3nc(c(-c4c(F)cccc4F)c4ccc([nH]4)c(-c4c(F)cccc4F)c4nc(c(-c5c(F)cccc5F)c5ccc2[nH]5)C=C4)C=C3)cc1
REMARK SMILES IDX 6 1 5 2 4 3 3 4 1 5 2 6 30 8 31 9 83 10 32 11 82 12 33 13
REMARK SMILES IDX 34 14 35 15 76 16 36 17 81 18 75 19 77 20 37 21 80 22 74 23
REMARK SMILES IDX 73 24 38 26 64 27 47 28 63 29 48 30 51 31 62 32 78 33 49 34
REMARK SMILES IDX 50 35 61 37 79 38 52 39 39 40 40 41 45 42 41 43 42 44 44 45
REMARK SMILES IDX 46 46 43 47 65 48 66 49 71 50 67 51 68 52 70 53 72 54 69 55
REMARK SMILES IDX 53 56 54 57 59 58 55 59 56 60 58 61 60 62 57 63 7 64 8 65
REMARK SMILES IDX 9 66 10 67 11 68 12 70 13 71 14 72 24 73 15 74 16 75 25 76
REMARK SMILES IDX 26 77 29 78 27 79 28 80 17 81 18 82 19 83 23 84 20 85 22 86
REMARK SMILES IDX 21 87
REMARK H PARENT 3 7 77 25 51 36 10 69
REMARK Flexibility Score: inf
ROOT
ATOM      1  C   UNL A   1      32.735  28.806  26.762  1.00  0.00     0.002 C 
ENDROOT
BRANCH   1   2
ATOM      2  C   UNL A   1      32.784  30.249  27.279  1.00  0.00     0.021 C 
BRANCH   2   3
ATOM      3  C   UNL A   1      34.189  30.816  27.473  1.00  0.00     0.116 C 
BRANCH   3   4
ATOM      4  N   UNL A   1      34.318  31.672  28.634  1.00  0.00    -0.352 N 
ATOM      5  O   UNL A   1      34.970  32.661  30.498  1.00  0.00    -0.269 OA
ATOM      6  C   UNL A   1      35.212  31.782  29.666  1.00  0.00     0.251 C 
ATOM      7  H   UNL A   1      33.589  32.332  28.697  1.00  0.00     0.163 HD
BRANCH   6   8
ATOM      8  C   UNL A   1      36.421  30.927  29.869  1.00  0.00     0.039 A 
ATOM      9  C   UNL A   1      36.421  29.585  30.247  1.00  0.00     0.014 A 
ATOM     10  C   UNL A   1      37.667  31.527  29.598  1.00  0.00     0.014 A 
ATOM     11  C   UNL A   1      37.626  28.877  30.379  1.00  0.00     0.010 A 
ATOM     12  C   UNL A   1      38.870  30.815  29.707  1.00  0.00     0.010 A 
ATOM     13  C   UNL A   1      38.863  29.483  30.117  1.00  0.00    -0.014 A 
BRANCH  13  14
ATOM     14  C   UNL A   1      40.082  28.652  30.218  1.00  0.00     0.031 A 
ATOM     15  C   UNL A   1      40.806  28.632  31.528  1.00  0.00     0.074 A 
ATOM     16  C   UNL A   1      40.535  27.774  29.298  1.00  0.00     0.049 A 
ATOM     17  N   UNL A   1      42.059  28.877  31.765  1.00  0.00    -0.248 NA
ATOM     18  C   UNL A   1      40.032  28.231  32.714  1.00  0.00     0.031 C 
ATOM     19  C   UNL A   1      39.839  27.296  28.105  1.00  0.00     0.029 A 
ATOM     20  N   UNL A   1      41.709  27.053  29.295  1.00  0.00    -0.354 N 
ATOM     21  C   UNL A   1      42.259  28.578  33.109  1.00  0.00     0.074 A 
ATOM     22  C   UNL A   1      40.974  28.206  33.656  1.00  0.00     0.031 C 
ATOM     23  C   UNL A   1      40.518  26.249  27.589  1.00  0.00     0.029 A 
ATOM     24  C   UNL A   1      41.763  26.070  28.326  1.00  0.00     0.049 A 
ATOM     25  H   UNL A   1      42.445  27.223  29.927  1.00  0.00     0.167 HD
ATOM     26  C   UNL A   1      43.476  28.515  33.709  1.00  0.00     0.037 A 
ATOM     27  C   UNL A   1      42.730  25.153  28.092  1.00  0.00     0.037 A 
ATOM     28  C   UNL A   1      44.600  28.899  32.915  1.00  0.00     0.049 A 
ATOM     29  C   UNL A   1      44.011  25.522  28.733  1.00  0.00     0.074 A 
ATOM     30  C   UNL A   1      45.480  29.954  32.840  1.00  0.00     0.029 A 
ATOM     31  N   UNL A   1      44.898  28.051  31.888  1.00  0.00    -0.354 N 
ATOM     32  N   UNL A   1      44.774  26.504  28.348  1.00  0.00    -0.248 NA
ATOM     33  C   UNL A   1      44.433  24.846  29.960  1.00  0.00     0.031 C 
ATOM     34  C   UNL A   1      46.260  29.764  31.659  1.00  0.00     0.029 A 
ATOM     35  C   UNL A   1      45.837  28.594  31.048  1.00  0.00     0.049 A 
ATOM     36  H   UNL A   1      44.491  27.163  31.767  1.00  0.00     0.167 HD
ATOM     37  C   UNL A   1      45.561  26.783  29.445  1.00  0.00     0.074 A 
ATOM     38  C   UNL A   1      45.421  25.655  30.348  1.00  0.00     0.031 C 
ATOM     39  C   UNL A   1      45.947  28.056  29.719  1.00  0.00     0.037 A 
BRANCH  26  40
ATOM     40  C   UNL A   1      43.688  27.767  34.977  1.00  0.00     0.057 A 
ATOM     41  C   UNL A   1      43.957  28.415  36.183  1.00  0.00     0.134 A 
ATOM     42  C   UNL A   1      43.836  26.369  34.950  1.00  0.00     0.134 A 
ATOM     43  F   UNL A   1      43.878  29.750  36.273  1.00  0.00    -0.206 F 
ATOM     44  C   UNL A   1      44.341  27.701  37.323  1.00  0.00     0.040 A 
ATOM     45  C   UNL A   1      44.202  25.643  36.083  1.00  0.00     0.040 A 
ATOM     46  F   UNL A   1      43.673  25.689  33.803  1.00  0.00    -0.206 F 
ATOM     47  C   UNL A   1      44.463  26.312  37.275  1.00  0.00     0.006 A 
ENDBRANCH  26  40
BRANCH  27  48
ATOM     48  C   UNL A   1      42.618  23.906  27.311  1.00  0.00     0.057 A 
ATOM     49  C   UNL A   1      42.918  23.862  25.945  1.00  0.00     0.134 A 
ATOM     50  C   UNL A   1      42.367  22.675  27.939  1.00  0.00     0.134 A 
ATOM     51  F   UNL A   1      43.221  24.983  25.275  1.00  0.00    -0.206 F 
ATOM     52  C   UNL A   1      42.947  22.659  25.233  1.00  0.00     0.040 A 
ATOM     53  C   UNL A   1      42.380  21.467  27.239  1.00  0.00     0.040 A 
ATOM     54  F   UNL A   1      42.159  22.611  29.263  1.00  0.00    -0.206 F 
ATOM     55  C   UNL A   1      42.673  21.458  25.879  1.00  0.00     0.006 A 
ENDBRANCH  27  48
BRANCH  39  56
ATOM     56  C   UNL A   1      46.110  28.973  28.565  1.00  0.00     0.057 A 
ATOM     57  C   UNL A   1      47.320  29.104  27.875  1.00  0.00     0.134 A 
ATOM     58  C   UNL A   1      45.021  29.732  28.129  1.00  0.00     0.134 A 
ATOM     59  F   UNL A   1      48.392  28.378  28.229  1.00  0.00    -0.206 F 
ATOM     60  C   UNL A   1      47.446  29.983  26.798  1.00  0.00     0.040 A 
ATOM     61  C   UNL A   1      45.130  30.602  27.045  1.00  0.00     0.040 A 
ATOM     62  F   UNL A   1      43.830  29.623  28.739  1.00  0.00    -0.206 F 
ATOM     63  C   UNL A   1      46.348  30.735  26.380  1.00  0.00     0.006 A 
ENDBRANCH  39  56
ENDBRANCH  13  14
ENDBRANCH   6   8
ENDBRANCH   3   4
ENDBRANCH   2   3
ENDBRANCH   1   2
BRANCH   1  64
ATOM     64  C   UNL A   1      31.561  27.952  27.255  1.00  0.00     0.002 C 
BRANCH  64  65
ATOM     65  C   UNL A   1      31.167  26.771  26.359  1.00  0.00     0.021 C 
BRANCH  65  66
ATOM     66  C   UNL A   1      31.907  25.462  26.644  1.00  0.00     0.116 C 
BRANCH  66  67
ATOM     67  N   UNL A   1      30.995  24.332  26.689  1.00  0.00    -0.352 N 
ATOM     68  C   UNL A   1      31.169  23.045  26.248  1.00  0.00     0.256 C 
ATOM     69  H   UNL A   1      30.119  24.520  27.097  1.00  0.00     0.163 HD
ATOM     70  O   UNL A   1      30.192  22.303  26.204  1.00  0.00    -0.269 OA
BRANCH  68  71
ATOM     71  C   UNL A   1      32.497  22.596  25.883  1.00  0.00     0.102 A 
ATOM     72  C   UNL A   1      33.205  21.516  26.451  1.00  0.00     0.151 A 
ATOM     73  C   UNL A   1      33.272  22.967  24.790  1.00  0.00     0.148 A 
ATOM     74  N   UNL A   1      34.343  21.246  25.819  1.00  0.00    -0.178 NA
ATOM     75  N   UNL A   1      34.398  22.172  24.825  1.00  0.00    -0.244 N 
BRANCH  73  76
ATOM     76  N   UNL A   1      32.995  23.962  23.849  1.00  0.00    -0.308 N 
ATOM     77  C   UNL A   1      33.735  25.112  23.637  1.00  0.00     0.093 A 
ATOM     78  C   UNL A   1      31.922  24.021  22.979  1.00  0.00     0.093 A 
ATOM     79  C   UNL A   1      33.169  25.846  22.619  1.00  0.00     0.020 A 
ATOM     80  C   UNL A   1      32.017  25.155  22.202  1.00  0.00     0.020 A 
ENDBRANCH  73  76
BRANCH  75  81
ATOM     81  C   UNL A   1      35.635  22.232  24.051  1.00  0.00     0.182 C 
BRANCH  81  82
ATOM     82  C   UNL A   1      36.846  22.524  24.903  1.00  0.00    -0.026 A 
ATOM     83  C   UNL A   1      37.846  21.557  25.089  1.00  0.00     0.005 A 
ATOM     84  C   UNL A   1      36.978  23.764  25.548  1.00  0.00     0.005 A 
ATOM     85  C   UNL A   1      38.941  21.821  25.916  1.00  0.00     0.000 A 
ATOM     86  C   UNL A   1      38.074  24.027  26.372  1.00  0.00     0.000 A 
ATOM     87  C   UNL A   1      39.052  23.054  26.558  1.00  0.00     0.000 A 
ENDBRANCH  81  82
ENDBRANCH  75  81
ENDBRANCH  68  71
ENDBRANCH  66  67
ENDBRANCH  65  66
ENDBRANCH  64  65
ENDBRANCH   1  64
TORSDOF 16
ENDMDL
MODEL 3
REMARK VINA RESULT:     -11.5      1.622      2.871
REMARK SMILES O=C(NCCCCCCNC(=O)c1cnn(Cc2ccccc2)c1-n1cccc1)c1ccc(-c2c3nc(c(-c4c(F)cccc4F)c4ccc([nH]4)c(-c4c(F)cccc4F)c4nc(c(-c5c(F)cccc5F)c5ccc2[nH]5)C=C4)C=C3)cc1
REMARK SMILES IDX 6 1 5 2 4 3 3 4 1 5 2 6 30 8 31 9 83 10 32 11 82 12 33 13
REMARK SMILES IDX 34 14 35 15 76 16 36 17 81 18 75 19 77 20 37 21 80 22 74 23
REMARK SMILES IDX 73 24 38 26 64 27 47 28 63 29 48 30 51 31 62 32 78 33 49 34
REMARK SMILES IDX 50 35 61 37 79 38 52 39 39 40 40 41 45 42 41 43 42 44 44 45
REMARK SMILES IDX 46 46 43 47 65 48 66 49 71 50 67 51 68 52 70 53 72 54 69 55
REMARK SMILES IDX 53 56 54 57 59 58 55 59 56 60 58 61 60 62 57 63 7 64 8 65
REMARK SMILES IDX 9 66 10 67 11 68 12 70 13 71 14 72 24 73 15 74 16 75 25 76
REMARK SMILES IDX 26 77 29 78 27 79 28 80 17 81 18 82 19 83 23 84 20 85 22 86
REMARK SMILES IDX 21 87
REMARK H PARENT 3 7 77 25 51 36 10 69
REMARK Flexibility Score: inf
ROOT
ATOM      1  C   UNL A   1      39.102  23.507  27.176  1.00  0.00     0.002 C 
ENDROOT
BRANCH   1   2
ATOM      2  C   UNL A   1      39.454  22.208  26.442  1.00  0.00     0.021 C 
BRANCH   2   3
ATOM      3  C   UNL A   1      40.854  21.666  26.730  1.00  0.00     0.116 C 
BRANCH   3   4
ATOM      4  N   UNL A   1      41.861  22.122  25.795  1.00  0.00    -0.352 N 
ATOM      5  O   UNL A   1      43.313  23.309  24.630  1.00  0.00    -0.269 OA
ATOM      6  C   UNL A   1      42.491  23.313  25.551  1.00  0.00     0.251 C 
ATOM      7  H   UNL A   1      42.163  21.406  25.190  1.00  0.00     0.163 HD
BRANCH   6   8
ATOM      8  C   UNL A   1      42.253  24.594  26.283  1.00  0.00     0.039 A 
ATOM      9  C   UNL A   1      42.651  24.877  27.589  1.00  0.00     0.014 A 
ATOM     10  C   UNL A   1      41.616  25.621  25.559  1.00  0.00     0.014 A 
ATOM     11  C   UNL A   1      42.394  26.133  28.162  1.00  0.00     0.010 A 
ATOM     12  C   UNL A   1      41.378  26.884  26.121  1.00  0.00     0.010 A 
ATOM     13  C   UNL A   1      41.750  27.147  27.439  1.00  0.00    -0.014 A 
BRANCH  13  14
ATOM     14  C   UNL A   1      41.571  28.463  28.091  1.00  0.00     0.031 A 
ATOM     15  C   UNL A   1      42.686  29.455  27.975  1.00  0.00     0.074 A 
ATOM     16  C   UNL A   1      40.437  28.935  28.650  1.00  0.00     0.049 A 
ATOM     17  N   UNL A   1      43.302  30.095  28.923  1.00  0.00    -0.248 NA
ATOM     18  C   UNL A   1      43.125  29.814  26.618  1.00  0.00     0.031 C 
ATOM     19  C   UNL A   1      39.097  28.358  28.570  1.00  0.00     0.029 A 
ATOM     20  N   UNL A   1      40.242  30.103  29.355  1.00  0.00    -0.354 N 
ATOM     21  C   UNL A   1      44.144  31.002  28.287  1.00  0.00     0.074 A 
ATOM     22  C   UNL A   1      44.016  30.774  26.866  1.00  0.00     0.031 C 
ATOM     23  C   UNL A   1      38.203  29.252  29.045  1.00  0.00     0.029 A 
ATOM     24  C   UNL A   1      38.914  30.402  29.591  1.00  0.00     0.049 A 
ATOM     25  H   UNL A   1      40.983  30.674  29.663  1.00  0.00     0.167 HD
ATOM     26  C   UNL A   1      44.822  31.995  28.919  1.00  0.00     0.037 A 
ATOM     27  C   UNL A   1      38.376  31.490  30.189  1.00  0.00     0.037 A 
ATOM     28  C   UNL A   1      44.739  32.015  30.345  1.00  0.00     0.049 A 
ATOM     29  C   UNL A   1      39.375  32.234  30.988  1.00  0.00     0.074 A 
ATOM     30  C   UNL A   1      45.559  31.740  31.416  1.00  0.00     0.029 A 
ATOM     31  N   UNL A   1      43.511  32.332  30.848  1.00  0.00    -0.354 N 
ATOM     32  N   UNL A   1      39.893  31.809  32.105  1.00  0.00    -0.248 NA
ATOM     33  C   UNL A   1      39.941  33.479  30.469  1.00  0.00     0.031 C 
ATOM     34  C   UNL A   1      44.747  31.803  32.590  1.00  0.00     0.029 A 
ATOM     35  C   UNL A   1      43.454  32.118  32.202  1.00  0.00     0.049 A 
ATOM     36  H   UNL A   1      42.762  32.672  30.308  1.00  0.00     0.167 HD
ATOM     37  C   UNL A   1      41.057  32.535  32.245  1.00  0.00     0.074 A 
ATOM     38  C   UNL A   1      40.968  33.639  31.307  1.00  0.00     0.031 C 
ATOM     39  C   UNL A   1      42.159  31.981  32.811  1.00  0.00     0.037 A 
BRANCH  26  40
ATOM     40  C   UNL A   1      45.324  33.190  28.191  1.00  0.00     0.057 A 
ATOM     41  C   UNL A   1      44.479  34.233  27.808  1.00  0.00     0.134 A 
ATOM     42  C   UNL A   1      46.633  33.201  27.678  1.00  0.00     0.134 A 
ATOM     43  F   UNL A   1      43.205  34.267  28.224  1.00  0.00    -0.206 F 
ATOM     44  C   UNL A   1      44.923  35.256  26.964  1.00  0.00     0.040 A 
ATOM     45  C   UNL A   1      47.093  34.222  26.848  1.00  0.00     0.040 A 
ATOM     46  F   UNL A   1      47.474  32.186  27.939  1.00  0.00    -0.206 F 
ATOM     47  C   UNL A   1      46.233  35.253  26.483  1.00  0.00     0.006 A 
ENDBRANCH  26  40
BRANCH  27  48
ATOM     48  C   UNL A   1      36.980  31.962  30.113  1.00  0.00     0.057 A 
ATOM     49  C   UNL A   1      36.084  31.788  31.173  1.00  0.00     0.134 A 
ATOM     50  C   UNL A   1      36.539  32.754  29.040  1.00  0.00     0.134 A 
ATOM     51  F   UNL A   1      36.438  31.090  32.261  1.00  0.00    -0.206 F 
ATOM     52  C   UNL A   1      34.805  32.353  31.160  1.00  0.00     0.040 A 
ATOM     53  C   UNL A   1      35.260  33.314  29.007  1.00  0.00     0.040 A 
ATOM     54  F   UNL A   1      37.362  33.049  28.022  1.00  0.00    -0.206 F 
ATOM     55  C   UNL A   1      34.388  33.115  30.073  1.00  0.00     0.006 A 
ENDBRANCH  27  48
BRANCH  39  56
ATOM     56  C   UNL A   1      41.934  30.928  33.832  1.00  0.00     0.057 A 
ATOM     57  C   UNL A   1      41.790  29.577  33.498  1.00  0.00     0.134 A 
ATOM     58  C   UNL A   1      41.875  31.279  35.183  1.00  0.00     0.134 A 
ATOM     59  F   UNL A   1      41.869  29.176  32.220  1.00  0.00    -0.206 F 
ATOM     60  C   UNL A   1      41.570  28.610  34.480  1.00  0.00     0.040 A 
ATOM     61  C   UNL A   1      41.671  30.321  36.175  1.00  0.00     0.040 A 
ATOM     62  F   UNL A   1      42.035  32.558  35.559  1.00  0.00    -0.206 F 
ATOM     63  C   UNL A   1      41.510  28.981  35.823  1.00  0.00     0.006 A 
ENDBRANCH  39  56
ENDBRANCH  13  14
ENDBRANCH   6   8
ENDBRANCH   3   4
ENDBRANCH   2   3
ENDBRANCH   1   2
BRANCH   1  64
ATOM     64  C   UNL A   1      38.047  24.396  26.506  1.00  0.00     0.002 C 
BRANCH  64  65
ATOM     65  C   UNL A   1      37.136  23.704  25.484  1.00  0.00     0.021 C 
BRANCH  65  66
ATOM     66  C   UNL A   1      35.696  23.474  25.946  1.00  0.00     0.116 C 
BRANCH  66  67
ATOM     67  N   UNL A   1      35.020  22.490  25.119  1.00  0.00    -0.352 N 
ATOM     68  C   UNL A   1      33.685  22.191  25.021  1.00  0.00     0.256 C 
ATOM     69  H   UNL A   1      35.611  21.955  24.541  1.00  0.00     0.163 HD
ATOM     70  O   UNL A   1      33.352  21.184  24.404  1.00  0.00    -0.269 OA
BRANCH  68  71
ATOM     71  C   UNL A   1      32.715  23.087  25.616  1.00  0.00     0.102 A 
ATOM     72  C   UNL A   1      32.183  23.004  26.920  1.00  0.00     0.151 A 
ATOM     73  C   UNL A   1      32.255  24.312  25.144  1.00  0.00     0.148 A 
ATOM     74  N   UNL A   1      31.421  24.045  27.242  1.00  0.00    -0.178 NA
ATOM     75  N   UNL A   1      31.435  24.824  26.127  1.00  0.00    -0.244 N 
BRANCH  73  76
ATOM     76  N   UNL A   1      32.537  24.909  23.912  1.00  0.00    -0.308 N 
ATOM     77  C   UNL A   1      33.650  25.673  23.614  1.00  0.00     0.093 A 
ATOM     78  C   UNL A   1      31.756  24.893  22.772  1.00  0.00     0.093 A 
ATOM     79  C   UNL A   1      33.595  26.080  22.300  1.00  0.00     0.020 A 
ATOM     80  C   UNL A   1      32.391  25.586  21.765  1.00  0.00     0.020 A 
ENDBRANCH  73  76
BRANCH  75  81
ATOM     81  C   UNL A   1      30.539  25.977  26.119  1.00  0.00     0.182 C 
BRANCH  81  82
ATOM     82  C   UNL A   1      31.278  27.294  26.121  1.00  0.00    -0.026 A 
ATOM     83  C   UNL A   1      31.253  28.135  25.000  1.00  0.00     0.005 A 
ATOM     84  C   UNL A   1      32.027  27.684  27.243  1.00  0.00     0.005 A 
ATOM     85  C   UNL A   1      31.977  29.330  24.995  1.00  0.00     0.000 A 
ATOM     86  C   UNL A   1      32.747  28.881  27.238  1.00  0.00     0.000 A 
ATOM     87  C   UNL A   1      32.724  29.700  26.113  1.00  0.00     0.000 A 
ENDBRANCH  81  82
ENDBRANCH  75  81
ENDBRANCH  68  71
ENDBRANCH  66  67
ENDBRANCH  65  66
ENDBRANCH  64  65
ENDBRANCH   1  64
TORSDOF 16
ENDMDL
