MODEL 1
REMARK VINA RESULT:     -12.3      0.000      0.000
REMARK SMILES O=C(NCCCCCCNC(=O)[C@@H]1[C@@H](C(=O)Nc2cccc([N+](=O)[O-])c2)[C@@H]2C=C[C@H]1O2)c1ccc(-c2c3nc(c(-c4c(F)cccc4F)c4ccc([nH]4)c(-c4c(F)cccc4F)c4nc(c(-c5c(F)cccc5F)c5ccc2[nH]5)C=C4)C=C3)cc1
REMARK SMILES IDX 7 1 6 2 5 3 4 4 3 5 1 6 2 7 32 9 33 10 85 11 34 12 84 13
REMARK SMILES IDX 35 14 36 15 37 16 78 17 38 18 83 19 77 20 79 21 39 22 82 23
REMARK SMILES IDX 76 24 75 25 40 27 66 28 49 29 65 30 50 31 53 32 64 33 80 34
REMARK SMILES IDX 51 35 52 36 63 38 81 39 54 40 41 41 42 42 47 43 43 44 44 45
REMARK SMILES IDX 46 46 48 47 45 48 67 49 68 50 73 51 69 52 70 53 72 54 74 55
REMARK SMILES IDX 71 56 55 57 56 58 61 59 57 60 58 61 60 62 62 63 59 64 8 65
REMARK SMILES IDX 9 66 10 67 11 68 12 70 13 71 14 72 30 73 27 74 29 75 31 76
REMARK SMILES IDX 28 77 15 78 16 79 17 80 18 82 19 83 26 84 20 85 22 86 21 87
REMARK SMILES IDX 23 88 24 89 25 90
REMARK H PARENT 3 8 79 26 53 37 10 69 17 81
REMARK Flexibility Score: inf
ROOT
ATOM      1  C   UNL A   1      41.808  21.384  27.222  1.00  0.00     0.002 C 
ENDROOT
BRANCH   1   2
ATOM      2  C   UNL A   1      41.760  19.854  27.292  1.00  0.00     0.002 C 
BRANCH   2   3
ATOM      3  C   UNL A   1      42.241  19.156  26.019  1.00  0.00     0.021 C 
BRANCH   3   4
ATOM      4  C   UNL A   1      43.666  18.633  26.130  1.00  0.00     0.116 C 
BRANCH   4   5
ATOM      5  N   UNL A   1      44.314  18.625  24.829  1.00  0.00    -0.352 N 
ATOM      6  O   UNL A   1      44.871  19.544  22.840  1.00  0.00    -0.269 OA
ATOM      7  C   UNL A   1      44.615  19.696  24.034  1.00  0.00     0.251 C 
ATOM      8  H   UNL A   1      44.568  17.741  24.478  1.00  0.00     0.163 HD
BRANCH   7   9
ATOM      9  C   UNL A   1      44.645  21.040  24.636  1.00  0.00     0.039 A 
ATOM     10  C   UNL A   1      45.269  21.225  25.874  1.00  0.00     0.014 A 
ATOM     11  C   UNL A   1      44.079  22.118  23.954  1.00  0.00     0.014 A 
ATOM     12  C   UNL A   1      45.256  22.475  26.473  1.00  0.00     0.010 A 
ATOM     13  C   UNL A   1      44.145  23.392  24.517  1.00  0.00     0.010 A 
ATOM     14  C   UNL A   1      44.742  23.577  25.775  1.00  0.00    -0.014 A 
BRANCH  14  15
ATOM     15  C   UNL A   1      44.988  24.937  26.304  1.00  0.00     0.031 A 
ATOM     16  C   UNL A   1      43.883  25.760  26.887  1.00  0.00     0.074 A 
ATOM     17  C   UNL A   1      46.244  25.419  26.217  1.00  0.00     0.049 A 
ATOM     18  N   UNL A   1      43.929  26.988  27.334  1.00  0.00    -0.248 NA
ATOM     19  C   UNL A   1      42.554  25.137  26.973  1.00  0.00     0.031 C 
ATOM     20  C   UNL A   1      47.387  24.698  25.647  1.00  0.00     0.029 A 
ATOM     21  N   UNL A   1      46.773  26.625  26.597  1.00  0.00    -0.354 N 
ATOM     22  C   UNL A   1      42.636  27.295  27.734  1.00  0.00     0.074 A 
ATOM     23  C   UNL A   1      41.822  26.128  27.468  1.00  0.00     0.031 C 
ATOM     24  C   UNL A   1      48.482  25.465  25.731  1.00  0.00     0.029 A 
ATOM     25  C   UNL A   1      48.106  26.756  26.287  1.00  0.00     0.049 A 
ATOM     26  H   UNL A   1      46.250  27.327  27.047  1.00  0.00     0.167 HD
ATOM     27  C   UNL A   1      42.182  28.452  28.270  1.00  0.00     0.037 A 
ATOM     28  C   UNL A   1      48.925  27.817  26.393  1.00  0.00     0.037 A 
ATOM     29  C   UNL A   1      43.015  29.596  28.543  1.00  0.00     0.049 A 
ATOM     30  C   UNL A   1      48.376  29.095  26.951  1.00  0.00     0.074 A 
ATOM     31  C   UNL A   1      42.667  30.785  29.160  1.00  0.00     0.029 A 
ATOM     32  N   UNL A   1      44.355  29.701  28.200  1.00  0.00    -0.354 N 
ATOM     33  N   UNL A   1      47.169  29.346  27.399  1.00  0.00    -0.248 NA
ATOM     34  C   UNL A   1      49.293  30.240  27.011  1.00  0.00     0.031 C 
ATOM     35  C   UNL A   1      43.776  31.634  29.128  1.00  0.00     0.029 A 
ATOM     36  C   UNL A   1      44.833  30.954  28.546  1.00  0.00     0.049 A 
ATOM     37  H   UNL A   1      44.887  28.989  27.774  1.00  0.00     0.167 HD
ATOM     38  C   UNL A   1      47.184  30.674  27.803  1.00  0.00     0.074 A 
ATOM     39  C   UNL A   1      48.528  31.165  27.575  1.00  0.00     0.031 C 
ATOM     40  C   UNL A   1      46.174  31.422  28.307  1.00  0.00     0.037 A 
BRANCH  27  41
ATOM     41  C   UNL A   1      40.719  28.568  28.580  1.00  0.00     0.057 A 
ATOM     42  C   UNL A   1      40.205  28.311  29.857  1.00  0.00     0.134 A 
ATOM     43  C   UNL A   1      39.827  29.040  27.608  1.00  0.00     0.134 A 
ATOM     44  F   UNL A   1      41.004  27.850  30.832  1.00  0.00    -0.206 F 
ATOM     45  C   UNL A   1      38.857  28.519  30.155  1.00  0.00     0.040 A 
ATOM     46  C   UNL A   1      38.483  29.272  27.899  1.00  0.00     0.040 A 
ATOM     47  F   UNL A   1      40.255  29.310  26.365  1.00  0.00    -0.206 F 
ATOM     48  C   UNL A   1      37.993  29.012  29.178  1.00  0.00     0.006 A 
ENDBRANCH  27  41
BRANCH  28  49
ATOM     49  C   UNL A   1      50.325  27.729  25.909  1.00  0.00     0.057 A 
ATOM     50  C   UNL A   1      51.391  27.525  26.791  1.00  0.00     0.134 A 
ATOM     51  C   UNL A   1      50.634  27.866  24.547  1.00  0.00     0.134 A 
ATOM     52  F   UNL A   1      51.162  27.401  28.107  1.00  0.00    -0.206 F 
ATOM     53  C   UNL A   1      52.712  27.489  26.345  1.00  0.00     0.040 A 
ATOM     54  C   UNL A   1      51.946  27.797  24.083  1.00  0.00     0.040 A 
ATOM     55  F   UNL A   1      49.657  28.053  23.646  1.00  0.00    -0.206 F 
ATOM     56  C   UNL A   1      52.993  27.621  24.986  1.00  0.00     0.006 A 
ENDBRANCH  28  49
BRANCH  40  57
ATOM     57  C   UNL A   1      46.491  32.845  28.654  1.00  0.00     0.057 A 
ATOM     58  C   UNL A   1      46.296  33.886  27.736  1.00  0.00     0.134 A 
ATOM     59  C   UNL A   1      46.954  33.185  29.932  1.00  0.00     0.134 A 
ATOM     60  F   UNL A   1      45.872  33.623  26.490  1.00  0.00    -0.206 F 
ATOM     61  C   UNL A   1      46.566  35.212  28.073  1.00  0.00     0.040 A 
ATOM     62  C   UNL A   1      47.198  34.510  30.289  1.00  0.00     0.040 A 
ATOM     63  F   UNL A   1      47.156  32.235  30.857  1.00  0.00    -0.206 F 
ATOM     64  C   UNL A   1      47.009  35.528  29.356  1.00  0.00     0.006 A 
ENDBRANCH  40  57
ENDBRANCH  14  15
ENDBRANCH   7   9
ENDBRANCH   4   5
ENDBRANCH   3   4
ENDBRANCH   2   3
ENDBRANCH   1   2
BRANCH   1  65
ATOM     65  C   UNL A   1      40.963  21.993  26.092  1.00  0.00     0.021 C 
BRANCH  65  66
ATOM     66  C   UNL A   1      39.467  21.990  26.406  1.00  0.00     0.116 C 
BRANCH  66  67
ATOM     67  N   UNL A   1      38.781  21.042  25.562  1.00  0.00    -0.356 N 
ATOM     68  C   UNL A   1      37.481  20.822  25.288  1.00  0.00     0.227 C 
ATOM     69  H   UNL A   1      39.389  20.430  25.089  1.00  0.00     0.163 HD
ATOM     70  O   UNL A   1      37.244  19.781  24.657  1.00  0.00    -0.275 OA
BRANCH  68  71
ATOM     71  C   UNL A   1      36.319  21.734  25.621  1.00  0.00     0.127 C 
ATOM     72  C   UNL A   1      34.830  21.522  25.271  1.00  0.00     0.127 C 
ATOM     73  C   UNL A   1      36.579  23.105  24.961  1.00  0.00     0.155 C 
ATOM     74  C   UNL A   1      34.446  22.854  24.613  1.00  0.00     0.155 C 
ATOM     75  C   UNL A   1      36.405  23.055  23.471  1.00  0.00     0.004 C 
ATOM     76  O   UNL A   1      35.335  23.776  25.284  1.00  0.00    -0.365 OA
ATOM     77  C   UNL A   1      35.088  22.911  23.253  1.00  0.00     0.004 C 
BRANCH  72  78
ATOM     78  C   UNL A   1      33.884  21.036  26.379  1.00  0.00     0.231 C 
ATOM     79  O   UNL A   1      33.816  21.712  27.416  1.00  0.00    -0.274 OA
ATOM     80  N   UNL A   1      33.013  19.987  26.288  1.00  0.00    -0.325 N 
ATOM     81  H   UNL A   1      32.302  19.986  26.967  1.00  0.00     0.169 HD
BRANCH  80  82
ATOM     82  C   UNL A   1      32.962  18.916  25.391  1.00  0.00     0.048 A 
ATOM     83  C   UNL A   1      32.577  19.163  24.070  1.00  0.00     0.026 A 
ATOM     84  C   UNL A   1      33.327  17.633  25.775  1.00  0.00     0.111 A 
ATOM     85  C   UNL A   1      32.738  18.170  23.099  1.00  0.00     0.009 A 
ATOM     86  C   UNL A   1      33.524  16.655  24.798  1.00  0.00     0.271 A 
ATOM     87  C   UNL A   1      33.251  16.921  23.452  1.00  0.00     0.086 A 
BRANCH  86  88
ATOM     88  N   UNL A   1      34.098  15.367  25.187  1.00  0.00     0.062 N 
ATOM     89  O   UNL A   1      33.312  14.429  25.383  1.00  0.00    -0.258 OA
ATOM     90  O   UNL A   1      35.329  15.301  25.308  1.00  0.00    -0.258 OA
ENDBRANCH  86  88
ENDBRANCH  80  82
ENDBRANCH  72  78
ENDBRANCH  68  71
ENDBRANCH  66  67
ENDBRANCH  65  66
ENDBRANCH   1  65
TORSDOF 16
ENDMDL
MODEL 2
REMARK VINA RESULT:     -12.3      1.859      3.053
REMARK SMILES O=C(NCCCCCCNC(=O)[C@@H]1[C@@H](C(=O)Nc2cccc([N+](=O)[O-])c2)[C@@H]2C=C[C@H]1O2)c1ccc(-c2c3nc(c(-c4c(F)cccc4F)c4ccc([nH]4)c(-c4c(F)cccc4F)c4nc(c(-c5c(F)cccc5F)c5ccc2[nH]5)C=C4)C=C3)cc1
REMARK SMILES IDX 7 1 6 2 5 3 4 4 3 5 1 6 2 7 32 9 33 10 85 11 34 12 84 13
REMARK SMILES IDX 35 14 36 15 37 16 78 17 38 18 83 19 77 20 79 21 39 22 82 23
REMARK SMILES IDX 76 24 75 25 40 27 66 28 49 29 65 30 50 31 53 32 64 33 80 34
REMARK SMILES IDX 51 35 52 36 63 38 81 39 54 40 41 41 42 42 47 43 43 44 44 45
REMARK SMILES IDX 46 46 48 47 45 48 67 49 68 50 73 51 69 52 70 53 72 54 74 55
REMARK SMILES IDX 71 56 55 57 56 58 61 59 57 60 58 61 60 62 62 63 59 64 8 65
REMARK SMILES IDX 9 66 10 67 11 68 12 70 13 71 14 72 30 73 27 74 29 75 31 76
REMARK SMILES IDX 28 77 15 78 16 79 17 80 18 82 19 83 26 84 20 85 22 86 21 87
REMARK SMILES IDX 23 88 24 89 25 90
REMARK H PARENT 3 8 79 26 53 37 10 69 17 81
REMARK Flexibility Score: inf
ROOT
ATOM      1  C   UNL A   1      37.030  21.809  24.048  1.00  0.00     0.002 C 
ENDROOT
BRANCH   1   2
ATOM      2  C   UNL A   1      36.826  20.622  24.996  1.00  0.00     0.002 C 
BRANCH   2   3
ATOM      3  C   UNL A   1      37.977  19.615  24.992  1.00  0.00     0.021 C 
BRANCH   3   4
ATOM      4  C   UNL A   1      39.201  20.109  25.749  1.00  0.00     0.116 C 
BRANCH   4   5
ATOM      5  N   UNL A   1      40.179  19.043  25.898  1.00  0.00    -0.352 N 
ATOM      6  O   UNL A   1      42.278  18.203  25.865  1.00  0.00    -0.269 OA
ATOM      7  C   UNL A   1      41.531  19.161  26.064  1.00  0.00     0.251 C 
ATOM      8  H   UNL A   1      39.824  18.125  25.876  1.00  0.00     0.163 HD
BRANCH   7   9
ATOM      9  C   UNL A   1      42.081  20.454  26.505  1.00  0.00     0.039 A 
ATOM     10  C   UNL A   1      42.682  21.302  25.569  1.00  0.00     0.014 A 
ATOM     11  C   UNL A   1      41.969  20.834  27.843  1.00  0.00     0.014 A 
ATOM     12  C   UNL A   1      43.248  22.497  25.984  1.00  0.00     0.010 A 
ATOM     13  C   UNL A   1      42.461  22.076  28.244  1.00  0.00     0.010 A 
ATOM     14  C   UNL A   1      43.094  22.917  27.313  1.00  0.00    -0.014 A 
BRANCH  14  15
ATOM     15  C   UNL A   1      43.454  24.307  27.670  1.00  0.00     0.031 A 
ATOM     16  C   UNL A   1      42.410  25.313  28.040  1.00  0.00     0.074 A 
ATOM     17  C   UNL A   1      44.758  24.643  27.624  1.00  0.00     0.049 A 
ATOM     18  N   UNL A   1      42.561  26.582  28.318  1.00  0.00    -0.248 NA
ATOM     19  C   UNL A   1      41.017  24.846  28.099  1.00  0.00     0.031 C 
ATOM     20  C   UNL A   1      45.850  23.734  27.256  1.00  0.00     0.029 A 
ATOM     21  N   UNL A   1      45.391  25.831  27.878  1.00  0.00    -0.354 N 
ATOM     22  C   UNL A   1      41.286  27.073  28.562  1.00  0.00     0.074 A 
ATOM     23  C   UNL A   1      40.368  25.967  28.391  1.00  0.00     0.031 C 
ATOM     24  C   UNL A   1      47.015  24.391  27.326  1.00  0.00     0.029 A 
ATOM     25  C   UNL A   1      46.749  25.781  27.666  1.00  0.00     0.049 A 
ATOM     26  H   UNL A   1      44.921  26.641  28.182  1.00  0.00     0.167 HD
ATOM     27  C   UNL A   1      40.929  28.335  28.895  1.00  0.00     0.037 A 
ATOM     28  C   UNL A   1      47.672  26.758  27.695  1.00  0.00     0.037 A 
ATOM     29  C   UNL A   1      41.864  29.417  29.077  1.00  0.00     0.049 A 
ATOM     30  C   UNL A   1      47.232  28.152  28.025  1.00  0.00     0.074 A 
ATOM     31  C   UNL A   1      41.609  30.711  29.494  1.00  0.00     0.029 A 
ATOM     32  N   UNL A   1      43.228  29.335  28.837  1.00  0.00    -0.354 N 
ATOM     33  N   UNL A   1      46.033  28.586  28.331  1.00  0.00    -0.248 NA
ATOM     34  C   UNL A   1      48.264  29.196  28.004  1.00  0.00     0.031 C 
ATOM     35  C   UNL A   1      42.805  31.430  29.440  1.00  0.00     0.029 A 
ATOM     36  C   UNL A   1      43.817  30.570  29.046  1.00  0.00     0.049 A 
ATOM     37  H   UNL A   1      43.705  28.519  28.558  1.00  0.00     0.167 HD
ATOM     38  C   UNL A   1      46.168  29.949  28.549  1.00  0.00     0.074 A 
ATOM     39  C   UNL A   1      47.571  30.264  28.370  1.00  0.00     0.031 C 
ATOM     40  C   UNL A   1      45.215  30.861  28.859  1.00  0.00     0.037 A 
BRANCH  27  41
ATOM     41  C   UNL A   1      39.470  28.641  29.062  1.00  0.00     0.057 A 
ATOM     42  C   UNL A   1      38.812  28.486  30.288  1.00  0.00     0.134 A 
ATOM     43  C   UNL A   1      38.739  29.194  28.002  1.00  0.00     0.134 A 
ATOM     44  F   UNL A   1      39.451  27.956  31.341  1.00  0.00    -0.206 F 
ATOM     45  C   UNL A   1      37.479  28.869  30.453  1.00  0.00     0.040 A 
ATOM     46  C   UNL A   1      37.414  29.601  28.159  1.00  0.00     0.040 A 
ATOM     47  F   UNL A   1      39.311  29.375  26.801  1.00  0.00    -0.206 F 
ATOM     48  C   UNL A   1      36.779  29.439  29.390  1.00  0.00     0.006 A 
ENDBRANCH  27  41
BRANCH  28  49
ATOM     49  C   UNL A   1      49.084  26.460  27.346  1.00  0.00     0.057 A 
ATOM     50  C   UNL A   1      50.003  26.051  28.316  1.00  0.00     0.134 A 
ATOM     51  C   UNL A   1      49.552  26.596  26.031  1.00  0.00     0.134 A 
ATOM     52  F   UNL A   1      49.620  25.916  29.594  1.00  0.00    -0.206 F 
ATOM     53  C   UNL A   1      51.342  25.815  28.001  1.00  0.00     0.040 A 
ATOM     54  C   UNL A   1      50.879  26.330  25.695  1.00  0.00     0.040 A 
ATOM     55  F   UNL A   1      48.719  26.974  25.050  1.00  0.00    -0.206 F 
ATOM     56  C   UNL A   1      51.782  25.950  26.685  1.00  0.00     0.006 A 
ENDBRANCH  28  49
BRANCH  40  57
ATOM     57  C   UNL A   1      45.665  32.280  29.034  1.00  0.00     0.057 A 
ATOM     58  C   UNL A   1      46.127  32.758  30.266  1.00  0.00     0.134 A 
ATOM     59  C   UNL A   1      45.678  33.165  27.948  1.00  0.00     0.134 A 
ATOM     60  F   UNL A   1      46.122  31.964  31.348  1.00  0.00    -0.206 F 
ATOM     61  C   UNL A   1      46.572  34.072  30.417  1.00  0.00     0.040 A 
ATOM     62  C   UNL A   1      46.148  34.472  28.080  1.00  0.00     0.040 A 
ATOM     63  F   UNL A   1      45.254  32.767  26.739  1.00  0.00    -0.206 F 
ATOM     64  C   UNL A   1      46.592  34.929  29.319  1.00  0.00     0.006 A 
ENDBRANCH  40  57
ENDBRANCH  14  15
ENDBRANCH   7   9
ENDBRANCH   4   5
ENDBRANCH   3   4
ENDBRANCH   2   3
ENDBRANCH   1   2
BRANCH   1  65
ATOM     65  C   UNL A   1      36.509  23.149  24.589  1.00  0.00     0.021 C 
BRANCH  65  66
ATOM     66  C   UNL A   1      35.213  23.597  23.912  1.00  0.00     0.116 C 
BRANCH  66  67
ATOM     67  N   UNL A   1      34.783  24.865  24.446  1.00  0.00    -0.356 N 
ATOM     68  C   UNL A   1      33.847  25.218  25.348  1.00  0.00     0.227 C 
ATOM     69  H   UNL A   1      35.275  25.633  24.074  1.00  0.00     0.163 HD
ATOM     70  O   UNL A   1      33.616  26.434  25.421  1.00  0.00    -0.275 OA
BRANCH  68  71
ATOM     71  C   UNL A   1      33.112  24.295  26.297  1.00  0.00     0.127 C 
ATOM     72  C   UNL A   1      32.743  22.813  26.066  1.00  0.00     0.127 C 
ATOM     73  C   UNL A   1      31.720  24.900  26.574  1.00  0.00     0.155 C 
ATOM     74  C   UNL A   1      31.245  22.784  26.397  1.00  0.00     0.155 C 
ATOM     75  C   UNL A   1      30.806  24.778  25.390  1.00  0.00     0.004 C 
ATOM     76  O   UNL A   1      31.144  23.840  27.379  1.00  0.00    -0.365 OA
ATOM     77  C   UNL A   1      30.503  23.475  25.284  1.00  0.00     0.004 C 
BRANCH  72  78
ATOM     78  C   UNL A   1      33.592  21.735  26.756  1.00  0.00     0.231 C 
ATOM     79  O   UNL A   1      34.272  22.077  27.736  1.00  0.00    -0.274 OA
ATOM     80  N   UNL A   1      33.584  20.400  26.468  1.00  0.00    -0.325 N 
ATOM     81  H   UNL A   1      33.966  19.827  27.171  1.00  0.00     0.169 HD
BRANCH  80  82
ATOM     82  C   UNL A   1      33.123  19.711  25.342  1.00  0.00     0.048 A 
ATOM     83  C   UNL A   1      32.430  20.421  24.357  1.00  0.00     0.026 A 
ATOM     84  C   UNL A   1      33.378  18.357  25.168  1.00  0.00     0.111 A 
ATOM     85  C   UNL A   1      32.162  19.819  23.123  1.00  0.00     0.009 A 
ATOM     86  C   UNL A   1      33.144  17.772  23.922  1.00  0.00     0.271 A 
ATOM     87  C   UNL A   1      32.554  18.502  22.886  1.00  0.00     0.086 A 
BRANCH  86  88
ATOM     88  N   UNL A   1      33.599  16.401  23.685  1.00  0.00     0.062 N 
ATOM     89  O   UNL A   1      34.309  16.202  22.688  1.00  0.00    -0.258 OA
ATOM     90  O   UNL A   1      33.235  15.529  24.486  1.00  0.00    -0.258 OA
ENDBRANCH  86  88
ENDBRANCH  80  82
ENDBRANCH  72  78
ENDBRANCH  68  71
ENDBRANCH  66  67
ENDBRANCH  65  66
ENDBRANCH   1  65
TORSDOF 16
ENDMDL
MODEL 3
REMARK VINA RESULT:     -12.3      6.475     11.576
REMARK SMILES O=C(NCCCCCCNC(=O)[C@@H]1[C@@H](C(=O)Nc2cccc([N+](=O)[O-])c2)[C@@H]2C=C[C@H]1O2)c1ccc(-c2c3nc(c(-c4c(F)cccc4F)c4ccc([nH]4)c(-c4c(F)cccc4F)c4nc(c(-c5c(F)cccc5F)c5ccc2[nH]5)C=C4)C=C3)cc1
REMARK SMILES IDX 7 1 6 2 5 3 4 4 3 5 1 6 2 7 32 9 33 10 85 11 34 12 84 13
REMARK SMILES IDX 35 14 36 15 37 16 78 17 38 18 83 19 77 20 79 21 39 22 82 23
REMARK SMILES IDX 76 24 75 25 40 27 66 28 49 29 65 30 50 31 53 32 64 33 80 34
REMARK SMILES IDX 51 35 52 36 63 38 81 39 54 40 41 41 42 42 47 43 43 44 44 45
REMARK SMILES IDX 46 46 48 47 45 48 67 49 68 50 73 51 69 52 70 53 72 54 74 55
REMARK SMILES IDX 71 56 55 57 56 58 61 59 57 60 58 61 60 62 62 63 59 64 8 65
REMARK SMILES IDX 9 66 10 67 11 68 12 70 13 71 14 72 30 73 27 74 29 75 31 76
REMARK SMILES IDX 28 77 15 78 16 79 17 80 18 82 19 83 26 84 20 85 22 86 21 87
REMARK SMILES IDX 23 88 24 89 25 90
REMARK H PARENT 3 8 79 26 53 37 10 69 17 81
REMARK Flexibility Score: inf
ROOT
ATOM      1  C   UNL A   1      32.701  29.572  26.445  1.00  0.00     0.002 C 
ENDROOT
BRANCH   1   2
ATOM      2  C   UNL A   1      31.695  30.532  25.801  1.00  0.00     0.002 C 
BRANCH   2   3
ATOM      3  C   UNL A   1      31.381  31.767  26.649  1.00  0.00     0.021 C 
BRANCH   3   4
ATOM      4  C   UNL A   1      32.625  32.408  27.246  1.00  0.00     0.116 C 
BRANCH   4   5
ATOM      5  N   UNL A   1      32.402  33.822  27.502  1.00  0.00    -0.352 N 
ATOM      6  O   UNL A   1      32.522  35.693  28.767  1.00  0.00    -0.269 OA
ATOM      7  C   UNL A   1      33.010  34.611  28.440  1.00  0.00     0.251 C 
ATOM      8  H   UNL A   1      31.734  34.265  26.932  1.00  0.00     0.163 HD
BRANCH   7   9
ATOM      9  C   UNL A   1      34.273  34.153  29.041  1.00  0.00     0.039 A 
ATOM     10  C   UNL A   1      34.246  33.464  30.259  1.00  0.00     0.014 A 
ATOM     11  C   UNL A   1      35.480  34.381  28.378  1.00  0.00     0.014 A 
ATOM     12  C   UNL A   1      35.434  33.076  30.858  1.00  0.00     0.010 A 
ATOM     13  C   UNL A   1      36.667  33.911  28.938  1.00  0.00     0.010 A 
ATOM     14  C   UNL A   1      36.647  33.248  30.177  1.00  0.00    -0.014 A 
BRANCH  14  15
ATOM     15  C   UNL A   1      37.861  32.581  30.698  1.00  0.00     0.031 A 
ATOM     16  C   UNL A   1      38.417  31.354  30.048  1.00  0.00     0.074 A 
ATOM     17  C   UNL A   1      38.434  33.105  31.800  1.00  0.00     0.049 A 
ATOM     18  N   UNL A   1      39.435  30.622  30.421  1.00  0.00    -0.248 NA
ATOM     19  C   UNL A   1      37.747  30.875  28.830  1.00  0.00     0.031 C 
ATOM     20  C   UNL A   1      37.953  34.292  32.516  1.00  0.00     0.029 A 
ATOM     21  N   UNL A   1      39.535  32.713  32.515  1.00  0.00    -0.354 N 
ATOM     22  C   UNL A   1      39.516  29.585  29.502  1.00  0.00     0.074 A 
ATOM     23  C   UNL A   1      38.437  29.775  28.555  1.00  0.00     0.031 C 
ATOM     24  C   UNL A   1      38.762  34.540  33.555  1.00  0.00     0.029 A 
ATOM     25  C   UNL A   1      39.769  33.492  33.623  1.00  0.00     0.049 A 
ATOM     26  H   UNL A   1      40.101  31.949  32.260  1.00  0.00     0.167 HD
ATOM     27  C   UNL A   1      40.412  28.572  29.465  1.00  0.00     0.037 A 
ATOM     28  C   UNL A   1      40.667  33.349  34.615  1.00  0.00     0.037 A 
ATOM     29  C   UNL A   1      41.489  28.413  30.410  1.00  0.00     0.049 A 
ATOM     30  C   UNL A   1      41.615  32.189  34.563  1.00  0.00     0.074 A 
ATOM     31  C   UNL A   1      42.499  27.467  30.411  1.00  0.00     0.029 A 
ATOM     32  N   UNL A   1      41.685  29.209  31.529  1.00  0.00    -0.354 N 
ATOM     33  N   UNL A   1      41.731  31.261  33.644  1.00  0.00    -0.248 NA
ATOM     34  C   UNL A   1      42.550  32.048  35.686  1.00  0.00     0.031 C 
ATOM     35  C   UNL A   1      43.264  27.647  31.565  1.00  0.00     0.029 A 
ATOM     36  C   UNL A   1      42.769  28.741  32.254  1.00  0.00     0.049 A 
ATOM     37  H   UNL A   1      41.136  29.990  31.772  1.00  0.00     0.167 HD
ATOM     38  C   UNL A   1      42.757  30.431  34.072  1.00  0.00     0.074 A 
ATOM     39  C   UNL A   1      43.250  30.984  35.317  1.00  0.00     0.031 C 
ATOM     40  C   UNL A   1      43.240  29.306  33.493  1.00  0.00     0.037 A 
BRANCH  27  41
ATOM     41  C   UNL A   1      40.268  27.532  28.394  1.00  0.00     0.057 A 
ATOM     42  C   UNL A   1      40.904  27.649  27.152  1.00  0.00     0.134 A 
ATOM     43  C   UNL A   1      39.561  26.349  28.649  1.00  0.00     0.134 A 
ATOM     44  F   UNL A   1      41.591  28.758  26.841  1.00  0.00    -0.206 F 
ATOM     45  C   UNL A   1      40.841  26.626  26.203  1.00  0.00     0.040 A 
ATOM     46  C   UNL A   1      39.509  25.312  27.718  1.00  0.00     0.040 A 
ATOM     47  F   UNL A   1      38.932  26.171  29.822  1.00  0.00    -0.206 F 
ATOM     48  C   UNL A   1      40.152  25.449  26.489  1.00  0.00     0.006 A 
ENDBRANCH  27  41
BRANCH  28  49
ATOM     49  C   UNL A   1      40.668  34.293  35.760  1.00  0.00     0.057 A 
ATOM     50  C   UNL A   1      39.917  34.040  36.913  1.00  0.00     0.134 A 
ATOM     51  C   UNL A   1      41.408  35.483  35.722  1.00  0.00     0.134 A 
ATOM     52  F   UNL A   1      39.177  32.926  37.005  1.00  0.00    -0.206 F 
ATOM     53  C   UNL A   1      39.878  34.947  37.972  1.00  0.00     0.040 A 
ATOM     54  C   UNL A   1      41.406  36.382  36.787  1.00  0.00     0.040 A 
ATOM     55  F   UNL A   1      42.158  35.780  34.650  1.00  0.00    -0.206 F 
ATOM     56  C   UNL A   1      40.628  36.121  37.913  1.00  0.00     0.006 A 
ENDBRANCH  28  49
BRANCH  40  57
ATOM     57  C   UNL A   1      44.365  28.610  34.197  1.00  0.00     0.057 A 
ATOM     58  C   UNL A   1      44.131  27.565  35.101  1.00  0.00     0.134 A 
ATOM     59  C   UNL A   1      45.697  28.955  33.935  1.00  0.00     0.134 A 
ATOM     60  F   UNL A   1      42.877  27.200  35.407  1.00  0.00    -0.206 F 
ATOM     61  C   UNL A   1      45.182  26.901  35.732  1.00  0.00     0.040 A 
ATOM     62  C   UNL A   1      46.757  28.278  34.538  1.00  0.00     0.040 A 
ATOM     63  F   UNL A   1      45.988  29.943  33.076  1.00  0.00    -0.206 F 
ATOM     64  C   UNL A   1      46.500  27.251  35.444  1.00  0.00     0.006 A 
ENDBRANCH  40  57
ENDBRANCH  14  15
ENDBRANCH   7   9
ENDBRANCH   4   5
ENDBRANCH   3   4
ENDBRANCH   2   3
ENDBRANCH   1   2
BRANCH   1  65
ATOM     65  C   UNL A   1      32.061  28.397  27.201  1.00  0.00     0.021 C 
BRANCH  65  66
ATOM     66  C   UNL A   1      31.799  27.188  26.302  1.00  0.00     0.116 C 
BRANCH  66  67
ATOM     67  N   UNL A   1      32.919  26.280  26.348  1.00  0.00    -0.356 N 
ATOM     68  C   UNL A   1      33.704  25.733  25.400  1.00  0.00     0.227 C 
ATOM     69  H   UNL A   1      33.159  26.001  27.261  1.00  0.00     0.163 HD
ATOM     70  O   UNL A   1      34.458  24.832  25.794  1.00  0.00    -0.275 OA
BRANCH  68  71
ATOM     71  C   UNL A   1      33.788  26.148  23.946  1.00  0.00     0.127 C 
ATOM     72  C   UNL A   1      32.743  26.946  23.136  1.00  0.00     0.127 C 
ATOM     73  C   UNL A   1      33.905  24.870  23.088  1.00  0.00     0.155 C 
ATOM     74  C   UNL A   1      32.551  26.077  21.886  1.00  0.00     0.155 C 
ATOM     75  C   UNL A   1      32.612  24.110  23.030  1.00  0.00     0.004 C 
ATOM     76  O   UNL A   1      33.850  25.455  21.762  1.00  0.00    -0.365 OA
ATOM     77  C   UNL A   1      31.777  24.847  22.280  1.00  0.00     0.004 C 
BRANCH  72  78
ATOM     78  C   UNL A   1      33.010  28.435  22.871  1.00  0.00     0.231 C 
ATOM     79  O   UNL A   1      34.175  28.841  22.992  1.00  0.00    -0.274 OA
ATOM     80  N   UNL A   1      32.104  29.340  22.396  1.00  0.00    -0.325 N 
ATOM     81  H   UNL A   1      32.502  30.161  22.027  1.00  0.00     0.169 HD
BRANCH  80  82
ATOM     82  C   UNL A   1      30.708  29.296  22.345  1.00  0.00     0.048 A 
ATOM     83  C   UNL A   1      30.043  28.264  23.015  1.00  0.00     0.026 A 
ATOM     84  C   UNL A   1      29.977  30.275  21.685  1.00  0.00     0.111 A 
ATOM     85  C   UNL A   1      28.656  28.320  23.179  1.00  0.00     0.009 A 
ATOM     86  C   UNL A   1      28.597  30.349  21.884  1.00  0.00     0.271 A 
ATOM     87  C   UNL A   1      27.929  29.386  22.647  1.00  0.00     0.086 A 
BRANCH  86  88
ATOM     88  N   UNL A   1      27.862  31.496  21.349  1.00  0.00     0.062 N 
ATOM     89  O   UNL A   1      27.558  31.466  20.148  1.00  0.00    -0.258 OA
ATOM     90  O   UNL A   1      27.605  32.425  22.126  1.00  0.00    -0.258 OA
ENDBRANCH  86  88
ENDBRANCH  80  82
ENDBRANCH  72  78
ENDBRANCH  68  71
ENDBRANCH  66  67
ENDBRANCH  65  66
ENDBRANCH   1  65
TORSDOF 16
ENDMDL
