MODEL 1
REMARK VINA RESULT:     -10.8      0.000      0.000
REMARK SMILES COc1ccc(-c2nc(SCC(=O)NCCCCCCNC(=O)c3ccc(-c4c5nc(c(-c6c(F)cccc6F)c6ccc([nH]6)c(-c6c(F)cccc6F)c6nc(c(-c7c(F)cccc7F)c7ccc4[nH]7)C=C6)C=C5)cc3)cc(-c3ccncc3)n2)cc1
REMARK SMILES IDX 16 1 15 2 14 3 12 4 13 5 11 7 10 8 9 9 7 10 8 11 86 12 79 13
REMARK SMILES IDX 78 14 6 15 3 16 4 17 88 18 5 19 87 20 2 21 1 22 80 23 81 24
REMARK SMILES IDX 85 25 82 26 84 27 83 28 17 29 18 30 19 31 20 32 21 33 22 34
REMARK SMILES IDX 23 36 24 37 25 38 77 39 26 40 76 41 27 42 28 43 29 44 70 45
REMARK SMILES IDX 30 46 75 47 69 48 71 49 31 50 74 51 68 52 67 53 32 55 58 56
REMARK SMILES IDX 41 57 57 58 42 59 45 60 56 61 72 62 43 63 44 64 55 66 73 67
REMARK SMILES IDX 46 68 33 69 34 70 39 71 35 72 36 73 38 74 40 75 37 76 59 77
REMARK SMILES IDX 60 78 65 79 61 80 62 81 64 82 66 83 63 84 47 85 48 86 53 87
REMARK SMILES IDX 49 88 50 89 52 90 54 91 51 92
REMARK H PARENT 14 6 21 35 71 54 45 65
REMARK Flexibility Score: inf
ROOT
ATOM      1  C   UNL A   1      39.625  29.433  27.798  1.00  0.00     0.021 C 
ENDROOT
BRANCH   1   2
ATOM      2  C   UNL A   1      38.209  28.943  28.105  1.00  0.00     0.116 C 
BRANCH   2   3
ATOM      3  N   UNL A   1      37.466  29.952  28.831  1.00  0.00    -0.355 N 
ATOM      4  C   UNL A   1      36.253  30.501  28.559  1.00  0.00     0.230 C 
ATOM      5  O   UNL A   1      35.890  31.457  29.251  1.00  0.00    -0.274 OA
ATOM      6  H   UNL A   1      37.906  30.293  29.642  1.00  0.00     0.163 HD
BRANCH   4   7
ATOM      7  C   UNL A   1      35.336  29.912  27.502  1.00  0.00     0.176 C 
BRANCH   7   8
ATOM      8  S   UNL A   1      33.798  30.837  27.206  1.00  0.00    -0.096 SA
BRANCH   8   9
ATOM      9  C   UNL A   1      32.869  29.859  26.051  1.00  0.00     0.101 A 
ATOM     10  C   UNL A   1      32.821  27.870  24.899  1.00  0.00     0.161 A 
ATOM     11  N   UNL A   1      33.436  28.668  25.787  1.00  0.00    -0.222 NA
ATOM     12  N   UNL A   1      31.694  28.181  24.239  1.00  0.00    -0.228 NA
ATOM     13  C   UNL A   1      31.140  29.370  24.543  1.00  0.00     0.076 A 
ATOM     14  C   UNL A   1      31.683  30.233  25.474  1.00  0.00     0.064 A 
BRANCH  10  15
ATOM     15  C   UNL A   1      33.417  26.550  24.666  1.00  0.00     0.019 A 
ATOM     16  C   UNL A   1      34.540  23.998  24.193  1.00  0.00     0.118 A 
ATOM     17  C   UNL A   1      34.125  24.792  23.126  1.00  0.00     0.047 A 
ATOM     18  C   UNL A   1      34.421  24.480  25.495  1.00  0.00     0.047 A 
ATOM     19  C   UNL A   1      33.551  26.045  23.361  1.00  0.00     0.016 A 
ATOM     20  C   UNL A   1      33.871  25.749  25.727  1.00  0.00     0.016 A 
BRANCH  16  21
ATOM     21  O   UNL A   1      35.101  22.797  23.852  1.00  0.00    -0.497 OA
ATOM     22  C   UNL A   1      36.390  22.888  23.255  1.00  0.00     0.278 C 
ENDBRANCH  16  21
ENDBRANCH  10  15
BRANCH  13  23
ATOM     23  C   UNL A   1      29.902  29.718  23.841  1.00  0.00     0.003 A 
ATOM     24  C   UNL A   1      29.367  31.010  23.927  1.00  0.00     0.030 A 
ATOM     25  C   UNL A   1      29.191  28.756  23.119  1.00  0.00     0.030 A 
ATOM     26  C   UNL A   1      28.157  31.274  23.307  1.00  0.00     0.111 A 
ATOM     27  C   UNL A   1      27.983  29.114  22.544  1.00  0.00     0.111 A 
ATOM     28  N   UNL A   1      27.449  30.352  22.624  1.00  0.00    -0.265 NA
ENDBRANCH  13  23
ENDBRANCH   8   9
ENDBRANCH   7   8
ENDBRANCH   4   7
ENDBRANCH   2   3
ENDBRANCH   1   2
BRANCH   1  29
ATOM     29  C   UNL A   1      40.366  28.599  26.741  1.00  0.00     0.002 C 
BRANCH  29  30
ATOM     30  C   UNL A   1      41.000  27.302  27.255  1.00  0.00     0.002 C 
BRANCH  30  31
ATOM     31  C   UNL A   1      40.176  26.037  27.011  1.00  0.00     0.021 C 
BRANCH  31  32
ATOM     32  C   UNL A   1      40.464  24.891  27.976  1.00  0.00     0.116 C 
BRANCH  32  33
ATOM     33  N   UNL A   1      40.886  23.682  27.287  1.00  0.00    -0.352 N 
ATOM     34  C   UNL A   1      42.010  23.458  26.535  1.00  0.00     0.251 C 
ATOM     35  H   UNL A   1      40.277  22.913  27.374  1.00  0.00     0.163 HD
ATOM     36  O   UNL A   1      42.116  22.422  25.878  1.00  0.00    -0.269 OA
BRANCH  34  37
ATOM     37  C   UNL A   1      43.088  24.470  26.489  1.00  0.00     0.039 A 
ATOM     38  C   UNL A   1      43.370  25.100  25.274  1.00  0.00     0.014 A 
ATOM     39  C   UNL A   1      43.820  24.792  27.634  1.00  0.00     0.014 A 
ATOM     40  C   UNL A   1      44.343  26.099  25.223  1.00  0.00     0.010 A 
ATOM     41  C   UNL A   1      44.741  25.837  27.598  1.00  0.00     0.010 A 
ATOM     42  C   UNL A   1      45.012  26.501  26.391  1.00  0.00    -0.014 A 
BRANCH  42  43
ATOM     43  C   UNL A   1      45.987  27.620  26.370  1.00  0.00     0.031 A 
ATOM     44  C   UNL A   1      47.460  27.344  26.252  1.00  0.00     0.074 A 
ATOM     45  C   UNL A   1      45.550  28.885  26.520  1.00  0.00     0.049 A 
ATOM     46  N   UNL A   1      48.463  28.185  26.268  1.00  0.00    -0.248 NA
ATOM     47  C   UNL A   1      47.861  25.934  26.123  1.00  0.00     0.031 C 
ATOM     48  C   UNL A   1      44.152  29.283  26.692  1.00  0.00     0.029 A 
ATOM     49  N   UNL A   1      46.239  30.072  26.560  1.00  0.00    -0.354 N 
ATOM     50  C   UNL A   1      49.610  27.408  26.165  1.00  0.00     0.074 A 
ATOM     51  C   UNL A   1      49.182  26.026  26.140  1.00  0.00     0.031 C 
ATOM     52  C   UNL A   1      44.083  30.619  26.794  1.00  0.00     0.029 A 
ATOM     53  C   UNL A   1      45.433  31.171  26.733  1.00  0.00     0.049 A 
ATOM     54  H   UNL A   1      47.218  30.129  26.473  1.00  0.00     0.167 HD
ATOM     55  C   UNL A   1      50.900  27.810  26.076  1.00  0.00     0.037 A 
ATOM     56  C   UNL A   1      45.746  32.477  26.835  1.00  0.00     0.037 A 
ATOM     57  C   UNL A   1      51.323  29.186  26.083  1.00  0.00     0.049 A 
ATOM     58  C   UNL A   1      47.186  32.896  26.744  1.00  0.00     0.074 A 
ATOM     59  C   UNL A   1      52.601  29.697  25.935  1.00  0.00     0.029 A 
ATOM     60  N   UNL A   1      50.475  30.272  26.250  1.00  0.00    -0.354 N 
ATOM     61  N   UNL A   1      48.255  32.156  26.575  1.00  0.00    -0.248 NA
ATOM     62  C   UNL A   1      47.463  34.336  26.853  1.00  0.00     0.031 C 
ATOM     63  C   UNL A   1      52.532  31.089  26.060  1.00  0.00     0.029 A 
ATOM     64  C   UNL A   1      51.206  31.449  26.235  1.00  0.00     0.049 A 
ATOM     65  H   UNL A   1      49.499  30.214  26.363  1.00  0.00     0.167 HD
ATOM     66  C   UNL A   1      49.326  33.039  26.529  1.00  0.00     0.074 A 
ATOM     67  C   UNL A   1      48.777  34.371  26.675  1.00  0.00     0.031 C 
ATOM     68  C   UNL A   1      50.646  32.770  26.380  1.00  0.00     0.037 A 
BRANCH  55  69
ATOM     69  C   UNL A   1      51.951  26.743  25.964  1.00  0.00     0.057 A 
ATOM     70  C   UNL A   1      52.316  26.190  24.729  1.00  0.00     0.134 A 
ATOM     71  C   UNL A   1      52.625  26.279  27.101  1.00  0.00     0.134 A 
ATOM     72  F   UNL A   1      51.701  26.580  23.602  1.00  0.00    -0.206 F 
ATOM     73  C   UNL A   1      53.290  25.196  24.632  1.00  0.00     0.040 A 
ATOM     74  C   UNL A   1      53.623  25.307  27.013  1.00  0.00     0.040 A 
ATOM     75  F   UNL A   1      52.332  26.770  28.315  1.00  0.00    -0.206 F 
ATOM     76  C   UNL A   1      53.953  24.756  25.776  1.00  0.00     0.006 A 
ENDBRANCH  55  69
BRANCH  56  77
ATOM     77  C   UNL A   1      44.671  33.484  27.011  1.00  0.00     0.057 A 
ATOM     78  C   UNL A   1      44.088  34.116  25.906  1.00  0.00     0.134 A 
ATOM     79  C   UNL A   1      44.199  33.841  28.280  1.00  0.00     0.134 A 
ATOM     80  F   UNL A   1      44.511  33.829  24.666  1.00  0.00    -0.206 F 
ATOM     81  C   UNL A   1      43.088  35.077  26.056  1.00  0.00     0.040 A 
ATOM     82  C   UNL A   1      43.182  34.781  28.444  1.00  0.00     0.040 A 
ATOM     83  F   UNL A   1      44.711  33.266  29.379  1.00  0.00    -0.206 F 
ATOM     84  C   UNL A   1      42.628  35.408  27.329  1.00  0.00     0.006 A 
ENDBRANCH  56  77
BRANCH  68  85
ATOM     85  C   UNL A   1      51.584  33.940  26.337  1.00  0.00     0.057 A 
ATOM     86  C   UNL A   1      51.933  34.566  25.134  1.00  0.00     0.134 A 
ATOM     87  C   UNL A   1      52.118  34.469  27.519  1.00  0.00     0.134 A 
ATOM     88  F   UNL A   1      51.467  34.100  23.964  1.00  0.00    -0.206 F 
ATOM     89  C   UNL A   1      52.799  35.661  25.105  1.00  0.00     0.040 A 
ATOM     90  C   UNL A   1      52.962  35.580  27.506  1.00  0.00     0.040 A 
ATOM     91  F   UNL A   1      51.817  33.923  28.707  1.00  0.00    -0.206 F 
ATOM     92  C   UNL A   1      53.310  36.175  26.296  1.00  0.00     0.006 A 
ENDBRANCH  68  85
ENDBRANCH  42  43
ENDBRANCH  34  37
ENDBRANCH  32  33
ENDBRANCH  31  32
ENDBRANCH  30  31
ENDBRANCH  29  30
ENDBRANCH   1  29
TORSDOF 18
ENDMDL
MODEL 2
REMARK VINA RESULT:     -10.5      1.656      6.990
REMARK SMILES COc1ccc(-c2nc(SCC(=O)NCCCCCCNC(=O)c3ccc(-c4c5nc(c(-c6c(F)cccc6F)c6ccc([nH]6)c(-c6c(F)cccc6F)c6nc(c(-c7c(F)cccc7F)c7ccc4[nH]7)C=C6)C=C5)cc3)cc(-c3ccncc3)n2)cc1
REMARK SMILES IDX 16 1 15 2 14 3 12 4 13 5 11 7 10 8 9 9 7 10 8 11 86 12 79 13
REMARK SMILES IDX 78 14 6 15 3 16 4 17 88 18 5 19 87 20 2 21 1 22 80 23 81 24
REMARK SMILES IDX 85 25 82 26 84 27 83 28 17 29 18 30 19 31 20 32 21 33 22 34
REMARK SMILES IDX 23 36 24 37 25 38 77 39 26 40 76 41 27 42 28 43 29 44 70 45
REMARK SMILES IDX 30 46 75 47 69 48 71 49 31 50 74 51 68 52 67 53 32 55 58 56
REMARK SMILES IDX 41 57 57 58 42 59 45 60 56 61 72 62 43 63 44 64 55 66 73 67
REMARK SMILES IDX 46 68 33 69 34 70 39 71 35 72 36 73 38 74 40 75 37 76 59 77
REMARK SMILES IDX 60 78 65 79 61 80 62 81 64 82 66 83 63 84 47 85 48 86 53 87
REMARK SMILES IDX 49 88 50 89 52 90 54 91 51 92
REMARK H PARENT 14 6 21 35 71 54 45 65
REMARK Flexibility Score: inf
ROOT
ATOM      1  C   UNL A   1      38.331  29.282  28.363  1.00  0.00     0.021 C 
ENDROOT
BRANCH   1   2
ATOM      2  C   UNL A   1      36.982  29.451  27.663  1.00  0.00     0.116 C 
BRANCH   2   3
ATOM      3  N   UNL A   1      36.154  30.401  28.376  1.00  0.00    -0.355 N 
ATOM      4  C   UNL A   1      34.930  30.897  28.056  1.00  0.00     0.230 C 
ATOM      5  O   UNL A   1      34.485  31.814  28.754  1.00  0.00    -0.274 OA
ATOM      6  H   UNL A   1      36.534  30.740  29.218  1.00  0.00     0.163 HD
BRANCH   4   7
ATOM      7  C   UNL A   1      34.098  30.295  26.939  1.00  0.00     0.176 C 
BRANCH   7   8
ATOM      8  S   UNL A   1      33.003  28.930  27.434  1.00  0.00    -0.096 SA
BRANCH   8   9
ATOM      9  C   UNL A   1      32.304  28.307  25.925  1.00  0.00     0.101 A 
ATOM     10  C   UNL A   1      30.895  28.796  24.176  1.00  0.00     0.161 A 
ATOM     11  N   UNL A   1      31.495  29.189  25.311  1.00  0.00    -0.222 NA
ATOM     12  N   UNL A   1      31.024  27.581  23.620  1.00  0.00    -0.228 NA
ATOM     13  C   UNL A   1      31.858  26.729  24.247  1.00  0.00     0.076 A 
ATOM     14  C   UNL A   1      32.548  27.066  25.395  1.00  0.00     0.064 A 
BRANCH  10  15
ATOM     15  C   UNL A   1      30.064  29.788  23.484  1.00  0.00     0.019 A 
ATOM     16  C   UNL A   1      28.441  31.702  22.181  1.00  0.00     0.118 A 
ATOM     17  C   UNL A   1      28.836  31.898  23.503  1.00  0.00     0.047 A 
ATOM     18  C   UNL A   1      28.873  30.568  21.496  1.00  0.00     0.047 A 
ATOM     19  C   UNL A   1      29.621  30.942  24.154  1.00  0.00     0.016 A 
ATOM     20  C   UNL A   1      29.684  29.623  22.142  1.00  0.00     0.016 A 
BRANCH  16  21
ATOM     21  O   UNL A   1      27.687  32.705  21.634  1.00  0.00    -0.497 OA
ATOM     22  C   UNL A   1      27.725  32.773  20.212  1.00  0.00     0.278 C 
ENDBRANCH  16  21
ENDBRANCH  10  15
BRANCH  13  23
ATOM     23  C   UNL A   1      32.020  25.404  23.645  1.00  0.00     0.003 A 
ATOM     24  C   UNL A   1      31.169  24.347  23.994  1.00  0.00     0.030 A 
ATOM     25  C   UNL A   1      33.065  25.144  22.754  1.00  0.00     0.030 A 
ATOM     26  C   UNL A   1      31.406  23.094  23.455  1.00  0.00     0.111 A 
ATOM     27  C   UNL A   1      33.226  23.853  22.277  1.00  0.00     0.111 A 
ATOM     28  N   UNL A   1      32.421  22.822  22.610  1.00  0.00    -0.265 NA
ENDBRANCH  13  23
ENDBRANCH   8   9
ENDBRANCH   7   8
ENDBRANCH   4   7
ENDBRANCH   2   3
ENDBRANCH   1   2
BRANCH   1  29
ATOM     29  C   UNL A   1      39.499  28.969  27.414  1.00  0.00     0.002 C 
BRANCH  29  30
ATOM     30  C   UNL A   1      40.412  27.820  27.854  1.00  0.00     0.002 C 
BRANCH  30  31
ATOM     31  C   UNL A   1      39.764  26.435  27.837  1.00  0.00     0.021 C 
BRANCH  31  32
ATOM     32  C   UNL A   1      39.811  25.725  26.487  1.00  0.00     0.116 C 
BRANCH  32  33
ATOM     33  N   UNL A   1      40.293  24.357  26.599  1.00  0.00    -0.352 N 
ATOM     34  C   UNL A   1      41.578  23.883  26.549  1.00  0.00     0.251 C 
ATOM     35  H   UNL A   1      39.596  23.674  26.730  1.00  0.00     0.163 HD
ATOM     36  O   UNL A   1      41.786  22.670  26.483  1.00  0.00    -0.269 OA
BRANCH  34  37
ATOM     37  C   UNL A   1      42.719  24.823  26.547  1.00  0.00     0.039 A 
ATOM     38  C   UNL A   1      43.185  25.316  25.326  1.00  0.00     0.014 A 
ATOM     39  C   UNL A   1      43.329  25.213  27.742  1.00  0.00     0.014 A 
ATOM     40  C   UNL A   1      44.223  26.250  25.308  1.00  0.00     0.010 A 
ATOM     41  C   UNL A   1      44.316  26.197  27.728  1.00  0.00     0.010 A 
ATOM     42  C   UNL A   1      44.773  26.725  26.510  1.00  0.00    -0.014 A 
BRANCH  42  43
ATOM     43  C   UNL A   1      45.817  27.780  26.511  1.00  0.00     0.031 A 
ATOM     44  C   UNL A   1      45.436  29.228  26.648  1.00  0.00     0.074 A 
ATOM     45  C   UNL A   1      47.107  27.439  26.325  1.00  0.00     0.049 A 
ATOM     46  N   UNL A   1      46.201  30.291  26.618  1.00  0.00    -0.248 NA
ATOM     47  C   UNL A   1      44.005  29.522  26.816  1.00  0.00     0.031 C 
ATOM     48  C   UNL A   1      47.602  26.075  26.131  1.00  0.00     0.029 A 
ATOM     49  N   UNL A   1      48.238  28.213  26.260  1.00  0.00    -0.354 N 
ATOM     50  C   UNL A   1      45.344  31.376  26.751  1.00  0.00     0.074 A 
ATOM     51  C   UNL A   1      43.998  30.847  26.808  1.00  0.00     0.031 C 
ATOM     52  C   UNL A   1      48.936  26.106  25.994  1.00  0.00     0.029 A 
ATOM     53  C   UNL A   1      49.389  27.493  26.052  1.00  0.00     0.049 A 
ATOM     54  H   UNL A   1      48.225  29.193  26.354  1.00  0.00     0.167 HD
ATOM     55  C   UNL A   1      45.652  32.692  26.840  1.00  0.00     0.037 A 
ATOM     56  C   UNL A   1      50.665  27.902  25.918  1.00  0.00     0.037 A 
ATOM     57  C   UNL A   1      46.993  33.215  26.802  1.00  0.00     0.049 A 
ATOM     58  C   UNL A   1      50.979  29.368  26.011  1.00  0.00     0.074 A 
ATOM     59  C   UNL A   1      47.412  34.526  26.947  1.00  0.00     0.029 A 
ATOM     60  N   UNL A   1      48.134  32.451  26.600  1.00  0.00    -0.354 N 
ATOM     61  N   UNL A   1      50.167  30.378  26.208  1.00  0.00    -0.248 NA
ATOM     62  C   UNL A   1      52.391  29.752  25.868  1.00  0.00     0.031 C 
ATOM     63  C   UNL A   1      48.801  34.562  26.785  1.00  0.00     0.029 A 
ATOM     64  C   UNL A   1      49.253  33.267  26.590  1.00  0.00     0.049 A 
ATOM     65  H   UNL A   1      48.144  31.474  26.481  1.00  0.00     0.167 HD
ATOM     66  C   UNL A   1      50.969  31.511  26.239  1.00  0.00     0.074 A 
ATOM     67  C   UNL A   1      52.334  31.063  26.055  1.00  0.00     0.031 C 
ATOM     68  C   UNL A   1      50.607  32.807  26.407  1.00  0.00     0.037 A 
BRANCH  55  69
ATOM     69  C   UNL A   1      44.514  33.660  26.988  1.00  0.00     0.057 A 
ATOM     70  C   UNL A   1      44.003  34.015  28.244  1.00  0.00     0.134 A 
ATOM     71  C   UNL A   1      43.937  34.266  25.865  1.00  0.00     0.134 A 
ATOM     72  F   UNL A   1      44.501  33.463  29.361  1.00  0.00    -0.206 F 
ATOM     73  C   UNL A   1      42.942  34.912  28.375  1.00  0.00     0.040 A 
ATOM     74  C   UNL A   1      42.896  35.187  25.985  1.00  0.00     0.040 A 
ATOM     75  F   UNL A   1      44.382  33.977  24.632  1.00  0.00    -0.206 F 
ATOM     76  C   UNL A   1      42.390  35.508  27.243  1.00  0.00     0.006 A 
ENDBRANCH  55  69
BRANCH  56  77
ATOM     77  C   UNL A   1      51.743  26.905  25.708  1.00  0.00     0.057 A 
ATOM     78  C   UNL A   1      52.351  26.261  26.793  1.00  0.00     0.134 A 
ATOM     79  C   UNL A   1      52.194  26.571  24.425  1.00  0.00     0.134 A 
ATOM     80  F   UNL A   1      51.975  26.553  28.047  1.00  0.00    -0.206 F 
ATOM     81  C   UNL A   1      53.378  25.334  26.612  1.00  0.00     0.040 A 
ATOM     82  C   UNL A   1      53.202  25.627  24.228  1.00  0.00     0.040 A 
ATOM     83  F   UNL A   1      51.647  27.146  23.344  1.00  0.00    -0.206 F 
ATOM     84  C   UNL A   1      53.803  25.010  25.325  1.00  0.00     0.006 A 
ENDBRANCH  56  77
BRANCH  68  85
ATOM     85  C   UNL A   1      51.706  33.829  26.428  1.00  0.00     0.057 A 
ATOM     86  C   UNL A   1      52.423  34.122  27.594  1.00  0.00     0.134 A 
ATOM     87  C   UNL A   1      52.075  34.502  25.256  1.00  0.00     0.134 A 
ATOM     88  F   UNL A   1      52.111  33.522  28.753  1.00  0.00    -0.206 F 
ATOM     89  C   UNL A   1      53.450  35.067  27.601  1.00  0.00     0.040 A 
ATOM     90  C   UNL A   1      53.119  35.428  25.243  1.00  0.00     0.040 A 
ATOM     91  F   UNL A   1      51.435  34.261  24.101  1.00  0.00    -0.206 F 
ATOM     92  C   UNL A   1      53.805  35.718  26.420  1.00  0.00     0.006 A 
ENDBRANCH  68  85
ENDBRANCH  42  43
ENDBRANCH  34  37
ENDBRANCH  32  33
ENDBRANCH  31  32
ENDBRANCH  30  31
ENDBRANCH  29  30
ENDBRANCH   1  29
TORSDOF 18
ENDMDL
MODEL 3
REMARK VINA RESULT:     -10.5      1.618      3.596
REMARK SMILES COc1ccc(-c2nc(SCC(=O)NCCCCCCNC(=O)c3ccc(-c4c5nc(c(-c6c(F)cccc6F)c6ccc([nH]6)c(-c6c(F)cccc6F)c6nc(c(-c7c(F)cccc7F)c7ccc4[nH]7)C=C6)C=C5)cc3)cc(-c3ccncc3)n2)cc1
REMARK SMILES IDX 16 1 15 2 14 3 12 4 13 5 11 7 10 8 9 9 7 10 8 11 86 12 79 13
REMARK SMILES IDX 78 14 6 15 3 16 4 17 88 18 5 19 87 20 2 21 1 22 80 23 81 24
REMARK SMILES IDX 85 25 82 26 84 27 83 28 17 29 18 30 19 31 20 32 21 33 22 34
REMARK SMILES IDX 23 36 24 37 25 38 77 39 26 40 76 41 27 42 28 43 29 44 70 45
REMARK SMILES IDX 30 46 75 47 69 48 71 49 31 50 74 51 68 52 67 53 32 55 58 56
REMARK SMILES IDX 41 57 57 58 42 59 45 60 56 61 72 62 43 63 44 64 55 66 73 67
REMARK SMILES IDX 46 68 33 69 34 70 39 71 35 72 36 73 38 74 40 75 37 76 59 77
REMARK SMILES IDX 60 78 65 79 61 80 62 81 64 82 66 83 63 84 47 85 48 86 53 87
REMARK SMILES IDX 49 88 50 89 52 90 54 91 51 92
REMARK H PARENT 14 6 21 35 71 54 45 65
REMARK Flexibility Score: inf
ROOT
ATOM      1  C   UNL A   1      39.042  29.517  28.209  1.00  0.00     0.021 C 
ENDROOT
BRANCH   1   2
ATOM      2  C   UNL A   1      37.577  29.083  28.286  1.00  0.00     0.116 C 
BRANCH   2   3
ATOM      3  N   UNL A   1      36.716  30.231  28.480  1.00  0.00    -0.355 N 
ATOM      4  C   UNL A   1      35.585  30.589  27.817  1.00  0.00     0.230 C 
ATOM      5  O   UNL A   1      35.101  31.697  28.069  1.00  0.00    -0.274 OA
ATOM      6  H   UNL A   1      36.990  30.844  29.199  1.00  0.00     0.163 HD
BRANCH   4   7
ATOM      7  C   UNL A   1      34.889  29.635  26.864  1.00  0.00     0.176 C 
BRANCH   7   8
ATOM      8  S   UNL A   1      33.239  29.077  27.389  1.00  0.00    -0.096 SA
BRANCH   8   9
ATOM      9  C   UNL A   1      32.480  28.397  25.934  1.00  0.00     0.101 A 
ATOM     10  C   UNL A   1      31.002  28.820  24.225  1.00  0.00     0.161 A 
ATOM     11  N   UNL A   1      31.648  29.257  25.320  1.00  0.00    -0.222 NA
ATOM     12  N   UNL A   1      31.108  27.584  23.713  1.00  0.00    -0.228 NA
ATOM     13  C   UNL A   1      31.966  26.756  24.339  1.00  0.00     0.076 A 
ATOM     14  C   UNL A   1      32.702  27.137  25.444  1.00  0.00     0.064 A 
BRANCH  10  15
ATOM     15  C   UNL A   1      30.144  29.786  23.530  1.00  0.00     0.019 A 
ATOM     16  C   UNL A   1      28.470  31.650  22.218  1.00  0.00     0.118 A 
ATOM     17  C   UNL A   1      28.857  31.862  23.540  1.00  0.00     0.047 A 
ATOM     18  C   UNL A   1      28.935  30.526  21.537  1.00  0.00     0.047 A 
ATOM     19  C   UNL A   1      29.668  30.930  24.195  1.00  0.00     0.016 A 
ATOM     20  C   UNL A   1      29.771  29.607  22.188  1.00  0.00     0.016 A 
BRANCH  16  21
ATOM     21  O   UNL A   1      27.689  32.629  21.667  1.00  0.00    -0.497 OA
ATOM     22  C   UNL A   1      27.720  32.689  20.245  1.00  0.00     0.278 C 
ENDBRANCH  16  21
ENDBRANCH  10  15
BRANCH  13  23
ATOM     23  C   UNL A   1      32.104  25.409  23.783  1.00  0.00     0.003 A 
ATOM     24  C   UNL A   1      31.018  24.523  23.767  1.00  0.00     0.030 A 
ATOM     25  C   UNL A   1      33.335  24.949  23.309  1.00  0.00     0.030 A 
ATOM     26  C   UNL A   1      31.213  23.235  23.299  1.00  0.00     0.111 A 
ATOM     27  C   UNL A   1      33.433  23.639  22.871  1.00  0.00     0.111 A 
ATOM     28  N   UNL A   1      32.400  22.771  22.858  1.00  0.00    -0.265 NA
ENDBRANCH  13  23
ENDBRANCH   8   9
ENDBRANCH   7   8
ENDBRANCH   4   7
ENDBRANCH   2   3
ENDBRANCH   1   2
BRANCH   1  29
ATOM     29  C   UNL A   1      39.922  28.613  27.331  1.00  0.00     0.002 C 
BRANCH  29  30
ATOM     30  C   UNL A   1      40.628  27.470  28.067  1.00  0.00     0.002 C 
BRANCH  30  31
ATOM     31  C   UNL A   1      39.887  26.132  28.048  1.00  0.00     0.021 C 
BRANCH  31  32
ATOM     32  C   UNL A   1      39.892  25.419  26.700  1.00  0.00     0.116 C 
BRANCH  32  33
ATOM     33  N   UNL A   1      40.462  24.083  26.783  1.00  0.00    -0.352 N 
ATOM     34  C   UNL A   1      41.770  23.689  26.674  1.00  0.00     0.251 C 
ATOM     35  H   UNL A   1      39.815  23.358  26.941  1.00  0.00     0.163 HD
ATOM     36  O   UNL A   1      42.050  22.493  26.593  1.00  0.00    -0.269 OA
BRANCH  34  37
ATOM     37  C   UNL A   1      42.850  24.699  26.627  1.00  0.00     0.039 A 
ATOM     38  C   UNL A   1      43.218  25.236  25.391  1.00  0.00     0.014 A 
ATOM     39  C   UNL A   1      43.500  25.110  27.794  1.00  0.00     0.014 A 
ATOM     40  C   UNL A   1      44.194  26.233  25.333  1.00  0.00     0.010 A 
ATOM     41  C   UNL A   1      44.422  26.154  27.743  1.00  0.00     0.010 A 
ATOM     42  C   UNL A   1      44.778  26.725  26.512  1.00  0.00    -0.014 A 
BRANCH  42  43
ATOM     43  C   UNL A   1      45.754  27.843  26.474  1.00  0.00     0.031 A 
ATOM     44  C   UNL A   1      47.227  27.565  26.368  1.00  0.00     0.074 A 
ATOM     45  C   UNL A   1      45.317  29.111  26.599  1.00  0.00     0.049 A 
ATOM     46  N   UNL A   1      48.231  28.406  26.373  1.00  0.00    -0.248 NA
ATOM     47  C   UNL A   1      47.628  26.153  26.267  1.00  0.00     0.031 C 
ATOM     48  C   UNL A   1      43.918  29.512  26.758  1.00  0.00     0.029 A 
ATOM     49  N   UNL A   1      46.006  30.298  26.621  1.00  0.00    -0.354 N 
ATOM     50  C   UNL A   1      49.378  27.626  26.289  1.00  0.00     0.074 A 
ATOM     51  C   UNL A   1      48.950  26.244  26.288  1.00  0.00     0.031 C 
ATOM     52  C   UNL A   1      43.849  30.850  26.836  1.00  0.00     0.029 A 
ATOM     53  C   UNL A   1      45.200  31.400  26.770  1.00  0.00     0.049 A 
ATOM     54  H   UNL A   1      46.985  30.354  26.537  1.00  0.00     0.167 HD
ATOM     55  C   UNL A   1      50.669  28.027  26.198  1.00  0.00     0.037 A 
ATOM     56  C   UNL A   1      45.513  32.708  26.850  1.00  0.00     0.037 A 
ATOM     57  C   UNL A   1      51.092  29.403  26.182  1.00  0.00     0.049 A 
ATOM     58  C   UNL A   1      46.953  33.125  26.757  1.00  0.00     0.074 A 
ATOM     59  C   UNL A   1      52.370  29.911  26.031  1.00  0.00     0.029 A 
ATOM     60  N   UNL A   1      50.244  30.492  26.325  1.00  0.00    -0.354 N 
ATOM     61  N   UNL A   1      48.022  32.382  26.606  1.00  0.00    -0.248 NA
ATOM     62  C   UNL A   1      47.230  34.567  26.841  1.00  0.00     0.031 C 
ATOM     63  C   UNL A   1      52.302  31.305  26.130  1.00  0.00     0.029 A 
ATOM     64  C   UNL A   1      50.975  31.668  26.293  1.00  0.00     0.049 A 
ATOM     65  H   UNL A   1      49.267  30.436  26.435  1.00  0.00     0.167 HD
ATOM     66  C   UNL A   1      49.094  33.263  26.550  1.00  0.00     0.074 A 
ATOM     67  C   UNL A   1      48.545  34.598  26.668  1.00  0.00     0.031 C 
ATOM     68  C   UNL A   1      50.415  32.991  26.411  1.00  0.00     0.037 A 
BRANCH  55  69
ATOM     69  C   UNL A   1      51.719  26.957  26.111  1.00  0.00     0.057 A 
ATOM     70  C   UNL A   1      52.369  26.463  27.249  1.00  0.00     0.134 A 
ATOM     71  C   UNL A   1      52.068  26.395  24.876  1.00  0.00     0.134 A 
ATOM     72  F   UNL A   1      52.091  26.965  28.462  1.00  0.00    -0.206 F 
ATOM     73  C   UNL A   1      53.346  25.471  27.161  1.00  0.00     0.040 A 
ATOM     74  C   UNL A   1      53.023  25.381  24.778  1.00  0.00     0.040 A 
ATOM     75  F   UNL A   1      51.480  26.816  23.745  1.00  0.00    -0.206 F 
ATOM     76  C   UNL A   1      53.671  24.922  25.923  1.00  0.00     0.006 A 
ENDBRANCH  55  69
BRANCH  56  77
ATOM     77  C   UNL A   1      44.437  33.718  27.002  1.00  0.00     0.057 A 
ATOM     78  C   UNL A   1      43.859  34.329  25.884  1.00  0.00     0.134 A 
ATOM     79  C   UNL A   1      43.961  34.099  28.263  1.00  0.00     0.134 A 
ATOM     80  F   UNL A   1      44.286  34.020  24.651  1.00  0.00    -0.206 F 
ATOM     81  C   UNL A   1      42.859  35.294  26.012  1.00  0.00     0.040 A 
ATOM     82  C   UNL A   1      42.943  35.043  28.405  1.00  0.00     0.040 A 
ATOM     83  F   UNL A   1      44.468  33.544  29.374  1.00  0.00    -0.206 F 
ATOM     84  C   UNL A   1      42.393  35.649  27.276  1.00  0.00     0.006 A 
ENDBRANCH  56  77
BRANCH  68  85
ATOM     85  C   UNL A   1      51.354  34.160  26.350  1.00  0.00     0.057 A 
ATOM     86  C   UNL A   1      51.771  34.712  25.134  1.00  0.00     0.134 A 
ATOM     87  C   UNL A   1      51.817  34.763  27.527  1.00  0.00     0.134 A 
ATOM     88  F   UNL A   1      51.375  34.174  23.970  1.00  0.00    -0.206 F 
ATOM     89  C   UNL A   1      52.637  35.807  25.088  1.00  0.00     0.040 A 
ATOM     90  C   UNL A   1      52.660  35.875  27.495  1.00  0.00     0.040 A 
ATOM     91  F   UNL A   1      51.447  34.289  28.727  1.00  0.00    -0.206 F 
ATOM     92  C   UNL A   1      53.078  36.395  26.273  1.00  0.00     0.006 A 
ENDBRANCH  68  85
ENDBRANCH  42  43
ENDBRANCH  34  37
ENDBRANCH  32  33
ENDBRANCH  31  32
ENDBRANCH  30  31
ENDBRANCH  29  30
ENDBRANCH   1  29
TORSDOF 18
ENDMDL
