MODEL 1
REMARK VINA RESULT:     -12.3      0.000      0.000
REMARK SMILES O=C(COc1ccc(/C=C2\SC(=O)N(Cc3cc4c(cc3Cl)OCO4)C2=O)cc1)NCCCCCCNC(=O)c1ccc(-c2c3nc(c(-c4c(F)cccc4F)c4ccc([nH]4)c(-c4c(F)cccc4F)c4nc(c(-c5c(F)cccc5F)c5ccc2[nH]5)C=C4)C=C3)cc1
REMARK SMILES IDX 32 1 31 2 30 3 1 4 2 5 3 7 4 8 5 9 6 10 29 11 7 12 28 13
REMARK SMILES IDX 8 14 9 15 10 16 11 17 26 18 12 19 14 20 27 21 13 22 15 23
REMARK SMILES IDX 16 24 17 25 21 26 18 27 20 28 22 29 19 30 25 31 23 32 24 33
REMARK SMILES IDX 33 34 34 35 35 36 36 37 37 38 38 39 39 41 40 42 41 43 93 44
REMARK SMILES IDX 42 45 92 46 43 47 44 48 45 49 86 50 46 51 91 52 85 53 87 54
REMARK SMILES IDX 47 55 90 56 84 57 83 58 48 60 74 61 57 62 73 63 58 64 61 65
REMARK SMILES IDX 72 66 88 67 59 68 60 69 71 71 89 72 62 73 49 74 50 75 55 76
REMARK SMILES IDX 51 77 52 78 54 79 56 80 53 81 75 82 76 83 81 84 77 85 78 86
REMARK SMILES IDX 80 87 82 88 79 89 63 90 64 91 69 92 65 93 66 94 68 95 70 96
REMARK SMILES IDX 67 97
REMARK H PARENT 30 6 37 40 87 59 61 70
REMARK Flexibility Score: inf
ROOT
ATOM      1  C   UNL A   1      37.167  19.505  24.995  1.00  0.00     0.021 C 
ENDROOT
BRANCH   1   2
ATOM      2  C   UNL A   1      36.879  18.011  25.047  1.00  0.00     0.116 C 
BRANCH   2   3
ATOM      3  N   UNL A   1      35.499  17.696  24.750  1.00  0.00    -0.353 N 
ATOM      4  O   UNL A   1      35.604  15.475  25.330  1.00  0.00    -0.271 OA
ATOM      5  C   UNL A   1      34.943  16.466  25.034  1.00  0.00     0.257 C 
ATOM      6  H   UNL A   1      34.936  18.386  24.331  1.00  0.00     0.163 HD
BRANCH   5   7
ATOM      7  C   UNL A   1      33.406  16.450  25.013  1.00  0.00     0.329 C 
BRANCH   7   8
ATOM      8  O   UNL A   1      32.760  17.145  23.943  1.00  0.00    -0.484 OA
BRANCH   8   9
ATOM      9  C   UNL A   1      32.568  18.486  24.150  1.00  0.00     0.120 A 
ATOM     10  C   UNL A   1      32.462  19.297  23.015  1.00  0.00     0.047 A 
ATOM     11  C   UNL A   1      32.558  19.075  25.411  1.00  0.00     0.047 A 
ATOM     12  C   UNL A   1      32.313  20.686  23.145  1.00  0.00     0.012 A 
ATOM     13  C   UNL A   1      32.440  20.449  25.544  1.00  0.00     0.012 A 
ATOM     14  C   UNL A   1      32.304  21.257  24.417  1.00  0.00    -0.024 A 
BRANCH  14  15
ATOM     15  C   UNL A   1      32.082  22.665  24.705  1.00  0.00     0.029 C 
ATOM     16  C   UNL A   1      32.586  23.686  24.009  1.00  0.00     0.083 C 
ATOM     17  S   UNL A   1      33.275  23.755  22.443  1.00  0.00    -0.022 SA
ATOM     18  C   UNL A   1      32.602  25.031  24.614  1.00  0.00     0.268 C 
ATOM     19  C   UNL A   1      33.191  25.522  22.430  1.00  0.00     0.293 C 
ATOM     20  N   UNL A   1      32.700  25.969  23.626  1.00  0.00    -0.264 N 
ATOM     21  O   UNL A   1      32.616  25.232  25.820  1.00  0.00    -0.268 OA
ATOM     22  O   UNL A   1      33.566  26.196  21.488  1.00  0.00    -0.261 OA
BRANCH  20  23
ATOM     23  C   UNL A   1      32.464  27.364  23.915  1.00  0.00     0.167 C 
BRANCH  23  24
ATOM     24  C   UNL A   1      31.116  27.858  23.411  1.00  0.00    -0.005 A 
ATOM     25  C   UNL A   1      31.117  28.903  22.463  1.00  0.00     0.057 A 
ATOM     26  C   UNL A   1      29.860  27.379  23.881  1.00  0.00     0.050 A 
ATOM     27  C   UNL A   1      29.907  29.428  22.053  1.00  0.00     0.166 A 
ATOM     28  C   UNL A   1      28.653  27.900  23.404  1.00  0.00     0.071 A 
ATOM     29  Cl  UNL A   1      29.683  26.181  25.106  1.00  0.00    -0.084 Cl
ATOM     30  C   UNL A   1      28.711  28.934  22.507  1.00  0.00     0.167 A 
ATOM     31  O   UNL A   1      29.738  30.479  21.208  1.00  0.00    -0.454 OA
ATOM     32  O   UNL A   1      27.641  29.600  21.999  1.00  0.00    -0.454 OA
ATOM     33  C   UNL A   1      28.307  30.659  21.284  1.00  0.00     0.468 C 
ENDBRANCH  23  24
ENDBRANCH  20  23
ENDBRANCH  14  15
ENDBRANCH   8   9
ENDBRANCH   7   8
ENDBRANCH   5   7
ENDBRANCH   2   3
ENDBRANCH   1   2
BRANCH   1  34
ATOM     34  C   UNL A   1      35.917  20.390  24.985  1.00  0.00     0.002 C 
BRANCH  34  35
ATOM     35  C   UNL A   1      35.887  21.514  26.026  1.00  0.00     0.002 C 
BRANCH  35  36
ATOM     36  C   UNL A   1      35.787  22.936  25.468  1.00  0.00     0.021 C 
BRANCH  36  37
ATOM     37  C   UNL A   1      37.110  23.685  25.340  1.00  0.00     0.116 C 
BRANCH  37  38
ATOM     38  N   UNL A   1      38.269  22.821  25.490  1.00  0.00    -0.352 N 
ATOM     39  C   UNL A   1      39.474  23.074  26.096  1.00  0.00     0.251 C 
ATOM     40  H   UNL A   1      38.175  21.921  25.100  1.00  0.00     0.163 HD
ATOM     41  O   UNL A   1      40.386  22.255  26.018  1.00  0.00    -0.269 OA
BRANCH  39  42
ATOM     42  C   UNL A   1      39.695  24.346  26.820  1.00  0.00     0.039 A 
ATOM     43  C   UNL A   1      39.156  24.490  28.103  1.00  0.00     0.014 A 
ATOM     44  C   UNL A   1      40.410  25.397  26.240  1.00  0.00     0.014 A 
ATOM     45  C   UNL A   1      39.388  25.660  28.828  1.00  0.00     0.010 A 
ATOM     46  C   UNL A   1      40.690  26.541  26.986  1.00  0.00     0.010 A 
ATOM     47  C   UNL A   1      40.183  26.683  28.288  1.00  0.00    -0.014 A 
BRANCH  47  48
ATOM     48  C   UNL A   1      40.501  27.905  29.068  1.00  0.00     0.031 A 
ATOM     49  C   UNL A   1      41.809  28.019  29.798  1.00  0.00     0.074 A 
ATOM     50  C   UNL A   1      39.583  28.886  29.175  1.00  0.00     0.049 A 
ATOM     51  N   UNL A   1      42.229  28.966  30.599  1.00  0.00    -0.248 NA
ATOM     52  C   UNL A   1      42.761  26.911  29.625  1.00  0.00     0.031 C 
ATOM     53  C   UNL A   1      38.260  28.879  28.549  1.00  0.00     0.029 A 
ATOM     54  N   UNL A   1      39.621  30.072  29.862  1.00  0.00    -0.354 N 
ATOM     55  C   UNL A   1      43.483  28.559  31.040  1.00  0.00     0.074 A 
ATOM     56  C   UNL A   1      43.738  27.263  30.449  1.00  0.00     0.031 C 
ATOM     57  C   UNL A   1      37.617  30.013  28.871  1.00  0.00     0.029 A 
ATOM     58  C   UNL A   1      38.467  30.811  29.748  1.00  0.00     0.049 A 
ATOM     59  H   UNL A   1      40.399  30.366  30.388  1.00  0.00     0.167 HD
ATOM     60  C   UNL A   1      44.348  29.214  31.850  1.00  0.00     0.037 A 
ATOM     61  C   UNL A   1      38.131  31.994  30.296  1.00  0.00     0.037 A 
ATOM     62  C   UNL A   1      44.110  30.517  32.413  1.00  0.00     0.049 A 
ATOM     63  C   UNL A   1      39.114  32.704  31.183  1.00  0.00     0.074 A 
ATOM     64  C   UNL A   1      44.954  31.286  33.195  1.00  0.00     0.029 A 
ATOM     65  N   UNL A   1      42.941  31.244  32.251  1.00  0.00    -0.354 N 
ATOM     66  N   UNL A   1      40.317  32.333  31.547  1.00  0.00    -0.248 NA
ATOM     67  C   UNL A   1      38.693  34.002  31.732  1.00  0.00     0.031 C 
ATOM     68  C   UNL A   1      44.284  32.468  33.531  1.00  0.00     0.029 A 
ATOM     69  C   UNL A   1      43.035  32.447  32.929  1.00  0.00     0.049 A 
ATOM     70  H   UNL A   1      42.159  30.948  31.730  1.00  0.00     0.167 HD
ATOM     71  C   UNL A   1      40.806  33.357  32.345  1.00  0.00     0.074 A 
ATOM     72  C   UNL A   1      39.774  34.373  32.405  1.00  0.00     0.031 C 
ATOM     73  C   UNL A   1      42.004  33.450  32.972  1.00  0.00     0.037 A 
BRANCH  60  74
ATOM     74  C   UNL A   1      45.642  28.527  32.172  1.00  0.00     0.057 A 
ATOM     75  C   UNL A   1      45.775  27.692  33.289  1.00  0.00     0.134 A 
ATOM     76  C   UNL A   1      46.759  28.678  31.340  1.00  0.00     0.134 A 
ATOM     77  F   UNL A   1      44.745  27.516  34.131  1.00  0.00    -0.206 F 
ATOM     78  C   UNL A   1      46.978  27.049  33.580  1.00  0.00     0.040 A 
ATOM     79  C   UNL A   1      47.961  28.024  31.609  1.00  0.00     0.040 A 
ATOM     80  F   UNL A   1      46.697  29.460  30.252  1.00  0.00    -0.206 F 
ATOM     81  C   UNL A   1      48.075  27.210  32.735  1.00  0.00     0.006 A 
ENDBRANCH  60  74
BRANCH  61  82
ATOM     82  C   UNL A   1      36.807  32.595  30.002  1.00  0.00     0.057 A 
ATOM     83  C   UNL A   1      36.649  33.503  28.951  1.00  0.00     0.134 A 
ATOM     84  C   UNL A   1      35.676  32.281  30.764  1.00  0.00     0.134 A 
ATOM     85  F   UNL A   1      37.702  33.856  28.199  1.00  0.00    -0.206 F 
ATOM     86  C   UNL A   1      35.414  34.091  28.673  1.00  0.00     0.040 A 
ATOM     87  C   UNL A   1      34.431  32.846  30.486  1.00  0.00     0.040 A 
ATOM     88  F   UNL A   1      35.764  31.412  31.782  1.00  0.00    -0.206 F 
ATOM     89  C   UNL A   1      34.299  33.759  29.441  1.00  0.00     0.006 A 
ENDBRANCH  61  82
BRANCH  73  90
ATOM     90  C   UNL A   1      42.275  34.703  33.748  1.00  0.00     0.057 A 
ATOM     91  C   UNL A   1      42.038  34.782  35.126  1.00  0.00     0.134 A 
ATOM     92  C   UNL A   1      42.812  35.831  33.116  1.00  0.00     0.134 A 
ATOM     93  F   UNL A   1      41.512  33.739  35.787  1.00  0.00    -0.206 F 
ATOM     94  C   UNL A   1      42.313  35.945  35.847  1.00  0.00     0.040 A 
ATOM     95  C   UNL A   1      43.109  36.993  33.829  1.00  0.00     0.040 A 
ATOM     96  F   UNL A   1      43.066  35.817  31.798  1.00  0.00    -0.206 F 
ATOM     97  C   UNL A   1      42.856  37.053  35.197  1.00  0.00     0.006 A 
ENDBRANCH  73  90
ENDBRANCH  47  48
ENDBRANCH  39  42
ENDBRANCH  37  38
ENDBRANCH  36  37
ENDBRANCH  35  36
ENDBRANCH  34  35
ENDBRANCH   1  34
TORSDOF 18
ENDMDL
MODEL 2
REMARK VINA RESULT:     -12.2      4.159     10.517
REMARK SMILES O=C(COc1ccc(/C=C2\SC(=O)N(Cc3cc4c(cc3Cl)OCO4)C2=O)cc1)NCCCCCCNC(=O)c1ccc(-c2c3nc(c(-c4c(F)cccc4F)c4ccc([nH]4)c(-c4c(F)cccc4F)c4nc(c(-c5c(F)cccc5F)c5ccc2[nH]5)C=C4)C=C3)cc1
REMARK SMILES IDX 32 1 31 2 30 3 1 4 2 5 3 7 4 8 5 9 6 10 29 11 7 12 28 13
REMARK SMILES IDX 8 14 9 15 10 16 11 17 26 18 12 19 14 20 27 21 13 22 15 23
REMARK SMILES IDX 16 24 17 25 21 26 18 27 20 28 22 29 19 30 25 31 23 32 24 33
REMARK SMILES IDX 33 34 34 35 35 36 36 37 37 38 38 39 39 41 40 42 41 43 93 44
REMARK SMILES IDX 42 45 92 46 43 47 44 48 45 49 86 50 46 51 91 52 85 53 87 54
REMARK SMILES IDX 47 55 90 56 84 57 83 58 48 60 74 61 57 62 73 63 58 64 61 65
REMARK SMILES IDX 72 66 88 67 59 68 60 69 71 71 89 72 62 73 49 74 50 75 55 76
REMARK SMILES IDX 51 77 52 78 54 79 56 80 53 81 75 82 76 83 81 84 77 85 78 86
REMARK SMILES IDX 80 87 82 88 79 89 63 90 64 91 69 92 65 93 66 94 68 95 70 96
REMARK SMILES IDX 67 97
REMARK H PARENT 30 6 37 40 87 59 61 70
REMARK Flexibility Score: inf
ROOT
ATOM      1  C   UNL A   1      34.784  35.519  33.077  1.00  0.00     0.021 C 
ENDROOT
BRANCH   1   2
ATOM      2  C   UNL A   1      33.710  35.462  31.999  1.00  0.00     0.116 C 
BRANCH   2   3
ATOM      3  N   UNL A   1      33.745  34.233  31.238  1.00  0.00    -0.353 N 
ATOM      4  O   UNL A   1      34.082  35.205  29.183  1.00  0.00    -0.271 OA
ATOM      5  C   UNL A   1      34.052  34.204  29.893  1.00  0.00     0.257 C 
ATOM      6  H   UNL A   1      33.544  33.386  31.696  1.00  0.00     0.163 HD
BRANCH   5   7
ATOM      7  C   UNL A   1      34.418  32.810  29.360  1.00  0.00     0.329 C 
BRANCH   7   8
ATOM      8  O   UNL A   1      34.356  32.613  27.946  1.00  0.00    -0.484 OA
BRANCH   8   9
ATOM      9  C   UNL A   1      34.099  31.328  27.545  1.00  0.00     0.120 A 
ATOM     10  C   UNL A   1      32.775  31.013  27.225  1.00  0.00     0.047 A 
ATOM     11  C   UNL A   1      35.063  30.324  27.525  1.00  0.00     0.047 A 
ATOM     12  C   UNL A   1      32.425  29.706  26.853  1.00  0.00     0.012 A 
ATOM     13  C   UNL A   1      34.718  29.026  27.186  1.00  0.00     0.012 A 
ATOM     14  C   UNL A   1      33.405  28.714  26.837  1.00  0.00    -0.024 A 
BRANCH  14  15
ATOM     15  C   UNL A   1      33.204  27.341  26.402  1.00  0.00     0.029 C 
ATOM     16  C   UNL A   1      33.155  26.931  25.133  1.00  0.00     0.083 C 
ATOM     17  S   UNL A   1      33.658  27.687  23.682  1.00  0.00    -0.022 SA
ATOM     18  C   UNL A   1      32.577  25.609  24.826  1.00  0.00     0.268 C 
ATOM     19  C   UNL A   1      33.506  26.171  22.781  1.00  0.00     0.293 C 
ATOM     20  N   UNL A   1      33.033  25.190  23.608  1.00  0.00    -0.264 N 
ATOM     21  O   UNL A   1      31.751  25.049  25.533  1.00  0.00    -0.268 OA
ATOM     22  O   UNL A   1      33.758  26.078  21.594  1.00  0.00    -0.261 OA
BRANCH  20  23
ATOM     23  C   UNL A   1      32.843  23.821  23.187  1.00  0.00     0.167 C 
BRANCH  23  24
ATOM     24  C   UNL A   1      33.800  22.851  23.864  1.00  0.00    -0.005 A 
ATOM     25  C   UNL A   1      35.180  23.137  23.787  1.00  0.00     0.057 A 
ATOM     26  C   UNL A   1      33.399  21.648  24.510  1.00  0.00     0.050 A 
ATOM     27  C   UNL A   1      36.076  22.230  24.318  1.00  0.00     0.166 A 
ATOM     28  C   UNL A   1      34.333  20.777  25.083  1.00  0.00     0.071 A 
ATOM     29  Cl  UNL A   1      31.768  21.102  24.604  1.00  0.00    -0.084 Cl
ATOM     30  C   UNL A   1      35.661  21.087  24.953  1.00  0.00     0.167 A 
ATOM     31  O   UNL A   1      37.431  22.319  24.260  1.00  0.00    -0.454 OA
ATOM     32  O   UNL A   1      36.696  20.320  25.385  1.00  0.00    -0.454 OA
ATOM     33  C   UNL A   1      37.809  21.044  24.824  1.00  0.00     0.468 C 
ENDBRANCH  23  24
ENDBRANCH  20  23
ENDBRANCH  14  15
ENDBRANCH   8   9
ENDBRANCH   7   8
ENDBRANCH   5   7
ENDBRANCH   2   3
ENDBRANCH   1   2
BRANCH   1  34
ATOM     34  C   UNL A   1      36.084  34.795  32.713  1.00  0.00     0.002 C 
BRANCH  34  35
ATOM     35  C   UNL A   1      36.920  34.293  33.894  1.00  0.00     0.002 C 
BRANCH  35  36
ATOM     36  C   UNL A   1      37.464  32.868  33.766  1.00  0.00     0.021 C 
BRANCH  36  37
ATOM     37  C   UNL A   1      37.603  32.343  32.340  1.00  0.00     0.116 C 
BRANCH  37  38
ATOM     38  N   UNL A   1      36.535  31.432  31.964  1.00  0.00    -0.352 N 
ATOM     39  C   UNL A   1      36.576  30.324  31.156  1.00  0.00     0.251 C 
ATOM     40  H   UNL A   1      35.651  31.641  32.345  1.00  0.00     0.163 HD
ATOM     41  O   UNL A   1      35.537  29.743  30.854  1.00  0.00    -0.269 OA
BRANCH  39  42
ATOM     42  C   UNL A   1      37.868  29.838  30.618  1.00  0.00     0.039 A 
ATOM     43  C   UNL A   1      38.171  30.089  29.276  1.00  0.00     0.014 A 
ATOM     44  C   UNL A   1      38.767  29.128  31.417  1.00  0.00     0.014 A 
ATOM     45  C   UNL A   1      39.401  29.685  28.753  1.00  0.00     0.010 A 
ATOM     46  C   UNL A   1      40.017  28.776  30.911  1.00  0.00     0.010 A 
ATOM     47  C   UNL A   1      40.347  29.053  29.575  1.00  0.00    -0.014 A 
BRANCH  47  48
ATOM     48  C   UNL A   1      41.688  28.678  29.059  1.00  0.00     0.031 A 
ATOM     49  C   UNL A   1      41.944  27.284  28.560  1.00  0.00     0.074 A 
ATOM     50  C   UNL A   1      42.694  29.572  29.103  1.00  0.00     0.049 A 
ATOM     51  N   UNL A   1      43.067  26.744  28.155  1.00  0.00    -0.248 NA
ATOM     52  C   UNL A   1      40.794  26.368  28.537  1.00  0.00     0.031 C 
ATOM     53  C   UNL A   1      42.586  30.944  29.602  1.00  0.00     0.029 A 
ATOM     54  N   UNL A   1      44.010  29.454  28.734  1.00  0.00    -0.354 N 
ATOM     55  C   UNL A   1      42.762  25.424  27.848  1.00  0.00     0.074 A 
ATOM     56  C   UNL A   1      41.359  25.233  28.150  1.00  0.00     0.031 C 
ATOM     57  C   UNL A   1      43.782  31.545  29.496  1.00  0.00     0.029 A 
ATOM     58  C   UNL A   1      44.746  30.594  28.952  1.00  0.00     0.049 A 
ATOM     59  H   UNL A   1      44.391  28.632  28.351  1.00  0.00     0.167 HD
ATOM     60  C   UNL A   1      43.572  24.463  27.345  1.00  0.00     0.037 A 
ATOM     61  C   UNL A   1      46.054  30.841  28.745  1.00  0.00     0.037 A 
ATOM     62  C   UNL A   1      44.959  24.660  27.013  1.00  0.00     0.049 A 
ATOM     63  C   UNL A   1      46.929  29.761  28.176  1.00  0.00     0.074 A 
ATOM     64  C   UNL A   1      45.845  23.763  26.441  1.00  0.00     0.029 A 
ATOM     65  N   UNL A   1      45.661  25.836  27.223  1.00  0.00    -0.354 N 
ATOM     66  N   UNL A   1      46.615  28.534  27.839  1.00  0.00    -0.248 NA
ATOM     67  C   UNL A   1      48.342  30.102  27.953  1.00  0.00     0.031 C 
ATOM     68  C   UNL A   1      47.092  24.388  26.332  1.00  0.00     0.029 A 
ATOM     69  C   UNL A   1      46.972  25.685  26.804  1.00  0.00     0.049 A 
ATOM     70  H   UNL A   1      45.283  26.658  27.612  1.00  0.00     0.167 HD
ATOM     71  C   UNL A   1      47.780  27.965  27.344  1.00  0.00     0.074 A 
ATOM     72  C   UNL A   1      48.807  28.983  27.413  1.00  0.00     0.031 C 
ATOM     73  C   UNL A   1      47.980  26.711  26.872  1.00  0.00     0.037 A 
BRANCH  60  74
ATOM     74  C   UNL A   1      42.974  23.108  27.117  1.00  0.00     0.057 A 
ATOM     75  C   UNL A   1      42.626  22.662  25.835  1.00  0.00     0.134 A 
ATOM     76  C   UNL A   1      42.770  22.225  28.186  1.00  0.00     0.134 A 
ATOM     77  F   UNL A   1      42.786  23.463  24.771  1.00  0.00    -0.206 F 
ATOM     78  C   UNL A   1      42.077  21.396  25.626  1.00  0.00     0.040 A 
ATOM     79  C   UNL A   1      42.242  20.950  27.987  1.00  0.00     0.040 A 
ATOM     80  F   UNL A   1      43.086  22.588  29.438  1.00  0.00    -0.206 F 
ATOM     81  C   UNL A   1      41.888  20.533  26.705  1.00  0.00     0.006 A 
ENDBRANCH  60  74
BRANCH  61  82
ATOM     82  C   UNL A   1      46.612  32.179  29.057  1.00  0.00     0.057 A 
ATOM     83  C   UNL A   1      46.686  33.172  28.074  1.00  0.00     0.134 A 
ATOM     84  C   UNL A   1      47.085  32.495  30.335  1.00  0.00     0.134 A 
ATOM     85  F   UNL A   1      46.265  32.921  26.826  1.00  0.00    -0.206 F 
ATOM     86  C   UNL A   1      47.225  34.431  28.347  1.00  0.00     0.040 A 
ATOM     87  C   UNL A   1      47.609  33.755  30.627  1.00  0.00     0.040 A 
ATOM     88  F   UNL A   1      47.036  31.585  31.320  1.00  0.00    -0.206 F 
ATOM     89  C   UNL A   1      47.685  34.725  29.629  1.00  0.00     0.006 A 
ENDBRANCH  61  82
BRANCH  73  90
ATOM     90  C   UNL A   1      49.352  26.381  26.366  1.00  0.00     0.057 A 
ATOM     91  C   UNL A   1      49.791  26.796  25.103  1.00  0.00     0.134 A 
ATOM     92  C   UNL A   1      50.255  25.670  27.166  1.00  0.00     0.134 A 
ATOM     93  F   UNL A   1      48.967  27.469  24.284  1.00  0.00    -0.206 F 
ATOM     94  C   UNL A   1      51.077  26.503  24.647  1.00  0.00     0.040 A 
ATOM     95  C   UNL A   1      51.550  25.389  26.730  1.00  0.00     0.040 A 
ATOM     96  F   UNL A   1      49.896  25.249  28.389  1.00  0.00    -0.206 F 
ATOM     97  C   UNL A   1      51.962  25.802  25.465  1.00  0.00     0.006 A 
ENDBRANCH  73  90
ENDBRANCH  47  48
ENDBRANCH  39  42
ENDBRANCH  37  38
ENDBRANCH  36  37
ENDBRANCH  35  36
ENDBRANCH  34  35
ENDBRANCH   1  34
TORSDOF 18
ENDMDL
MODEL 3
REMARK VINA RESULT:     -12.2      1.369      2.124
REMARK SMILES O=C(COc1ccc(/C=C2\SC(=O)N(Cc3cc4c(cc3Cl)OCO4)C2=O)cc1)NCCCCCCNC(=O)c1ccc(-c2c3nc(c(-c4c(F)cccc4F)c4ccc([nH]4)c(-c4c(F)cccc4F)c4nc(c(-c5c(F)cccc5F)c5ccc2[nH]5)C=C4)C=C3)cc1
REMARK SMILES IDX 32 1 31 2 30 3 1 4 2 5 3 7 4 8 5 9 6 10 29 11 7 12 28 13
REMARK SMILES IDX 8 14 9 15 10 16 11 17 26 18 12 19 14 20 27 21 13 22 15 23
REMARK SMILES IDX 16 24 17 25 21 26 18 27 20 28 22 29 19 30 25 31 23 32 24 33
REMARK SMILES IDX 33 34 34 35 35 36 36 37 37 38 38 39 39 41 40 42 41 43 93 44
REMARK SMILES IDX 42 45 92 46 43 47 44 48 45 49 86 50 46 51 91 52 85 53 87 54
REMARK SMILES IDX 47 55 90 56 84 57 83 58 48 60 74 61 57 62 73 63 58 64 61 65
REMARK SMILES IDX 72 66 88 67 59 68 60 69 71 71 89 72 62 73 49 74 50 75 55 76
REMARK SMILES IDX 51 77 52 78 54 79 56 80 53 81 75 82 76 83 81 84 77 85 78 86
REMARK SMILES IDX 80 87 82 88 79 89 63 90 64 91 69 92 65 93 66 94 68 95 70 96
REMARK SMILES IDX 67 97
REMARK H PARENT 30 6 37 40 87 59 61 70
REMARK Flexibility Score: inf
ROOT
ATOM      1  C   UNL A   1      37.156  19.532  24.960  1.00  0.00     0.021 C 
ENDROOT
BRANCH   1   2
ATOM      2  C   UNL A   1      36.459  18.181  24.882  1.00  0.00     0.116 C 
BRANCH   2   3
ATOM      3  N   UNL A   1      35.021  18.286  24.990  1.00  0.00    -0.353 N 
ATOM      4  O   UNL A   1      34.555  16.104  24.439  1.00  0.00    -0.271 OA
ATOM      5  C   UNL A   1      34.188  17.192  24.873  1.00  0.00     0.257 C 
ATOM      6  H   UNL A   1      34.622  19.170  25.153  1.00  0.00     0.163 HD
BRANCH   5   7
ATOM      7  C   UNL A   1      32.762  17.428  25.395  1.00  0.00     0.329 C 
BRANCH   7   8
ATOM      8  O   UNL A   1      31.844  18.082  24.516  1.00  0.00    -0.484 OA
BRANCH   8   9
ATOM      9  C   UNL A   1      32.139  19.389  24.230  1.00  0.00     0.120 A 
ATOM     10  C   UNL A   1      32.187  19.751  22.880  1.00  0.00     0.047 A 
ATOM     11  C   UNL A   1      32.468  20.332  25.200  1.00  0.00     0.047 A 
ATOM     12  C   UNL A   1      32.531  21.059  22.506  1.00  0.00     0.012 A 
ATOM     13  C   UNL A   1      32.836  21.617  24.835  1.00  0.00     0.012 A 
ATOM     14  C   UNL A   1      32.856  21.990  23.492  1.00  0.00    -0.024 A 
BRANCH  14  15
ATOM     15  C   UNL A   1      33.155  23.393  23.258  1.00  0.00     0.029 C 
ATOM     16  C   UNL A   1      32.250  24.366  23.129  1.00  0.00     0.083 C 
ATOM     17  S   UNL A   1      30.591  24.428  23.546  1.00  0.00    -0.022 SA
ATOM     18  C   UNL A   1      32.656  25.650  22.526  1.00  0.00     0.268 C 
ATOM     19  C   UNL A   1      30.552  26.184  23.330  1.00  0.00     0.293 C 
ATOM     20  N   UNL A   1      31.775  26.623  22.904  1.00  0.00    -0.264 N 
ATOM     21  O   UNL A   1      33.587  25.767  21.742  1.00  0.00    -0.268 OA
ATOM     22  O   UNL A   1      29.549  26.850  23.509  1.00  0.00    -0.261 OA
BRANCH  20  23
ATOM     23  C   UNL A   1      32.084  28.017  22.681  1.00  0.00     0.167 C 
BRANCH  23  24
ATOM     24  C   UNL A   1      32.339  28.783  23.970  1.00  0.00    -0.005 A 
ATOM     25  C   UNL A   1      33.529  28.501  24.674  1.00  0.00     0.057 A 
ATOM     26  C   UNL A   1      31.426  29.714  24.543  1.00  0.00     0.050 A 
ATOM     27  C   UNL A   1      33.744  29.118  25.890  1.00  0.00     0.166 A 
ATOM     28  C   UNL A   1      31.702  30.361  25.753  1.00  0.00     0.071 A 
ATOM     29  Cl  UNL A   1      29.888  30.096  23.867  1.00  0.00    -0.084 Cl
ATOM     30  C   UNL A   1      32.857  30.027  26.409  1.00  0.00     0.167 A 
ATOM     31  O   UNL A   1      34.798  28.900  26.721  1.00  0.00    -0.454 OA
ATOM     32  O   UNL A   1      33.242  30.503  27.621  1.00  0.00    -0.454 OA
ATOM     33  C   UNL A   1      34.402  29.684  27.868  1.00  0.00     0.468 C 
ENDBRANCH  23  24
ENDBRANCH  20  23
ENDBRANCH  14  15
ENDBRANCH   8   9
ENDBRANCH   7   8
ENDBRANCH   5   7
ENDBRANCH   2   3
ENDBRANCH   1   2
BRANCH   1  34
ATOM     34  C   UNL A   1      36.220  20.736  24.810  1.00  0.00     0.002 C 
BRANCH  34  35
ATOM     35  C   UNL A   1      36.141  21.674  26.019  1.00  0.00     0.002 C 
BRANCH  35  36
ATOM     36  C   UNL A   1      36.039  23.167  25.698  1.00  0.00     0.021 C 
BRANCH  36  37
ATOM     37  C   UNL A   1      37.362  23.867  25.400  1.00  0.00     0.116 C 
BRANCH  37  38
ATOM     38  N   UNL A   1      38.517  23.006  25.598  1.00  0.00    -0.352 N 
ATOM     39  C   UNL A   1      39.691  23.259  26.261  1.00  0.00     0.251 C 
ATOM     40  H   UNL A   1      38.445  22.109  25.196  1.00  0.00     0.163 HD
ATOM     41  O   UNL A   1      40.609  22.444  26.220  1.00  0.00    -0.269 OA
BRANCH  39  42
ATOM     42  C   UNL A   1      39.871  24.526  27.006  1.00  0.00     0.039 A 
ATOM     43  C   UNL A   1      39.313  24.638  28.283  1.00  0.00     0.014 A 
ATOM     44  C   UNL A   1      40.567  25.602  26.449  1.00  0.00     0.014 A 
ATOM     45  C   UNL A   1      39.507  25.804  29.027  1.00  0.00     0.010 A 
ATOM     46  C   UNL A   1      40.810  26.741  27.215  1.00  0.00     0.010 A 
ATOM     47  C   UNL A   1      40.283  26.853  28.511  1.00  0.00    -0.014 A 
BRANCH  47  48
ATOM     48  C   UNL A   1      40.561  28.072  29.312  1.00  0.00     0.031 A 
ATOM     49  C   UNL A   1      41.840  28.190  30.092  1.00  0.00     0.074 A 
ATOM     50  C   UNL A   1      39.632  29.044  29.391  1.00  0.00     0.049 A 
ATOM     51  N   UNL A   1      42.222  29.135  30.916  1.00  0.00    -0.248 NA
ATOM     52  C   UNL A   1      42.806  27.091  29.948  1.00  0.00     0.031 C 
ATOM     53  C   UNL A   1      38.334  29.032  28.716  1.00  0.00     0.029 A 
ATOM     54  N   UNL A   1      39.634  30.226  30.089  1.00  0.00    -0.354 N 
ATOM     55  C   UNL A   1      43.461  28.734  31.400  1.00  0.00     0.074 A 
ATOM     56  C   UNL A   1      43.749  27.445  30.810  1.00  0.00     0.031 C 
ATOM     57  C   UNL A   1      37.670  30.158  29.021  1.00  0.00     0.029 A 
ATOM     58  C   UNL A   1      38.480  30.956  29.936  1.00  0.00     0.049 A 
ATOM     59  H   UNL A   1      40.389  30.522  30.646  1.00  0.00     0.167 HD
ATOM     60  C   UNL A   1      44.289  29.389  32.248  1.00  0.00     0.037 A 
ATOM     61  C   UNL A   1      38.113  32.132  30.480  1.00  0.00     0.037 A 
ATOM     62  C   UNL A   1      44.019  30.686  32.811  1.00  0.00     0.049 A 
ATOM     63  C   UNL A   1      39.055  32.843  31.409  1.00  0.00     0.074 A 
ATOM     64  C   UNL A   1      44.826  31.456  33.630  1.00  0.00     0.029 A 
ATOM     65  N   UNL A   1      42.851  31.406  32.610  1.00  0.00    -0.354 N 
ATOM     66  N   UNL A   1      40.247  32.478  31.815  1.00  0.00    -0.248 NA
ATOM     67  C   UNL A   1      38.604  34.133  31.951  1.00  0.00     0.031 C 
ATOM     68  C   UNL A   1      44.134  32.630  33.949  1.00  0.00     0.029 A 
ATOM     69  C   UNL A   1      42.910  32.604  33.300  1.00  0.00     0.049 A 
ATOM     70  H   UNL A   1      42.092  31.107  32.057  1.00  0.00     0.167 HD
ATOM     71  C   UNL A   1      40.697  33.501  32.639  1.00  0.00     0.074 A 
ATOM     72  C   UNL A   1      39.656  34.507  32.667  1.00  0.00     0.031 C 
ATOM     73  C   UNL A   1      41.869  33.598  33.311  1.00  0.00     0.037 A 
BRANCH  60  74
ATOM     74  C   UNL A   1      45.575  28.711  32.614  1.00  0.00     0.057 A 
ATOM     75  C   UNL A   1      45.673  27.868  33.728  1.00  0.00     0.134 A 
ATOM     76  C   UNL A   1      46.723  28.878  31.827  1.00  0.00     0.134 A 
ATOM     77  F   UNL A   1      44.613  27.676  34.529  1.00  0.00    -0.206 F 
ATOM     78  C   UNL A   1      46.870  27.232  34.060  1.00  0.00     0.040 A 
ATOM     79  C   UNL A   1      47.919  28.231  32.136  1.00  0.00     0.040 A 
ATOM     80  F   UNL A   1      46.696  29.668  30.743  1.00  0.00    -0.206 F 
ATOM     81  C   UNL A   1      47.997  27.409  33.259  1.00  0.00     0.006 A 
ENDBRANCH  60  74
BRANCH  61  82
ATOM     82  C   UNL A   1      36.796  32.724  30.141  1.00  0.00     0.057 A 
ATOM     83  C   UNL A   1      36.668  33.629  29.081  1.00  0.00     0.134 A 
ATOM     84  C   UNL A   1      35.642  32.407  30.865  1.00  0.00     0.134 A 
ATOM     85  F   UNL A   1      37.744  33.985  28.364  1.00  0.00    -0.206 F 
ATOM     86  C   UNL A   1      35.440  34.209  28.761  1.00  0.00     0.040 A 
ATOM     87  C   UNL A   1      34.404  32.964  30.544  1.00  0.00     0.040 A 
ATOM     88  F   UNL A   1      35.701  31.542  31.889  1.00  0.00    -0.206 F 
ATOM     89  C   UNL A   1      34.302  33.873  29.492  1.00  0.00     0.006 A 
ENDBRANCH  61  82
BRANCH  73  90
ATOM     90  C   UNL A   1      42.100  34.847  34.107  1.00  0.00     0.057 A 
ATOM     91  C   UNL A   1      41.757  34.932  35.462  1.00  0.00     0.134 A 
ATOM     92  C   UNL A   1      42.706  35.965  33.520  1.00  0.00     0.134 A 
ATOM     93  F   UNL A   1      41.162  33.899  36.079  1.00  0.00    -0.206 F 
ATOM     94  C   UNL A   1      41.995  36.092  36.202  1.00  0.00     0.040 A 
ATOM     95  C   UNL A   1      42.966  37.122  34.253  1.00  0.00     0.040 A 
ATOM     96  F   UNL A   1      43.063  35.944  32.226  1.00  0.00    -0.206 F 
ATOM     97  C   UNL A   1      42.607  37.189  35.598  1.00  0.00     0.006 A 
ENDBRANCH  73  90
ENDBRANCH  47  48
ENDBRANCH  39  42
ENDBRANCH  37  38
ENDBRANCH  36  37
ENDBRANCH  35  36
ENDBRANCH  34  35
ENDBRANCH   1  34
TORSDOF 18
ENDMDL
