MODEL 1
REMARK VINA RESULT:     -11.3      0.000      0.000
REMARK SMILES CC1(C)Cc2c(-c3ccccc3)c(-c3ccc(Cl)cc3)c(CC(=O)NCCCCCCNC(=O)c3ccc(-c4c5nc(c(-c6c(F)cccc6F)c6ccc([nH]6)c(-c6c(F)cccc6F)c6nc(c(-c7c(F)cccc7F)c7ccc4[nH]7)C=C6)C=C5)cc3)n2C1
REMARK SMILES IDX 28 1 27 2 26 3 25 4 23 5 24 6 22 8 21 9 1 10 2 11 3 12 4 13
REMARK SMILES IDX 90 14 5 15 89 16 6 17 13 18 7 19 8 20 12 21 9 22 11 23 10 24
REMARK SMILES IDX 14 25 15 26 20 27 16 28 19 29 17 30 18 31 29 32 30 33 31 34
REMARK SMILES IDX 32 35 33 36 34 38 35 39 36 40 88 41 37 42 87 43 38 44 39 45
REMARK SMILES IDX 40 46 81 47 41 48 86 49 80 50 82 51 42 52 85 53 79 54 78 55
REMARK SMILES IDX 43 57 69 58 52 59 68 60 53 61 56 62 67 63 83 64 54 65 55 66
REMARK SMILES IDX 66 68 84 69 57 70 44 71 45 72 50 73 46 74 47 75 49 76 51 77
REMARK SMILES IDX 48 78 70 79 71 80 76 81 72 82 73 83 75 84 77 85 74 86 58 87
REMARK SMILES IDX 59 88 64 89 60 90 61 91 63 92 65 93 62 94
REMARK H PARENT 25 7 32 37 82 56 56 67
REMARK Flexibility Score: inf
ROOT
ATOM      1  C   UNL A   1      40.152  22.234  26.344  1.00  0.00     0.002 C 
ENDROOT
BRANCH   1   2
ATOM      2  C   UNL A   1      39.025  23.229  26.623  1.00  0.00     0.021 C 
BRANCH   2   3
ATOM      3  C   UNL A   1      37.642  22.740  26.200  1.00  0.00     0.116 C 
BRANCH   3   4
ATOM      4  N   UNL A   1      37.325  23.077  24.834  1.00  0.00    -0.356 N 
ATOM      5  C   UNL A   1      36.257  23.783  24.356  1.00  0.00     0.225 C 
ATOM      6  O   UNL A   1      36.233  24.034  23.148  1.00  0.00    -0.275 OA
ATOM      7  H   UNL A   1      37.961  22.756  24.156  1.00  0.00     0.163 HD
BRANCH   5   8
ATOM      8  C   UNL A   1      35.184  24.309  25.300  1.00  0.00     0.154 C 
BRANCH   8   9
ATOM      9  C   UNL A   1      33.851  24.525  24.642  1.00  0.00     0.036 A 
ATOM     10  C   UNL A   1      31.976  20.429  22.481  1.00  0.00     0.013 C 
ATOM     11  C   UNL A   1      32.447  21.884  22.456  1.00  0.00    -0.012 C 
ATOM     12  C   UNL A   1      33.044  22.185  21.068  1.00  0.00     0.013 C 
ATOM     13  C   UNL A   1      31.283  22.885  22.753  1.00  0.00     0.063 C 
ATOM     14  C   UNL A   1      33.479  22.159  23.589  1.00  0.00     0.129 C 
ATOM     15  C   UNL A   1      31.980  23.960  23.497  1.00  0.00     0.027 A 
ATOM     16  N   UNL A   1      33.195  23.543  23.957  1.00  0.00    -0.346 N 
ATOM     17  C   UNL A   1      31.816  25.265  23.873  1.00  0.00     0.011 A 
ATOM     18  C   UNL A   1      32.995  25.629  24.615  1.00  0.00     0.011 A 
BRANCH  17  19
ATOM     19  C   UNL A   1      30.656  26.085  23.604  1.00  0.00    -0.016 A 
ATOM     20  C   UNL A   1      29.446  25.826  24.253  1.00  0.00     0.009 A 
ATOM     21  C   UNL A   1      30.800  27.246  22.833  1.00  0.00     0.009 A 
ATOM     22  C   UNL A   1      28.408  26.754  24.177  1.00  0.00     0.001 A 
ATOM     23  C   UNL A   1      29.755  28.162  22.742  1.00  0.00     0.001 A 
ATOM     24  C   UNL A   1      28.568  27.926  23.433  1.00  0.00     0.000 A 
ENDBRANCH  17  19
BRANCH  18  25
ATOM     25  C   UNL A   1      33.229  26.913  25.266  1.00  0.00    -0.016 A 
ATOM     26  C   UNL A   1      32.719  27.136  26.553  1.00  0.00     0.010 A 
ATOM     27  C   UNL A   1      33.813  27.978  24.573  1.00  0.00     0.010 A 
ATOM     28  C   UNL A   1      32.799  28.402  27.140  1.00  0.00     0.021 A 
ATOM     29  C   UNL A   1      33.916  29.239  25.167  1.00  0.00     0.021 A 
ATOM     30  C   UNL A   1      33.403  29.447  26.444  1.00  0.00     0.041 A 
ATOM     31  Cl  UNL A   1      33.487  31.011  27.157  1.00  0.00    -0.084 Cl
ENDBRANCH  18  25
ENDBRANCH   8   9
ENDBRANCH   5   8
ENDBRANCH   3   4
ENDBRANCH   2   3
ENDBRANCH   1   2
BRANCH   1  32
ATOM     32  C   UNL A   1      40.881  21.691  27.586  1.00  0.00     0.002 C 
BRANCH  32  33
ATOM     33  C   UNL A   1      41.920  20.582  27.351  1.00  0.00     0.021 C 
BRANCH  33  34
ATOM     34  C   UNL A   1      42.042  20.167  25.900  1.00  0.00     0.116 C 
BRANCH  34  35
ATOM     35  N   UNL A   1      43.431  19.937  25.480  1.00  0.00    -0.352 N 
ATOM     36  C   UNL A   1      44.381  20.871  25.085  1.00  0.00     0.251 C 
ATOM     37  H   UNL A   1      43.727  18.998  25.479  1.00  0.00     0.163 HD
ATOM     38  O   UNL A   1      45.366  20.553  24.444  1.00  0.00    -0.269 OA
BRANCH  36  39
ATOM     39  C   UNL A   1      44.167  22.270  25.495  1.00  0.00     0.039 A 
ATOM     40  C   UNL A   1      43.329  23.162  24.823  1.00  0.00     0.014 A 
ATOM     41  C   UNL A   1      44.808  22.646  26.663  1.00  0.00     0.014 A 
ATOM     42  C   UNL A   1      43.136  24.425  25.384  1.00  0.00     0.010 A 
ATOM     43  C   UNL A   1      44.322  23.697  27.368  1.00  0.00     0.010 A 
ATOM     44  C   UNL A   1      43.653  24.676  26.664  1.00  0.00    -0.014 A 
BRANCH  44  45
ATOM     45  C   UNL A   1      43.519  25.940  27.365  1.00  0.00     0.031 A 
ATOM     46  C   UNL A   1      44.550  26.934  27.000  1.00  0.00     0.074 A 
ATOM     47  C   UNL A   1      42.397  26.249  28.060  1.00  0.00     0.049 A 
ATOM     48  N   UNL A   1      45.524  27.368  27.726  1.00  0.00    -0.248 NA
ATOM     49  C   UNL A   1      44.610  27.372  25.594  1.00  0.00     0.031 C 
ATOM     50  C   UNL A   1      41.146  25.480  28.202  1.00  0.00     0.029 A 
ATOM     51  N   UNL A   1      42.110  27.386  28.747  1.00  0.00    -0.354 N 
ATOM     52  C   UNL A   1      46.179  28.315  26.945  1.00  0.00     0.074 A 
ATOM     53  C   UNL A   1      45.720  28.112  25.597  1.00  0.00     0.031 C 
ATOM     54  C   UNL A   1      40.179  26.259  28.739  1.00  0.00     0.029 A 
ATOM     55  C   UNL A   1      40.784  27.506  29.156  1.00  0.00     0.049 A 
ATOM     56  H   UNL A   1      42.788  28.073  28.940  1.00  0.00     0.167 HD
ATOM     57  C   UNL A   1      46.824  29.365  27.523  1.00  0.00     0.037 A 
ATOM     58  C   UNL A   1      40.231  28.568  29.794  1.00  0.00     0.037 A 
ATOM     59  C   UNL A   1      47.037  29.124  28.930  1.00  0.00     0.049 A 
ATOM     60  C   UNL A   1      41.342  29.376  30.343  1.00  0.00     0.074 A 
ATOM     61  C   UNL A   1      47.736  28.193  29.672  1.00  0.00     0.029 A 
ATOM     62  N   UNL A   1      46.139  29.694  29.801  1.00  0.00    -0.354 N 
ATOM     63  N   UNL A   1      42.113  28.969  31.310  1.00  0.00    -0.248 NA
ATOM     64  C   UNL A   1      41.891  30.422  29.496  1.00  0.00     0.031 C 
ATOM     65  C   UNL A   1      46.909  27.922  30.805  1.00  0.00     0.029 A 
ATOM     66  C   UNL A   1      45.788  28.750  30.730  1.00  0.00     0.049 A 
ATOM     67  H   UNL A   1      45.807  30.620  29.764  1.00  0.00     0.167 HD
ATOM     68  C   UNL A   1      43.385  29.378  30.939  1.00  0.00     0.074 A 
ATOM     69  C   UNL A   1      43.175  30.335  29.853  1.00  0.00     0.031 C 
ATOM     70  C   UNL A   1      44.484  28.678  31.345  1.00  0.00     0.037 A 
BRANCH  57  71
ATOM     71  C   UNL A   1      46.875  30.756  26.933  1.00  0.00     0.057 A 
ATOM     72  C   UNL A   1      48.104  31.441  26.924  1.00  0.00     0.134 A 
ATOM     73  C   UNL A   1      45.747  31.555  26.651  1.00  0.00     0.134 A 
ATOM     74  F   UNL A   1      49.252  30.797  27.180  1.00  0.00    -0.206 F 
ATOM     75  C   UNL A   1      48.190  32.827  26.738  1.00  0.00     0.040 A 
ATOM     76  C   UNL A   1      45.829  32.930  26.415  1.00  0.00     0.040 A 
ATOM     77  F   UNL A   1      44.496  31.083  26.688  1.00  0.00    -0.206 F 
ATOM     78  C   UNL A   1      47.048  33.578  26.494  1.00  0.00     0.006 A 
ENDBRANCH  57  71
BRANCH  58  79
ATOM     79  C   UNL A   1      38.929  29.200  29.497  1.00  0.00     0.057 A 
ATOM     80  C   UNL A   1      38.534  29.492  28.185  1.00  0.00     0.134 A 
ATOM     81  C   UNL A   1      37.915  29.165  30.465  1.00  0.00     0.134 A 
ATOM     82  F   UNL A   1      39.430  29.469  27.187  1.00  0.00    -0.206 F 
ATOM     83  C   UNL A   1      37.195  29.734  27.851  1.00  0.00     0.040 A 
ATOM     84  C   UNL A   1      36.575  29.356  30.133  1.00  0.00     0.040 A 
ATOM     85  F   UNL A   1      38.186  28.827  31.734  1.00  0.00    -0.206 F 
ATOM     86  C   UNL A   1      36.206  29.652  28.826  1.00  0.00     0.006 A 
ENDBRANCH  58  79
BRANCH  70  87
ATOM     87  C   UNL A   1      44.260  27.596  32.370  1.00  0.00     0.057 A 
ATOM     88  C   UNL A   1      44.154  26.229  32.066  1.00  0.00     0.134 A 
ATOM     89  C   UNL A   1      44.266  27.938  33.723  1.00  0.00     0.134 A 
ATOM     90  F   UNL A   1      44.225  25.793  30.805  1.00  0.00    -0.206 F 
ATOM     91  C   UNL A   1      44.020  25.253  33.059  1.00  0.00     0.040 A 
ATOM     92  C   UNL A   1      44.163  26.972  34.727  1.00  0.00     0.040 A 
ATOM     93  F   UNL A   1      44.414  29.220  34.092  1.00  0.00    -0.206 F 
ATOM     94  C   UNL A   1      44.030  25.625  34.397  1.00  0.00     0.006 A 
ENDBRANCH  70  87
ENDBRANCH  44  45
ENDBRANCH  36  39
ENDBRANCH  34  35
ENDBRANCH  33  34
ENDBRANCH  32  33
ENDBRANCH   1  32
TORSDOF 16
ENDMDL
MODEL 2
REMARK VINA RESULT:     -11.2      2.129      2.841
REMARK SMILES CC1(C)Cc2c(-c3ccccc3)c(-c3ccc(Cl)cc3)c(CC(=O)NCCCCCCNC(=O)c3ccc(-c4c5nc(c(-c6c(F)cccc6F)c6ccc([nH]6)c(-c6c(F)cccc6F)c6nc(c(-c7c(F)cccc7F)c7ccc4[nH]7)C=C6)C=C5)cc3)n2C1
REMARK SMILES IDX 28 1 27 2 26 3 25 4 23 5 24 6 22 8 21 9 1 10 2 11 3 12 4 13
REMARK SMILES IDX 90 14 5 15 89 16 6 17 13 18 7 19 8 20 12 21 9 22 11 23 10 24
REMARK SMILES IDX 14 25 15 26 20 27 16 28 19 29 17 30 18 31 29 32 30 33 31 34
REMARK SMILES IDX 32 35 33 36 34 38 35 39 36 40 88 41 37 42 87 43 38 44 39 45
REMARK SMILES IDX 40 46 81 47 41 48 86 49 80 50 82 51 42 52 85 53 79 54 78 55
REMARK SMILES IDX 43 57 69 58 52 59 68 60 53 61 56 62 67 63 83 64 54 65 55 66
REMARK SMILES IDX 66 68 84 69 57 70 44 71 45 72 50 73 46 74 47 75 49 76 51 77
REMARK SMILES IDX 48 78 70 79 71 80 76 81 72 82 73 83 75 84 77 85 74 86 58 87
REMARK SMILES IDX 59 88 64 89 60 90 61 91 63 92 65 93 62 94
REMARK H PARENT 25 7 32 37 82 56 56 67
REMARK Flexibility Score: inf
ROOT
ATOM      1  C   UNL A   1      39.360  21.525  25.781  1.00  0.00     0.002 C 
ENDROOT
BRANCH   1   2
ATOM      2  C   UNL A   1      38.350  22.549  26.299  1.00  0.00     0.021 C 
BRANCH   2   3
ATOM      3  C   UNL A   1      37.032  22.570  25.529  1.00  0.00     0.116 C 
BRANCH   3   4
ATOM      4  N   UNL A   1      35.880  22.459  26.390  1.00  0.00    -0.356 N 
ATOM      5  C   UNL A   1      34.849  23.340  26.552  1.00  0.00     0.225 C 
ATOM      6  O   UNL A   1      33.914  22.997  27.281  1.00  0.00    -0.275 OA
ATOM      7  H   UNL A   1      35.831  21.640  26.933  1.00  0.00     0.163 HD
BRANCH   5   8
ATOM      8  C   UNL A   1      34.822  24.659  25.792  1.00  0.00     0.154 C 
BRANCH   8   9
ATOM      9  C   UNL A   1      33.576  24.865  24.979  1.00  0.00     0.036 A 
ATOM     10  C   UNL A   1      32.081  20.791  22.503  1.00  0.00     0.013 C 
ATOM     11  C   UNL A   1      32.516  22.256  22.572  1.00  0.00    -0.012 C 
ATOM     12  C   UNL A   1      33.271  22.608  21.276  1.00  0.00     0.013 C 
ATOM     13  C   UNL A   1      31.299  23.223  22.748  1.00  0.00     0.063 C 
ATOM     14  C   UNL A   1      33.393  22.521  23.831  1.00  0.00     0.129 C 
ATOM     15  C   UNL A   1      31.874  24.292  23.599  1.00  0.00     0.027 A 
ATOM     16  N   UNL A   1      33.033  23.888  24.195  1.00  0.00    -0.346 N 
ATOM     17  C   UNL A   1      31.632  25.582  23.985  1.00  0.00     0.011 A 
ATOM     18  C   UNL A   1      32.703  25.950  24.875  1.00  0.00     0.011 A 
BRANCH  17  19
ATOM     19  C   UNL A   1      30.494  26.384  23.594  1.00  0.00    -0.016 A 
ATOM     20  C   UNL A   1      29.217  26.065  24.061  1.00  0.00     0.009 A 
ATOM     21  C   UNL A   1      30.705  27.583  22.900  1.00  0.00     0.009 A 
ATOM     22  C   UNL A   1      28.170  26.969  23.883  1.00  0.00     0.001 A 
ATOM     23  C   UNL A   1      29.654  28.476  22.707  1.00  0.00     0.001 A 
ATOM     24  C   UNL A   1      28.392  28.178  23.219  1.00  0.00     0.000 A 
ENDBRANCH  17  19
BRANCH  18  25
ATOM     25  C   UNL A   1      32.823  27.221  25.581  1.00  0.00    -0.016 A 
ATOM     26  C   UNL A   1      31.939  27.512  26.630  1.00  0.00     0.010 A 
ATOM     27  C   UNL A   1      33.697  28.216  25.133  1.00  0.00     0.010 A 
ATOM     28  C   UNL A   1      31.934  28.777  27.225  1.00  0.00     0.021 A 
ATOM     29  C   UNL A   1      33.711  29.474  25.742  1.00  0.00     0.021 A 
ATOM     30  C   UNL A   1      32.825  29.751  26.780  1.00  0.00     0.041 A 
ATOM     31  Cl  UNL A   1      32.810  31.314  27.498  1.00  0.00    -0.084 Cl
ENDBRANCH  18  25
ENDBRANCH   8   9
ENDBRANCH   5   8
ENDBRANCH   3   4
ENDBRANCH   2   3
ENDBRANCH   1   2
BRANCH   1  32
ATOM     32  C   UNL A   1      40.368  21.003  26.821  1.00  0.00     0.002 C 
BRANCH  32  33
ATOM     33  C   UNL A   1      40.778  21.977  27.939  1.00  0.00     0.021 C 
BRANCH  33  34
ATOM     34  C   UNL A   1      42.275  22.181  28.043  1.00  0.00     0.116 C 
BRANCH  34  35
ATOM     35  N   UNL A   1      42.933  22.306  26.735  1.00  0.00    -0.352 N 
ATOM     36  C   UNL A   1      42.872  23.362  25.834  1.00  0.00     0.251 C 
ATOM     37  H   UNL A   1      43.489  21.541  26.461  1.00  0.00     0.163 HD
ATOM     38  O   UNL A   1      43.166  23.224  24.662  1.00  0.00    -0.269 OA
BRANCH  36  39
ATOM     39  C   UNL A   1      42.461  24.677  26.359  1.00  0.00     0.039 A 
ATOM     40  C   UNL A   1      41.224  25.270  26.099  1.00  0.00     0.014 A 
ATOM     41  C   UNL A   1      43.369  25.283  27.210  1.00  0.00     0.014 A 
ATOM     42  C   UNL A   1      40.926  26.469  26.748  1.00  0.00     0.010 A 
ATOM     43  C   UNL A   1      42.924  26.208  28.093  1.00  0.00     0.010 A 
ATOM     44  C   UNL A   1      41.801  26.927  27.743  1.00  0.00    -0.014 A 
BRANCH  44  45
ATOM     45  C   UNL A   1      41.607  28.151  28.499  1.00  0.00     0.031 A 
ATOM     46  C   UNL A   1      42.622  29.190  28.220  1.00  0.00     0.074 A 
ATOM     47  C   UNL A   1      40.454  28.396  29.169  1.00  0.00     0.049 A 
ATOM     48  N   UNL A   1      43.558  29.612  29.001  1.00  0.00    -0.248 NA
ATOM     49  C   UNL A   1      42.718  29.698  26.841  1.00  0.00     0.031 C 
ATOM     50  C   UNL A   1      39.221  27.588  29.229  1.00  0.00     0.029 A 
ATOM     51  N   UNL A   1      40.112  29.489  29.900  1.00  0.00    -0.354 N 
ATOM     52  C   UNL A   1      44.212  30.614  28.290  1.00  0.00     0.074 A 
ATOM     53  C   UNL A   1      43.805  30.466  26.919  1.00  0.00     0.031 C 
ATOM     54  C   UNL A   1      38.214  28.314  29.768  1.00  0.00     0.029 A 
ATOM     55  C   UNL A   1      38.770  29.554  30.267  1.00  0.00     0.049 A 
ATOM     56  H   UNL A   1      40.763  30.184  30.149  1.00  0.00     0.167 HD
ATOM     57  C   UNL A   1      44.807  31.651  28.941  1.00  0.00     0.037 A 
ATOM     58  C   UNL A   1      38.166  30.568  30.935  1.00  0.00     0.037 A 
ATOM     59  C   UNL A   1      44.978  31.347  30.342  1.00  0.00     0.049 A 
ATOM     60  C   UNL A   1      39.234  31.377  31.562  1.00  0.00     0.074 A 
ATOM     61  C   UNL A   1      45.678  30.399  31.061  1.00  0.00     0.029 A 
ATOM     62  N   UNL A   1      44.036  31.849  31.206  1.00  0.00    -0.354 N 
ATOM     63  N   UNL A   1      39.982  30.943  32.535  1.00  0.00    -0.248 NA
ATOM     64  C   UNL A   1      39.782  32.478  30.786  1.00  0.00     0.031 C 
ATOM     65  C   UNL A   1      44.820  30.050  32.150  1.00  0.00     0.029 A 
ATOM     66  C   UNL A   1      43.680  30.850  32.075  1.00  0.00     0.049 A 
ATOM     67  H   UNL A   1      43.679  32.766  31.202  1.00  0.00     0.167 HD
ATOM     68  C   UNL A   1      41.254  31.404  32.230  1.00  0.00     0.074 A 
ATOM     69  C   UNL A   1      41.055  32.408  31.185  1.00  0.00     0.031 C 
ATOM     70  C   UNL A   1      42.358  30.714  32.639  1.00  0.00     0.037 A 
BRANCH  57  71
ATOM     71  C   UNL A   1      44.839  33.070  28.421  1.00  0.00     0.057 A 
ATOM     72  C   UNL A   1      46.087  33.669  28.167  1.00  0.00     0.134 A 
ATOM     73  C   UNL A   1      43.746  33.961  28.440  1.00  0.00     0.134 A 
ATOM     74  F   UNL A   1      47.207  32.932  28.126  1.00  0.00    -0.206 F 
ATOM     75  C   UNL A   1      46.243  35.054  28.033  1.00  0.00     0.040 A 
ATOM     76  C   UNL A   1      43.885  35.340  28.257  1.00  0.00     0.040 A 
ATOM     77  F   UNL A   1      42.500  33.575  28.736  1.00  0.00    -0.206 F 
ATOM     78  C   UNL A   1      45.140  35.896  28.089  1.00  0.00     0.006 A 
ENDBRANCH  57  71
BRANCH  58  79
ATOM     79  C   UNL A   1      36.857  31.179  30.623  1.00  0.00     0.057 A 
ATOM     80  C   UNL A   1      35.943  31.517  31.630  1.00  0.00     0.134 A 
ATOM     81  C   UNL A   1      36.663  31.780  29.372  1.00  0.00     0.134 A 
ATOM     82  F   UNL A   1      36.102  31.046  32.875  1.00  0.00    -0.206 F 
ATOM     83  C   UNL A   1      34.890  32.413  31.404  1.00  0.00     0.040 A 
ATOM     84  C   UNL A   1      35.648  32.710  29.151  1.00  0.00     0.040 A 
ATOM     85  F   UNL A   1      37.526  31.571  28.366  1.00  0.00    -0.206 F 
ATOM     86  C   UNL A   1      34.748  33.026  30.162  1.00  0.00     0.006 A 
ENDBRANCH  58  79
BRANCH  70  87
ATOM     87  C   UNL A   1      42.130  29.577  33.602  1.00  0.00     0.057 A 
ATOM     88  C   UNL A   1      41.982  28.234  33.219  1.00  0.00     0.134 A 
ATOM     89  C   UNL A   1      42.176  29.835  34.972  1.00  0.00     0.134 A 
ATOM     90  F   UNL A   1      42.013  27.874  31.932  1.00  0.00    -0.206 F 
ATOM     91  C   UNL A   1      41.846  27.203  34.154  1.00  0.00     0.040 A 
ATOM     92  C   UNL A   1      42.070  28.812  35.919  1.00  0.00     0.040 A 
ATOM     93  F   UNL A   1      42.365  31.088  35.415  1.00  0.00    -0.206 F 
ATOM     94  C   UNL A   1      41.895  27.492  35.512  1.00  0.00     0.006 A 
ENDBRANCH  70  87
ENDBRANCH  44  45
ENDBRANCH  36  39
ENDBRANCH  34  35
ENDBRANCH  33  34
ENDBRANCH  32  33
ENDBRANCH   1  32
TORSDOF 16
ENDMDL
MODEL 3
REMARK VINA RESULT:     -11.1      2.790      7.902
REMARK SMILES CC1(C)Cc2c(-c3ccccc3)c(-c3ccc(Cl)cc3)c(CC(=O)NCCCCCCNC(=O)c3ccc(-c4c5nc(c(-c6c(F)cccc6F)c6ccc([nH]6)c(-c6c(F)cccc6F)c6nc(c(-c7c(F)cccc7F)c7ccc4[nH]7)C=C6)C=C5)cc3)n2C1
REMARK SMILES IDX 28 1 27 2 26 3 25 4 23 5 24 6 22 8 21 9 1 10 2 11 3 12 4 13
REMARK SMILES IDX 90 14 5 15 89 16 6 17 13 18 7 19 8 20 12 21 9 22 11 23 10 24
REMARK SMILES IDX 14 25 15 26 20 27 16 28 19 29 17 30 18 31 29 32 30 33 31 34
REMARK SMILES IDX 32 35 33 36 34 38 35 39 36 40 88 41 37 42 87 43 38 44 39 45
REMARK SMILES IDX 40 46 81 47 41 48 86 49 80 50 82 51 42 52 85 53 79 54 78 55
REMARK SMILES IDX 43 57 69 58 52 59 68 60 53 61 56 62 67 63 83 64 54 65 55 66
REMARK SMILES IDX 66 68 84 69 57 70 44 71 45 72 50 73 46 74 47 75 49 76 51 77
REMARK SMILES IDX 48 78 70 79 71 80 76 81 72 82 73 83 75 84 77 85 74 86 58 87
REMARK SMILES IDX 59 88 64 89 60 90 61 91 63 92 65 93 62 94
REMARK H PARENT 25 7 32 37 82 56 56 67
REMARK Flexibility Score: inf
ROOT
ATOM      1  C   UNL A   1      31.236  26.850  26.690  1.00  0.00     0.002 C 
ENDROOT
BRANCH   1   2
ATOM      2  C   UNL A   1      30.646  27.105  25.303  1.00  0.00     0.021 C 
BRANCH   2   3
ATOM      3  C   UNL A   1      30.457  25.844  24.464  1.00  0.00     0.116 C 
BRANCH   3   4
ATOM      4  N   UNL A   1      30.127  24.688  25.261  1.00  0.00    -0.356 N 
ATOM      5  C   UNL A   1      30.495  23.386  25.067  1.00  0.00     0.225 C 
ATOM      6  O   UNL A   1      30.172  22.567  25.932  1.00  0.00    -0.275 OA
ATOM      7  H   UNL A   1      29.563  24.859  26.048  1.00  0.00     0.163 HD
BRANCH   5   8
ATOM      8  C   UNL A   1      31.343  22.985  23.868  1.00  0.00     0.154 C 
BRANCH   8   9
ATOM      9  C   UNL A   1      32.715  22.493  24.234  1.00  0.00     0.036 A 
ATOM     10  C   UNL A   1      33.152  17.516  24.191  1.00  0.00     0.013 C 
ATOM     11  C   UNL A   1      33.245  18.882  24.872  1.00  0.00    -0.012 C 
ATOM     12  C   UNL A   1      32.919  18.711  26.368  1.00  0.00     0.013 C 
ATOM     13  C   UNL A   1      34.664  19.522  24.716  1.00  0.00     0.063 C 
ATOM     14  C   UNL A   1      32.291  19.912  24.197  1.00  0.00     0.129 C 
ATOM     15  C   UNL A   1      34.343  20.966  24.616  1.00  0.00     0.027 A 
ATOM     16  N   UNL A   1      33.025  21.166  24.325  1.00  0.00    -0.346 N 
ATOM     17  C   UNL A   1      34.938  22.192  24.734  1.00  0.00     0.011 A 
ATOM     18  C   UNL A   1      33.912  23.170  24.478  1.00  0.00     0.011 A 
BRANCH  17  19
ATOM     19  C   UNL A   1      36.334  22.434  25.019  1.00  0.00    -0.016 A 
ATOM     20  C   UNL A   1      36.753  23.689  25.467  1.00  0.00     0.009 A 
ATOM     21  C   UNL A   1      37.231  21.357  25.018  1.00  0.00     0.009 A 
ATOM     22  C   UNL A   1      38.045  23.849  25.967  1.00  0.00     0.001 A 
ATOM     23  C   UNL A   1      38.527  21.524  25.500  1.00  0.00     0.001 A 
ATOM     24  C   UNL A   1      38.926  22.764  25.995  1.00  0.00     0.000 A 
ENDBRANCH  17  19
BRANCH  18  25
ATOM     25  C   UNL A   1      34.105  24.615  24.434  1.00  0.00    -0.016 A 
ATOM     26  C   UNL A   1      34.294  25.322  25.631  1.00  0.00     0.010 A 
ATOM     27  C   UNL A   1      33.950  25.328  23.241  1.00  0.00     0.010 A 
ATOM     28  C   UNL A   1      34.333  26.719  25.632  1.00  0.00     0.021 A 
ATOM     29  C   UNL A   1      34.013  26.725  23.237  1.00  0.00     0.021 A 
ATOM     30  C   UNL A   1      34.197  27.414  24.432  1.00  0.00     0.041 A 
ATOM     31  Cl  UNL A   1      34.227  29.134  24.433  1.00  0.00    -0.084 Cl
ENDBRANCH  18  25
ENDBRANCH   8   9
ENDBRANCH   5   8
ENDBRANCH   3   4
ENDBRANCH   2   3
ENDBRANCH   1   2
BRANCH   1  32
ATOM     32  C   UNL A   1      31.405  28.096  27.578  1.00  0.00     0.002 C 
BRANCH  32  33
ATOM     33  C   UNL A   1      32.123  29.303  26.951  1.00  0.00     0.021 C 
BRANCH  33  34
ATOM     34  C   UNL A   1      33.416  29.667  27.651  1.00  0.00     0.116 C 
BRANCH  34  35
ATOM     35  N   UNL A   1      33.893  31.016  27.316  1.00  0.00    -0.352 N 
ATOM     36  C   UNL A   1      35.102  31.613  27.652  1.00  0.00     0.251 C 
ATOM     37  H   UNL A   1      33.275  31.568  26.784  1.00  0.00     0.163 HD
ATOM     38  O   UNL A   1      35.251  32.821  27.621  1.00  0.00    -0.269 OA
BRANCH  36  39
ATOM     39  C   UNL A   1      36.217  30.724  28.023  1.00  0.00     0.039 A 
ATOM     40  C   UNL A   1      36.329  29.396  27.608  1.00  0.00     0.014 A 
ATOM     41  C   UNL A   1      37.218  31.316  28.775  1.00  0.00     0.014 A 
ATOM     42  C   UNL A   1      37.491  28.702  27.946  1.00  0.00     0.010 A 
ATOM     43  C   UNL A   1      38.458  30.769  28.761  1.00  0.00     0.010 A 
ATOM     44  C   UNL A   1      38.548  29.412  28.535  1.00  0.00    -0.014 A 
BRANCH  44  45
ATOM     45  C   UNL A   1      39.812  28.816  28.928  1.00  0.00     0.031 A 
ATOM     46  C   UNL A   1      39.997  28.728  30.393  1.00  0.00     0.074 A 
ATOM     47  C   UNL A   1      40.596  28.162  28.036  1.00  0.00     0.049 A 
ATOM     48  N   UNL A   1      40.816  29.398  31.129  1.00  0.00    -0.248 NA
ATOM     49  C   UNL A   1      39.030  27.919  31.156  1.00  0.00     0.031 C 
ATOM     50  C   UNL A   1      40.345  27.872  26.612  1.00  0.00     0.029 A 
ATOM     51  N   UNL A   1      41.785  27.540  28.247  1.00  0.00    -0.354 N 
ATOM     52  C   UNL A   1      40.632  28.920  32.423  1.00  0.00     0.074 A 
ATOM     53  C   UNL A   1      39.392  28.192  32.410  1.00  0.00     0.031 C 
ATOM     54  C   UNL A   1      41.237  26.961  26.158  1.00  0.00     0.029 A 
ATOM     55  C   UNL A   1      42.231  26.752  27.189  1.00  0.00     0.049 A 
ATOM     56  H   UNL A   1      42.292  27.637  29.085  1.00  0.00     0.167 HD
ATOM     57  C   UNL A   1      41.659  28.925  33.316  1.00  0.00     0.037 A 
ATOM     58  C   UNL A   1      43.346  25.979  27.174  1.00  0.00     0.037 A 
ATOM     59  C   UNL A   1      42.724  29.792  32.870  1.00  0.00     0.049 A 
ATOM     60  C   UNL A   1      44.208  26.434  28.287  1.00  0.00     0.074 A 
ATOM     61  C   UNL A   1      42.846  31.143  32.611  1.00  0.00     0.029 A 
ATOM     62  N   UNL A   1      43.787  29.195  32.238  1.00  0.00    -0.354 N 
ATOM     63  N   UNL A   1      44.796  27.595  28.308  1.00  0.00    -0.248 NA
ATOM     64  C   UNL A   1      44.023  25.796  29.581  1.00  0.00     0.031 C 
ATOM     65  C   UNL A   1      43.689  31.227  31.461  1.00  0.00     0.029 A 
ATOM     66  C   UNL A   1      44.090  29.933  31.123  1.00  0.00     0.049 A 
ATOM     67  H   UNL A   1      44.251  28.379  32.534  1.00  0.00     0.167 HD
ATOM     68  C   UNL A   1      44.662  28.030  29.618  1.00  0.00     0.074 A 
ATOM     69  C   UNL A   1      44.247  26.848  30.372  1.00  0.00     0.031 C 
ATOM     70  C   UNL A   1      44.610  29.364  29.903  1.00  0.00     0.037 A 
BRANCH  57  71
ATOM     71  C   UNL A   1      41.886  27.846  34.351  1.00  0.00     0.057 A 
ATOM     72  C   UNL A   1      41.590  28.127  35.697  1.00  0.00     0.134 A 
ATOM     73  C   UNL A   1      42.645  26.676  34.141  1.00  0.00     0.134 A 
ATOM     74  F   UNL A   1      40.878  29.213  36.032  1.00  0.00    -0.206 F 
ATOM     75  C   UNL A   1      42.086  27.352  36.753  1.00  0.00     0.040 A 
ATOM     76  C   UNL A   1      43.102  25.868  35.187  1.00  0.00     0.040 A 
ATOM     77  F   UNL A   1      43.076  26.297  32.933  1.00  0.00    -0.206 F 
ATOM     78  C   UNL A   1      42.854  26.224  36.500  1.00  0.00     0.006 A 
ENDBRANCH  57  71
BRANCH  58  79
ATOM     79  C   UNL A   1      43.460  24.598  26.662  1.00  0.00     0.057 A 
ATOM     80  C   UNL A   1      42.671  23.556  27.169  1.00  0.00     0.134 A 
ATOM     81  C   UNL A   1      44.067  24.377  25.418  1.00  0.00     0.134 A 
ATOM     82  F   UNL A   1      41.995  23.716  28.316  1.00  0.00    -0.206 F 
ATOM     83  C   UNL A   1      42.491  22.356  26.469  1.00  0.00     0.040 A 
ATOM     84  C   UNL A   1      43.853  23.206  24.692  1.00  0.00     0.040 A 
ATOM     85  F   UNL A   1      44.784  25.341  24.820  1.00  0.00    -0.206 F 
ATOM     86  C   UNL A   1      43.072  22.183  25.217  1.00  0.00     0.006 A 
ENDBRANCH  58  79
BRANCH  70  87
ATOM     87  C   UNL A   1      44.919  30.313  28.773  1.00  0.00     0.057 A 
ATOM     88  C   UNL A   1      46.217  30.641  28.349  1.00  0.00     0.134 A 
ATOM     89  C   UNL A   1      43.865  30.823  28.015  1.00  0.00     0.134 A 
ATOM     90  F   UNL A   1      47.292  30.132  28.956  1.00  0.00    -0.206 F 
ATOM     91  C   UNL A   1      46.453  31.470  27.247  1.00  0.00     0.040 A 
ATOM     92  C   UNL A   1      44.085  31.629  26.894  1.00  0.00     0.040 A 
ATOM     93  F   UNL A   1      42.597  30.513  28.330  1.00  0.00    -0.206 F 
ATOM     94  C   UNL A   1      45.383  31.962  26.512  1.00  0.00     0.006 A 
ENDBRANCH  70  87
ENDBRANCH  44  45
ENDBRANCH  36  39
ENDBRANCH  34  35
ENDBRANCH  33  34
ENDBRANCH  32  33
ENDBRANCH   1  32
TORSDOF 16
ENDMDL
