MODEL 1
REMARK VINA RESULT:     -12.6      0.000      0.000
REMARK SMILES O=C(C[C@H]1C(=O)N[NH+]=C2c3ccc(F)cc3N=CN21)NCCCCCCNC(=O)c1ccc(-c2c3nc(c(-c4c(F)cccc4F)c4ccc([nH]4)c(-c4c(F)cccc4F)c4nc(c(-c5c(F)cccc5F)c5ccc2[nH]5)C=C4)C=C3)cc1
REMARK SMILES IDX 24 1 23 2 22 3 21 4 20 5 1 6 2 7 3 9 4 10 5 11 19 12 6 13
REMARK SMILES IDX 7 14 9 15 18 16 8 17 10 19 17 20 11 22 16 23 12 24 15 25
REMARK SMILES IDX 13 26 14 27 25 28 26 29 27 30 28 31 29 33 30 34 31 35 83 36
REMARK SMILES IDX 32 37 82 38 33 39 34 40 35 41 76 42 36 43 81 44 75 45 77 46
REMARK SMILES IDX 37 47 80 48 74 49 73 50 38 52 64 53 47 54 63 55 48 56 51 57
REMARK SMILES IDX 62 58 78 59 49 60 50 61 61 63 79 64 52 65 39 66 40 67 45 68
REMARK SMILES IDX 41 69 42 70 44 71 46 72 43 73 65 74 66 75 71 76 67 77 68 78
REMARK SMILES IDX 70 79 72 80 69 81 53 82 54 83 59 84 55 85 56 86 58 87 60 88
REMARK SMILES IDX 57 89
REMARK H PARENT 20 8 7 18 8 21 27 32 77 51 51 62
REMARK Flexibility Score: inf
ROOT
ATOM      1  C   UNL A   1      31.883  30.532  25.846  1.00  0.00     0.002 C 
ENDROOT
BRANCH   1   2
ATOM      2  C   UNL A   1      33.047  29.602  26.193  1.00  0.00     0.002 C 
BRANCH   2   3
ATOM      3  C   UNL A   1      32.813  28.655  27.375  1.00  0.00     0.021 C 
BRANCH   3   4
ATOM      4  C   UNL A   1      31.410  28.048  27.452  1.00  0.00     0.116 C 
BRANCH   4   5
ATOM      5  N   UNL A   1      31.327  26.721  26.878  1.00  0.00    -0.356 N 
ATOM      6  O   UNL A   1      30.451  27.453  24.902  1.00  0.00    -0.275 OA
ATOM      7  C   UNL A   1      30.859  26.533  25.601  1.00  0.00     0.224 C 
ATOM      8  H   UNL A   1      31.609  25.943  27.411  1.00  0.00     0.163 HD
BRANCH   7   9
ATOM      9  C   UNL A   1      30.850  25.096  25.131  1.00  0.00     0.160 C 
BRANCH   9  10
ATOM     10  C   UNL A   1      31.646  24.155  26.038  1.00  0.00     0.284 C 
ATOM     11  C   UNL A   1      30.735  23.095  26.642  1.00  0.00     0.300 C 
ATOM     12  N   UNL A   1      32.835  23.579  25.385  1.00  0.00    -0.203 N 
ATOM     13  O   UNL A   1      29.904  23.367  27.509  1.00  0.00    -0.267 OA
ATOM     14  N   UNL A   1      30.852  21.828  26.126  1.00  0.00    -0.193 N 
ATOM     15  C   UNL A   1      32.918  22.199  25.269  1.00  0.00     0.309 C 
ATOM     16  C   UNL A   1      33.913  24.387  25.099  1.00  0.00     0.317 C 
ATOM     17  N   UNL A   1      31.971  21.348  25.526  1.00  0.00    -0.169 N 
ATOM     18  H   UNL A   1      30.073  21.230  26.195  1.00  0.00     0.216 HD
ATOM     19  C   UNL A   1      34.273  21.659  24.940  1.00  0.00     0.092 A 
ATOM     20  N   UNL A   1      35.109  23.990  24.803  1.00  0.00    -0.216 NA
ATOM     21  H   UNL A   1      32.061  20.395  25.296  1.00  0.00     0.340 HD
ATOM     22  C   UNL A   1      34.529  20.283  24.992  1.00  0.00     0.022 A 
ATOM     23  C   UNL A   1      35.321  22.594  24.827  1.00  0.00     0.085 A 
ATOM     24  C   UNL A   1      35.849  19.833  25.001  1.00  0.00     0.040 A 
ATOM     25  C   UNL A   1      36.636  22.123  24.827  1.00  0.00     0.068 A 
ATOM     26  C   UNL A   1      36.886  20.758  24.940  1.00  0.00     0.125 A 
ATOM     27  F   UNL A   1      38.152  20.326  25.027  1.00  0.00    -0.207 F 
ENDBRANCH   9  10
ENDBRANCH   7   9
ENDBRANCH   4   5
ENDBRANCH   3   4
ENDBRANCH   2   3
ENDBRANCH   1   2
BRANCH   1  28
ATOM     28  C   UNL A   1      31.604  31.642  26.859  1.00  0.00     0.021 C 
BRANCH  28  29
ATOM     29  C   UNL A   1      32.813  32.482  27.252  1.00  0.00     0.116 C 
BRANCH  29  30
ATOM     30  N   UNL A   1      32.471  33.857  27.578  1.00  0.00    -0.352 N 
ATOM     31  C   UNL A   1      33.028  34.700  28.519  1.00  0.00     0.251 C 
ATOM     32  H   UNL A   1      31.734  34.244  27.052  1.00  0.00     0.163 HD
ATOM     33  O   UNL A   1      32.531  35.787  28.752  1.00  0.00    -0.269 OA
BRANCH  31  34
ATOM     34  C   UNL A   1      34.216  34.246  29.282  1.00  0.00     0.039 A 
ATOM     35  C   UNL A   1      35.505  34.500  28.811  1.00  0.00     0.014 A 
ATOM     36  C   UNL A   1      34.027  33.518  30.459  1.00  0.00     0.014 A 
ATOM     37  C   UNL A   1      36.591  33.869  29.411  1.00  0.00     0.010 A 
ATOM     38  C   UNL A   1      35.129  32.952  31.108  1.00  0.00     0.010 A 
ATOM     39  C   UNL A   1      36.414  33.071  30.553  1.00  0.00    -0.014 A 
BRANCH  39  40
ATOM     40  C   UNL A   1      37.576  32.339  31.122  1.00  0.00     0.031 A 
ATOM     41  C   UNL A   1      38.050  32.625  32.524  1.00  0.00     0.074 A 
ATOM     42  C   UNL A   1      38.168  31.369  30.401  1.00  0.00     0.049 A 
ATOM     43  N   UNL A   1      39.030  32.073  33.195  1.00  0.00    -0.248 NA
ATOM     44  C   UNL A   1      37.332  33.670  33.270  1.00  0.00     0.031 C 
ATOM     45  C   UNL A   1      37.796  30.983  29.039  1.00  0.00     0.029 A 
ATOM     46  N   UNL A   1      39.191  30.513  30.722  1.00  0.00    -0.354 N 
ATOM     47  C   UNL A   1      39.058  32.711  34.429  1.00  0.00     0.074 A 
ATOM     48  C   UNL A   1      38.015  33.715  34.405  1.00  0.00     0.031 C 
ATOM     49  C   UNL A   1      38.548  29.939  28.658  1.00  0.00     0.029 A 
ATOM     50  C   UNL A   1      39.490  29.618  29.724  1.00  0.00     0.049 A 
ATOM     51  H   UNL A   1      39.666  30.539  31.584  1.00  0.00     0.167 HD
ATOM     52  C   UNL A   1      39.866  32.475  35.491  1.00  0.00     0.037 A 
ATOM     53  C   UNL A   1      40.426  28.653  29.670  1.00  0.00     0.037 A 
ATOM     54  C   UNL A   1      40.890  31.463  35.527  1.00  0.00     0.049 A 
ATOM     55  C   UNL A   1      41.339  28.445  30.842  1.00  0.00     0.074 A 
ATOM     56  C   UNL A   1      41.743  31.134  36.567  1.00  0.00     0.029 A 
ATOM     57  N   UNL A   1      41.197  30.615  34.474  1.00  0.00    -0.354 N 
ATOM     58  N   UNL A   1      41.346  29.052  32.004  1.00  0.00    -0.248 NA
ATOM     59  C   UNL A   1      42.384  27.424  30.691  1.00  0.00     0.031 C 
ATOM     60  C   UNL A   1      42.592  30.110  36.130  1.00  0.00     0.029 A 
ATOM     61  C   UNL A   1      42.242  29.777  34.832  1.00  0.00     0.049 A 
ATOM     62  H   UNL A   1      40.742  30.609  33.602  1.00  0.00     0.167 HD
ATOM     63  C   UNL A   1      42.383  28.478  32.726  1.00  0.00     0.074 A 
ATOM     64  C   UNL A   1      42.969  27.460  31.879  1.00  0.00     0.031 C 
ATOM     65  C   UNL A   1      42.817  28.772  33.976  1.00  0.00     0.037 A 
BRANCH  52  66
ATOM     66  C   UNL A   1      39.684  33.343  36.702  1.00  0.00     0.057 A 
ATOM     67  C   UNL A   1      38.732  33.019  37.678  1.00  0.00     0.134 A 
ATOM     68  C   UNL A   1      40.427  34.516  36.891  1.00  0.00     0.134 A 
ATOM     69  F   UNL A   1      37.982  31.913  37.555  1.00  0.00    -0.206 F 
ATOM     70  C   UNL A   1      38.527  33.827  38.797  1.00  0.00     0.040 A 
ATOM     71  C   UNL A   1      40.248  35.321  38.017  1.00  0.00     0.040 A 
ATOM     72  F   UNL A   1      41.365  34.876  36.001  1.00  0.00    -0.206 F 
ATOM     73  C   UNL A   1      39.291  34.980  38.972  1.00  0.00     0.006 A 
ENDBRANCH  52  66
BRANCH  53  74
ATOM     74  C   UNL A   1      40.556  27.815  28.453  1.00  0.00     0.057 A 
ATOM     75  C   UNL A   1      39.908  26.579  28.347  1.00  0.00     0.134 A 
ATOM     76  C   UNL A   1      41.322  28.240  27.362  1.00  0.00     0.134 A 
ATOM     77  F   UNL A   1      39.162  26.116  29.360  1.00  0.00    -0.206 F 
ATOM     78  C   UNL A   1      40.025  25.789  27.203  1.00  0.00     0.040 A 
ATOM     79  C   UNL A   1      41.427  27.473  26.201  1.00  0.00     0.040 A 
ATOM     80  F   UNL A   1      41.948  29.425  27.398  1.00  0.00    -0.206 F 
ATOM     81  C   UNL A   1      40.780  26.240  26.122  1.00  0.00     0.006 A 
ENDBRANCH  53  74
BRANCH  65  82
ATOM     82  C   UNL A   1      43.967  27.967  34.500  1.00  0.00     0.057 A 
ATOM     83  C   UNL A   1      43.750  26.741  35.141  1.00  0.00     0.134 A 
ATOM     84  C   UNL A   1      45.291  28.408  34.375  1.00  0.00     0.134 A 
ATOM     85  F   UNL A   1      42.505  26.265  35.297  1.00  0.00    -0.206 F 
ATOM     86  C   UNL A   1      44.809  25.980  35.637  1.00  0.00     0.040 A 
ATOM     87  C   UNL A   1      46.361  27.645  34.846  1.00  0.00     0.040 A 
ATOM     88  F   UNL A   1      45.566  29.566  33.755  1.00  0.00    -0.206 F 
ATOM     89  C   UNL A   1      46.120  26.429  35.484  1.00  0.00     0.006 A 
ENDBRANCH  65  82
ENDBRANCH  39  40
ENDBRANCH  31  34
ENDBRANCH  29  30
ENDBRANCH  28  29
ENDBRANCH   1  28
TORSDOF 14
ENDMDL
MODEL 2
REMARK VINA RESULT:     -12.5      4.812      9.884
REMARK SMILES O=C(C[C@H]1C(=O)N[NH+]=C2c3ccc(F)cc3N=CN21)NCCCCCCNC(=O)c1ccc(-c2c3nc(c(-c4c(F)cccc4F)c4ccc([nH]4)c(-c4c(F)cccc4F)c4nc(c(-c5c(F)cccc5F)c5ccc2[nH]5)C=C4)C=C3)cc1
REMARK SMILES IDX 24 1 23 2 22 3 21 4 20 5 1 6 2 7 3 9 4 10 5 11 19 12 6 13
REMARK SMILES IDX 7 14 9 15 18 16 8 17 10 19 17 20 11 22 16 23 12 24 15 25
REMARK SMILES IDX 13 26 14 27 25 28 26 29 27 30 28 31 29 33 30 34 31 35 83 36
REMARK SMILES IDX 32 37 82 38 33 39 34 40 35 41 76 42 36 43 81 44 75 45 77 46
REMARK SMILES IDX 37 47 80 48 74 49 73 50 38 52 64 53 47 54 63 55 48 56 51 57
REMARK SMILES IDX 62 58 78 59 49 60 50 61 61 63 79 64 52 65 39 66 40 67 45 68
REMARK SMILES IDX 41 69 42 70 44 71 46 72 43 73 65 74 66 75 71 76 67 77 68 78
REMARK SMILES IDX 70 79 72 80 69 81 53 82 54 83 59 84 55 85 56 86 58 87 60 88
REMARK SMILES IDX 57 89
REMARK H PARENT 20 8 7 18 8 21 27 32 77 51 51 62
REMARK Flexibility Score: inf
ROOT
ATOM      1  C   UNL A   1      37.217  21.479  24.620  1.00  0.00     0.002 C 
ENDROOT
BRANCH   1   2
ATOM      2  C   UNL A   1      36.314  21.994  25.742  1.00  0.00     0.002 C 
BRANCH   2   3
ATOM      3  C   UNL A   1      34.947  21.312  25.862  1.00  0.00     0.021 C 
BRANCH   3   4
ATOM      4  C   UNL A   1      34.274  20.969  24.531  1.00  0.00     0.116 C 
BRANCH   4   5
ATOM      5  N   UNL A   1      33.357  21.992  24.072  1.00  0.00    -0.356 N 
ATOM      6  O   UNL A   1      34.889  22.979  22.698  1.00  0.00    -0.275 OA
ATOM      7  C   UNL A   1      33.750  22.927  23.147  1.00  0.00     0.224 C 
ATOM      8  H   UNL A   1      32.439  22.017  24.429  1.00  0.00     0.163 HD
BRANCH   7   9
ATOM      9  C   UNL A   1      32.679  23.918  22.750  1.00  0.00     0.160 C 
BRANCH   9  10
ATOM     10  C   UNL A   1      33.178  25.363  22.692  1.00  0.00     0.284 C 
ATOM     11  C   UNL A   1      32.645  26.065  21.450  1.00  0.00     0.300 C 
ATOM     12  N   UNL A   1      32.921  26.121  23.929  1.00  0.00    -0.203 N 
ATOM     13  O   UNL A   1      33.052  25.789  20.321  1.00  0.00    -0.267 OA
ATOM     14  N   UNL A   1      31.646  26.984  21.654  1.00  0.00    -0.193 N 
ATOM     15  C   UNL A   1      32.135  27.262  23.850  1.00  0.00     0.309 C 
ATOM     16  C   UNL A   1      33.621  25.814  25.075  1.00  0.00     0.317 C 
ATOM     17  N   UNL A   1      31.448  27.652  22.818  1.00  0.00    -0.169 N 
ATOM     18  H   UNL A   1      31.034  27.170  20.906  1.00  0.00     0.216 HD
ATOM     19  C   UNL A   1      32.203  28.176  25.031  1.00  0.00     0.092 A 
ATOM     20  N   UNL A   1      33.720  26.552  26.133  1.00  0.00    -0.216 NA
ATOM     21  H   UNL A   1      30.811  28.400  22.879  1.00  0.00     0.340 HD
ATOM     22  C   UNL A   1      31.616  29.448  24.989  1.00  0.00     0.022 A 
ATOM     23  C   UNL A   1      33.083  27.812  26.070  1.00  0.00     0.085 A 
ATOM     24  C   UNL A   1      31.962  30.392  25.955  1.00  0.00     0.040 A 
ATOM     25  C   UNL A   1      33.408  28.768  27.033  1.00  0.00     0.068 A 
ATOM     26  C   UNL A   1      32.868  30.049  26.953  1.00  0.00     0.125 A 
ATOM     27  F   UNL A   1      33.256  30.982  27.832  1.00  0.00    -0.207 F 
ENDBRANCH   9  10
ENDBRANCH   7   9
ENDBRANCH   4   5
ENDBRANCH   3   4
ENDBRANCH   2   3
ENDBRANCH   1   2
BRANCH   1  28
ATOM     28  C   UNL A   1      38.034  20.232  24.953  1.00  0.00     0.021 C 
BRANCH  28  29
ATOM     29  C   UNL A   1      39.202  20.456  25.907  1.00  0.00     0.116 C 
BRANCH  29  30
ATOM     30  N   UNL A   1      40.184  19.384  25.866  1.00  0.00    -0.352 N 
ATOM     31  C   UNL A   1      41.540  19.427  26.126  1.00  0.00     0.251 C 
ATOM     32  H   UNL A   1      39.833  18.500  25.617  1.00  0.00     0.163 HD
ATOM     33  O   UNL A   1      42.243  18.455  25.919  1.00  0.00    -0.269 OA
BRANCH  31  34
ATOM     34  C   UNL A   1      42.141  20.690  26.619  1.00  0.00     0.039 A 
ATOM     35  C   UNL A   1      42.164  20.986  27.982  1.00  0.00     0.014 A 
ATOM     36  C   UNL A   1      42.647  21.605  25.691  1.00  0.00     0.014 A 
ATOM     37  C   UNL A   1      42.515  22.265  28.402  1.00  0.00     0.010 A 
ATOM     38  C   UNL A   1      43.077  22.864  26.125  1.00  0.00     0.010 A 
ATOM     39  C   UNL A   1      42.956  23.226  27.476  1.00  0.00    -0.014 A 
BRANCH  39  40
ATOM     40  C   UNL A   1      43.241  24.610  27.937  1.00  0.00     0.031 A 
ATOM     41  C   UNL A   1      44.662  25.094  28.076  1.00  0.00     0.074 A 
ATOM     42  C   UNL A   1      42.221  25.456  28.172  1.00  0.00     0.049 A 
ATOM     43  N   UNL A   1      45.103  26.271  28.442  1.00  0.00    -0.248 NA
ATOM     44  C   UNL A   1      45.728  24.128  27.765  1.00  0.00     0.031 C 
ATOM     45  C   UNL A   1      40.801  25.117  28.060  1.00  0.00     0.029 A 
ATOM     46  N   UNL A   1      42.220  26.780  28.529  1.00  0.00    -0.354 N 
ATOM     47  C   UNL A   1      46.490  26.184  28.423  1.00  0.00     0.074 A 
ATOM     48  C   UNL A   1      46.820  24.829  28.038  1.00  0.00     0.031 C 
ATOM     49  C   UNL A   1      40.068  26.216  28.298  1.00  0.00     0.029 A 
ATOM     50  C   UNL A   1      40.962  27.319  28.632  1.00  0.00     0.049 A 
ATOM     51  H   UNL A   1      43.044  27.294  28.696  1.00  0.00     0.167 HD
ATOM     52  C   UNL A   1      47.406  27.147  28.687  1.00  0.00     0.037 A 
ATOM     53  C   UNL A   1      40.571  28.562  28.969  1.00  0.00     0.037 A 
ATOM     54  C   UNL A   1      47.083  28.503  29.050  1.00  0.00     0.049 A 
ATOM     55  C   UNL A   1      41.606  29.596  29.303  1.00  0.00     0.074 A 
ATOM     56  C   UNL A   1      47.942  29.556  29.313  1.00  0.00     0.029 A 
ATOM     57  N   UNL A   1      45.794  28.993  29.198  1.00  0.00    -0.354 N 
ATOM     58  N   UNL A   1      42.913  29.499  29.271  1.00  0.00    -0.248 NA
ATOM     59  C   UNL A   1      41.109  30.911  29.731  1.00  0.00     0.031 C 
ATOM     60  C   UNL A   1      47.175  30.674  29.657  1.00  0.00     0.029 A 
ATOM     61  C   UNL A   1      45.836  30.328  29.570  1.00  0.00     0.049 A 
ATOM     62  H   UNL A   1      44.972  28.471  29.060  1.00  0.00     0.167 HD
ATOM     63  C   UNL A   1      43.394  30.741  29.661  1.00  0.00     0.074 A 
ATOM     64  C   UNL A   1      42.239  31.581  29.903  1.00  0.00     0.031 C 
ATOM     65  C   UNL A   1      44.678  31.148  29.812  1.00  0.00     0.037 A 
BRANCH  52  66
ATOM     66  C   UNL A   1      48.855  26.761  28.608  1.00  0.00     0.057 A 
ATOM     67  C   UNL A   1      49.571  26.912  27.414  1.00  0.00     0.134 A 
ATOM     68  C   UNL A   1      49.534  26.210  29.703  1.00  0.00     0.134 A 
ATOM     69  F   UNL A   1      48.978  27.428  26.326  1.00  0.00    -0.206 F 
ATOM     70  C   UNL A   1      50.910  26.533  27.312  1.00  0.00     0.040 A 
ATOM     71  C   UNL A   1      50.880  25.847  29.620  1.00  0.00     0.040 A 
ATOM     72  F   UNL A   1      48.910  26.051  30.880  1.00  0.00    -0.206 F 
ATOM     73  C   UNL A   1      51.571  26.004  28.419  1.00  0.00     0.006 A 
ENDBRANCH  52  66
BRANCH  53  74
ATOM     74  C   UNL A   1      39.126  28.895  29.020  1.00  0.00     0.057 A 
ATOM     75  C   UNL A   1      38.383  28.735  30.196  1.00  0.00     0.134 A 
ATOM     76  C   UNL A   1      38.459  29.395  27.896  1.00  0.00     0.134 A 
ATOM     77  F   UNL A   1      38.965  28.258  31.305  1.00  0.00    -0.206 F 
ATOM     78  C   UNL A   1      37.025  29.050  30.250  1.00  0.00     0.040 A 
ATOM     79  C   UNL A   1      37.108  29.738  27.943  1.00  0.00     0.040 A 
ATOM     80  F   UNL A   1      39.125  29.589  26.748  1.00  0.00    -0.206 F 
ATOM     81  C   UNL A   1      36.385  29.561  29.122  1.00  0.00     0.006 A 
ENDBRANCH  53  74
BRANCH  65  82
ATOM     82  C   UNL A   1      44.891  32.568  30.242  1.00  0.00     0.057 A 
ATOM     83  C   UNL A   1      45.005  32.896  31.598  1.00  0.00     0.134 A 
ATOM     84  C   UNL A   1      44.978  33.613  29.311  1.00  0.00     0.134 A 
ATOM     85  F   UNL A   1      44.926  31.943  32.538  1.00  0.00    -0.206 F 
ATOM     86  C   UNL A   1      45.201  34.214  32.015  1.00  0.00     0.040 A 
ATOM     87  C   UNL A   1      45.197  34.931  29.715  1.00  0.00     0.040 A 
ATOM     88  F   UNL A   1      44.894  33.361  27.996  1.00  0.00    -0.206 F 
ATOM     89  C   UNL A   1      45.304  35.235  31.071  1.00  0.00     0.006 A 
ENDBRANCH  65  82
ENDBRANCH  39  40
ENDBRANCH  31  34
ENDBRANCH  29  30
ENDBRANCH  28  29
ENDBRANCH   1  28
TORSDOF 14
ENDMDL
MODEL 3
REMARK VINA RESULT:     -12.5      2.505      3.873
REMARK SMILES O=C(C[C@H]1C(=O)N[NH+]=C2c3ccc(F)cc3N=CN21)NCCCCCCNC(=O)c1ccc(-c2c3nc(c(-c4c(F)cccc4F)c4ccc([nH]4)c(-c4c(F)cccc4F)c4nc(c(-c5c(F)cccc5F)c5ccc2[nH]5)C=C4)C=C3)cc1
REMARK SMILES IDX 24 1 23 2 22 3 21 4 20 5 1 6 2 7 3 9 4 10 5 11 19 12 6 13
REMARK SMILES IDX 7 14 9 15 18 16 8 17 10 19 17 20 11 22 16 23 12 24 15 25
REMARK SMILES IDX 13 26 14 27 25 28 26 29 27 30 28 31 29 33 30 34 31 35 83 36
REMARK SMILES IDX 32 37 82 38 33 39 34 40 35 41 76 42 36 43 81 44 75 45 77 46
REMARK SMILES IDX 37 47 80 48 74 49 73 50 38 52 64 53 47 54 63 55 48 56 51 57
REMARK SMILES IDX 62 58 78 59 49 60 50 61 61 63 79 64 52 65 39 66 40 67 45 68
REMARK SMILES IDX 41 69 42 70 44 71 46 72 43 73 65 74 66 75 71 76 67 77 68 78
REMARK SMILES IDX 70 79 72 80 69 81 53 82 54 83 59 84 55 85 56 86 58 87 60 88
REMARK SMILES IDX 57 89
REMARK H PARENT 20 8 7 18 8 21 27 32 77 51 51 62
REMARK Flexibility Score: inf
ROOT
ATOM      1  C   UNL A   1      31.773  30.732  26.695  1.00  0.00     0.002 C 
ENDROOT
BRANCH   1   2
ATOM      2  C   UNL A   1      33.069  30.320  27.395  1.00  0.00     0.002 C 
BRANCH   2   3
ATOM      3  C   UNL A   1      33.987  29.385  26.599  1.00  0.00     0.021 C 
BRANCH   3   4
ATOM      4  C   UNL A   1      33.739  27.891  26.818  1.00  0.00     0.116 C 
BRANCH   4   5
ATOM      5  N   UNL A   1      33.869  27.105  25.608  1.00  0.00    -0.356 N 
ATOM      6  O   UNL A   1      32.354  25.533  26.272  1.00  0.00    -0.275 OA
ATOM      7  C   UNL A   1      33.124  25.967  25.423  1.00  0.00     0.224 C 
ATOM      8  H   UNL A   1      34.501  27.392  24.909  1.00  0.00     0.163 HD
BRANCH   7   9
ATOM      9  C   UNL A   1      33.352  25.265  24.104  1.00  0.00     0.160 C 
BRANCH   9  10
ATOM     10  C   UNL A   1      32.165  25.369  23.145  1.00  0.00     0.284 C 
ATOM     11  C   UNL A   1      31.181  24.231  23.384  1.00  0.00     0.300 C 
ATOM     12  N   UNL A   1      31.517  26.693  23.157  1.00  0.00    -0.203 N 
ATOM     13  O   UNL A   1      31.442  23.069  23.071  1.00  0.00    -0.267 OA
ATOM     14  N   UNL A   1      30.010  24.564  24.019  1.00  0.00    -0.193 N 
ATOM     15  C   UNL A   1      30.178  26.767  23.511  1.00  0.00     0.309 C 
ATOM     16  C   UNL A   1      32.177  27.779  22.626  1.00  0.00     0.317 C 
ATOM     17  N   UNL A   1      29.459  25.804  24.005  1.00  0.00    -0.169 N 
ATOM     18  H   UNL A   1      29.540  23.857  24.518  1.00  0.00     0.216 HD
ATOM     19  C   UNL A   1      29.487  28.046  23.163  1.00  0.00     0.092 A 
ATOM     20  N   UNL A   1      31.647  28.915  22.305  1.00  0.00    -0.216 NA
ATOM     21  H   UNL A   1      28.552  25.967  24.354  1.00  0.00     0.340 HD
ATOM     22  C   UNL A   1      28.097  28.169  23.286  1.00  0.00     0.022 A 
ATOM     23  C   UNL A   1      30.248  29.016  22.479  1.00  0.00     0.085 A 
ATOM     24  C   UNL A   1      27.447  29.233  22.662  1.00  0.00     0.040 A 
ATOM     25  C   UNL A   1      29.580  30.080  21.870  1.00  0.00     0.068 A 
ATOM     26  C   UNL A   1      28.192  30.164  21.945  1.00  0.00     0.125 A 
ATOM     27  F   UNL A   1      27.556  31.140  21.284  1.00  0.00    -0.207 F 
ENDBRANCH   9  10
ENDBRANCH   7   9
ENDBRANCH   4   5
ENDBRANCH   3   4
ENDBRANCH   2   3
ENDBRANCH   1   2
BRANCH   1  28
ATOM     28  C   UNL A   1      31.371  32.196  26.864  1.00  0.00     0.021 C 
BRANCH  28  29
ATOM     29  C   UNL A   1      32.512  33.200  26.756  1.00  0.00     0.116 C 
BRANCH  29  30
ATOM     30  N   UNL A   1      32.393  34.302  27.697  1.00  0.00    -0.352 N 
ATOM     31  C   UNL A   1      33.152  34.586  28.816  1.00  0.00     0.251 C 
ATOM     32  H   UNL A   1      31.666  34.939  27.511  1.00  0.00     0.163 HD
ATOM     33  O   UNL A   1      32.832  35.486  29.571  1.00  0.00    -0.269 OA
BRANCH  31  34
ATOM     34  C   UNL A   1      34.339  33.749  29.114  1.00  0.00     0.039 A 
ATOM     35  C   UNL A   1      34.202  32.522  29.765  1.00  0.00     0.014 A 
ATOM     36  C   UNL A   1      35.607  34.230  28.776  1.00  0.00     0.014 A 
ATOM     37  C   UNL A   1      35.334  31.868  30.242  1.00  0.00     0.010 A 
ATOM     38  C   UNL A   1      36.745  33.527  29.187  1.00  0.00     0.010 A 
ATOM     39  C   UNL A   1      36.618  32.374  29.977  1.00  0.00    -0.014 A 
BRANCH  39  40
ATOM     40  C   UNL A   1      37.804  31.706  30.573  1.00  0.00     0.031 A 
ATOM     41  C   UNL A   1      38.210  31.990  31.997  1.00  0.00     0.074 A 
ATOM     42  C   UNL A   1      38.483  30.792  29.855  1.00  0.00     0.049 A 
ATOM     43  N   UNL A   1      39.199  31.487  32.692  1.00  0.00    -0.248 NA
ATOM     44  C   UNL A   1      37.400  32.970  32.737  1.00  0.00     0.031 C 
ATOM     45  C   UNL A   1      38.185  30.414  28.472  1.00  0.00     0.029 A 
ATOM     46  N   UNL A   1      39.548  29.997  30.195  1.00  0.00    -0.354 N 
ATOM     47  C   UNL A   1      39.142  32.099  33.939  1.00  0.00     0.074 A 
ATOM     48  C   UNL A   1      38.039  33.034  33.897  1.00  0.00     0.031 C 
ATOM     49  C   UNL A   1      39.016  29.429  28.098  1.00  0.00     0.029 A 
ATOM     50  C   UNL A   1      39.939  29.146  29.191  1.00  0.00     0.049 A 
ATOM     51  H   UNL A   1      39.990  30.035  31.074  1.00  0.00     0.167 HD
ATOM     52  C   UNL A   1      39.927  31.892  35.024  1.00  0.00     0.037 A 
ATOM     53  C   UNL A   1      40.938  28.244  29.152  1.00  0.00     0.037 A 
ATOM     54  C   UNL A   1      41.013  30.947  35.077  1.00  0.00     0.049 A 
ATOM     55  C   UNL A   1      41.822  28.070  30.352  1.00  0.00     0.074 A 
ATOM     56  C   UNL A   1      41.849  30.650  36.140  1.00  0.00     0.029 A 
ATOM     57  N   UNL A   1      41.411  30.144  34.019  1.00  0.00    -0.354 N 
ATOM     58  N   UNL A   1      41.748  28.650  31.525  1.00  0.00    -0.248 NA
ATOM     59  C   UNL A   1      42.935  27.122  30.218  1.00  0.00     0.031 C 
ATOM     60  C   UNL A   1      42.778  29.694  35.714  1.00  0.00     0.029 A 
ATOM     61  C   UNL A   1      42.495  29.368  34.397  1.00  0.00     0.049 A 
ATOM     62  H   UNL A   1      40.988  30.129  33.131  1.00  0.00     0.167 HD
ATOM     63  C   UNL A   1      42.795  28.128  32.272  1.00  0.00     0.074 A 
ATOM     64  C   UNL A   1      43.475  27.169  31.427  1.00  0.00     0.031 C 
ATOM     65  C   UNL A   1      43.164  28.421  33.543  1.00  0.00     0.037 A 
BRANCH  52  66
ATOM     66  C   UNL A   1      39.646  32.719  36.245  1.00  0.00     0.057 A 
ATOM     67  C   UNL A   1      38.650  32.338  37.154  1.00  0.00     0.134 A 
ATOM     68  C   UNL A   1      40.339  33.908  36.508  1.00  0.00     0.134 A 
ATOM     69  F   UNL A   1      37.946  31.213  36.958  1.00  0.00    -0.206 F 
ATOM     70  C   UNL A   1      38.355  33.107  38.279  1.00  0.00     0.040 A 
ATOM     71  C   UNL A   1      40.068  34.676  37.643  1.00  0.00     0.040 A 
ATOM     72  F   UNL A   1      41.314  34.323  35.685  1.00  0.00    -0.206 F 
ATOM     73  C   UNL A   1      39.069  34.277  38.530  1.00  0.00     0.006 A 
ENDBRANCH  52  66
BRANCH  53  74
ATOM     74  C   UNL A   1      41.165  27.444  27.924  1.00  0.00     0.057 A 
ATOM     75  C   UNL A   1      40.594  26.176  27.765  1.00  0.00     0.134 A 
ATOM     76  C   UNL A   1      41.948  27.937  26.875  1.00  0.00     0.134 A 
ATOM     77  F   UNL A   1      39.835  25.648  28.736  1.00  0.00    -0.206 F 
ATOM     78  C   UNL A   1      40.801  25.422  26.611  1.00  0.00     0.040 A 
ATOM     79  C   UNL A   1      42.143  27.204  25.703  1.00  0.00     0.040 A 
ATOM     80  F   UNL A   1      42.504  29.155  26.961  1.00  0.00    -0.206 F 
ATOM     81  C   UNL A   1      41.573  25.940  25.571  1.00  0.00     0.006 A 
ENDBRANCH  53  74
BRANCH  65  82
ATOM     82  C   UNL A   1      44.346  27.680  34.092  1.00  0.00     0.057 A 
ATOM     83  C   UNL A   1      44.185  26.436  34.713  1.00  0.00     0.134 A 
ATOM     84  C   UNL A   1      45.644  28.203  34.012  1.00  0.00     0.134 A 
ATOM     85  F   UNL A   1      42.968  25.883  34.826  1.00  0.00    -0.206 F 
ATOM     86  C   UNL A   1      45.274  25.734  35.232  1.00  0.00     0.040 A 
ATOM     87  C   UNL A   1      46.743  27.500  34.506  1.00  0.00     0.040 A 
ATOM     88  F   UNL A   1      45.865  29.384  33.414  1.00  0.00    -0.206 F 
ATOM     89  C   UNL A   1      46.559  26.263  35.123  1.00  0.00     0.006 A 
ENDBRANCH  65  82
ENDBRANCH  39  40
ENDBRANCH  31  34
ENDBRANCH  29  30
ENDBRANCH  28  29
ENDBRANCH   1  28
TORSDOF 14
ENDMDL
