MODEL 1
REMARK VINA RESULT:     -11.8      0.000      0.000
REMARK SMILES CCCc1cc(OC(F)(F)F)cc2c1O[C@@H](C(F)(F)F)C(C(=O)NCCCCCCNC(=O)c1ccc(-c3c4nc(c(-c5c(F)cccc5F)c5ccc([nH]5)c(-c5c(F)cccc5F)c5nc(c(-c6c(F)cccc6F)c6ccc3[nH]6)C=C5)C=C4)cc1)=C2
REMARK SMILES IDX 27 1 26 2 25 3 24 4 22 5 23 6 21 8 4 9 5 10 14 11 6 12 13 13
REMARK SMILES IDX 15 14 12 15 88 16 16 17 3 18 2 19 1 20 7 21 8 22 9 23 10 24
REMARK SMILES IDX 11 25 17 26 18 27 19 28 20 29 28 30 29 31 30 32 31 33 32 34
REMARK SMILES IDX 33 36 34 37 35 38 87 39 36 40 86 41 37 42 38 43 39 44 80 45
REMARK SMILES IDX 40 46 85 47 79 48 81 49 41 50 84 51 78 52 77 53 42 55 68 56
REMARK SMILES IDX 51 57 67 58 52 59 55 60 66 61 82 62 53 63 54 64 65 66 83 67
REMARK SMILES IDX 56 68 43 69 44 70 49 71 45 72 46 73 48 74 50 75 47 76 69 77
REMARK SMILES IDX 70 78 75 79 71 80 72 81 74 82 76 83 73 84 57 85 58 86 63 87
REMARK SMILES IDX 59 88 60 89 62 90 64 91 61 92
REMARK H PARENT 24 7 31 35 81 54 55 65
REMARK Flexibility Score: inf
ROOT
ATOM      1  C   UNL A   1      30.435  27.638  23.839  1.00  0.00     0.002 C 
ENDROOT
BRANCH   1   2
ATOM      2  C   UNL A   1      30.712  26.524  22.820  1.00  0.00     0.021 C 
BRANCH   2   3
ATOM      3  C   UNL A   1      30.316  25.136  23.338  1.00  0.00     0.116 C 
BRANCH   3   4
ATOM      4  N   UNL A   1      30.044  25.221  24.763  1.00  0.00    -0.352 N 
ATOM      5  C   UNL A   1      30.391  24.437  25.815  1.00  0.00     0.251 C 
ATOM      6  O   UNL A   1      29.794  24.604  26.876  1.00  0.00    -0.270 OA
ATOM      7  H   UNL A   1      29.500  26.001  25.014  1.00  0.00     0.163 HD
BRANCH   5   8
ATOM      8  C   UNL A   1      31.520  23.471  25.760  1.00  0.00     0.067 C 
ATOM      9  C   UNL A   1      34.929  21.085  25.178  1.00  0.00    -0.002 A 
ATOM     10  C   UNL A   1      34.764  19.776  24.686  1.00  0.00     0.054 A 
ATOM     11  C   UNL A   1      33.797  21.875  25.425  1.00  0.00     0.131 A 
ATOM     12  C   UNL A   1      33.494  19.243  24.486  1.00  0.00     0.130 A 
ATOM     13  C   UNL A   1      32.524  21.347  25.232  1.00  0.00     0.021 A 
ATOM     14  O   UNL A   1      34.006  23.170  25.801  1.00  0.00    -0.475 OA
ATOM     15  C   UNL A   1      32.378  20.035  24.765  1.00  0.00     0.058 A 
ATOM     16  C   UNL A   1      31.354  22.182  25.432  1.00  0.00     0.025 C 
ATOM     17  C   UNL A   1      32.878  23.980  26.235  1.00  0.00     0.314 C 
BRANCH   9  18
ATOM     18  C   UNL A   1      36.321  21.573  25.509  1.00  0.00     0.039 C 
BRANCH  18  19
ATOM     19  C   UNL A   1      37.168  21.801  24.250  1.00  0.00     0.001 C 
ATOM     20  C   UNL A   1      36.644  22.922  23.358  1.00  0.00     0.004 C 
ENDBRANCH  18  19
ENDBRANCH   9  18
BRANCH  12  21
ATOM     21  O   UNL A   1      33.202  17.991  24.029  1.00  0.00    -0.406 OA
BRANCH  21  22
ATOM     22  C   UNL A   1      33.488  16.896  24.885  1.00  0.00     0.573 C 
ATOM     23  F   UNL A   1      34.817  16.674  24.961  1.00  0.00    -0.132 F 
ATOM     24  F   UNL A   1      32.992  17.104  26.123  1.00  0.00    -0.132 F 
ATOM     25  F   UNL A   1      32.905  15.788  24.379  1.00  0.00    -0.132 F 
ENDBRANCH  21  22
ENDBRANCH  12  21
BRANCH  17  26
ATOM     26  C   UNL A   1      33.229  25.455  25.924  1.00  0.00     0.429 C 
ATOM     27  F   UNL A   1      34.501  25.773  26.247  1.00  0.00    -0.167 F 
ATOM     28  F   UNL A   1      33.126  25.705  24.590  1.00  0.00    -0.167 F 
ATOM     29  F   UNL A   1      32.401  26.326  26.547  1.00  0.00    -0.167 F 
ENDBRANCH  17  26
ENDBRANCH   5   8
ENDBRANCH   3   4
ENDBRANCH   2   3
ENDBRANCH   1   2
BRANCH   1  30
ATOM     30  C   UNL A   1      31.203  28.940  23.578  1.00  0.00     0.002 C 
BRANCH  30  31
ATOM     31  C   UNL A   1      32.718  28.833  23.762  1.00  0.00     0.021 C 
BRANCH  31  32
ATOM     32  C   UNL A   1      33.192  29.188  25.166  1.00  0.00     0.116 C 
BRANCH  32  33
ATOM     33  N   UNL A   1      32.580  30.422  25.635  1.00  0.00    -0.352 N 
ATOM     34  C   UNL A   1      32.888  31.166  26.746  1.00  0.00     0.251 C 
ATOM     35  H   UNL A   1      31.845  30.770  25.081  1.00  0.00     0.163 HD
ATOM     36  O   UNL A   1      32.125  32.037  27.145  1.00  0.00    -0.269 OA
BRANCH  34  37
ATOM     37  C   UNL A   1      34.152  30.901  27.462  1.00  0.00     0.039 A 
ATOM     38  C   UNL A   1      35.068  31.941  27.638  1.00  0.00     0.014 A 
ATOM     39  C   UNL A   1      34.427  29.622  27.955  1.00  0.00     0.014 A 
ATOM     40  C   UNL A   1      36.243  31.707  28.354  1.00  0.00     0.010 A 
ATOM     41  C   UNL A   1      35.560  29.413  28.733  1.00  0.00     0.010 A 
ATOM     42  C   UNL A   1      36.484  30.449  28.930  1.00  0.00    -0.014 A 
BRANCH  42  43
ATOM     43  C   UNL A   1      37.712  30.180  29.718  1.00  0.00     0.031 A 
ATOM     44  C   UNL A   1      38.781  29.288  29.150  1.00  0.00     0.074 A 
ATOM     45  C   UNL A   1      37.833  30.678  30.963  1.00  0.00     0.049 A 
ATOM     46  N   UNL A   1      39.873  28.841  29.715  1.00  0.00    -0.248 NA
ATOM     47  C   UNL A   1      38.580  28.810  27.771  1.00  0.00     0.031 C 
ATOM     48  C   UNL A   1      36.851  31.530  31.636  1.00  0.00     0.029 A 
ATOM     49  N   UNL A   1      38.832  30.527  31.892  1.00  0.00    -0.354 N 
ATOM     50  C   UNL A   1      40.480  28.024  28.768  1.00  0.00     0.074 A 
ATOM     51  C   UNL A   1      39.606  27.988  27.617  1.00  0.00     0.031 C 
ATOM     52  C   UNL A   1      37.306  31.842  32.861  1.00  0.00     0.029 A 
ATOM     53  C   UNL A   1      38.587  31.178  33.077  1.00  0.00     0.049 A 
ATOM     54  H   UNL A   1      39.649  30.003  31.724  1.00  0.00     0.167 HD
ATOM     55  C   UNL A   1      41.670  27.384  28.842  1.00  0.00     0.037 A 
ATOM     56  C   UNL A   1      39.307  31.220  34.214  1.00  0.00     0.037 A 
ATOM     57  C   UNL A   1      42.546  27.442  29.983  1.00  0.00     0.049 A 
ATOM     58  C   UNL A   1      40.613  30.472  34.281  1.00  0.00     0.074 A 
ATOM     59  C   UNL A   1      43.791  26.860  30.142  1.00  0.00     0.029 A 
ATOM     60  N   UNL A   1      42.268  28.123  31.157  1.00  0.00    -0.354 N 
ATOM     61  N   UNL A   1      41.199  29.746  33.360  1.00  0.00    -0.248 NA
ATOM     62  C   UNL A   1      41.360  30.556  35.544  1.00  0.00     0.031 C 
ATOM     63  C   UNL A   1      44.245  27.151  31.431  1.00  0.00     0.029 A 
ATOM     64  C   UNL A   1      43.310  27.962  32.053  1.00  0.00     0.049 A 
ATOM     65  H   UNL A   1      41.450  28.644  31.328  1.00  0.00     0.167 HD
ATOM     66  C   UNL A   1      42.399  29.322  33.916  1.00  0.00     0.074 A 
ATOM     67  C   UNL A   1      42.461  29.878  35.252  1.00  0.00     0.031 C 
ATOM     68  C   UNL A   1      43.367  28.546  33.369  1.00  0.00     0.037 A 
BRANCH  55  69
ATOM     69  C   UNL A   1      42.099  26.573  27.653  1.00  0.00     0.057 A 
ATOM     70  C   UNL A   1      41.819  25.203  27.554  1.00  0.00     0.134 A 
ATOM     71  C   UNL A   1      42.760  27.175  26.575  1.00  0.00     0.134 A 
ATOM     72  F   UNL A   1      41.199  24.562  28.557  1.00  0.00    -0.206 F 
ATOM     73  C   UNL A   1      42.202  24.458  26.439  1.00  0.00     0.040 A 
ATOM     74  C   UNL A   1      43.122  26.447  25.442  1.00  0.00     0.040 A 
ATOM     75  F   UNL A   1      43.055  28.484  26.601  1.00  0.00    -0.206 F 
ATOM     76  C   UNL A   1      42.849  25.082  25.375  1.00  0.00     0.006 A 
ENDBRANCH  55  69
BRANCH  56  77
ATOM     77  C   UNL A   1      38.827  32.005  35.380  1.00  0.00     0.057 A 
ATOM     78  C   UNL A   1      39.052  33.384  35.463  1.00  0.00     0.134 A 
ATOM     79  C   UNL A   1      38.162  31.396  36.451  1.00  0.00     0.134 A 
ATOM     80  F   UNL A   1      39.699  34.023  34.477  1.00  0.00    -0.206 F 
ATOM     81  C   UNL A   1      38.661  34.124  36.580  1.00  0.00     0.040 A 
ATOM     82  C   UNL A   1      37.740  32.129  37.562  1.00  0.00     0.040 A 
ATOM     83  F   UNL A   1      37.906  30.080  36.430  1.00  0.00    -0.206 F 
ATOM     84  C   UNL A   1      38.001  33.496  37.633  1.00  0.00     0.006 A 
ENDBRANCH  56  77
BRANCH  68  85
ATOM     85  C   UNL A   1      44.603  28.302  34.185  1.00  0.00     0.057 A 
ATOM     86  C   UNL A   1      44.735  27.186  35.021  1.00  0.00     0.134 A 
ATOM     87  C   UNL A   1      45.697  29.170  34.085  1.00  0.00     0.134 A 
ATOM     88  F   UNL A   1      43.719  26.323  35.170  1.00  0.00    -0.206 F 
ATOM     89  C   UNL A   1      45.907  26.955  35.745  1.00  0.00     0.040 A 
ATOM     90  C   UNL A   1      46.883  28.933  34.779  1.00  0.00     0.040 A 
ATOM     91  F   UNL A   1      45.639  30.252  33.293  1.00  0.00    -0.206 F 
ATOM     92  C   UNL A   1      46.989  27.825  35.617  1.00  0.00     0.006 A 
ENDBRANCH  68  85
ENDBRANCH  42  43
ENDBRANCH  34  37
ENDBRANCH  32  33
ENDBRANCH  31  32
ENDBRANCH  30  31
ENDBRANCH   1  30
TORSDOF 18
ENDMDL
MODEL 2
REMARK VINA RESULT:     -11.5      1.747      6.346
REMARK SMILES CCCc1cc(OC(F)(F)F)cc2c1O[C@@H](C(F)(F)F)C(C(=O)NCCCCCCNC(=O)c1ccc(-c3c4nc(c(-c5c(F)cccc5F)c5ccc([nH]5)c(-c5c(F)cccc5F)c5nc(c(-c6c(F)cccc6F)c6ccc3[nH]6)C=C5)C=C4)cc1)=C2
REMARK SMILES IDX 27 1 26 2 25 3 24 4 22 5 23 6 21 8 4 9 5 10 14 11 6 12 13 13
REMARK SMILES IDX 15 14 12 15 88 16 16 17 3 18 2 19 1 20 7 21 8 22 9 23 10 24
REMARK SMILES IDX 11 25 17 26 18 27 19 28 20 29 28 30 29 31 30 32 31 33 32 34
REMARK SMILES IDX 33 36 34 37 35 38 87 39 36 40 86 41 37 42 38 43 39 44 80 45
REMARK SMILES IDX 40 46 85 47 79 48 81 49 41 50 84 51 78 52 77 53 42 55 68 56
REMARK SMILES IDX 51 57 67 58 52 59 55 60 66 61 82 62 53 63 54 64 65 66 83 67
REMARK SMILES IDX 56 68 43 69 44 70 49 71 45 72 46 73 48 74 50 75 47 76 69 77
REMARK SMILES IDX 70 78 75 79 71 80 72 81 74 82 76 83 73 84 57 85 58 86 63 87
REMARK SMILES IDX 59 88 60 89 62 90 64 91 61 92
REMARK H PARENT 24 7 31 35 81 54 55 65
REMARK Flexibility Score: inf
ROOT
ATOM      1  C   UNL A   1      32.230  29.935  26.635  1.00  0.00     0.002 C 
ENDROOT
BRANCH   1   2
ATOM      2  C   UNL A   1      31.501  28.982  27.593  1.00  0.00     0.021 C 
BRANCH   2   3
ATOM      3  C   UNL A   1      31.788  27.506  27.293  1.00  0.00     0.116 C 
BRANCH   3   4
ATOM      4  N   UNL A   1      30.695  26.961  26.507  1.00  0.00    -0.352 N 
ATOM      5  C   UNL A   1      30.640  26.006  25.543  1.00  0.00     0.251 C 
ATOM      6  O   UNL A   1      29.621  25.939  24.859  1.00  0.00    -0.270 OA
ATOM      7  H   UNL A   1      29.821  27.364  26.713  1.00  0.00     0.163 HD
BRANCH   5   8
ATOM      8  C   UNL A   1      31.709  24.990  25.356  1.00  0.00     0.067 C 
ATOM      9  C   UNL A   1      34.636  22.186  24.248  1.00  0.00    -0.002 A 
ATOM     10  C   UNL A   1      34.448  20.836  24.602  1.00  0.00     0.054 A 
ATOM     11  C   UNL A   1      33.692  23.141  24.655  1.00  0.00     0.131 A 
ATOM     12  C   UNL A   1      33.366  20.446  25.385  1.00  0.00     0.130 A 
ATOM     13  C   UNL A   1      32.611  22.759  25.443  1.00  0.00     0.021 A 
ATOM     14  O   UNL A   1      33.858  24.418  24.204  1.00  0.00    -0.475 OA
ATOM     15  C   UNL A   1      32.453  21.415  25.805  1.00  0.00     0.058 A 
ATOM     16  C   UNL A   1      31.604  23.736  25.816  1.00  0.00     0.025 C 
ATOM     17  C   UNL A   1      33.013  25.479  24.731  1.00  0.00     0.314 C 
BRANCH   9  18
ATOM     18  C   UNL A   1      35.896  22.583  23.514  1.00  0.00     0.039 C 
BRANCH  18  19
ATOM     19  C   UNL A   1      37.136  22.513  24.415  1.00  0.00     0.001 C 
ATOM     20  C   UNL A   1      37.091  23.484  25.591  1.00  0.00     0.004 C 
ENDBRANCH  18  19
ENDBRANCH   9  18
BRANCH  12  21
ATOM     21  O   UNL A   1      33.082  19.179  25.804  1.00  0.00    -0.406 OA
BRANCH  21  22
ATOM     22  C   UNL A   1      32.857  18.194  24.808  1.00  0.00     0.573 C 
ATOM     23  F   UNL A   1      32.157  18.702  23.772  1.00  0.00    -0.132 F 
ATOM     24  F   UNL A   1      34.022  17.680  24.359  1.00  0.00    -0.132 F 
ATOM     25  F   UNL A   1      32.136  17.189  25.350  1.00  0.00    -0.132 F 
ENDBRANCH  21  22
ENDBRANCH  12  21
BRANCH  17  26
ATOM     26  C   UNL A   1      32.908  26.566  23.634  1.00  0.00     0.429 C 
ATOM     27  F   UNL A   1      32.808  27.815  24.139  1.00  0.00    -0.167 F 
ATOM     28  F   UNL A   1      34.028  26.582  22.861  1.00  0.00    -0.167 F 
ATOM     29  F   UNL A   1      31.863  26.359  22.799  1.00  0.00    -0.167 F 
ENDBRANCH  17  26
ENDBRANCH   5   8
ENDBRANCH   3   4
ENDBRANCH   2   3
ENDBRANCH   1   2
BRANCH   1  30
ATOM     30  C   UNL A   1      31.313  30.924  25.906  1.00  0.00     0.002 C 
BRANCH  30  31
ATOM     31  C   UNL A   1      31.294  32.333  26.502  1.00  0.00     0.021 C 
BRANCH  31  32
ATOM     32  C   UNL A   1      32.580  32.708  27.229  1.00  0.00     0.116 C 
BRANCH  32  33
ATOM     33  N   UNL A   1      32.568  34.102  27.644  1.00  0.00    -0.352 N 
ATOM     34  C   UNL A   1      33.274  34.706  28.653  1.00  0.00     0.251 C 
ATOM     35  H   UNL A   1      31.970  34.694  27.131  1.00  0.00     0.163 HD
ATOM     36  O   UNL A   1      32.971  35.827  29.043  1.00  0.00    -0.269 OA
BRANCH  34  37
ATOM     37  C   UNL A   1      34.405  33.985  29.271  1.00  0.00     0.039 A 
ATOM     38  C   UNL A   1      34.154  33.076  30.301  1.00  0.00     0.014 A 
ATOM     39  C   UNL A   1      35.711  34.212  28.828  1.00  0.00     0.014 A 
ATOM     40  C   UNL A   1      35.213  32.357  30.857  1.00  0.00     0.010 A 
ATOM     41  C   UNL A   1      36.753  33.439  29.328  1.00  0.00     0.010 A 
ATOM     42  C   UNL A   1      36.516  32.514  30.356  1.00  0.00    -0.014 A 
BRANCH  42  43
ATOM     43  C   UNL A   1      37.657  31.744  30.908  1.00  0.00     0.031 A 
ATOM     44  C   UNL A   1      38.193  32.083  32.272  1.00  0.00     0.074 A 
ATOM     45  C   UNL A   1      38.250  30.793  30.162  1.00  0.00     0.049 A 
ATOM     46  N   UNL A   1      39.244  31.608  32.890  1.00  0.00    -0.248 NA
ATOM     47  C   UNL A   1      37.466  33.115  33.031  1.00  0.00     0.031 C 
ATOM     48  C   UNL A   1      37.842  30.395  28.814  1.00  0.00     0.029 A 
ATOM     49  N   UNL A   1      39.336  29.996  30.429  1.00  0.00    -0.354 N 
ATOM     50  C   UNL A   1      39.310  32.290  34.099  1.00  0.00     0.074 A 
ATOM     51  C   UNL A   1      38.231  33.253  34.103  1.00  0.00     0.031 C 
ATOM     52  C   UNL A   1      38.654  29.416  28.380  1.00  0.00     0.029 A 
ATOM     53  C   UNL A   1      39.665  29.149  29.397  1.00  0.00     0.049 A 
ATOM     54  H   UNL A   1      39.831  30.027  31.279  1.00  0.00     0.167 HD
ATOM     55  C   UNL A   1      40.175  32.111  35.125  1.00  0.00     0.037 A 
ATOM     56  C   UNL A   1      40.676  28.269  29.282  1.00  0.00     0.037 A 
ATOM     57  C   UNL A   1      41.234  31.136  35.125  1.00  0.00     0.049 A 
ATOM     58  C   UNL A   1      41.644  28.112  30.426  1.00  0.00     0.074 A 
ATOM     59  C   UNL A   1      42.141  30.850  36.129  1.00  0.00     0.029 A 
ATOM     60  N   UNL A   1      41.525  30.288  34.068  1.00  0.00    -0.354 N 
ATOM     61  N   UNL A   1      41.664  28.727  31.583  1.00  0.00    -0.248 NA
ATOM     62  C   UNL A   1      42.727  27.135  30.247  1.00  0.00     0.031 C 
ATOM     63  C   UNL A   1      43.010  29.860  35.662  1.00  0.00     0.029 A 
ATOM     64  C   UNL A   1      42.608  29.489  34.389  1.00  0.00     0.049 A 
ATOM     65  H   UNL A   1      41.033  30.258  33.215  1.00  0.00     0.167 HD
ATOM     66  C   UNL A   1      42.732  28.183  32.286  1.00  0.00     0.074 A 
ATOM     67  C   UNL A   1      43.331  27.183  31.426  1.00  0.00     0.031 C 
ATOM     68  C   UNL A   1      43.175  28.480  33.532  1.00  0.00     0.037 A 
BRANCH  55  69
ATOM     69  C   UNL A   1      40.008  32.983  36.336  1.00  0.00     0.057 A 
ATOM     70  C   UNL A   1      40.753  34.157  36.509  1.00  0.00     0.134 A 
ATOM     71  C   UNL A   1      39.061  32.670  37.319  1.00  0.00     0.134 A 
ATOM     72  F   UNL A   1      41.685  34.509  35.610  1.00  0.00    -0.206 F 
ATOM     73  C   UNL A   1      40.581  34.974  37.627  1.00  0.00     0.040 A 
ATOM     74  C   UNL A   1      38.858  33.494  38.426  1.00  0.00     0.040 A 
ATOM     75  F   UNL A   1      38.309  31.564  37.214  1.00  0.00    -0.206 F 
ATOM     76  C   UNL A   1      39.625  34.647  38.586  1.00  0.00     0.006 A 
ENDBRANCH  55  69
BRANCH  56  77
ATOM     77  C   UNL A   1      40.827  27.452  28.050  1.00  0.00     0.057 A 
ATOM     78  C   UNL A   1      40.214  26.199  27.936  1.00  0.00     0.134 A 
ATOM     79  C   UNL A   1      41.607  27.887  26.972  1.00  0.00     0.134 A 
ATOM     80  F   UNL A   1      39.467  25.719  28.941  1.00  0.00    -0.206 F 
ATOM     81  C   UNL A   1      40.396  25.394  26.810  1.00  0.00     0.040 A 
ATOM     82  C   UNL A   1      41.774  27.105  25.828  1.00  0.00     0.040 A 
ATOM     83  F   UNL A   1      42.213  29.083  27.013  1.00  0.00    -0.206 F 
ATOM     84  C   UNL A   1      41.177  25.849  25.750  1.00  0.00     0.006 A 
ENDBRANCH  56  77
BRANCH  68  85
ATOM     85  C   UNL A   1      44.322  27.675  34.070  1.00  0.00     0.057 A 
ATOM     86  C   UNL A   1      44.131  26.457  34.735  1.00  0.00     0.134 A 
ATOM     87  C   UNL A   1      45.641  28.102  33.866  1.00  0.00     0.134 A 
ATOM     88  F   UNL A   1      42.892  25.999  34.971  1.00  0.00    -0.206 F 
ATOM     89  C   UNL A   1      45.211  25.704  35.196  1.00  0.00     0.040 A 
ATOM     90  C   UNL A   1      46.729  27.343  34.296  1.00  0.00     0.040 A 
ATOM     91  F   UNL A   1      45.894  29.255  33.227  1.00  0.00    -0.206 F 
ATOM     92  C   UNL A   1      46.515  26.141  34.968  1.00  0.00     0.006 A 
ENDBRANCH  68  85
ENDBRANCH  42  43
ENDBRANCH  34  37
ENDBRANCH  32  33
ENDBRANCH  31  32
ENDBRANCH  30  31
ENDBRANCH   1  30
TORSDOF 18
ENDMDL
MODEL 3
REMARK VINA RESULT:     -11.5      2.287      3.696
REMARK SMILES CCCc1cc(OC(F)(F)F)cc2c1O[C@@H](C(F)(F)F)C(C(=O)NCCCCCCNC(=O)c1ccc(-c3c4nc(c(-c5c(F)cccc5F)c5ccc([nH]5)c(-c5c(F)cccc5F)c5nc(c(-c6c(F)cccc6F)c6ccc3[nH]6)C=C5)C=C4)cc1)=C2
REMARK SMILES IDX 27 1 26 2 25 3 24 4 22 5 23 6 21 8 4 9 5 10 14 11 6 12 13 13
REMARK SMILES IDX 15 14 12 15 88 16 16 17 3 18 2 19 1 20 7 21 8 22 9 23 10 24
REMARK SMILES IDX 11 25 17 26 18 27 19 28 20 29 28 30 29 31 30 32 31 33 32 34
REMARK SMILES IDX 33 36 34 37 35 38 87 39 36 40 86 41 37 42 38 43 39 44 80 45
REMARK SMILES IDX 40 46 85 47 79 48 81 49 41 50 84 51 78 52 77 53 42 55 68 56
REMARK SMILES IDX 51 57 67 58 52 59 55 60 66 61 82 62 53 63 54 64 65 66 83 67
REMARK SMILES IDX 56 68 43 69 44 70 49 71 45 72 46 73 48 74 50 75 47 76 69 77
REMARK SMILES IDX 70 78 75 79 71 80 72 81 74 82 76 83 73 84 57 85 58 86 63 87
REMARK SMILES IDX 59 88 60 89 62 90 64 91 61 92
REMARK H PARENT 24 7 31 35 81 54 55 65
REMARK Flexibility Score: inf
ROOT
ATOM      1  C   UNL A   1      32.047  29.735  27.271  1.00  0.00     0.002 C 
ENDROOT
BRANCH   1   2
ATOM      2  C   UNL A   1      31.809  28.230  27.078  1.00  0.00     0.021 C 
BRANCH   2   3
ATOM      3  C   UNL A   1      32.981  27.530  26.379  1.00  0.00     0.116 C 
BRANCH   3   4
ATOM      4  N   UNL A   1      32.924  27.819  24.956  1.00  0.00    -0.352 N 
ATOM      5  C   UNL A   1      33.262  27.098  23.856  1.00  0.00     0.251 C 
ATOM      6  O   UNL A   1      33.360  27.695  22.787  1.00  0.00    -0.270 OA
ATOM      7  H   UNL A   1      32.572  28.714  24.748  1.00  0.00     0.163 HD
BRANCH   5   8
ATOM      8  C   UNL A   1      33.415  25.619  23.880  1.00  0.00     0.067 C 
ATOM      9  C   UNL A   1      33.384  21.440  24.316  1.00  0.00    -0.002 A 
ATOM     10  C   UNL A   1      34.483  20.816  24.935  1.00  0.00     0.054 A 
ATOM     11  C   UNL A   1      33.403  22.829  24.117  1.00  0.00     0.131 A 
ATOM     12  C   UNL A   1      35.604  21.551  25.311  1.00  0.00     0.130 A 
ATOM     13  C   UNL A   1      34.522  23.568  24.486  1.00  0.00     0.021 A 
ATOM     14  O   UNL A   1      32.275  23.405  23.609  1.00  0.00    -0.475 OA
ATOM     15  C   UNL A   1      35.617  22.928  25.080  1.00  0.00     0.058 A 
ATOM     16  C   UNL A   1      34.519  25.012  24.335  1.00  0.00     0.025 C 
ATOM     17  C   UNL A   1      32.300  24.808  23.224  1.00  0.00     0.314 C 
BRANCH   9  18
ATOM     18  C   UNL A   1      32.249  20.584  23.801  1.00  0.00     0.039 C 
BRANCH  18  19
ATOM     19  C   UNL A   1      32.507  19.088  24.026  1.00  0.00     0.001 C 
ATOM     20  C   UNL A   1      32.488  18.265  22.742  1.00  0.00     0.004 C 
ENDBRANCH  18  19
ENDBRANCH   9  18
BRANCH  12  21
ATOM     21  O   UNL A   1      36.732  21.064  25.904  1.00  0.00    -0.406 OA
BRANCH  21  22
ATOM     22  C   UNL A   1      37.715  20.479  25.064  1.00  0.00     0.573 C 
ATOM     23  F   UNL A   1      37.538  19.145  24.966  1.00  0.00    -0.132 F 
ATOM     24  F   UNL A   1      37.694  21.031  23.832  1.00  0.00    -0.132 F 
ATOM     25  F   UNL A   1      38.932  20.702  25.604  1.00  0.00    -0.132 F 
ENDBRANCH  21  22
ENDBRANCH  12  21
BRANCH  17  26
ATOM     26  C   UNL A   1      30.856  25.346  23.366  1.00  0.00     0.429 C 
ATOM     27  F   UNL A   1      30.585  25.805  24.608  1.00  0.00    -0.167 F 
ATOM     28  F   UNL A   1      30.653  26.410  22.541  1.00  0.00    -0.167 F 
ATOM     29  F   UNL A   1      29.925  24.420  23.041  1.00  0.00    -0.167 F 
ENDBRANCH  17  26
ENDBRANCH   5   8
ENDBRANCH   3   4
ENDBRANCH   2   3
ENDBRANCH   1   2
BRANCH   1  30
ATOM     30  C   UNL A   1      31.508  30.612  26.134  1.00  0.00     0.002 C 
BRANCH  30  31
ATOM     31  C   UNL A   1      31.360  32.093  26.487  1.00  0.00     0.021 C 
BRANCH  31  32
ATOM     32  C   UNL A   1      32.542  32.658  27.266  1.00  0.00     0.116 C 
BRANCH  32  33
ATOM     33  N   UNL A   1      32.349  34.067  27.573  1.00  0.00    -0.352 N 
ATOM     34  C   UNL A   1      32.974  34.834  28.524  1.00  0.00     0.251 C 
ATOM     35  H   UNL A   1      31.678  34.534  27.025  1.00  0.00     0.163 HD
ATOM     36  O   UNL A   1      32.529  35.932  28.831  1.00  0.00    -0.269 OA
BRANCH  34  37
ATOM     37  C   UNL A   1      34.192  34.315  29.179  1.00  0.00     0.039 A 
ATOM     38  C   UNL A   1      34.074  33.614  30.382  1.00  0.00     0.014 A 
ATOM     39  C   UNL A   1      35.447  34.526  28.601  1.00  0.00     0.014 A 
ATOM     40  C   UNL A   1      35.216  33.082  30.981  1.00  0.00     0.010 A 
ATOM     41  C   UNL A   1      36.571  33.929  29.158  1.00  0.00     0.010 A 
ATOM     42  C   UNL A   1      36.470  33.212  30.360  1.00  0.00    -0.014 A 
BRANCH  42  43
ATOM     43  C   UNL A   1      37.697  32.633  30.960  1.00  0.00     0.031 A 
ATOM     44  C   UNL A   1      38.331  31.421  30.335  1.00  0.00     0.074 A 
ATOM     45  C   UNL A   1      38.197  33.153  32.097  1.00  0.00     0.049 A 
ATOM     46  N   UNL A   1      39.336  30.701  30.761  1.00  0.00    -0.248 NA
ATOM     47  C   UNL A   1      37.736  30.937  29.078  1.00  0.00     0.031 C 
ATOM     48  C   UNL A   1      37.654  34.308  32.813  1.00  0.00     0.029 A 
ATOM     49  N   UNL A   1      39.272  32.766  32.858  1.00  0.00    -0.354 N 
ATOM     50  C   UNL A   1      39.486  29.676  29.834  1.00  0.00     0.074 A 
ATOM     51  C   UNL A   1      38.431  29.832  28.857  1.00  0.00     0.031 C 
ATOM     52  C   UNL A   1      38.409  34.547  33.898  1.00  0.00     0.029 A 
ATOM     53  C   UNL A   1      39.461  33.539  33.979  1.00  0.00     0.049 A 
ATOM     54  H   UNL A   1      39.854  32.007  32.622  1.00  0.00     0.167 HD
ATOM     55  C   UNL A   1      40.431  28.709  29.787  1.00  0.00     0.037 A 
ATOM     56  C   UNL A   1      40.371  33.435  34.965  1.00  0.00     0.037 A 
ATOM     57  C   UNL A   1      41.492  28.573  30.750  1.00  0.00     0.049 A 
ATOM     58  C   UNL A   1      41.393  32.330  34.905  1.00  0.00     0.074 A 
ATOM     59  C   UNL A   1      42.522  27.650  30.771  1.00  0.00     0.029 A 
ATOM     60  N   UNL A   1      41.657  29.384  31.862  1.00  0.00    -0.354 N 
ATOM     61  N   UNL A   1      41.553  31.399  33.996  1.00  0.00    -0.248 NA
ATOM     62  C   UNL A   1      42.363  32.265  36.006  1.00  0.00     0.031 C 
ATOM     63  C   UNL A   1      43.284  27.874  31.920  1.00  0.00     0.029 A 
ATOM     64  C   UNL A   1      42.763  28.972  32.585  1.00  0.00     0.049 A 
ATOM     65  H   UNL A   1      41.073  30.140  32.102  1.00  0.00     0.167 HD
ATOM     66  C   UNL A   1      42.665  30.667  34.392  1.00  0.00     0.074 A 
ATOM     67  C   UNL A   1      43.143  31.266  35.621  1.00  0.00     0.031 C 
ATOM     68  C   UNL A   1      43.241  29.597  33.792  1.00  0.00     0.037 A 
BRANCH  55  69
ATOM     69  C   UNL A   1      40.367  27.728  28.652  1.00  0.00     0.057 A 
ATOM     70  C   UNL A   1      41.060  27.940  27.452  1.00  0.00     0.134 A 
ATOM     71  C   UNL A   1      39.640  26.537  28.774  1.00  0.00     0.134 A 
ATOM     72  F   UNL A   1      41.766  29.066  27.265  1.00  0.00    -0.206 F 
ATOM     73  C   UNL A   1      41.012  27.016  26.408  1.00  0.00     0.040 A 
ATOM     74  C   UNL A   1      39.609  25.592  27.748  1.00  0.00     0.040 A 
ATOM     75  F   UNL A   1      38.957  26.267  29.897  1.00  0.00    -0.206 F 
ATOM     76  C   UNL A   1      40.291  25.834  26.558  1.00  0.00     0.006 A 
ENDBRANCH  55  69
BRANCH  56  77
ATOM     77  C   UNL A   1      40.375  34.405  36.090  1.00  0.00     0.057 A 
ATOM     78  C   UNL A   1      39.606  34.182  37.238  1.00  0.00     0.134 A 
ATOM     79  C   UNL A   1      41.119  35.590  36.035  1.00  0.00     0.134 A 
ATOM     80  F   UNL A   1      38.858  33.074  37.345  1.00  0.00    -0.206 F 
ATOM     81  C   UNL A   1      39.552  35.113  38.276  1.00  0.00     0.040 A 
ATOM     82  C   UNL A   1      41.096  36.517  37.078  1.00  0.00     0.040 A 
ATOM     83  F   UNL A   1      41.884  35.860  34.967  1.00  0.00    -0.206 F 
ATOM     84  C   UNL A   1      40.300  36.285  38.198  1.00  0.00     0.006 A 
ENDBRANCH  56  77
BRANCH  68  85
ATOM     85  C   UNL A   1      44.489  29.042  34.414  1.00  0.00     0.057 A 
ATOM     86  C   UNL A   1      45.762  29.530  34.094  1.00  0.00     0.134 A 
ATOM     87  C   UNL A   1      44.406  28.042  35.391  1.00  0.00     0.134 A 
ATOM     88  F   UNL A   1      45.911  30.479  33.157  1.00  0.00    -0.206 F 
ATOM     89  C   UNL A   1      46.909  29.028  34.709  1.00  0.00     0.040 A 
ATOM     90  C   UNL A   1      45.542  27.553  36.035  1.00  0.00     0.040 A 
ATOM     91  F   UNL A   1      43.215  27.538  35.752  1.00  0.00    -0.206 F 
ATOM     92  C   UNL A   1      46.800  28.043  35.690  1.00  0.00     0.006 A 
ENDBRANCH  68  85
ENDBRANCH  42  43
ENDBRANCH  34  37
ENDBRANCH  32  33
ENDBRANCH  31  32
ENDBRANCH  30  31
ENDBRANCH   1  30
TORSDOF 18
ENDMDL
