MODEL 1
REMARK VINA RESULT:     -12.9      0.000      0.000
REMARK SMILES O=C(Cn1c2ccccc2c(=O)c2ccccc21)N[C@@H](Cc1ccccc1)C(=O)NCCCCCCNC(=O)c1ccc(-c2c3nc(c(-c4c(F)cccc4F)c4ccc([nH]4)c(-c4c(F)cccc4F)c4nc(c(-c5c(F)cccc5F)c5ccc2[nH]5)C=C4)C=C3)cc1
REMARK SMILES IDX 33 1 32 2 31 3 30 4 28 5 29 6 20 8 19 9 1 10 2 11 3 13 4 14
REMARK SMILES IDX 5 15 18 16 6 17 10 18 13 19 17 20 7 21 9 22 11 23 14 24
REMARK SMILES IDX 16 25 8 26 12 27 15 28 21 29 22 30 23 31 27 32 24 33 26 34
REMARK SMILES IDX 25 35 34 36 35 37 36 38 37 39 38 40 39 42 40 43 41 44 93 45
REMARK SMILES IDX 42 46 92 47 43 48 44 49 45 50 86 51 46 52 91 53 85 54 87 55
REMARK SMILES IDX 47 56 90 57 84 58 83 59 48 61 74 62 57 63 73 64 58 65 61 66
REMARK SMILES IDX 72 67 88 68 59 69 60 70 71 72 89 73 62 74 49 75 50 76 55 77
REMARK SMILES IDX 51 78 52 79 54 80 56 81 53 82 75 83 76 84 81 85 77 86 78 87
REMARK SMILES IDX 80 88 82 89 79 90 63 91 64 92 69 93 65 94 66 95 68 96 70 97
REMARK SMILES IDX 67 98
REMARK H PARENT 30 7 19 12 37 41 87 60 61 71
REMARK Flexibility Score: inf
ROOT
ATOM      1  C   UNL A   1      32.212  29.828  25.377  1.00  0.00     0.002 C 
ENDROOT
BRANCH   1   2
ATOM      2  C   UNL A   1      33.419  28.913  25.602  1.00  0.00     0.021 C 
BRANCH   2   3
ATOM      3  C   UNL A   1      33.074  27.481  25.985  1.00  0.00     0.116 C 
BRANCH   3   4
ATOM      4  N   UNL A   1      31.684  27.295  26.337  1.00  0.00    -0.354 N 
ATOM      5  C   UNL A   1      30.850  26.244  26.087  1.00  0.00     0.242 C 
ATOM      6  O   UNL A   1      29.899  26.092  26.862  1.00  0.00    -0.273 OA
ATOM      7  H   UNL A   1      31.276  28.040  26.834  1.00  0.00     0.163 HD
BRANCH   5   8
ATOM      8  C   UNL A   1      31.103  25.223  24.955  1.00  0.00     0.175 C 
BRANCH   8   9
ATOM      9  N   UNL A   1      31.318  23.857  25.453  1.00  0.00    -0.342 N 
ATOM     10  O   UNL A   1      32.740  23.245  23.768  1.00  0.00    -0.273 OA
ATOM     11  C   UNL A   1      32.258  23.030  24.880  1.00  0.00     0.240 C 
ATOM     12  H   UNL A   1      30.781  23.528  26.210  1.00  0.00     0.164 HD
BRANCH  11  13
ATOM     13  C   UNL A   1      32.646  21.786  25.679  1.00  0.00     0.222 C 
BRANCH  13  14
ATOM     14  N   UNL A   1      33.940  21.108  25.362  1.00  0.00    -0.331 N 
ATOM     15  C   UNL A   1      33.819  19.792  24.816  1.00  0.00     0.053 A 
ATOM     16  C   UNL A   1      35.195  21.756  25.410  1.00  0.00     0.053 A 
ATOM     17  C   UNL A   1      32.596  19.209  24.430  1.00  0.00     0.027 A 
ATOM     18  C   UNL A   1      34.971  19.013  24.597  1.00  0.00     0.046 A 
ATOM     19  C   UNL A   1      36.379  20.997  25.292  1.00  0.00     0.046 A 
ATOM     20  C   UNL A   1      35.380  23.138  25.567  1.00  0.00     0.027 A 
ATOM     21  C   UNL A   1      32.532  17.927  23.862  1.00  0.00     0.002 A 
ATOM     22  C   UNL A   1      34.915  17.732  24.023  1.00  0.00     0.014 A 
ATOM     23  C   UNL A   1      36.288  19.561  24.966  1.00  0.00     0.197 A 
ATOM     24  C   UNL A   1      37.658  21.554  25.465  1.00  0.00     0.014 A 
ATOM     25  C   UNL A   1      36.652  23.702  25.756  1.00  0.00     0.002 A 
ATOM     26  C   UNL A   1      33.691  17.190  23.655  1.00  0.00     0.001 A 
ATOM     27  O   UNL A   1      37.284  18.846  24.974  1.00  0.00    -0.288 OA
ATOM     28  C   UNL A   1      37.791  22.908  25.729  1.00  0.00     0.001 A 
ENDBRANCH  13  14
ENDBRANCH  11  13
ENDBRANCH   8   9
BRANCH   8  29
ATOM     29  C   UNL A   1      30.151  25.357  23.752  1.00  0.00     0.070 C 
BRANCH  29  30
ATOM     30  C   UNL A   1      29.809  26.752  23.292  1.00  0.00    -0.045 A 
ATOM     31  C   UNL A   1      28.519  27.269  23.473  1.00  0.00     0.004 A 
ATOM     32  C   UNL A   1      30.787  27.561  22.691  1.00  0.00     0.004 A 
ATOM     33  C   UNL A   1      28.227  28.584  23.103  1.00  0.00     0.000 A 
ATOM     34  C   UNL A   1      30.491  28.875  22.322  1.00  0.00     0.000 A 
ATOM     35  C   UNL A   1      29.214  29.388  22.537  1.00  0.00     0.000 A 
ENDBRANCH  29  30
ENDBRANCH   8  29
ENDBRANCH   5   8
ENDBRANCH   3   4
ENDBRANCH   2   3
ENDBRANCH   1   2
BRANCH   1  36
ATOM     36  C   UNL A   1      31.653  30.519  26.627  1.00  0.00     0.002 C 
BRANCH  36  37
ATOM     37  C   UNL A   1      31.573  32.047  26.574  1.00  0.00     0.021 C 
BRANCH  37  38
ATOM     38  C   UNL A   1      32.690  32.787  27.298  1.00  0.00     0.116 C 
BRANCH  38  39
ATOM     39  N   UNL A   1      32.341  34.156  27.635  1.00  0.00    -0.352 N 
ATOM     40  C   UNL A   1      32.941  35.004  28.539  1.00  0.00     0.251 C 
ATOM     41  H   UNL A   1      31.570  34.529  27.151  1.00  0.00     0.163 HD
ATOM     42  O   UNL A   1      32.451  36.097  28.784  1.00  0.00    -0.269 OA
BRANCH  40  43
ATOM     43  C   UNL A   1      34.157  34.558  29.256  1.00  0.00     0.039 A 
ATOM     44  C   UNL A   1      35.421  34.667  28.670  1.00  0.00     0.014 A 
ATOM     45  C   UNL A   1      34.013  33.973  30.516  1.00  0.00     0.014 A 
ATOM     46  C   UNL A   1      36.513  34.041  29.267  1.00  0.00     0.010 A 
ATOM     47  C   UNL A   1      35.125  33.407  31.146  1.00  0.00     0.010 A 
ATOM     48  C   UNL A   1      36.371  33.385  30.499  1.00  0.00    -0.014 A 
BRANCH  48  49
ATOM     49  C   UNL A   1      37.508  32.625  31.081  1.00  0.00     0.031 A 
ATOM     50  C   UNL A   1      38.116  33.062  32.389  1.00  0.00     0.074 A 
ATOM     51  C   UNL A   1      37.983  31.533  30.452  1.00  0.00     0.049 A 
ATOM     52  N   UNL A   1      39.166  32.591  33.014  1.00  0.00    -0.248 NA
ATOM     53  C   UNL A   1      37.457  34.179  33.086  1.00  0.00     0.031 C 
ATOM     54  C   UNL A   1      37.464  30.986  29.198  1.00  0.00     0.029 A 
ATOM     55  N   UNL A   1      39.012  30.689  30.785  1.00  0.00    -0.354 N 
ATOM     56  C   UNL A   1      39.313  33.373  34.154  1.00  0.00     0.074 A 
ATOM     57  C   UNL A   1      38.254  34.358  34.131  1.00  0.00     0.031 C 
ATOM     58  C   UNL A   1      38.165  29.887  28.877  1.00  0.00     0.029 A 
ATOM     59  C   UNL A   1      39.218  29.689  29.867  1.00  0.00     0.049 A 
ATOM     60  H   UNL A   1      39.550  30.790  31.604  1.00  0.00     0.167 HD
ATOM     61  C   UNL A   1      40.244  33.274  35.133  1.00  0.00     0.037 A 
ATOM     62  C   UNL A   1      40.172  28.739  29.812  1.00  0.00     0.037 A 
ATOM     63  C   UNL A   1      41.278  32.274  35.174  1.00  0.00     0.049 A 
ATOM     64  C   UNL A   1      41.220  28.683  30.887  1.00  0.00     0.074 A 
ATOM     65  C   UNL A   1      42.255  32.081  36.136  1.00  0.00     0.029 A 
ATOM     66  N   UNL A   1      41.465  31.294  34.212  1.00  0.00    -0.354 N 
ATOM     67  N   UNL A   1      41.349  29.430  31.956  1.00  0.00    -0.248 NA
ATOM     68  C   UNL A   1      42.264  27.658  30.740  1.00  0.00     0.031 C 
ATOM     69  C   UNL A   1      43.053  31.004  35.740  1.00  0.00     0.029 A 
ATOM     70  C   UNL A   1      42.549  30.503  34.550  1.00  0.00     0.049 A 
ATOM     71  H   UNL A   1      40.909  31.179  33.407  1.00  0.00     0.167 HD
ATOM     72  C   UNL A   1      42.469  28.950  32.621  1.00  0.00     0.074 A 
ATOM     73  C   UNL A   1      42.978  27.841  31.842  1.00  0.00     0.031 C 
ATOM     74  C   UNL A   1      43.027  29.389  33.774  1.00  0.00     0.037 A 
BRANCH  61  75
ATOM     75  C   UNL A   1      40.200  34.286  36.239  1.00  0.00     0.057 A 
ATOM     76  C   UNL A   1      39.415  34.061  37.378  1.00  0.00     0.134 A 
ATOM     77  C   UNL A   1      40.886  35.504  36.157  1.00  0.00     0.134 A 
ATOM     78  F   UNL A   1      38.727  32.918  37.516  1.00  0.00    -0.206 F 
ATOM     79  C   UNL A   1      39.311  35.014  38.394  1.00  0.00     0.040 A 
ATOM     80  C   UNL A   1      40.806  36.455  37.176  1.00  0.00     0.040 A 
ATOM     81  F   UNL A   1      41.666  35.774  35.099  1.00  0.00    -0.206 F 
ATOM     82  C   UNL A   1      40.011  36.214  38.295  1.00  0.00     0.006 A 
ENDBRANCH  61  75
BRANCH  62  83
ATOM     83  C   UNL A   1      40.201  27.778  28.681  1.00  0.00     0.057 A 
ATOM     84  C   UNL A   1      40.891  28.068  27.497  1.00  0.00     0.134 A 
ATOM     85  C   UNL A   1      39.565  26.535  28.770  1.00  0.00     0.134 A 
ATOM     86  F   UNL A   1      41.519  29.243  27.350  1.00  0.00    -0.206 F 
ATOM     87  C   UNL A   1      40.942  27.159  26.441  1.00  0.00     0.040 A 
ATOM     88  C   UNL A   1      39.631  25.605  27.732  1.00  0.00     0.040 A 
ATOM     89  F   UNL A   1      38.908  26.193  29.888  1.00  0.00    -0.206 F 
ATOM     90  C   UNL A   1      40.319  25.919  26.560  1.00  0.00     0.006 A 
ENDBRANCH  62  83
BRANCH  74  91
ATOM     91  C   UNL A   1      44.217  28.639  34.289  1.00  0.00     0.057 A 
ATOM     92  C   UNL A   1      45.513  29.027  33.928  1.00  0.00     0.134 A 
ATOM     93  C   UNL A   1      44.081  27.510  35.105  1.00  0.00     0.134 A 
ATOM     94  F   UNL A   1      45.710  30.097  33.142  1.00  0.00    -0.206 F 
ATOM     95  C   UNL A   1      46.633  28.315  34.356  1.00  0.00     0.040 A 
ATOM     96  C   UNL A   1      45.195  26.803  35.559  1.00  0.00     0.040 A 
ATOM     97  F   UNL A   1      42.866  27.097  35.498  1.00  0.00    -0.206 F 
ATOM     98  C   UNL A   1      46.475  27.201  35.177  1.00  0.00     0.006 A 
ENDBRANCH  74  91
ENDBRANCH  48  49
ENDBRANCH  40  43
ENDBRANCH  38  39
ENDBRANCH  37  38
ENDBRANCH  36  37
ENDBRANCH   1  36
TORSDOF 18
ENDMDL
MODEL 2
REMARK VINA RESULT:     -12.7      0.654      5.744
REMARK SMILES O=C(Cn1c2ccccc2c(=O)c2ccccc21)N[C@@H](Cc1ccccc1)C(=O)NCCCCCCNC(=O)c1ccc(-c2c3nc(c(-c4c(F)cccc4F)c4ccc([nH]4)c(-c4c(F)cccc4F)c4nc(c(-c5c(F)cccc5F)c5ccc2[nH]5)C=C4)C=C3)cc1
REMARK SMILES IDX 33 1 32 2 31 3 30 4 28 5 29 6 20 8 19 9 1 10 2 11 3 13 4 14
REMARK SMILES IDX 5 15 18 16 6 17 10 18 13 19 17 20 7 21 9 22 11 23 14 24
REMARK SMILES IDX 16 25 8 26 12 27 15 28 21 29 22 30 23 31 27 32 24 33 26 34
REMARK SMILES IDX 25 35 34 36 35 37 36 38 37 39 38 40 39 42 40 43 41 44 93 45
REMARK SMILES IDX 42 46 92 47 43 48 44 49 45 50 86 51 46 52 91 53 85 54 87 55
REMARK SMILES IDX 47 56 90 57 84 58 83 59 48 61 74 62 57 63 73 64 58 65 61 66
REMARK SMILES IDX 72 67 88 68 59 69 60 70 71 72 89 73 62 74 49 75 50 76 55 77
REMARK SMILES IDX 51 78 52 79 54 80 56 81 53 82 75 83 76 84 81 85 77 86 78 87
REMARK SMILES IDX 80 88 82 89 79 90 63 91 64 92 69 93 65 94 66 95 68 96 70 97
REMARK SMILES IDX 67 98
REMARK H PARENT 30 7 19 12 37 41 87 60 61 71
REMARK Flexibility Score: inf
ROOT
ATOM      1  C   UNL A   1      32.311  29.697  25.564  1.00  0.00     0.002 C 
ENDROOT
BRANCH   1   2
ATOM      2  C   UNL A   1      33.477  28.709  25.664  1.00  0.00     0.021 C 
BRANCH   2   3
ATOM      3  C   UNL A   1      33.071  27.261  25.898  1.00  0.00     0.116 C 
BRANCH   3   4
ATOM      4  N   UNL A   1      31.693  27.105  26.305  1.00  0.00    -0.354 N 
ATOM      5  C   UNL A   1      30.807  26.102  26.034  1.00  0.00     0.242 C 
ATOM      6  O   UNL A   1      29.887  25.938  26.843  1.00  0.00    -0.273 OA
ATOM      7  H   UNL A   1      31.337  27.833  26.865  1.00  0.00     0.163 HD
BRANCH   5   8
ATOM      8  C   UNL A   1      30.968  25.144  24.833  1.00  0.00     0.175 C 
BRANCH   8   9
ATOM      9  N   UNL A   1      31.062  23.732  25.235  1.00  0.00    -0.342 N 
ATOM     10  O   UNL A   1      31.861  22.999  23.219  1.00  0.00    -0.273 OA
ATOM     11  C   UNL A   1      31.657  22.798  24.416  1.00  0.00     0.240 C 
ATOM     12  H   UNL A   1      30.693  23.451  26.103  1.00  0.00     0.164 HD
BRANCH  11  13
ATOM     13  C   UNL A   1      32.017  21.460  25.063  1.00  0.00     0.222 C 
BRANCH  13  14
ATOM     14  N   UNL A   1      33.423  20.965  24.947  1.00  0.00    -0.331 N 
ATOM     15  C   UNL A   1      33.556  19.605  24.528  1.00  0.00     0.053 A 
ATOM     16  C   UNL A   1      34.558  21.801  25.053  1.00  0.00     0.053 A 
ATOM     17  C   UNL A   1      32.481  18.810  24.083  1.00  0.00     0.027 A 
ATOM     18  C   UNL A   1      34.825  18.998  24.504  1.00  0.00     0.046 A 
ATOM     19  C   UNL A   1      35.844  21.226  25.131  1.00  0.00     0.046 A 
ATOM     20  C   UNL A   1      34.523  23.203  25.086  1.00  0.00     0.027 A 
ATOM     21  C   UNL A   1      32.668  17.489  23.645  1.00  0.00     0.002 A 
ATOM     22  C   UNL A   1      35.020  17.679  24.060  1.00  0.00     0.014 A 
ATOM     23  C   UNL A   1      35.999  19.771  24.944  1.00  0.00     0.197 A 
ATOM     24  C   UNL A   1      37.002  21.987  25.372  1.00  0.00     0.014 A 
ATOM     25  C   UNL A   1      35.670  23.971  25.343  1.00  0.00     0.002 A 
ATOM     26  C   UNL A   1      33.937  16.925  23.629  1.00  0.00     0.001 A 
ATOM     27  O   UNL A   1      37.081  19.222  25.124  1.00  0.00    -0.288 OA
ATOM     28  C   UNL A   1      36.907  23.363  25.510  1.00  0.00     0.001 A 
ENDBRANCH  13  14
ENDBRANCH  11  13
ENDBRANCH   8   9
BRANCH   8  29
ATOM     29  C   UNL A   1      30.030  25.443  23.648  1.00  0.00     0.070 C 
BRANCH  29  30
ATOM     30  C   UNL A   1      29.848  26.888  23.258  1.00  0.00    -0.045 A 
ATOM     31  C   UNL A   1      30.920  27.630  22.743  1.00  0.00     0.004 A 
ATOM     32  C   UNL A   1      28.594  27.507  23.388  1.00  0.00     0.004 A 
ATOM     33  C   UNL A   1      30.728  28.949  22.323  1.00  0.00     0.000 A 
ATOM     34  C   UNL A   1      28.406  28.825  22.968  1.00  0.00     0.000 A 
ATOM     35  C   UNL A   1      29.471  29.542  22.428  1.00  0.00     0.000 A 
ENDBRANCH  29  30
ENDBRANCH   8  29
ENDBRANCH   5   8
ENDBRANCH   3   4
ENDBRANCH   2   3
ENDBRANCH   1   2
BRANCH   1  36
ATOM     36  C   UNL A   1      31.945  30.437  26.856  1.00  0.00     0.002 C 
BRANCH  36  37
ATOM     37  C   UNL A   1      31.783  31.954  26.742  1.00  0.00     0.021 C 
BRANCH  37  38
ATOM     38  C   UNL A   1      32.857  32.783  27.433  1.00  0.00     0.116 C 
BRANCH  38  39
ATOM     39  N   UNL A   1      32.441  34.148  27.698  1.00  0.00    -0.352 N 
ATOM     40  C   UNL A   1      32.975  35.060  28.582  1.00  0.00     0.251 C 
ATOM     41  H   UNL A   1      31.672  34.467  27.173  1.00  0.00     0.163 HD
ATOM     42  O   UNL A   1      32.433  36.141  28.763  1.00  0.00    -0.269 OA
BRANCH  40  43
ATOM     43  C   UNL A   1      34.184  34.697  29.356  1.00  0.00     0.039 A 
ATOM     44  C   UNL A   1      35.453  34.728  28.770  1.00  0.00     0.014 A 
ATOM     45  C   UNL A   1      34.029  34.272  30.677  1.00  0.00     0.014 A 
ATOM     46  C   UNL A   1      36.537  34.173  29.446  1.00  0.00     0.010 A 
ATOM     47  C   UNL A   1      35.133  33.780  31.379  1.00  0.00     0.010 A 
ATOM     48  C   UNL A   1      36.383  33.673  30.748  1.00  0.00    -0.014 A 
BRANCH  48  49
ATOM     49  C   UNL A   1      37.512  32.983  31.425  1.00  0.00     0.031 A 
ATOM     50  C   UNL A   1      38.169  31.794  30.771  1.00  0.00     0.074 A 
ATOM     51  C   UNL A   1      37.963  33.429  32.612  1.00  0.00     0.049 A 
ATOM     52  N   UNL A   1      39.102  31.002  31.236  1.00  0.00    -0.248 NA
ATOM     53  C   UNL A   1      37.715  31.449  29.413  1.00  0.00     0.031 C 
ATOM     54  C   UNL A   1      37.437  34.587  33.337  1.00  0.00     0.029 A 
ATOM     55  N   UNL A   1      38.968  32.959  33.419  1.00  0.00    -0.354 N 
ATOM     56  C   UNL A   1      39.320  30.049  30.248  1.00  0.00     0.074 A 
ATOM     57  C   UNL A   1      38.415  30.351  29.161  1.00  0.00     0.031 C 
ATOM     58  C   UNL A   1      38.136  34.748  34.471  1.00  0.00     0.029 A 
ATOM     59  C   UNL A   1      39.115  33.673  34.583  1.00  0.00     0.049 A 
ATOM     60  H   UNL A   1      39.532  32.186  33.184  1.00  0.00     0.167 HD
ATOM     61  C   UNL A   1      40.201  29.020  30.245  1.00  0.00     0.037 A 
ATOM     62  C   UNL A   1      39.926  33.463  35.638  1.00  0.00     0.037 A 
ATOM     63  C   UNL A   1      41.125  28.738  31.312  1.00  0.00     0.049 A 
ATOM     64  C   UNL A   1      40.859  32.284  35.628  1.00  0.00     0.074 A 
ATOM     65  C   UNL A   1      42.070  27.728  31.391  1.00  0.00     0.029 A 
ATOM     66  N   UNL A   1      41.225  29.472  32.483  1.00  0.00    -0.354 N 
ATOM     67  N   UNL A   1      41.052  31.390  34.690  1.00  0.00    -0.248 NA
ATOM     68  C   UNL A   1      41.677  32.079  36.832  1.00  0.00     0.031 C 
ATOM     69  C   UNL A   1      42.719  27.833  32.625  1.00  0.00     0.029 A 
ATOM     70  C   UNL A   1      42.205  28.930  33.297  1.00  0.00     0.049 A 
ATOM     71  H   UNL A   1      40.679  30.261  32.704  1.00  0.00     0.167 HD
ATOM     72  C   UNL A   1      42.030  30.534  35.177  1.00  0.00     0.074 A 
ATOM     73  C   UNL A   1      42.399  31.021  36.490  1.00  0.00     0.031 C 
ATOM     74  C   UNL A   1      42.574  29.441  34.590  1.00  0.00     0.037 A 
BRANCH  61  75
ATOM     75  C   UNL A   1      40.198  28.105  29.057  1.00  0.00     0.057 A 
ATOM     76  C   UNL A   1      39.483  26.901  29.088  1.00  0.00     0.134 A 
ATOM     77  C   UNL A   1      40.943  28.385  27.904  1.00  0.00     0.134 A 
ATOM     78  F   UNL A   1      38.754  26.569  30.164  1.00  0.00    -0.206 F 
ATOM     79  C   UNL A   1      39.513  26.005  28.017  1.00  0.00     0.040 A 
ATOM     80  C   UNL A   1      40.964  27.507  26.820  1.00  0.00     0.040 A 
ATOM     81  F   UNL A   1      41.638  29.529  27.807  1.00  0.00    -0.206 F 
ATOM     82  C   UNL A   1      40.254  26.310  26.877  1.00  0.00     0.006 A 
ENDBRANCH  61  75
BRANCH  62  83
ATOM     83  C   UNL A   1      39.873  34.371  36.810  1.00  0.00     0.057 A 
ATOM     84  C   UNL A   1      40.579  35.580  36.827  1.00  0.00     0.134 A 
ATOM     85  C   UNL A   1      39.090  34.064  37.929  1.00  0.00     0.134 A 
ATOM     86  F   UNL A   1      41.348  35.929  35.786  1.00  0.00    -0.206 F 
ATOM     87  C   UNL A   1      40.513  36.449  37.916  1.00  0.00     0.040 A 
ATOM     88  C   UNL A   1      38.993  34.937  39.013  1.00  0.00     0.040 A 
ATOM     89  F   UNL A   1      38.373  32.931  37.960  1.00  0.00    -0.206 F 
ATOM     90  C   UNL A   1      39.710  36.133  39.010  1.00  0.00     0.006 A 
ENDBRANCH  62  83
BRANCH  74  91
ATOM     91  C   UNL A   1      43.660  28.731  35.339  1.00  0.00     0.057 A 
ATOM     92  C   UNL A   1      45.003  29.058  35.123  1.00  0.00     0.134 A 
ATOM     93  C   UNL A   1      43.380  27.696  36.240  1.00  0.00     0.134 A 
ATOM     94  F   UNL A   1      45.338  30.036  34.267  1.00  0.00    -0.206 F 
ATOM     95  C   UNL A   1      46.033  28.378  35.773  1.00  0.00     0.040 A 
ATOM     96  C   UNL A   1      44.399  27.023  36.913  1.00  0.00     0.040 A 
ATOM     97  F   UNL A   1      42.110  27.346  36.500  1.00  0.00    -0.206 F 
ATOM     98  C   UNL A   1      45.731  27.359  36.674  1.00  0.00     0.006 A 
ENDBRANCH  74  91
ENDBRANCH  48  49
ENDBRANCH  40  43
ENDBRANCH  38  39
ENDBRANCH  37  38
ENDBRANCH  36  37
ENDBRANCH   1  36
TORSDOF 18
ENDMDL
MODEL 3
REMARK VINA RESULT:     -12.6      2.168      2.690
REMARK SMILES O=C(Cn1c2ccccc2c(=O)c2ccccc21)N[C@@H](Cc1ccccc1)C(=O)NCCCCCCNC(=O)c1ccc(-c2c3nc(c(-c4c(F)cccc4F)c4ccc([nH]4)c(-c4c(F)cccc4F)c4nc(c(-c5c(F)cccc5F)c5ccc2[nH]5)C=C4)C=C3)cc1
REMARK SMILES IDX 33 1 32 2 31 3 30 4 28 5 29 6 20 8 19 9 1 10 2 11 3 13 4 14
REMARK SMILES IDX 5 15 18 16 6 17 10 18 13 19 17 20 7 21 9 22 11 23 14 24
REMARK SMILES IDX 16 25 8 26 12 27 15 28 21 29 22 30 23 31 27 32 24 33 26 34
REMARK SMILES IDX 25 35 34 36 35 37 36 38 37 39 38 40 39 42 40 43 41 44 93 45
REMARK SMILES IDX 42 46 92 47 43 48 44 49 45 50 86 51 46 52 91 53 85 54 87 55
REMARK SMILES IDX 47 56 90 57 84 58 83 59 48 61 74 62 57 63 73 64 58 65 61 66
REMARK SMILES IDX 72 67 88 68 59 69 60 70 71 72 89 73 62 74 49 75 50 76 55 77
REMARK SMILES IDX 51 78 52 79 54 80 56 81 53 82 75 83 76 84 81 85 77 86 78 87
REMARK SMILES IDX 80 88 82 89 79 90 63 91 64 92 69 93 65 94 66 95 68 96 70 97
REMARK SMILES IDX 67 98
REMARK H PARENT 30 7 19 12 37 41 87 60 61 71
REMARK Flexibility Score: inf
ROOT
ATOM      1  C   UNL A   1      34.685  29.262  27.059  1.00  0.00     0.002 C 
ENDROOT
BRANCH   1   2
ATOM      2  C   UNL A   1      33.496  28.312  26.891  1.00  0.00     0.021 C 
BRANCH   2   3
ATOM      3  C   UNL A   1      33.600  27.357  25.711  1.00  0.00     0.116 C 
BRANCH   3   4
ATOM      4  N   UNL A   1      34.016  27.998  24.484  1.00  0.00    -0.354 N 
ATOM      5  C   UNL A   1      33.271  28.423  23.421  1.00  0.00     0.242 C 
ATOM      6  O   UNL A   1      33.749  29.335  22.737  1.00  0.00    -0.273 OA
ATOM      7  H   UNL A   1      34.984  28.151  24.400  1.00  0.00     0.163 HD
BRANCH   5   8
ATOM      8  C   UNL A   1      31.858  27.878  23.116  1.00  0.00     0.175 C 
BRANCH   8   9
ATOM      9  N   UNL A   1      31.823  26.413  22.995  1.00  0.00    -0.342 N 
ATOM     10  O   UNL A   1      33.654  26.277  21.629  1.00  0.00    -0.273 OA
ATOM     11  C   UNL A   1      32.840  25.726  22.371  1.00  0.00     0.240 C 
ATOM     12  H   UNL A   1      31.059  25.915  23.367  1.00  0.00     0.164 HD
BRANCH  11  13
ATOM     13  C   UNL A   1      32.885  24.216  22.607  1.00  0.00     0.222 C 
BRANCH  13  14
ATOM     14  N   UNL A   1      33.385  23.714  23.923  1.00  0.00    -0.331 N 
ATOM     15  C   UNL A   1      32.382  23.541  24.929  1.00  0.00     0.053 A 
ATOM     16  C   UNL A   1      34.705  23.256  24.136  1.00  0.00     0.053 A 
ATOM     17  C   UNL A   1      30.999  23.658  24.689  1.00  0.00     0.027 A 
ATOM     18  C   UNL A   1      32.755  23.192  26.240  1.00  0.00     0.046 A 
ATOM     19  C   UNL A   1      35.149  22.989  25.449  1.00  0.00     0.046 A 
ATOM     20  C   UNL A   1      35.651  23.034  23.124  1.00  0.00     0.027 A 
ATOM     21  C   UNL A   1      30.051  23.442  25.701  1.00  0.00     0.002 A 
ATOM     22  C   UNL A   1      31.811  22.967  27.256  1.00  0.00     0.014 A 
ATOM     23  C   UNL A   1      34.185  23.040  26.563  1.00  0.00     0.197 A 
ATOM     24  C   UNL A   1      36.484  22.663  25.746  1.00  0.00     0.014 A 
ATOM     25  C   UNL A   1      36.990  22.723  23.411  1.00  0.00     0.002 A 
ATOM     26  C   UNL A   1      30.456  23.092  26.983  1.00  0.00     0.001 A 
ATOM     27  O   UNL A   1      34.556  22.933  27.727  1.00  0.00    -0.288 OA
ATOM     28  C   UNL A   1      37.414  22.561  24.723  1.00  0.00     0.001 A 
ENDBRANCH  13  14
ENDBRANCH  11  13
ENDBRANCH   8   9
BRANCH   8  29
ATOM     29  C   UNL A   1      30.736  28.509  23.961  1.00  0.00     0.070 C 
BRANCH  29  30
ATOM     30  C   UNL A   1      29.914  29.598  23.319  1.00  0.00    -0.045 A 
ATOM     31  C   UNL A   1      29.450  29.462  22.003  1.00  0.00     0.004 A 
ATOM     32  C   UNL A   1      29.584  30.757  24.039  1.00  0.00     0.004 A 
ATOM     33  C   UNL A   1      28.636  30.446  21.437  1.00  0.00     0.000 A 
ATOM     34  C   UNL A   1      28.770  31.738  23.470  1.00  0.00     0.000 A 
ATOM     35  C   UNL A   1      28.290  31.578  22.172  1.00  0.00     0.000 A 
ENDBRANCH  29  30
ENDBRANCH   8  29
ENDBRANCH   5   8
ENDBRANCH   3   4
ENDBRANCH   2   3
ENDBRANCH   1   2
BRANCH   1  36
ATOM     36  C   UNL A   1      34.431  30.511  27.911  1.00  0.00     0.002 C 
BRANCH  36  37
ATOM     37  C   UNL A   1      33.132  31.269  27.626  1.00  0.00     0.021 C 
BRANCH  37  38
ATOM     38  C   UNL A   1      33.295  32.598  26.900  1.00  0.00     0.116 C 
BRANCH  38  39
ATOM     39  N   UNL A   1      32.722  33.718  27.626  1.00  0.00    -0.352 N 
ATOM     40  C   UNL A   1      33.194  34.350  28.754  1.00  0.00     0.251 C 
ATOM     41  H   UNL A   1      31.880  34.074  27.261  1.00  0.00     0.163 HD
ATOM     42  O   UNL A   1      32.528  35.214  29.307  1.00  0.00    -0.269 OA
BRANCH  40  43
ATOM     43  C   UNL A   1      34.495  33.936  29.328  1.00  0.00     0.039 A 
ATOM     44  C   UNL A   1      35.699  34.258  28.694  1.00  0.00     0.014 A 
ATOM     45  C   UNL A   1      34.497  33.168  30.494  1.00  0.00     0.014 A 
ATOM     46  C   UNL A   1      36.884  33.670  29.129  1.00  0.00     0.010 A 
ATOM     47  C   UNL A   1      35.699  32.637  30.970  1.00  0.00     0.010 A 
ATOM     48  C   UNL A   1      36.892  32.836  30.258  1.00  0.00    -0.014 A 
BRANCH  48  49
ATOM     49  C   UNL A   1      38.135  32.123  30.655  1.00  0.00     0.031 A 
ATOM     50  C   UNL A   1      39.021  32.698  31.730  1.00  0.00     0.074 A 
ATOM     51  C   UNL A   1      38.459  30.954  30.072  1.00  0.00     0.049 A 
ATOM     52  N   UNL A   1      40.187  32.279  32.155  1.00  0.00    -0.248 NA
ATOM     53  C   UNL A   1      38.533  33.904  32.418  1.00  0.00     0.031 C 
ATOM     54  C   UNL A   1      37.672  30.274  29.042  1.00  0.00     0.029 A 
ATOM     55  N   UNL A   1      39.540  30.131  30.263  1.00  0.00    -0.354 N 
ATOM     56  C   UNL A   1      40.586  33.187  33.130  1.00  0.00     0.074 A 
ATOM     57  C   UNL A   1      39.545  34.187  33.228  1.00  0.00     0.031 C 
ATOM     58  C   UNL A   1      38.287  29.129  28.707  1.00  0.00     0.029 A 
ATOM     59  C   UNL A   1      39.537  29.025  29.450  1.00  0.00     0.049 A 
ATOM     60  H   UNL A   1      40.249  30.315  30.922  1.00  0.00     0.167 HD
ATOM     61  C   UNL A   1      41.714  33.183  33.879  1.00  0.00     0.037 A 
ATOM     62  C   UNL A   1      40.457  28.053  29.296  1.00  0.00     0.037 A 
ATOM     63  C   UNL A   1      42.734  32.170  33.806  1.00  0.00     0.049 A 
ATOM     64  C   UNL A   1      41.722  28.100  30.106  1.00  0.00     0.074 A 
ATOM     65  C   UNL A   1      43.905  32.070  34.539  1.00  0.00     0.029 A 
ATOM     66  N   UNL A   1      42.703  31.080  32.952  1.00  0.00    -0.354 N 
ATOM     67  N   UNL A   1      42.087  28.965  31.021  1.00  0.00    -0.248 NA
ATOM     68  C   UNL A   1      42.709  27.041  29.853  1.00  0.00     0.031 C 
ATOM     69  C   UNL A   1      44.596  30.935  34.106  1.00  0.00     0.029 A 
ATOM     70  C   UNL A   1      43.839  30.308  33.130  1.00  0.00     0.049 A 
ATOM     71  H   UNL A   1      41.980  30.883  32.313  1.00  0.00     0.167 HD
ATOM     72  C   UNL A   1      43.330  28.541  31.470  1.00  0.00     0.074 A 
ATOM     73  C   UNL A   1      43.654  27.336  30.736  1.00  0.00     0.031 C 
ATOM     74  C   UNL A   1      44.133  29.100  32.406  1.00  0.00     0.037 A 
BRANCH  61  75
ATOM     75  C   UNL A   1      41.917  34.319  34.836  1.00  0.00     0.057 A 
ATOM     76  C   UNL A   1      41.479  34.218  36.163  1.00  0.00     0.134 A 
ATOM     77  C   UNL A   1      42.495  35.531  34.436  1.00  0.00     0.134 A 
ATOM     78  F   UNL A   1      40.912  33.087  36.609  1.00  0.00    -0.206 F 
ATOM     79  C   UNL A   1      41.604  35.283  37.057  1.00  0.00     0.040 A 
ATOM     80  C   UNL A   1      42.643  36.596  35.327  1.00  0.00     0.040 A 
ATOM     81  F   UNL A   1      42.948  35.686  33.183  1.00  0.00    -0.206 F 
ATOM     82  C   UNL A   1      42.191  36.476  36.639  1.00  0.00     0.006 A 
ENDBRANCH  61  75
BRANCH  62  83
ATOM     83  C   UNL A   1      40.234  26.965  28.312  1.00  0.00     0.057 A 
ATOM     84  C   UNL A   1      40.821  27.001  27.041  1.00  0.00     0.134 A 
ATOM     85  C   UNL A   1      39.451  25.849  28.631  1.00  0.00     0.134 A 
ATOM     86  F   UNL A   1      41.580  28.044  26.676  1.00  0.00    -0.206 F 
ATOM     87  C   UNL A   1      40.634  25.969  26.121  1.00  0.00     0.040 A 
ATOM     88  C   UNL A   1      39.278  24.798  27.731  1.00  0.00     0.040 A 
ATOM     89  F   UNL A   1      38.882  25.749  29.841  1.00  0.00    -0.206 F 
ATOM     90  C   UNL A   1      39.868  24.858  26.469  1.00  0.00     0.006 A 
ENDBRANCH  62  83
BRANCH  74  91
ATOM     91  C   UNL A   1      45.412  28.388  32.726  1.00  0.00     0.057 A 
ATOM     92  C   UNL A   1      46.585  28.683  32.021  1.00  0.00     0.134 A 
ATOM     93  C   UNL A   1      45.474  27.384  33.699  1.00  0.00     0.134 A 
ATOM     94  F   UNL A   1      46.589  29.631  31.071  1.00  0.00    -0.206 F 
ATOM     95  C   UNL A   1      47.775  28.000  32.269  1.00  0.00     0.040 A 
ATOM     96  C   UNL A   1      46.664  26.709  33.972  1.00  0.00     0.040 A 
ATOM     97  F   UNL A   1      44.386  27.067  34.419  1.00  0.00    -0.206 F 
ATOM     98  C   UNL A   1      47.817  27.011  33.250  1.00  0.00     0.006 A 
ENDBRANCH  74  91
ENDBRANCH  48  49
ENDBRANCH  40  43
ENDBRANCH  38  39
ENDBRANCH  37  38
ENDBRANCH  36  37
ENDBRANCH   1  36
TORSDOF 18
ENDMDL
