MODEL 1
REMARK VINA RESULT:     -11.8      0.000      0.000
REMARK SMILES COc1ccc(F)c(NC(=O)N2CCCC[C@@H]2C(=O)NCCCCCCNC(=O)c2ccc(-c3c4nc(c(-c5c(F)cccc5F)c5ccc([nH]5)c(-c5c(F)cccc5F)c5nc(c(-c6c(F)cccc6F)c6ccc3[nH]6)C=C5)C=C4)cc2)c1
REMARK SMILES IDX 23 1 22 2 21 3 20 4 18 5 19 6 17 8 12 9 13 10 14 11 16 12
REMARK SMILES IDX 15 13 10 14 9 15 11 17 8 18 3 19 4 20 84 21 5 22 6 23 7 24
REMARK SMILES IDX 2 25 1 26 24 27 25 28 26 29 27 30 28 31 29 33 30 34 31 35
REMARK SMILES IDX 83 36 32 37 82 38 33 39 34 40 35 41 76 42 36 43 81 44 75 45
REMARK SMILES IDX 77 46 37 47 80 48 74 49 73 50 38 52 64 53 47 54 63 55 48 56
REMARK SMILES IDX 51 57 62 58 78 59 49 60 50 61 61 63 79 64 52 65 39 66 40 67
REMARK SMILES IDX 45 68 41 69 42 70 44 71 46 72 43 73 65 74 66 75 71 76 67 77
REMARK SMILES IDX 68 78 70 79 72 80 69 81 53 82 54 83 59 84 55 85 56 86 58 87
REMARK SMILES IDX 60 88 57 89
REMARK H PARENT 20 7 9 16 27 32 77 51 51 62
REMARK Flexibility Score: inf
ROOT
ATOM      1  C   UNL A   1      32.374  29.777  27.138  1.00  0.00     0.002 C 
ENDROOT
BRANCH   1   2
ATOM      2  C   UNL A   1      31.527  28.567  27.553  1.00  0.00     0.021 C 
BRANCH   2   3
ATOM      3  C   UNL A   1      31.378  27.531  26.438  1.00  0.00     0.116 C 
BRANCH   3   4
ATOM      4  N   UNL A   1      31.411  26.209  27.027  1.00  0.00    -0.354 N 
ATOM      5  C   UNL A   1      31.828  25.047  26.456  1.00  0.00     0.242 C 
ATOM      6  O   UNL A   1      31.309  23.999  26.853  1.00  0.00    -0.273 OA
ATOM      7  H   UNL A   1      31.091  26.144  27.956  1.00  0.00     0.163 HD
BRANCH   5   8
ATOM      8  C   UNL A   1      32.818  25.050  25.273  1.00  0.00     0.176 C 
ATOM      9  N   UNL A   1      32.364  24.303  24.064  1.00  0.00    -0.313 N 
ATOM     10  C   UNL A   1      33.376  24.002  23.056  1.00  0.00     0.122 C 
ATOM     11  C   UNL A   1      34.664  23.446  23.634  1.00  0.00     0.022 C 
ATOM     12  C   UNL A   1      34.187  24.565  25.805  1.00  0.00     0.035 C 
ATOM     13  C   UNL A   1      35.214  24.383  24.697  1.00  0.00     0.004 C 
BRANCH   9  14
ATOM     14  C   UNL A   1      31.063  24.090  23.654  1.00  0.00     0.322 C 
ATOM     15  N   UNL A   1      30.158  25.088  23.531  1.00  0.00    -0.305 N 
ATOM     16  H   UNL A   1      29.230  24.793  23.681  1.00  0.00     0.171 HD
ATOM     17  O   UNL A   1      30.653  22.941  23.453  1.00  0.00    -0.248 OA
BRANCH  15  18
ATOM     18  C   UNL A   1      30.265  26.457  23.235  1.00  0.00     0.082 A 
ATOM     19  C   UNL A   1      31.537  28.433  22.742  1.00  0.00     0.121 A 
ATOM     20  C   UNL A   1      30.440  29.245  23.025  1.00  0.00     0.049 A 
ATOM     21  C   UNL A   1      31.420  27.045  22.736  1.00  0.00     0.075 A 
ATOM     22  C   UNL A   1      29.224  28.654  23.359  1.00  0.00     0.045 A 
ATOM     23  C   UNL A   1      29.150  27.268  23.477  1.00  0.00     0.147 A 
ATOM     24  F   UNL A   1      27.995  26.711  23.876  1.00  0.00    -0.205 F 
BRANCH  19  25
ATOM     25  O   UNL A   1      32.779  28.960  22.502  1.00  0.00    -0.497 OA
ATOM     26  C   UNL A   1      33.684  28.587  23.549  1.00  0.00     0.278 C 
ENDBRANCH  19  25
ENDBRANCH  15  18
ENDBRANCH   9  14
ENDBRANCH   5   8
ENDBRANCH   3   4
ENDBRANCH   2   3
ENDBRANCH   1   2
BRANCH   1  27
ATOM     27  C   UNL A   1      31.680  30.716  26.146  1.00  0.00     0.002 C 
BRANCH  27  28
ATOM     28  C   UNL A   1      31.421  32.121  26.692  1.00  0.00     0.021 C 
BRANCH  28  29
ATOM     29  C   UNL A   1      32.662  32.798  27.260  1.00  0.00     0.116 C 
BRANCH  29  30
ATOM     30  N   UNL A   1      32.417  34.199  27.561  1.00  0.00    -0.352 N 
ATOM     31  C   UNL A   1      32.969  34.972  28.550  1.00  0.00     0.251 C 
ATOM     32  H   UNL A   1      31.769  34.653  26.977  1.00  0.00     0.163 HD
ATOM     33  O   UNL A   1      32.500  36.071  28.820  1.00  0.00    -0.269 OA
BRANCH  31  34
ATOM     34  C   UNL A   1      34.130  34.455  29.298  1.00  0.00     0.039 A 
ATOM     35  C   UNL A   1      33.917  33.814  30.520  1.00  0.00     0.014 A 
ATOM     36  C   UNL A   1      35.423  34.593  28.784  1.00  0.00     0.014 A 
ATOM     37  C   UNL A   1      35.001  33.265  31.204  1.00  0.00     0.010 A 
ATOM     38  C   UNL A   1      36.490  33.978  29.427  1.00  0.00     0.010 A 
ATOM     39  C   UNL A   1      36.291  33.316  30.647  1.00  0.00    -0.014 A 
BRANCH  39  40
ATOM     40  C   UNL A   1      37.444  32.683  31.330  1.00  0.00     0.031 A 
ATOM     41  C   UNL A   1      38.123  31.491  30.716  1.00  0.00     0.074 A 
ATOM     42  C   UNL A   1      37.847  33.151  32.526  1.00  0.00     0.049 A 
ATOM     43  N   UNL A   1      39.109  30.771  31.186  1.00  0.00    -0.248 NA
ATOM     44  C   UNL A   1      37.614  31.033  29.412  1.00  0.00     0.031 C 
ATOM     45  C   UNL A   1      37.241  34.277  33.240  1.00  0.00     0.029 A 
ATOM     46  N   UNL A   1      38.859  32.738  33.356  1.00  0.00    -0.354 N 
ATOM     47  C   UNL A   1      39.331  29.775  30.244  1.00  0.00     0.074 A 
ATOM     48  C   UNL A   1      38.341  29.945  29.205  1.00  0.00     0.031 C 
ATOM     49  C   UNL A   1      37.912  34.485  34.383  1.00  0.00     0.029 A 
ATOM     50  C   UNL A   1      38.968  33.483  34.505  1.00  0.00     0.049 A 
ATOM     51  H   UNL A   1      39.450  31.979  33.147  1.00  0.00     0.167 HD
ATOM     52  C   UNL A   1      40.292  28.821  30.236  1.00  0.00     0.037 A 
ATOM     53  C   UNL A   1      39.818  33.369  35.543  1.00  0.00     0.037 A 
ATOM     54  C   UNL A   1      41.289  28.674  31.262  1.00  0.00     0.049 A 
ATOM     55  C   UNL A   1      40.862  32.289  35.521  1.00  0.00     0.074 A 
ATOM     56  C   UNL A   1      42.337  27.772  31.317  1.00  0.00     0.029 A 
ATOM     57  N   UNL A   1      41.362  29.444  32.413  1.00  0.00    -0.354 N 
ATOM     58  N   UNL A   1      41.095  31.387  34.599  1.00  0.00    -0.248 NA
ATOM     59  C   UNL A   1      41.763  32.209  36.679  1.00  0.00     0.031 C 
ATOM     60  C   UNL A   1      43.011  27.961  32.525  1.00  0.00     0.029 A 
ATOM     61  C   UNL A   1      42.422  29.020  33.197  1.00  0.00     0.049 A 
ATOM     62  H   UNL A   1      40.751  30.183  32.638  1.00  0.00     0.167 HD
ATOM     63  C   UNL A   1      42.181  30.650  35.051  1.00  0.00     0.074 A 
ATOM     64  C   UNL A   1      42.569  31.217  36.326  1.00  0.00     0.031 C 
ATOM     65  C   UNL A   1      42.800  29.597  34.462  1.00  0.00     0.037 A 
BRANCH  52  66
ATOM     66  C   UNL A   1      40.326  27.871  29.074  1.00  0.00     0.057 A 
ATOM     67  C   UNL A   1      39.647  26.648  29.132  1.00  0.00     0.134 A 
ATOM     68  C   UNL A   1      41.087  28.134  27.928  1.00  0.00     0.134 A 
ATOM     69  F   UNL A   1      38.904  26.328  30.203  1.00  0.00    -0.206 F 
ATOM     70  C   UNL A   1      39.737  25.714  28.098  1.00  0.00     0.040 A 
ATOM     71  C   UNL A   1      41.160  27.222  26.875  1.00  0.00     0.040 A 
ATOM     72  F   UNL A   1      41.751  29.293  27.804  1.00  0.00    -0.206 F 
ATOM     73  C   UNL A   1      40.492  26.002  26.963  1.00  0.00     0.006 A 
ENDBRANCH  52  66
BRANCH  53  74
ATOM     74  C   UNL A   1      39.730  34.332  36.671  1.00  0.00     0.057 A 
ATOM     75  C   UNL A   1      40.423  35.549  36.652  1.00  0.00     0.134 A 
ATOM     76  C   UNL A   1      38.977  34.036  37.812  1.00  0.00     0.134 A 
ATOM     77  F   UNL A   1      41.169  35.887  35.590  1.00  0.00    -0.206 F 
ATOM     78  C   UNL A   1      40.387  36.427  37.736  1.00  0.00     0.040 A 
ATOM     79  C   UNL A   1      38.912  34.916  38.894  1.00  0.00     0.040 A 
ATOM     80  F   UNL A   1      38.280  32.893  37.884  1.00  0.00    -0.206 F 
ATOM     81  C   UNL A   1      39.626  36.112  38.861  1.00  0.00     0.006 A 
ENDBRANCH  53  74
BRANCH  65  82
ATOM     82  C   UNL A   1      43.979  28.995  35.169  1.00  0.00     0.057 A 
ATOM     83  C   UNL A   1      45.282  29.412  34.864  1.00  0.00     0.134 A 
ATOM     84  C   UNL A   1      43.833  27.942  36.080  1.00  0.00     0.134 A 
ATOM     85  F   UNL A   1      45.492  30.407  33.990  1.00  0.00    -0.206 F 
ATOM     86  C   UNL A   1      46.397  28.788  35.425  1.00  0.00     0.040 A 
ATOM     87  C   UNL A   1      44.940  27.330  36.669  1.00  0.00     0.040 A 
ATOM     88  F   UNL A   1      42.612  27.502  36.422  1.00  0.00    -0.206 F 
ATOM     89  C   UNL A   1      46.227  27.746  36.332  1.00  0.00     0.006 A 
ENDBRANCH  65  82
ENDBRANCH  39  40
ENDBRANCH  31  34
ENDBRANCH  29  30
ENDBRANCH  28  29
ENDBRANCH  27  28
ENDBRANCH   1  27
TORSDOF 16
ENDMDL
MODEL 2
REMARK VINA RESULT:     -11.8      0.576      6.013
REMARK SMILES COc1ccc(F)c(NC(=O)N2CCCC[C@@H]2C(=O)NCCCCCCNC(=O)c2ccc(-c3c4nc(c(-c5c(F)cccc5F)c5ccc([nH]5)c(-c5c(F)cccc5F)c5nc(c(-c6c(F)cccc6F)c6ccc3[nH]6)C=C5)C=C4)cc2)c1
REMARK SMILES IDX 23 1 22 2 21 3 20 4 18 5 19 6 17 8 12 9 13 10 14 11 16 12
REMARK SMILES IDX 15 13 10 14 9 15 11 17 8 18 3 19 4 20 84 21 5 22 6 23 7 24
REMARK SMILES IDX 2 25 1 26 24 27 25 28 26 29 27 30 28 31 29 33 30 34 31 35
REMARK SMILES IDX 83 36 32 37 82 38 33 39 34 40 35 41 76 42 36 43 81 44 75 45
REMARK SMILES IDX 77 46 37 47 80 48 74 49 73 50 38 52 64 53 47 54 63 55 48 56
REMARK SMILES IDX 51 57 62 58 78 59 49 60 50 61 61 63 79 64 52 65 39 66 40 67
REMARK SMILES IDX 45 68 41 69 42 70 44 71 46 72 43 73 65 74 66 75 71 76 67 77
REMARK SMILES IDX 68 78 70 79 72 80 69 81 53 82 54 83 59 84 55 85 56 86 58 87
REMARK SMILES IDX 60 88 57 89
REMARK H PARENT 20 7 9 16 27 32 77 51 51 62
REMARK Flexibility Score: inf
ROOT
ATOM      1  C   UNL A   1      32.375  29.834  27.142  1.00  0.00     0.002 C 
ENDROOT
BRANCH   1   2
ATOM      2  C   UNL A   1      31.698  28.540  27.614  1.00  0.00     0.021 C 
BRANCH   2   3
ATOM      3  C   UNL A   1      31.438  27.552  26.476  1.00  0.00     0.116 C 
BRANCH   3   4
ATOM      4  N   UNL A   1      31.412  26.213  27.024  1.00  0.00    -0.354 N 
ATOM      5  C   UNL A   1      31.791  25.053  26.422  1.00  0.00     0.242 C 
ATOM      6  O   UNL A   1      31.227  24.014  26.780  1.00  0.00    -0.273 OA
ATOM      7  H   UNL A   1      31.077  26.131  27.946  1.00  0.00     0.163 HD
BRANCH   5   8
ATOM      8  C   UNL A   1      32.797  25.054  25.252  1.00  0.00     0.176 C 
ATOM      9  N   UNL A   1      32.357  24.307  24.037  1.00  0.00    -0.313 N 
ATOM     10  C   UNL A   1      33.382  24.004  23.043  1.00  0.00     0.122 C 
ATOM     11  C   UNL A   1      34.662  23.446  23.638  1.00  0.00     0.022 C 
ATOM     12  C   UNL A   1      34.158  24.566  25.803  1.00  0.00     0.035 C 
ATOM     13  C   UNL A   1      35.199  24.382  24.708  1.00  0.00     0.004 C 
BRANCH   9  14
ATOM     14  C   UNL A   1      31.062  24.097  23.611  1.00  0.00     0.322 C 
ATOM     15  N   UNL A   1      30.156  25.095  23.488  1.00  0.00    -0.305 N 
ATOM     16  H   UNL A   1      29.227  24.797  23.624  1.00  0.00     0.171 HD
ATOM     17  O   UNL A   1      30.655  22.949  23.392  1.00  0.00    -0.248 OA
BRANCH  15  18
ATOM     18  C   UNL A   1      30.264  26.467  23.208  1.00  0.00     0.082 A 
ATOM     19  C   UNL A   1      31.537  28.446  22.725  1.00  0.00     0.121 A 
ATOM     20  C   UNL A   1      30.446  29.257  23.032  1.00  0.00     0.049 A 
ATOM     21  C   UNL A   1      31.415  27.058  22.703  1.00  0.00     0.075 A 
ATOM     22  C   UNL A   1      29.232  28.665  23.373  1.00  0.00     0.045 A 
ATOM     23  C   UNL A   1      29.155  27.279  23.474  1.00  0.00     0.147 A 
ATOM     24  F   UNL A   1      28.003  26.721  23.880  1.00  0.00    -0.205 F 
BRANCH  19  25
ATOM     25  O   UNL A   1      32.777  28.971  22.477  1.00  0.00    -0.497 OA
ATOM     26  C   UNL A   1      33.782  28.207  23.156  1.00  0.00     0.278 C 
ENDBRANCH  19  25
ENDBRANCH  15  18
ENDBRANCH   9  14
ENDBRANCH   5   8
ENDBRANCH   3   4
ENDBRANCH   2   3
ENDBRANCH   1   2
BRANCH   1  27
ATOM     27  C   UNL A   1      31.543  30.648  26.145  1.00  0.00     0.002 C 
BRANCH  27  28
ATOM     28  C   UNL A   1      31.408  32.128  26.506  1.00  0.00     0.021 C 
BRANCH  28  29
ATOM     29  C   UNL A   1      32.617  32.694  27.240  1.00  0.00     0.116 C 
BRANCH  29  30
ATOM     30  N   UNL A   1      32.406  34.079  27.632  1.00  0.00    -0.352 N 
ATOM     31  C   UNL A   1      33.012  34.787  28.637  1.00  0.00     0.251 C 
ATOM     32  H   UNL A   1      31.738  34.573  27.105  1.00  0.00     0.163 HD
ATOM     33  O   UNL A   1      32.571  35.873  28.990  1.00  0.00    -0.269 OA
BRANCH  31  34
ATOM     34  C   UNL A   1      34.199  34.213  29.300  1.00  0.00     0.039 A 
ATOM     35  C   UNL A   1      34.020  33.393  30.415  1.00  0.00     0.014 A 
ATOM     36  C   UNL A   1      35.482  34.479  28.809  1.00  0.00     0.014 A 
ATOM     37  C   UNL A   1      35.131  32.796  31.010  1.00  0.00     0.010 A 
ATOM     38  C   UNL A   1      36.577  33.821  29.354  1.00  0.00     0.010 A 
ATOM     39  C   UNL A   1      36.414  32.980  30.465  1.00  0.00    -0.014 A 
BRANCH  39  40
ATOM     40  C   UNL A   1      37.597  32.302  31.047  1.00  0.00     0.031 A 
ATOM     41  C   UNL A   1      38.220  32.826  32.310  1.00  0.00     0.074 A 
ATOM     42  C   UNL A   1      38.139  31.247  30.410  1.00  0.00     0.049 A 
ATOM     43  N   UNL A   1      39.287  32.404  32.939  1.00  0.00    -0.248 NA
ATOM     44  C   UNL A   1      37.576  33.992  32.937  1.00  0.00     0.031 C 
ATOM     45  C   UNL A   1      37.645  30.674  29.156  1.00  0.00     0.029 A 
ATOM     46  N   UNL A   1      39.225  30.470  30.726  1.00  0.00    -0.354 N 
ATOM     47  C   UNL A   1      39.444  33.253  34.027  1.00  0.00     0.074 A 
ATOM     48  C   UNL A   1      38.402  34.251  33.941  1.00  0.00     0.031 C 
ATOM     49  C   UNL A   1      38.404  29.617  28.828  1.00  0.00     0.029 A 
ATOM     50  C   UNL A   1      39.463  29.464  29.822  1.00  0.00     0.049 A 
ATOM     51  H   UNL A   1      39.779  30.620  31.525  1.00  0.00     0.167 HD
ATOM     52  C   UNL A   1      40.360  33.189  35.021  1.00  0.00     0.037 A 
ATOM     53  C   UNL A   1      40.431  28.527  29.792  1.00  0.00     0.037 A 
ATOM     54  C   UNL A   1      41.380  32.178  35.113  1.00  0.00     0.049 A 
ATOM     55  C   UNL A   1      41.449  28.490  30.896  1.00  0.00     0.074 A 
ATOM     56  C   UNL A   1      42.322  31.997  36.110  1.00  0.00     0.029 A 
ATOM     57  N   UNL A   1      41.594  31.180  34.173  1.00  0.00    -0.354 N 
ATOM     58  N   UNL A   1      41.554  29.266  31.947  1.00  0.00    -0.248 NA
ATOM     59  C   UNL A   1      42.482  27.448  30.814  1.00  0.00     0.031 C 
ATOM     60  C   UNL A   1      43.139  30.924  35.749  1.00  0.00     0.029 A 
ATOM     61  C   UNL A   1      42.670  30.397  34.556  1.00  0.00     0.049 A 
ATOM     62  H   UNL A   1      41.059  31.048  33.357  1.00  0.00     0.167 HD
ATOM     63  C   UNL A   1      42.646  28.794  32.663  1.00  0.00     0.074 A 
ATOM     64  C   UNL A   1      43.164  27.655  31.933  1.00  0.00     0.031 C 
ATOM     65  C   UNL A   1      43.171  29.262  33.821  1.00  0.00     0.037 A 
BRANCH  52  66
ATOM     66  C   UNL A   1      40.295  34.229  36.102  1.00  0.00     0.057 A 
ATOM     67  C   UNL A   1      39.526  34.016  37.252  1.00  0.00     0.134 A 
ATOM     68  C   UNL A   1      40.935  35.468  35.972  1.00  0.00     0.134 A 
ATOM     69  F   UNL A   1      38.881  32.854  37.438  1.00  0.00    -0.206 F 
ATOM     70  C   UNL A   1      39.384  35.005  38.228  1.00  0.00     0.040 A 
ATOM     71  C   UNL A   1      40.825  36.453  36.954  1.00  0.00     0.040 A 
ATOM     72  F   UNL A   1      41.697  35.731  34.900  1.00  0.00    -0.206 F 
ATOM     73  C   UNL A   1      40.037  36.226  38.082  1.00  0.00     0.006 A 
ENDBRANCH  52  66
BRANCH  53  74
ATOM     74  C   UNL A   1      40.451  27.530  28.692  1.00  0.00     0.057 A 
ATOM     75  C   UNL A   1      41.230  27.720  27.544  1.00  0.00     0.134 A 
ATOM     76  C   UNL A   1      39.659  26.378  28.750  1.00  0.00     0.134 A 
ATOM     77  F   UNL A   1      42.004  28.809  27.423  1.00  0.00    -0.206 F 
ATOM     78  C   UNL A   1      41.205  26.812  26.484  1.00  0.00     0.040 A 
ATOM     79  C   UNL A   1      39.644  25.448  27.709  1.00  0.00     0.040 A 
ATOM     80  F   UNL A   1      38.904  26.132  29.830  1.00  0.00    -0.206 F 
ATOM     81  C   UNL A   1      40.412  25.669  26.568  1.00  0.00     0.006 A 
ENDBRANCH  53  74
BRANCH  65  82
ATOM     82  C   UNL A   1      44.355  28.540  34.396  1.00  0.00     0.057 A 
ATOM     83  C   UNL A   1      45.658  28.904  34.032  1.00  0.00     0.134 A 
ATOM     84  C   UNL A   1      44.203  27.428  35.234  1.00  0.00     0.134 A 
ATOM     85  F   UNL A   1      45.872  29.952  33.222  1.00  0.00    -0.206 F 
ATOM     86  C   UNL A   1      46.767  28.176  34.465  1.00  0.00     0.040 A 
ATOM     87  C   UNL A   1      45.307  26.710  35.697  1.00  0.00     0.040 A 
ATOM     88  F   UNL A   1      42.983  27.033  35.628  1.00  0.00    -0.206 F 
ATOM     89  C   UNL A   1      46.592  27.077  35.302  1.00  0.00     0.006 A 
ENDBRANCH  65  82
ENDBRANCH  39  40
ENDBRANCH  31  34
ENDBRANCH  29  30
ENDBRANCH  28  29
ENDBRANCH  27  28
ENDBRANCH   1  27
TORSDOF 16
ENDMDL
MODEL 3
REMARK VINA RESULT:     -11.8      5.034      9.307
REMARK SMILES COc1ccc(F)c(NC(=O)N2CCCC[C@@H]2C(=O)NCCCCCCNC(=O)c2ccc(-c3c4nc(c(-c5c(F)cccc5F)c5ccc([nH]5)c(-c5c(F)cccc5F)c5nc(c(-c6c(F)cccc6F)c6ccc3[nH]6)C=C5)C=C4)cc2)c1
REMARK SMILES IDX 23 1 22 2 21 3 20 4 18 5 19 6 17 8 12 9 13 10 14 11 16 12
REMARK SMILES IDX 15 13 10 14 9 15 11 17 8 18 3 19 4 20 84 21 5 22 6 23 7 24
REMARK SMILES IDX 2 25 1 26 24 27 25 28 26 29 27 30 28 31 29 33 30 34 31 35
REMARK SMILES IDX 83 36 32 37 82 38 33 39 34 40 35 41 76 42 36 43 81 44 75 45
REMARK SMILES IDX 77 46 37 47 80 48 74 49 73 50 38 52 64 53 47 54 63 55 48 56
REMARK SMILES IDX 51 57 62 58 78 59 49 60 50 61 61 63 79 64 52 65 39 66 40 67
REMARK SMILES IDX 45 68 41 69 42 70 44 71 46 72 43 73 65 74 66 75 71 76 67 77
REMARK SMILES IDX 68 78 70 79 72 80 69 81 53 82 54 83 59 84 55 85 56 86 58 87
REMARK SMILES IDX 60 88 57 89
REMARK H PARENT 20 7 9 16 27 32 77 51 51 62
REMARK Flexibility Score: inf
ROOT
ATOM      1  C   UNL A   1      37.395  22.038  24.561  1.00  0.00     0.002 C 
ENDROOT
BRANCH   1   2
ATOM      2  C   UNL A   1      37.560  23.015  25.733  1.00  0.00     0.021 C 
BRANCH   2   3
ATOM      3  C   UNL A   1      36.319  23.876  25.973  1.00  0.00     0.116 C 
BRANCH   3   4
ATOM      4  N   UNL A   1      35.373  23.114  26.761  1.00  0.00    -0.354 N 
ATOM      5  C   UNL A   1      34.021  23.061  26.627  1.00  0.00     0.242 C 
ATOM      6  O   UNL A   1      33.356  22.833  27.642  1.00  0.00    -0.273 OA
ATOM      7  H   UNL A   1      35.757  22.567  27.484  1.00  0.00     0.163 HD
BRANCH   5   8
ATOM      8  C   UNL A   1      33.339  23.396  25.283  1.00  0.00     0.176 C 
ATOM      9  N   UNL A   1      31.889  23.734  25.376  1.00  0.00    -0.313 N 
ATOM     10  C   UNL A   1      31.133  23.739  24.127  1.00  0.00     0.122 C 
ATOM     11  C   UNL A   1      31.394  22.527  23.252  1.00  0.00     0.022 C 
ATOM     12  C   UNL A   1      33.629  22.233  24.306  1.00  0.00     0.035 C 
ATOM     13  C   UNL A   1      32.883  22.377  22.988  1.00  0.00     0.004 C 
BRANCH   9  14
ATOM     14  C   UNL A   1      31.229  24.297  26.449  1.00  0.00     0.322 C 
ATOM     15  N   UNL A   1      31.464  25.559  26.878  1.00  0.00    -0.305 N 
ATOM     16  H   UNL A   1      31.305  25.679  27.842  1.00  0.00     0.171 HD
ATOM     17  O   UNL A   1      30.436  23.623  27.118  1.00  0.00    -0.248 OA
BRANCH  15  18
ATOM     18  C   UNL A   1      31.887  26.733  26.234  1.00  0.00     0.082 A 
ATOM     19  C   UNL A   1      33.312  28.656  26.038  1.00  0.00     0.121 A 
ATOM     20  C   UNL A   1      32.434  29.251  25.133  1.00  0.00     0.049 A 
ATOM     21  C   UNL A   1      33.098  27.359  26.499  1.00  0.00     0.075 A 
ATOM     22  C   UNL A   1      31.299  28.552  24.727  1.00  0.00     0.045 A 
ATOM     23  C   UNL A   1      31.026  27.309  25.292  1.00  0.00     0.147 A 
ATOM     24  F   UNL A   1      29.890  26.679  24.955  1.00  0.00    -0.205 F 
BRANCH  19  25
ATOM     25  O   UNL A   1      34.391  29.332  26.543  1.00  0.00    -0.497 OA
ATOM     26  C   UNL A   1      33.954  30.500  27.251  1.00  0.00     0.278 C 
ENDBRANCH  19  25
ENDBRANCH  15  18
ENDBRANCH   9  14
ENDBRANCH   5   8
ENDBRANCH   3   4
ENDBRANCH   2   3
ENDBRANCH   1   2
BRANCH   1  27
ATOM     27  C   UNL A   1      37.008  20.617  24.982  1.00  0.00     0.002 C 
BRANCH  27  28
ATOM     28  C   UNL A   1      38.176  19.630  24.999  1.00  0.00     0.021 C 
BRANCH  28  29
ATOM     29  C   UNL A   1      39.233  19.948  26.049  1.00  0.00     0.116 C 
BRANCH  29  30
ATOM     30  N   UNL A   1      40.311  18.972  26.036  1.00  0.00    -0.352 N 
ATOM     31  C   UNL A   1      41.664  19.189  26.081  1.00  0.00     0.251 C 
ATOM     32  H   UNL A   1      40.032  18.030  25.990  1.00  0.00     0.163 HD
ATOM     33  O   UNL A   1      42.451  18.282  25.837  1.00  0.00    -0.269 OA
BRANCH  31  34
ATOM     34  C   UNL A   1      42.162  20.537  26.413  1.00  0.00     0.039 A 
ATOM     35  C   UNL A   1      42.468  21.419  25.376  1.00  0.00     0.014 A 
ATOM     36  C   UNL A   1      42.311  20.928  27.748  1.00  0.00     0.014 A 
ATOM     37  C   UNL A   1      42.879  22.717  25.680  1.00  0.00     0.010 A 
ATOM     38  C   UNL A   1      42.643  22.244  28.047  1.00  0.00     0.010 A 
ATOM     39  C   UNL A   1      42.939  23.148  27.016  1.00  0.00    -0.014 A 
BRANCH  39  40
ATOM     40  C   UNL A   1      43.312  24.542  27.355  1.00  0.00     0.031 A 
ATOM     41  C   UNL A   1      44.750  24.973  27.297  1.00  0.00     0.074 A 
ATOM     42  C   UNL A   1      42.362  25.405  27.762  1.00  0.00     0.049 A 
ATOM     43  N   UNL A   1      45.278  26.129  27.607  1.00  0.00    -0.248 NA
ATOM     44  C   UNL A   1      45.730  23.966  26.855  1.00  0.00     0.031 C 
ATOM     45  C   UNL A   1      40.938  25.090  27.896  1.00  0.00     0.029 A 
ATOM     46  N   UNL A   1      42.448  26.721  28.142  1.00  0.00    -0.354 N 
ATOM     47  C   UNL A   1      46.645  25.987  27.406  1.00  0.00     0.074 A 
ATOM     48  C   UNL A   1      46.874  24.617  27.005  1.00  0.00     0.031 C 
ATOM     49  C   UNL A   1      40.281  26.190  28.295  1.00  0.00     0.029 A 
ATOM     50  C   UNL A   1      41.240  27.275  28.487  1.00  0.00     0.049 A 
ATOM     51  H   UNL A   1      43.297  27.219  28.165  1.00  0.00     0.167 HD
ATOM     52  C   UNL A   1      47.616  26.923  27.519  1.00  0.00     0.037 A 
ATOM     53  C   UNL A   1      40.938  28.515  28.916  1.00  0.00     0.037 A 
ATOM     54  C   UNL A   1      47.376  28.291  27.895  1.00  0.00     0.049 A 
ATOM     55  C   UNL A   1      42.037  29.531  29.055  1.00  0.00     0.074 A 
ATOM     56  C   UNL A   1      48.287  29.327  27.987  1.00  0.00     0.029 A 
ATOM     57  N   UNL A   1      46.139  28.812  28.243  1.00  0.00    -0.354 N 
ATOM     58  N   UNL A   1      43.318  29.398  28.810  1.00  0.00    -0.248 NA
ATOM     59  C   UNL A   1      41.652  30.867  29.528  1.00  0.00     0.031 C 
ATOM     60  C   UNL A   1      47.613  30.462  28.442  1.00  0.00     0.029 A 
ATOM     61  C   UNL A   1      46.269  30.150  28.576  1.00  0.00     0.049 A 
ATOM     62  H   UNL A   1      45.295  28.306  28.252  1.00  0.00     0.167 HD
ATOM     63  C   UNL A   1      43.888  30.636  29.074  1.00  0.00     0.074 A 
ATOM     64  C   UNL A   1      42.811  31.512  29.487  1.00  0.00     0.031 C 
ATOM     65  C   UNL A   1      45.187  31.012  28.982  1.00  0.00     0.037 A 
BRANCH  52  66
ATOM     66  C   UNL A   1      49.027  26.508  27.218  1.00  0.00     0.057 A 
ATOM     67  C   UNL A   1      49.514  26.534  25.906  1.00  0.00     0.134 A 
ATOM     68  C   UNL A   1      49.879  26.016  28.215  1.00  0.00     0.134 A 
ATOM     69  F   UNL A   1      48.749  26.987  24.901  1.00  0.00    -0.206 F 
ATOM     70  C   UNL A   1      50.795  26.071  25.594  1.00  0.00     0.040 A 
ATOM     71  C   UNL A   1      51.171  25.579  27.920  1.00  0.00     0.040 A 
ATOM     72  F   UNL A   1      49.478  25.976  29.495  1.00  0.00    -0.206 F 
ATOM     73  C   UNL A   1      51.628  25.595  26.604  1.00  0.00     0.006 A 
ENDBRANCH  52  66
BRANCH  53  74
ATOM     74  C   UNL A   1      39.525  28.865  29.209  1.00  0.00     0.057 A 
ATOM     75  C   UNL A   1      38.971  28.677  30.481  1.00  0.00     0.134 A 
ATOM     76  C   UNL A   1      38.685  29.364  28.207  1.00  0.00     0.134 A 
ATOM     77  F   UNL A   1      39.722  28.194  31.482  1.00  0.00    -0.206 F 
ATOM     78  C   UNL A   1      37.628  28.951  30.742  1.00  0.00     0.040 A 
ATOM     79  C   UNL A   1      37.346  29.667  28.460  1.00  0.00     0.040 A 
ATOM     80  F   UNL A   1      39.161  29.581  26.973  1.00  0.00    -0.206 F 
ATOM     81  C   UNL A   1      36.812  29.452  29.728  1.00  0.00     0.006 A 
ENDBRANCH  53  74
BRANCH  65  82
ATOM     82  C   UNL A   1      45.528  32.436  29.309  1.00  0.00     0.057 A 
ATOM     83  C   UNL A   1      45.506  33.421  28.312  1.00  0.00     0.134 A 
ATOM     84  C   UNL A   1      45.965  32.815  30.584  1.00  0.00     0.134 A 
ATOM     85  F   UNL A   1      45.109  33.121  27.066  1.00  0.00    -0.206 F 
ATOM     86  C   UNL A   1      45.926  34.727  28.567  1.00  0.00     0.040 A 
ATOM     87  C   UNL A   1      46.361  34.125  30.858  1.00  0.00     0.040 A 
ATOM     88  F   UNL A   1      46.000  31.922  31.585  1.00  0.00    -0.206 F 
ATOM     89  C   UNL A   1      46.354  35.081  29.844  1.00  0.00     0.006 A 
ENDBRANCH  65  82
ENDBRANCH  39  40
ENDBRANCH  31  34
ENDBRANCH  29  30
ENDBRANCH  28  29
ENDBRANCH  27  28
ENDBRANCH   1  27
TORSDOF 16
ENDMDL
