MODEL 1
REMARK VINA RESULT:     -13.6      0.000      0.000
REMARK SMILES O=C(CCN1C(=O)[C@@H]2[C@@H](C1=O)[C@H]1c3ccccc3[C@]2(Br)c2ccccc21)NCCCCCCNC(=O)c1ccc(-c2c3nc(c(-c4c(F)cccc4F)c4ccc([nH]4)c(-c4c(F)cccc4F)c4nc(c(-c5c(F)cccc5F)c5ccc2[nH]5)C=C4)C=C3)cc1
REMARK SMILES IDX 30 1 29 2 28 3 27 4 1 5 2 6 3 8 4 9 5 10 6 11 10 12 7 13
REMARK SMILES IDX 8 14 9 15 11 16 19 17 12 18 21 19 20 20 18 21 26 22 13 23
REMARK SMILES IDX 22 24 17 25 25 26 14 27 23 28 16 29 24 30 15 31 31 32 32 33
REMARK SMILES IDX 33 34 34 35 35 36 36 38 37 39 38 40 90 41 39 42 89 43 40 44
REMARK SMILES IDX 41 45 42 46 83 47 43 48 88 49 82 50 84 51 44 52 87 53 81 54
REMARK SMILES IDX 80 55 45 57 71 58 54 59 70 60 55 61 58 62 69 63 85 64 56 65
REMARK SMILES IDX 57 66 68 68 86 69 59 70 46 71 47 72 52 73 48 74 49 75 51 76
REMARK SMILES IDX 53 77 50 78 72 79 73 80 78 81 74 82 75 83 77 84 79 85 76 86
REMARK SMILES IDX 60 87 61 88 66 89 62 90 63 91 65 92 67 93 64 94
REMARK H PARENT 27 7 34 37 84 56 58 67
REMARK Flexibility Score: inf
ROOT
ATOM      1  C   UNL A   1      37.378  23.307  25.298  1.00  0.00     0.002 C 
ENDROOT
BRANCH   1   2
ATOM      2  C   UNL A   1      36.050  23.648  25.982  1.00  0.00     0.021 C 
BRANCH   2   3
ATOM      3  C   UNL A   1      35.114  22.458  26.186  1.00  0.00     0.116 C 
BRANCH   3   4
ATOM      4  N   UNL A   1      34.072  22.433  25.182  1.00  0.00    -0.356 N 
ATOM      5  O   UNL A   1      34.271  20.216  24.602  1.00  0.00    -0.275 OA
ATOM      6  C   UNL A   1      33.696  21.293  24.515  1.00  0.00     0.221 C 
ATOM      7  H   UNL A   1      33.608  23.275  24.967  1.00  0.00     0.163 HD
BRANCH   6   8
ATOM      8  C   UNL A   1      32.471  21.491  23.653  1.00  0.00     0.122 C 
BRANCH   8   9
ATOM      9  C   UNL A   1      32.732  22.526  22.561  1.00  0.00     0.138 C 
BRANCH   9  10
ATOM     10  N   UNL A   1      32.276  23.872  22.898  1.00  0.00    -0.281 N 
ATOM     11  C   UNL A   1      32.853  25.044  22.394  1.00  0.00     0.235 C 
ATOM     12  C   UNL A   1      31.256  24.143  23.800  1.00  0.00     0.234 C 
ATOM     13  O   UNL A   1      33.660  25.149  21.496  1.00  0.00    -0.274 OA
ATOM     14  C   UNL A   1      32.381  26.113  23.335  1.00  0.00     0.118 C 
ATOM     15  C   UNL A   1      30.968  25.592  23.594  1.00  0.00     0.105 C 
ATOM     16  O   UNL A   1      30.617  23.359  24.478  1.00  0.00    -0.274 OA
ATOM     17  C   UNL A   1      32.336  27.658  23.283  1.00  0.00     0.088 C 
ATOM     18  C   UNL A   1      30.249  26.557  24.534  1.00  0.00     0.063 C 
ATOM     19  C   UNL A   1      32.322  27.959  24.808  1.00  0.00    -0.022 A 
ATOM     20  Br  UNL A   1      33.857  28.355  22.337  1.00  0.00    -0.074 Br
ATOM     21  C   UNL A   1      30.972  28.256  22.853  1.00  0.00    -0.022 A 
ATOM     22  C   UNL A   1      31.227  27.293  25.478  1.00  0.00    -0.035 A 
ATOM     23  C   UNL A   1      29.848  27.663  23.529  1.00  0.00    -0.035 A 
ATOM     24  C   UNL A   1      33.147  28.831  25.506  1.00  0.00     0.006 A 
ATOM     25  C   UNL A   1      30.761  29.429  22.133  1.00  0.00     0.006 A 
ATOM     26  C   UNL A   1      31.000  27.505  26.827  1.00  0.00     0.005 A 
ATOM     27  C   UNL A   1      28.553  28.148  23.377  1.00  0.00     0.005 A 
ATOM     28  C   UNL A   1      32.901  29.036  26.862  1.00  0.00     0.000 A 
ATOM     29  C   UNL A   1      29.465  29.945  22.029  1.00  0.00     0.000 A 
ATOM     30  C   UNL A   1      31.847  28.378  27.515  1.00  0.00     0.000 A 
ATOM     31  C   UNL A   1      28.368  29.296  22.612  1.00  0.00     0.000 A 
ENDBRANCH   9  10
ENDBRANCH   8   9
ENDBRANCH   6   8
ENDBRANCH   3   4
ENDBRANCH   2   3
ENDBRANCH   1   2
BRANCH   1  32
ATOM     32  C   UNL A   1      37.315  22.157  24.299  1.00  0.00     0.002 C 
BRANCH  32  33
ATOM     33  C   UNL A   1      37.734  20.791  24.829  1.00  0.00     0.021 C 
BRANCH  33  34
ATOM     34  C   UNL A   1      38.832  20.838  25.882  1.00  0.00     0.116 C 
BRANCH  34  35
ATOM     35  N   UNL A   1      39.797  19.746  25.773  1.00  0.00    -0.352 N 
ATOM     36  C   UNL A   1      41.157  19.761  26.001  1.00  0.00     0.251 C 
ATOM     37  H   UNL A   1      39.424  18.877  25.499  1.00  0.00     0.163 HD
ATOM     38  O   UNL A   1      41.861  18.792  25.738  1.00  0.00    -0.269 OA
BRANCH  36  39
ATOM     39  C   UNL A   1      41.763  20.989  26.544  1.00  0.00     0.039 A 
ATOM     40  C   UNL A   1      41.834  21.143  27.926  1.00  0.00     0.014 A 
ATOM     41  C   UNL A   1      42.171  22.015  25.688  1.00  0.00     0.014 A 
ATOM     42  C   UNL A   1      42.096  22.394  28.451  1.00  0.00     0.010 A 
ATOM     43  C   UNL A   1      42.568  23.241  26.231  1.00  0.00     0.010 A 
ATOM     44  C   UNL A   1      42.479  23.456  27.614  1.00  0.00    -0.014 A 
BRANCH  44  45
ATOM     45  C   UNL A   1      42.782  24.763  28.252  1.00  0.00     0.031 A 
ATOM     46  C   UNL A   1      44.196  25.174  28.555  1.00  0.00     0.074 A 
ATOM     47  C   UNL A   1      41.765  25.627  28.439  1.00  0.00     0.049 A 
ATOM     48  N   UNL A   1      44.640  26.320  29.006  1.00  0.00    -0.248 NA
ATOM     49  C   UNL A   1      45.250  24.173  28.327  1.00  0.00     0.031 C 
ATOM     50  C   UNL A   1      40.354  25.335  28.165  1.00  0.00     0.029 A 
ATOM     51  N   UNL A   1      41.759  26.935  28.843  1.00  0.00    -0.354 N 
ATOM     52  C   UNL A   1      46.017  26.176  29.129  1.00  0.00     0.074 A 
ATOM     53  C   UNL A   1      46.332  24.819  28.741  1.00  0.00     0.031 C 
ATOM     54  C   UNL A   1      39.634  26.455  28.321  1.00  0.00     0.029 A 
ATOM     55  C   UNL A   1      40.514  27.514  28.795  1.00  0.00     0.049 A 
ATOM     56  H   UNL A   1      42.567  27.413  29.140  1.00  0.00     0.167 HD
ATOM     57  C   UNL A   1      46.933  27.097  29.518  1.00  0.00     0.037 A 
ATOM     58  C   UNL A   1      40.120  28.760  29.111  1.00  0.00     0.037 A 
ATOM     59  C   UNL A   1      46.607  28.447  29.900  1.00  0.00     0.049 A 
ATOM     60  C   UNL A   1      41.149  29.735  29.600  1.00  0.00     0.074 A 
ATOM     61  C   UNL A   1      47.457  29.460  30.312  1.00  0.00     0.029 A 
ATOM     62  N   UNL A   1      45.322  28.973  29.923  1.00  0.00    -0.354 N 
ATOM     63  N   UNL A   1      42.448  29.586  29.705  1.00  0.00    -0.248 NA
ATOM     64  C   UNL A   1      40.656  31.049  30.026  1.00  0.00     0.031 C 
ATOM     65  C   UNL A   1      46.681  30.579  30.634  1.00  0.00     0.029 A 
ATOM     66  C   UNL A   1      45.354  30.286  30.365  1.00  0.00     0.049 A 
ATOM     67  H   UNL A   1      44.508  28.486  29.661  1.00  0.00     0.167 HD
ATOM     68  C   UNL A   1      42.929  30.792  30.191  1.00  0.00     0.074 A 
ATOM     69  C   UNL A   1      41.784  31.670  30.330  1.00  0.00     0.031 C 
ATOM     70  C   UNL A   1      44.202  31.142  30.501  1.00  0.00     0.037 A 
BRANCH  57  71
ATOM     71  C   UNL A   1      48.370  26.657  29.582  1.00  0.00     0.057 A 
ATOM     72  C   UNL A   1      49.250  26.934  28.528  1.00  0.00     0.134 A 
ATOM     73  C   UNL A   1      48.885  25.949  30.678  1.00  0.00     0.134 A 
ATOM     74  F   UNL A   1      48.824  27.600  27.442  1.00  0.00    -0.206 F 
ATOM     75  C   UNL A   1      50.586  26.532  28.562  1.00  0.00     0.040 A 
ATOM     76  C   UNL A   1      50.229  25.568  30.737  1.00  0.00     0.040 A 
ATOM     77  F   UNL A   1      48.104  25.659  31.729  1.00  0.00    -0.206 F 
ATOM     78  C   UNL A   1      51.081  25.855  29.674  1.00  0.00     0.006 A 
ENDBRANCH  57  71
BRANCH  58  79
ATOM     79  C   UNL A   1      38.688  29.141  29.010  1.00  0.00     0.057 A 
ATOM     80  C   UNL A   1      38.137  29.581  27.799  1.00  0.00     0.134 A 
ATOM     81  C   UNL A   1      37.831  29.052  30.113  1.00  0.00     0.134 A 
ATOM     82  F   UNL A   1      38.906  29.698  26.707  1.00  0.00    -0.206 F 
ATOM     83  C   UNL A   1      36.789  29.922  27.689  1.00  0.00     0.040 A 
ATOM     84  C   UNL A   1      36.472  29.357  30.009  1.00  0.00     0.040 A 
ATOM     85  F   UNL A   1      38.294  28.624  31.296  1.00  0.00    -0.206 F 
ATOM     86  C   UNL A   1      35.950  29.798  28.794  1.00  0.00     0.006 A 
ENDBRANCH  58  79
BRANCH  70  87
ATOM     87  C   UNL A   1      44.413  32.548  30.984  1.00  0.00     0.057 A 
ATOM     88  C   UNL A   1      44.654  33.585  30.072  1.00  0.00     0.134 A 
ATOM     89  C   UNL A   1      44.371  32.881  32.344  1.00  0.00     0.134 A 
ATOM     90  F   UNL A   1      44.714  33.334  28.756  1.00  0.00    -0.206 F 
ATOM     91  C   UNL A   1      44.838  34.900  30.497  1.00  0.00     0.040 A 
ATOM     92  C   UNL A   1      44.520  34.199  32.778  1.00  0.00     0.040 A 
ATOM     93  F   UNL A   1      44.126  31.939  33.268  1.00  0.00    -0.206 F 
ATOM     94  C   UNL A   1      44.759  35.213  31.852  1.00  0.00     0.006 A 
ENDBRANCH  70  87
ENDBRANCH  44  45
ENDBRANCH  36  39
ENDBRANCH  34  35
ENDBRANCH  33  34
ENDBRANCH  32  33
ENDBRANCH   1  32
TORSDOF 15
ENDMDL
MODEL 2
REMARK VINA RESULT:     -13.2      1.551      6.021
REMARK SMILES O=C(CCN1C(=O)[C@@H]2[C@@H](C1=O)[C@H]1c3ccccc3[C@]2(Br)c2ccccc21)NCCCCCCNC(=O)c1ccc(-c2c3nc(c(-c4c(F)cccc4F)c4ccc([nH]4)c(-c4c(F)cccc4F)c4nc(c(-c5c(F)cccc5F)c5ccc2[nH]5)C=C4)C=C3)cc1
REMARK SMILES IDX 30 1 29 2 28 3 27 4 1 5 2 6 3 8 4 9 5 10 6 11 10 12 7 13
REMARK SMILES IDX 8 14 9 15 11 16 19 17 12 18 21 19 20 20 18 21 26 22 13 23
REMARK SMILES IDX 22 24 17 25 25 26 14 27 23 28 16 29 24 30 15 31 31 32 32 33
REMARK SMILES IDX 33 34 34 35 35 36 36 38 37 39 38 40 90 41 39 42 89 43 40 44
REMARK SMILES IDX 41 45 42 46 83 47 43 48 88 49 82 50 84 51 44 52 87 53 81 54
REMARK SMILES IDX 80 55 45 57 71 58 54 59 70 60 55 61 58 62 69 63 85 64 56 65
REMARK SMILES IDX 57 66 68 68 86 69 59 70 46 71 47 72 52 73 48 74 49 75 51 76
REMARK SMILES IDX 53 77 50 78 72 79 73 80 78 81 74 82 75 83 77 84 79 85 76 86
REMARK SMILES IDX 60 87 61 88 66 89 62 90 63 91 65 92 67 93 64 94
REMARK H PARENT 27 7 34 37 84 56 58 67
REMARK Flexibility Score: inf
ROOT
ATOM      1  C   UNL A   1      37.540  22.553  25.582  1.00  0.00     0.002 C 
ENDROOT
BRANCH   1   2
ATOM      2  C   UNL A   1      36.221  23.209  25.998  1.00  0.00     0.021 C 
BRANCH   2   3
ATOM      3  C   UNL A   1      35.098  22.229  26.332  1.00  0.00     0.116 C 
BRANCH   3   4
ATOM      4  N   UNL A   1      34.060  22.260  25.324  1.00  0.00    -0.356 N 
ATOM      5  O   UNL A   1      34.256  20.076  24.628  1.00  0.00    -0.275 OA
ATOM      6  C   UNL A   1      33.684  21.157  24.596  1.00  0.00     0.221 C 
ATOM      7  H   UNL A   1      33.598  23.113  25.152  1.00  0.00     0.163 HD
BRANCH   6   8
ATOM      8  C   UNL A   1      32.462  21.404  23.742  1.00  0.00     0.122 C 
BRANCH   8   9
ATOM      9  C   UNL A   1      32.750  22.445  22.664  1.00  0.00     0.138 C 
BRANCH   9  10
ATOM     10  N   UNL A   1      32.286  23.789  22.997  1.00  0.00    -0.281 N 
ATOM     11  C   UNL A   1      32.844  24.963  22.478  1.00  0.00     0.235 C 
ATOM     12  C   UNL A   1      31.275  24.056  23.913  1.00  0.00     0.234 C 
ATOM     13  O   UNL A   1      33.637  25.070  21.568  1.00  0.00    -0.274 OA
ATOM     14  C   UNL A   1      32.374  26.034  23.419  1.00  0.00     0.118 C 
ATOM     15  C   UNL A   1      30.970  25.501  23.701  1.00  0.00     0.105 C 
ATOM     16  O   UNL A   1      30.653  23.271  24.604  1.00  0.00    -0.274 OA
ATOM     17  C   UNL A   1      32.313  27.578  23.357  1.00  0.00     0.088 C 
ATOM     18  C   UNL A   1      30.256  26.465  24.644  1.00  0.00     0.063 C 
ATOM     19  C   UNL A   1      32.318  27.889  24.880  1.00  0.00    -0.022 A 
ATOM     20  Br  UNL A   1      33.815  28.283  22.385  1.00  0.00    -0.074 Br
ATOM     21  C   UNL A   1      30.938  28.160  22.942  1.00  0.00    -0.022 A 
ATOM     22  C   UNL A   1      31.239  27.217  25.570  1.00  0.00    -0.035 A 
ATOM     23  C   UNL A   1      29.829  27.560  23.638  1.00  0.00    -0.035 A 
ATOM     24  C   UNL A   1      33.144  28.774  25.561  1.00  0.00     0.006 A 
ATOM     25  C   UNL A   1      30.706  29.326  22.218  1.00  0.00     0.006 A 
ATOM     26  C   UNL A   1      31.029  27.436  26.921  1.00  0.00     0.005 A 
ATOM     27  C   UNL A   1      28.528  28.032  23.500  1.00  0.00     0.005 A 
ATOM     28  C   UNL A   1      32.915  28.985  26.919  1.00  0.00     0.000 A 
ATOM     29  C   UNL A   1      29.403  29.829  22.129  1.00  0.00     0.000 A 
ATOM     30  C   UNL A   1      31.876  28.322  27.591  1.00  0.00     0.000 A 
ATOM     31  C   UNL A   1      28.321  29.173  22.731  1.00  0.00     0.000 A 
ENDBRANCH   9  10
ENDBRANCH   8   9
ENDBRANCH   6   8
ENDBRANCH   3   4
ENDBRANCH   2   3
ENDBRANCH   1   2
BRANCH   1  32
ATOM     32  C   UNL A   1      37.404  21.374  24.624  1.00  0.00     0.002 C 
BRANCH  32  33
ATOM     33  C   UNL A   1      38.154  20.107  25.018  1.00  0.00     0.021 C 
BRANCH  33  34
ATOM     34  C   UNL A   1      39.317  20.339  25.972  1.00  0.00     0.116 C 
BRANCH  34  35
ATOM     35  N   UNL A   1      40.231  19.204  26.071  1.00  0.00    -0.352 N 
ATOM     36  C   UNL A   1      41.605  19.202  26.189  1.00  0.00     0.251 C 
ATOM     37  H   UNL A   1      39.807  18.316  26.050  1.00  0.00     0.163 HD
ATOM     38  O   UNL A   1      42.251  18.161  26.126  1.00  0.00    -0.269 OA
BRANCH  36  39
ATOM     39  C   UNL A   1      42.296  20.491  26.363  1.00  0.00     0.039 A 
ATOM     40  C   UNL A   1      42.304  21.078  27.625  1.00  0.00     0.014 A 
ATOM     41  C   UNL A   1      42.849  21.152  25.263  1.00  0.00     0.014 A 
ATOM     42  C   UNL A   1      42.655  22.409  27.745  1.00  0.00     0.010 A 
ATOM     43  C   UNL A   1      43.331  22.454  25.420  1.00  0.00     0.010 A 
ATOM     44  C   UNL A   1      43.186  23.112  26.650  1.00  0.00    -0.014 A 
BRANCH  44  45
ATOM     45  C   UNL A   1      43.578  24.529  26.863  1.00  0.00     0.031 A 
ATOM     46  C   UNL A   1      42.595  25.542  27.380  1.00  0.00     0.074 A 
ATOM     47  C   UNL A   1      44.874  24.858  26.698  1.00  0.00     0.049 A 
ATOM     48  N   UNL A   1      42.803  26.788  27.724  1.00  0.00    -0.248 NA
ATOM     49  C   UNL A   1      41.197  25.106  27.530  1.00  0.00     0.031 C 
ATOM     50  C   UNL A   1      45.917  23.947  26.213  1.00  0.00     0.029 A 
ATOM     51  N   UNL A   1      45.550  26.017  26.971  1.00  0.00    -0.354 N 
ATOM     52  C   UNL A   1      41.567  27.289  28.116  1.00  0.00     0.074 A 
ATOM     53  C   UNL A   1      40.606  26.223  27.932  1.00  0.00     0.031 C 
ATOM     54  C   UNL A   1      47.109  24.551  26.309  1.00  0.00     0.029 A 
ATOM     55  C   UNL A   1      46.905  25.918  26.771  1.00  0.00     0.049 A 
ATOM     56  H   UNL A   1      45.107  26.841  27.279  1.00  0.00     0.167 HD
ATOM     57  C   UNL A   1      41.266  28.521  28.596  1.00  0.00     0.037 A 
ATOM     58  C   UNL A   1      47.879  26.832  26.928  1.00  0.00     0.037 A 
ATOM     59  C   UNL A   1      42.233  29.574  28.777  1.00  0.00     0.049 A 
ATOM     60  C   UNL A   1      47.503  28.205  27.400  1.00  0.00     0.074 A 
ATOM     61  C   UNL A   1      42.035  30.858  29.255  1.00  0.00     0.029 A 
ATOM     62  N   UNL A   1      43.586  29.464  28.481  1.00  0.00    -0.354 N 
ATOM     63  N   UNL A   1      46.331  28.661  27.773  1.00  0.00    -0.248 NA
ATOM     64  C   UNL A   1      48.584  29.194  27.462  1.00  0.00     0.031 C 
ATOM     65  C   UNL A   1      43.256  31.540  29.196  1.00  0.00     0.029 A 
ATOM     66  C   UNL A   1      44.228  30.664  28.741  1.00  0.00     0.049 A 
ATOM     67  H   UNL A   1      44.024  28.652  28.137  1.00  0.00     0.167 HD
ATOM     68  C   UNL A   1      46.538  29.985  28.131  1.00  0.00     0.074 A 
ATOM     69  C   UNL A   1      47.953  30.246  27.959  1.00  0.00     0.031 C 
ATOM     70  C   UNL A   1      45.637  30.905  28.558  1.00  0.00     0.037 A 
BRANCH  57  71
ATOM     71  C   UNL A   1      39.826  28.801  28.924  1.00  0.00     0.057 A 
ATOM     72  C   UNL A   1      38.940  29.242  27.932  1.00  0.00     0.134 A 
ATOM     73  C   UNL A   1      39.312  28.650  30.220  1.00  0.00     0.134 A 
ATOM     74  F   UNL A   1      39.363  29.419  26.670  1.00  0.00    -0.206 F 
ATOM     75  C   UNL A   1      37.600  29.514  28.214  1.00  0.00     0.040 A 
ATOM     76  C   UNL A   1      37.966  28.890  30.508  1.00  0.00     0.040 A 
ATOM     77  F   UNL A   1      40.100  28.220  31.218  1.00  0.00    -0.206 F 
ATOM     78  C   UNL A   1      37.107  29.328  29.502  1.00  0.00     0.006 A 
ENDBRANCH  57  71
BRANCH  58  79
ATOM     79  C   UNL A   1      49.287  26.489  26.605  1.00  0.00     0.057 A 
ATOM     80  C   UNL A   1      50.136  25.921  27.564  1.00  0.00     0.134 A 
ATOM     81  C   UNL A   1      49.812  26.698  25.324  1.00  0.00     0.134 A 
ATOM     82  F   UNL A   1      49.698  25.703  28.813  1.00  0.00    -0.206 F 
ATOM     83  C   UNL A   1      51.454  25.578  27.265  1.00  0.00     0.040 A 
ATOM     84  C   UNL A   1      51.119  26.328  25.001  1.00  0.00     0.040 A 
ATOM     85  F   UNL A   1      49.046  27.225  24.358  1.00  0.00    -0.206 F 
ATOM     86  C   UNL A   1      51.944  25.770  25.975  1.00  0.00     0.006 A 
ENDBRANCH  58  79
BRANCH  70  87
ATOM     87  C   UNL A   1      46.178  32.263  28.900  1.00  0.00     0.057 A 
ATOM     88  C   UNL A   1      46.235  33.271  27.928  1.00  0.00     0.134 A 
ATOM     89  C   UNL A   1      46.634  32.580  30.186  1.00  0.00     0.134 A 
ATOM     90  F   UNL A   1      45.821  33.033  26.675  1.00  0.00    -0.206 F 
ATOM     91  C   UNL A   1      46.719  34.544  28.226  1.00  0.00     0.040 A 
ATOM     92  C   UNL A   1      47.090  33.860  30.505  1.00  0.00     0.040 A 
ATOM     93  F   UNL A   1      46.590  31.666  31.168  1.00  0.00    -0.206 F 
ATOM     94  C   UNL A   1      47.137  34.846  29.521  1.00  0.00     0.006 A 
ENDBRANCH  70  87
ENDBRANCH  44  45
ENDBRANCH  36  39
ENDBRANCH  34  35
ENDBRANCH  33  34
ENDBRANCH  32  33
ENDBRANCH   1  32
TORSDOF 15
ENDMDL
MODEL 3
REMARK VINA RESULT:     -13.2      4.214      9.329
REMARK SMILES O=C(CCN1C(=O)[C@@H]2[C@@H](C1=O)[C@H]1c3ccccc3[C@]2(Br)c2ccccc21)NCCCCCCNC(=O)c1ccc(-c2c3nc(c(-c4c(F)cccc4F)c4ccc([nH]4)c(-c4c(F)cccc4F)c4nc(c(-c5c(F)cccc5F)c5ccc2[nH]5)C=C4)C=C3)cc1
REMARK SMILES IDX 30 1 29 2 28 3 27 4 1 5 2 6 3 8 4 9 5 10 6 11 10 12 7 13
REMARK SMILES IDX 8 14 9 15 11 16 19 17 12 18 21 19 20 20 18 21 26 22 13 23
REMARK SMILES IDX 22 24 17 25 25 26 14 27 23 28 16 29 24 30 15 31 31 32 32 33
REMARK SMILES IDX 33 34 34 35 35 36 36 38 37 39 38 40 90 41 39 42 89 43 40 44
REMARK SMILES IDX 41 45 42 46 83 47 43 48 88 49 82 50 84 51 44 52 87 53 81 54
REMARK SMILES IDX 80 55 45 57 71 58 54 59 70 60 55 61 58 62 69 63 85 64 56 65
REMARK SMILES IDX 57 66 68 68 86 69 59 70 46 71 47 72 52 73 48 74 49 75 51 76
REMARK SMILES IDX 53 77 50 78 72 79 73 80 78 81 74 82 75 83 77 84 79 85 76 86
REMARK SMILES IDX 60 87 61 88 66 89 62 90 63 91 65 92 67 93 64 94
REMARK H PARENT 27 7 34 37 84 56 58 67
REMARK Flexibility Score: inf
ROOT
ATOM      1  C   UNL A   1      32.020  29.076  26.030  1.00  0.00     0.002 C 
ENDROOT
BRANCH   1   2
ATOM      2  C   UNL A   1      32.413  29.675  24.676  1.00  0.00     0.021 C 
BRANCH   2   3
ATOM      3  C   UNL A   1      31.786  28.984  23.467  1.00  0.00     0.116 C 
BRANCH   3   4
ATOM      4  N   UNL A   1      30.977  27.854  23.870  1.00  0.00    -0.356 N 
ATOM      5  O   UNL A   1      29.002  28.546  22.915  1.00  0.00    -0.275 OA
ATOM      6  C   UNL A   1      29.662  27.701  23.506  1.00  0.00     0.221 C 
ATOM      7  H   UNL A   1      31.390  27.158  24.433  1.00  0.00     0.163 HD
BRANCH   6   8
ATOM      8  C   UNL A   1      29.093  26.358  23.900  1.00  0.00     0.122 C 
BRANCH   8   9
ATOM      9  C   UNL A   1      29.710  25.864  25.206  1.00  0.00     0.138 C 
BRANCH   9  10
ATOM     10  N   UNL A   1      30.634  24.745  25.041  1.00  0.00    -0.281 N 
ATOM     11  C   UNL A   1      31.124  23.970  26.098  1.00  0.00     0.235 C 
ATOM     12  C   UNL A   1      31.174  24.358  23.821  1.00  0.00     0.234 C 
ATOM     13  O   UNL A   1      30.749  23.963  27.251  1.00  0.00    -0.274 OA
ATOM     14  C   UNL A   1      32.330  23.289  25.520  1.00  0.00     0.118 C 
ATOM     15  C   UNL A   1      31.802  23.036  24.108  1.00  0.00     0.105 C 
ATOM     16  O   UNL A   1      31.028  24.877  22.729  1.00  0.00    -0.274 OA
ATOM     17  C   UNL A   1      33.200  22.083  25.945  1.00  0.00     0.088 C 
ATOM     18  C   UNL A   1      32.873  22.303  23.304  1.00  0.00     0.063 C 
ATOM     19  C   UNL A   1      34.516  22.453  25.205  1.00  0.00    -0.022 A 
ATOM     20  Br  UNL A   1      33.350  21.990  27.859  1.00  0.00    -0.074 Br
ATOM     21  C   UNL A   1      32.840  20.743  25.254  1.00  0.00    -0.022 A 
ATOM     22  C   UNL A   1      34.302  22.639  23.787  1.00  0.00    -0.035 A 
ATOM     23  C   UNL A   1      32.665  20.862  23.830  1.00  0.00    -0.035 A 
ATOM     24  C   UNL A   1      35.799  22.509  25.735  1.00  0.00     0.006 A 
ATOM     25  C   UNL A   1      32.941  19.466  25.799  1.00  0.00     0.006 A 
ATOM     26  C   UNL A   1      35.372  22.893  22.945  1.00  0.00     0.005 A 
ATOM     27  C   UNL A   1      32.465  19.753  23.015  1.00  0.00     0.005 A 
ATOM     28  C   UNL A   1      36.864  22.761  24.873  1.00  0.00     0.000 A 
ATOM     29  C   UNL A   1      32.796  18.352  24.966  1.00  0.00     0.000 A 
ATOM     30  C   UNL A   1      36.653  22.956  23.498  1.00  0.00     0.000 A 
ATOM     31  C   UNL A   1      32.526  18.491  23.597  1.00  0.00     0.000 A 
ENDBRANCH   9  10
ENDBRANCH   8   9
ENDBRANCH   6   8
ENDBRANCH   3   4
ENDBRANCH   2   3
ENDBRANCH   1   2
BRANCH   1  32
ATOM     32  C   UNL A   1      32.074  30.045  27.207  1.00  0.00     0.002 C 
BRANCH  32  33
ATOM     33  C   UNL A   1      31.821  31.510  26.873  1.00  0.00     0.021 C 
BRANCH  33  34
ATOM     34  C   UNL A   1      32.958  32.446  27.259  1.00  0.00     0.116 C 
BRANCH  34  35
ATOM     35  N   UNL A   1      32.526  33.816  27.528  1.00  0.00    -0.352 N 
ATOM     36  C   UNL A   1      32.997  34.707  28.468  1.00  0.00     0.251 C 
ATOM     37  H   UNL A   1      31.797  34.149  26.957  1.00  0.00     0.163 HD
ATOM     38  O   UNL A   1      32.442  35.783  28.665  1.00  0.00    -0.269 OA
BRANCH  36  39
ATOM     39  C   UNL A   1      34.177  34.328  29.265  1.00  0.00     0.039 A 
ATOM     40  C   UNL A   1      35.440  34.664  28.788  1.00  0.00     0.014 A 
ATOM     41  C   UNL A   1      34.030  33.565  30.427  1.00  0.00     0.014 A 
ATOM     42  C   UNL A   1      36.551  34.053  29.338  1.00  0.00     0.010 A 
ATOM     43  C   UNL A   1      35.169  33.060  31.061  1.00  0.00     0.010 A 
ATOM     44  C   UNL A   1      36.434  33.254  30.488  1.00  0.00    -0.014 A 
BRANCH  44  45
ATOM     45  C   UNL A   1      37.676  32.660  31.046  1.00  0.00     0.031 A 
ATOM     46  C   UNL A   1      38.226  33.105  32.373  1.00  0.00     0.074 A 
ATOM     47  C   UNL A   1      38.231  31.622  30.391  1.00  0.00     0.049 A 
ATOM     48  N   UNL A   1      39.233  32.614  33.051  1.00  0.00    -0.248 NA
ATOM     49  C   UNL A   1      37.566  34.247  33.025  1.00  0.00     0.031 C 
ATOM     50  C   UNL A   1      37.769  31.099  29.100  1.00  0.00     0.029 A 
ATOM     51  N   UNL A   1      39.258  30.786  30.736  1.00  0.00    -0.354 N 
ATOM     52  C   UNL A   1      39.337  33.393  34.198  1.00  0.00     0.074 A 
ATOM     53  C   UNL A   1      38.315  34.412  34.107  1.00  0.00     0.031 C 
ATOM     54  C   UNL A   1      38.447  29.981  28.809  1.00  0.00     0.029 A 
ATOM     55  C   UNL A   1      39.452  29.762  29.841  1.00  0.00     0.049 A 
ATOM     56  H   UNL A   1      39.805  30.906  31.546  1.00  0.00     0.167 HD
ATOM     57  C   UNL A   1      40.199  33.260  35.236  1.00  0.00     0.037 A 
ATOM     58  C   UNL A   1      40.351  28.762  29.841  1.00  0.00     0.037 A 
ATOM     59  C   UNL A   1      41.212  32.238  35.317  1.00  0.00     0.049 A 
ATOM     60  C   UNL A   1      41.333  28.681  30.972  1.00  0.00     0.074 A 
ATOM     61  C   UNL A   1      42.138  32.014  36.322  1.00  0.00     0.029 A 
ATOM     62  N   UNL A   1      41.436  31.269  34.347  1.00  0.00    -0.354 N 
ATOM     63  N   UNL A   1      41.414  29.421  32.053  1.00  0.00    -0.248 NA
ATOM     64  C   UNL A   1      42.354  27.633  30.879  1.00  0.00     0.031 C 
ATOM     65  C   UNL A   1      42.955  30.946  35.935  1.00  0.00     0.029 A 
ATOM     66  C   UNL A   1      42.500  30.463  34.718  1.00  0.00     0.049 A 
ATOM     67  H   UNL A   1      40.915  31.169  33.518  1.00  0.00     0.167 HD
ATOM     68  C   UNL A   1      42.485  28.916  32.776  1.00  0.00     0.074 A 
ATOM     69  C   UNL A   1      43.000  27.789  32.024  1.00  0.00     0.031 C 
ATOM     70  C   UNL A   1      43.001  29.349  33.953  1.00  0.00     0.037 A 
BRANCH  57  71
ATOM     71  C   UNL A   1      40.103  34.267  36.348  1.00  0.00     0.057 A 
ATOM     72  C   UNL A   1      40.762  35.500  36.254  1.00  0.00     0.134 A 
ATOM     73  C   UNL A   1      39.369  34.020  37.517  1.00  0.00     0.134 A 
ATOM     74  F   UNL A   1      41.490  35.803  35.168  1.00  0.00    -0.206 F 
ATOM     75  C   UNL A   1      40.691  36.449  37.276  1.00  0.00     0.040 A 
ATOM     76  C   UNL A   1      39.266  34.975  38.533  1.00  0.00     0.040 A 
ATOM     77  F   UNL A   1      38.703  32.866  37.671  1.00  0.00    -0.206 F 
ATOM     78  C   UNL A   1      39.933  36.192  38.414  1.00  0.00     0.006 A 
ENDBRANCH  57  71
BRANCH  58  79
ATOM     79  C   UNL A   1      40.386  27.785  28.723  1.00  0.00     0.057 A 
ATOM     80  C   UNL A   1      39.644  26.597  28.772  1.00  0.00     0.134 A 
ATOM     81  C   UNL A   1      41.140  28.026  27.569  1.00  0.00     0.134 A 
ATOM     82  F   UNL A   1      38.908  26.302  29.853  1.00  0.00    -0.206 F 
ATOM     83  C   UNL A   1      39.655  25.683  27.719  1.00  0.00     0.040 A 
ATOM     84  C   UNL A   1      41.133  27.136  26.493  1.00  0.00     0.040 A 
ATOM     85  F   UNL A   1      41.859  29.152  27.454  1.00  0.00    -0.206 F 
ATOM     86  C   UNL A   1      40.391  25.959  26.569  1.00  0.00     0.006 A 
ENDBRANCH  58  79
BRANCH  70  87
ATOM     87  C   UNL A   1      44.158  28.568  34.505  1.00  0.00     0.057 A 
ATOM     88  C   UNL A   1      45.475  28.941  34.206  1.00  0.00     0.134 A 
ATOM     89  C   UNL A   1      43.975  27.455  35.336  1.00  0.00     0.134 A 
ATOM     90  F   UNL A   1      45.721  29.993  33.410  1.00  0.00    -0.206 F 
ATOM     91  C   UNL A   1      46.566  28.240  34.718  1.00  0.00     0.040 A 
ATOM     92  C   UNL A   1      45.059  26.766  35.882  1.00  0.00     0.040 A 
ATOM     93  F   UNL A   1      42.740  27.056  35.677  1.00  0.00    -0.206 F 
ATOM     94  C   UNL A   1      46.360  27.156  35.570  1.00  0.00     0.006 A 
ENDBRANCH  70  87
ENDBRANCH  44  45
ENDBRANCH  36  39
ENDBRANCH  34  35
ENDBRANCH  33  34
ENDBRANCH  32  33
ENDBRANCH   1  32
TORSDOF 15
ENDMDL
