MODEL 1
REMARK VINA RESULT:      -9.8      0.000      0.000
REMARK SMILES Cc1cc(C)cc(CSc2cc(C(=O)NCCCCCCNC(=O)c3ccc(-c4c5nc(c(-c6c(F)cccc6F)c6ccc([nH]6)c(-c6c(F)cccc6F)c6nc(c(-c7c(F)cccc7F)c7ccc4[nH]7)C=C6)C=C5)cc3)cc(Cl)n2)c1
REMARK SMILES IDX 18 1 17 2 16 3 15 4 13 5 14 6 12 8 10 9 11 10 82 11 80 12
REMARK SMILES IDX 79 13 81 14 9 15 8 16 7 17 1 18 2 19 3 20 83 21 4 22 5 23
REMARK SMILES IDX 6 24 19 25 20 26 21 27 22 28 23 29 24 31 25 32 26 33 78 34
REMARK SMILES IDX 27 35 77 36 28 37 29 38 30 39 71 40 31 41 76 42 70 43 72 44
REMARK SMILES IDX 32 45 75 46 69 47 68 48 33 50 59 51 42 52 58 53 43 54 46 55
REMARK SMILES IDX 57 56 73 57 44 58 45 59 56 61 74 62 47 63 34 64 35 65 40 66
REMARK SMILES IDX 36 67 37 68 39 69 41 70 38 71 60 72 61 73 66 74 62 75 63 76
REMARK SMILES IDX 65 77 67 78 64 79 48 80 49 81 54 82 50 83 51 84 53 85 55 86
REMARK SMILES IDX 52 87
REMARK H PARENT 15 7 22 30 72 49 46 60
REMARK Flexibility Score: inf
ROOT
ATOM      1  C   UNL A   1      34.946  35.452  33.059  1.00  0.00     0.002 C 
ENDROOT
BRANCH   1   2
ATOM      2  C   UNL A   1      35.153  34.676  34.370  1.00  0.00     0.021 C 
BRANCH   2   3
ATOM      3  C   UNL A   1      36.150  33.523  34.232  1.00  0.00     0.116 C 
BRANCH   3   4
ATOM      4  N   UNL A   1      36.982  33.436  35.414  1.00  0.00    -0.352 N 
ATOM      5  C   UNL A   1      37.939  32.571  35.865  1.00  0.00     0.251 C 
ATOM      6  O   UNL A   1      38.424  32.826  36.970  1.00  0.00    -0.269 OA
ATOM      7  H   UNL A   1      36.819  34.176  36.043  1.00  0.00     0.163 HD
BRANCH   5   8
ATOM      8  C   UNL A   1      38.460  31.387  35.123  1.00  0.00     0.045 A 
ATOM      9  C   UNL A   1      40.313  29.872  34.829  1.00  0.00     0.099 A 
ATOM     10  C   UNL A   1      39.752  30.962  35.476  1.00  0.00     0.049 A 
ATOM     11  N   UNL A   1      39.666  29.197  33.867  1.00  0.00    -0.230 NA
ATOM     12  C   UNL A   1      38.439  29.619  33.541  1.00  0.00     0.131 A 
ATOM     13  C   UNL A   1      37.777  30.666  34.152  1.00  0.00     0.055 A 
ATOM     14  Cl  UNL A   1      37.704  28.745  32.259  1.00  0.00    -0.062 Cl
BRANCH   9  15
ATOM     15  S   UNL A   1      41.891  29.234  35.340  1.00  0.00    -0.102 SA
BRANCH  15  16
ATOM     16  C   UNL A   1      41.374  27.770  36.295  1.00  0.00     0.112 C 
BRANCH  16  17
ATOM     17  C   UNL A   1      42.353  26.622  36.339  1.00  0.00    -0.037 A 
ATOM     18  C   UNL A   1      43.041  23.403  34.406  1.00  0.00     0.044 C 
ATOM     19  C   UNL A   1      43.144  24.505  35.417  1.00  0.00    -0.051 A 
ATOM     20  C   UNL A   1      44.114  24.440  36.423  1.00  0.00     0.006 A 
ATOM     21  C   UNL A   1      42.269  25.597  35.383  1.00  0.00     0.008 A 
ATOM     22  C   UNL A   1      44.223  25.454  37.382  1.00  0.00    -0.051 A 
ATOM     23  C   UNL A   1      45.248  25.345  38.472  1.00  0.00     0.044 C 
ATOM     24  C   UNL A   1      43.355  26.550  37.320  1.00  0.00     0.008 A 
ENDBRANCH  16  17
ENDBRANCH  15  16
ENDBRANCH   9  15
ENDBRANCH   5   8
ENDBRANCH   3   4
ENDBRANCH   2   3
ENDBRANCH   1   2
BRANCH   1  25
ATOM     25  C   UNL A   1      33.817  36.492  33.094  1.00  0.00     0.002 C 
BRANCH  25  26
ATOM     26  C   UNL A   1      32.757  36.325  32.003  1.00  0.00     0.021 C 
BRANCH  26  27
ATOM     27  C   UNL A   1      33.280  36.554  30.590  1.00  0.00     0.116 C 
BRANCH  27  28
ATOM     28  N   UNL A   1      32.646  35.660  29.632  1.00  0.00    -0.352 N 
ATOM     29  C   UNL A   1      33.173  34.577  28.976  1.00  0.00     0.251 C 
ATOM     30  H   UNL A   1      31.704  35.863  29.427  1.00  0.00     0.163 HD
ATOM     31  O   UNL A   1      32.581  34.080  28.025  1.00  0.00    -0.269 OA
BRANCH  29  32
ATOM     32  C   UNL A   1      34.469  34.021  29.414  1.00  0.00     0.039 A 
ATOM     33  C   UNL A   1      34.492  33.083  30.448  1.00  0.00     0.014 A 
ATOM     34  C   UNL A   1      35.659  34.431  28.805  1.00  0.00     0.014 A 
ATOM     35  C   UNL A   1      35.706  32.513  30.835  1.00  0.00     0.010 A 
ATOM     36  C   UNL A   1      36.856  33.807  29.138  1.00  0.00     0.010 A 
ATOM     37  C   UNL A   1      36.892  32.846  30.160  1.00  0.00    -0.014 A 
BRANCH  37  38
ATOM     38  C   UNL A   1      38.183  32.202  30.511  1.00  0.00     0.031 A 
ATOM     39  C   UNL A   1      39.133  32.882  31.456  1.00  0.00     0.074 A 
ATOM     40  C   UNL A   1      38.525  31.038  29.926  1.00  0.00     0.049 A 
ATOM     41  N   UNL A   1      40.332  32.512  31.832  1.00  0.00    -0.248 NA
ATOM     42  C   UNL A   1      38.691  34.160  32.036  1.00  0.00     0.031 C 
ATOM     43  C   UNL A   1      37.708  30.305  28.957  1.00  0.00     0.029 A 
ATOM     44  N   UNL A   1      39.656  30.271  30.054  1.00  0.00    -0.354 N 
ATOM     45  C   UNL A   1      40.788  33.515  32.678  1.00  0.00     0.074 A 
ATOM     46  C   UNL A   1      39.764  34.536  32.715  1.00  0.00     0.031 C 
ATOM     47  C   UNL A   1      38.353  29.184  28.597  1.00  0.00     0.029 A 
ATOM     48  C   UNL A   1      39.643  29.139  29.276  1.00  0.00     0.049 A 
ATOM     49  H   UNL A   1      40.404  30.510  30.647  1.00  0.00     0.167 HD
ATOM     50  C   UNL A   1      41.945  33.568  33.379  1.00  0.00     0.037 A 
ATOM     51  C   UNL A   1      40.574  28.178  29.120  1.00  0.00     0.037 A 
ATOM     52  C   UNL A   1      42.952  32.539  33.353  1.00  0.00     0.049 A 
ATOM     53  C   UNL A   1      41.858  28.268  29.897  1.00  0.00     0.074 A 
ATOM     54  C   UNL A   1      44.133  32.472  34.070  1.00  0.00     0.029 A 
ATOM     55  N   UNL A   1      42.897  31.401  32.562  1.00  0.00    -0.354 N 
ATOM     56  N   UNL A   1      42.247  29.186  30.748  1.00  0.00    -0.248 NA
ATOM     57  C   UNL A   1      42.831  27.185  29.697  1.00  0.00     0.031 C 
ATOM     58  C   UNL A   1      44.819  31.319  33.675  1.00  0.00     0.029 A 
ATOM     59  C   UNL A   1      44.037  30.637  32.755  1.00  0.00     0.049 A 
ATOM     60  H   UNL A   1      42.159  31.169  31.954  1.00  0.00     0.167 HD
ATOM     61  C   UNL A   1      43.490  28.776  31.210  1.00  0.00     0.074 A 
ATOM     62  C   UNL A   1      43.787  27.521  30.552  1.00  0.00     0.031 C 
ATOM     63  C   UNL A   1      44.312  29.383  32.102  1.00  0.00     0.037 A 
BRANCH  50  64
ATOM     64  C   UNL A   1      42.184  34.779  34.235  1.00  0.00     0.057 A 
ATOM     65  C   UNL A   1      42.735  35.957  33.713  1.00  0.00     0.134 A 
ATOM     66  C   UNL A   1      41.827  34.781  35.589  1.00  0.00     0.134 A 
ATOM     67  F   UNL A   1      43.110  36.021  32.426  1.00  0.00    -0.206 F 
ATOM     68  C   UNL A   1      42.951  37.081  34.512  1.00  0.00     0.040 A 
ATOM     69  C   UNL A   1      42.009  35.909  36.392  1.00  0.00     0.040 A 
ATOM     70  F   UNL A   1      41.287  33.690  36.154  1.00  0.00    -0.206 F 
ATOM     71  C   UNL A   1      42.580  37.061  35.855  1.00  0.00     0.006 A 
ENDBRANCH  50  64
BRANCH  51  72
ATOM     72  C   UNL A   1      40.317  27.036  28.206  1.00  0.00     0.057 A 
ATOM     73  C   UNL A   1      40.896  26.986  26.932  1.00  0.00     0.134 A 
ATOM     74  C   UNL A   1      39.484  25.973  28.577  1.00  0.00     0.134 A 
ATOM     75  F   UNL A   1      41.690  27.982  26.512  1.00  0.00    -0.206 F 
ATOM     76  C   UNL A   1      40.639  25.933  26.052  1.00  0.00     0.040 A 
ATOM     77  C   UNL A   1      39.240  24.902  27.717  1.00  0.00     0.040 A 
ATOM     78  F   UNL A   1      38.907  25.955  29.787  1.00  0.00    -0.206 F 
ATOM     79  C   UNL A   1      39.812  24.884  26.446  1.00  0.00     0.006 A 
ENDBRANCH  51  72
BRANCH  63  80
ATOM     80  C   UNL A   1      45.589  28.677  32.456  1.00  0.00     0.057 A 
ATOM     81  C   UNL A   1      45.667  27.768  33.517  1.00  0.00     0.134 A 
ATOM     82  C   UNL A   1      46.744  28.874  31.686  1.00  0.00     0.134 A 
ATOM     83  F   UNL A   1      44.601  27.543  34.300  1.00  0.00    -0.206 F 
ATOM     84  C   UNL A   1      46.853  27.094  33.813  1.00  0.00     0.040 A 
ATOM     85  C   UNL A   1      47.927  28.185  31.954  1.00  0.00     0.040 A 
ATOM     86  F   UNL A   1      46.734  29.725  30.649  1.00  0.00    -0.206 F 
ATOM     87  C   UNL A   1      47.985  27.295  33.025  1.00  0.00     0.006 A 
ENDBRANCH  63  80
ENDBRANCH  37  38
ENDBRANCH  29  32
ENDBRANCH  27  28
ENDBRANCH  26  27
ENDBRANCH  25  26
ENDBRANCH   1  25
TORSDOF 16
ENDMDL
MODEL 2
REMARK VINA RESULT:      -9.5      0.298      6.188
REMARK SMILES Cc1cc(C)cc(CSc2cc(C(=O)NCCCCCCNC(=O)c3ccc(-c4c5nc(c(-c6c(F)cccc6F)c6ccc([nH]6)c(-c6c(F)cccc6F)c6nc(c(-c7c(F)cccc7F)c7ccc4[nH]7)C=C6)C=C5)cc3)cc(Cl)n2)c1
REMARK SMILES IDX 18 1 17 2 16 3 15 4 13 5 14 6 12 8 10 9 11 10 82 11 80 12
REMARK SMILES IDX 79 13 81 14 9 15 8 16 7 17 1 18 2 19 3 20 83 21 4 22 5 23
REMARK SMILES IDX 6 24 19 25 20 26 21 27 22 28 23 29 24 31 25 32 26 33 78 34
REMARK SMILES IDX 27 35 77 36 28 37 29 38 30 39 71 40 31 41 76 42 70 43 72 44
REMARK SMILES IDX 32 45 75 46 69 47 68 48 33 50 59 51 42 52 58 53 43 54 46 55
REMARK SMILES IDX 57 56 73 57 44 58 45 59 56 61 74 62 47 63 34 64 35 65 40 66
REMARK SMILES IDX 36 67 37 68 39 69 41 70 38 71 60 72 61 73 66 74 62 75 63 76
REMARK SMILES IDX 65 77 67 78 64 79 48 80 49 81 54 82 50 83 51 84 53 85 55 86
REMARK SMILES IDX 52 87
REMARK H PARENT 15 7 22 30 72 49 46 60
REMARK Flexibility Score: inf
ROOT
ATOM      1  C   UNL A   1      34.805  35.315  33.074  1.00  0.00     0.002 C 
ENDROOT
BRANCH   1   2
ATOM      2  C   UNL A   1      35.196  34.572  34.361  1.00  0.00     0.021 C 
BRANCH   2   3
ATOM      3  C   UNL A   1      36.207  33.448  34.121  1.00  0.00     0.116 C 
BRANCH   3   4
ATOM      4  N   UNL A   1      37.120  33.347  35.240  1.00  0.00    -0.352 N 
ATOM      5  C   UNL A   1      38.091  32.464  35.623  1.00  0.00     0.251 C 
ATOM      6  O   UNL A   1      38.657  32.711  36.690  1.00  0.00    -0.269 OA
ATOM      7  H   UNL A   1      37.016  34.090  35.878  1.00  0.00     0.163 HD
BRANCH   5   8
ATOM      8  C   UNL A   1      38.536  31.272  34.849  1.00  0.00     0.045 A 
ATOM      9  C   UNL A   1      40.327  29.708  34.444  1.00  0.00     0.099 A 
ATOM     10  C   UNL A   1      39.834  30.809  35.125  1.00  0.00     0.049 A 
ATOM     11  N   UNL A   1      39.608  29.056  33.517  1.00  0.00    -0.230 NA
ATOM     12  C   UNL A   1      38.376  29.513  33.263  1.00  0.00     0.131 A 
ATOM     13  C   UNL A   1      37.780  30.575  33.915  1.00  0.00     0.055 A 
ATOM     14  Cl  UNL A   1      37.546  28.667  32.022  1.00  0.00    -0.062 Cl
BRANCH   9  15
ATOM     15  S   UNL A   1      41.913  29.024  34.861  1.00  0.00    -0.102 SA
BRANCH  15  16
ATOM     16  C   UNL A   1      41.437  27.813  36.138  1.00  0.00     0.112 C 
BRANCH  16  17
ATOM     17  C   UNL A   1      42.340  26.613  36.289  1.00  0.00    -0.037 A 
ATOM     18  C   UNL A   1      43.047  23.343  34.451  1.00  0.00     0.044 C 
ATOM     19  C   UNL A   1      43.104  24.448  35.464  1.00  0.00    -0.051 A 
ATOM     20  C   UNL A   1      43.958  24.339  36.567  1.00  0.00     0.006 A 
ATOM     21  C   UNL A   1      42.300  25.585  35.333  1.00  0.00     0.008 A 
ATOM     22  C   UNL A   1      44.022  25.354  37.528  1.00  0.00    -0.051 A 
ATOM     23  C   UNL A   1      44.918  25.199  38.721  1.00  0.00     0.044 C 
ATOM     24  C   UNL A   1      43.228  26.495  37.370  1.00  0.00     0.008 A 
ENDBRANCH  16  17
ENDBRANCH  15  16
ENDBRANCH   9  15
ENDBRANCH   5   8
ENDBRANCH   3   4
ENDBRANCH   2   3
ENDBRANCH   1   2
BRANCH   1  25
ATOM     25  C   UNL A   1      33.727  36.394  33.251  1.00  0.00     0.002 C 
BRANCH  25  26
ATOM     26  C   UNL A   1      32.901  36.687  31.997  1.00  0.00     0.021 C 
BRANCH  26  27
ATOM     27  C   UNL A   1      33.645  36.434  30.691  1.00  0.00     0.116 C 
BRANCH  27  28
ATOM     28  N   UNL A   1      32.864  35.610  29.781  1.00  0.00    -0.352 N 
ATOM     29  C   UNL A   1      33.257  34.523  29.041  1.00  0.00     0.251 C 
ATOM     30  H   UNL A   1      31.919  35.870  29.681  1.00  0.00     0.163 HD
ATOM     31  O   UNL A   1      32.542  34.092  28.144  1.00  0.00    -0.269 OA
BRANCH  29  32
ATOM     32  C   UNL A   1      34.558  33.883  29.323  1.00  0.00     0.039 A 
ATOM     33  C   UNL A   1      35.670  34.237  28.558  1.00  0.00     0.014 A 
ATOM     34  C   UNL A   1      34.673  32.930  30.340  1.00  0.00     0.014 A 
ATOM     35  C   UNL A   1      36.914  33.676  28.850  1.00  0.00     0.010 A 
ATOM     36  C   UNL A   1      35.926  32.431  30.679  1.00  0.00     0.010 A 
ATOM     37  C   UNL A   1      37.058  32.795  29.934  1.00  0.00    -0.014 A 
BRANCH  37  38
ATOM     38  C   UNL A   1      38.384  32.239  30.303  1.00  0.00     0.031 A 
ATOM     39  C   UNL A   1      38.832  30.919  29.743  1.00  0.00     0.074 A 
ATOM     40  C   UNL A   1      39.153  32.894  31.194  1.00  0.00     0.049 A 
ATOM     41  N   UNL A   1      39.922  30.240  29.997  1.00  0.00    -0.248 NA
ATOM     42  C   UNL A   1      37.923  30.260  28.791  1.00  0.00     0.031 C 
ATOM     43  C   UNL A   1      38.807  34.159  31.843  1.00  0.00     0.029 A 
ATOM     44  N   UNL A   1      40.383  32.579  31.716  1.00  0.00    -0.354 N 
ATOM     45  C   UNL A   1      39.822  29.073  29.249  1.00  0.00     0.074 A 
ATOM     46  C   UNL A   1      38.542  29.109  28.577  1.00  0.00     0.031 C 
ATOM     47  C   UNL A   1      39.811  34.525  32.657  1.00  0.00     0.029 A 
ATOM     48  C   UNL A   1      40.850  33.502  32.619  1.00  0.00     0.049 A 
ATOM     49  H   UNL A   1      40.883  31.768  31.466  1.00  0.00     0.167 HD
ATOM     50  C   UNL A   1      40.728  28.075  29.115  1.00  0.00     0.037 A 
ATOM     51  C   UNL A   1      41.986  33.516  33.344  1.00  0.00     0.037 A 
ATOM     52  C   UNL A   1      42.009  28.055  29.771  1.00  0.00     0.049 A 
ATOM     53  C   UNL A   1      42.967  32.388  33.190  1.00  0.00     0.074 A 
ATOM     54  C   UNL A   1      43.020  27.117  29.657  1.00  0.00     0.029 A 
ATOM     55  N   UNL A   1      42.452  29.015  30.668  1.00  0.00    -0.354 N 
ATOM     56  N   UNL A   1      42.893  31.326  32.425  1.00  0.00    -0.248 NA
ATOM     57  C   UNL A   1      44.194  32.462  33.996  1.00  0.00     0.031 C 
ATOM     58  C   UNL A   1      44.053  27.481  30.526  1.00  0.00     0.029 A 
ATOM     59  C   UNL A   1      43.712  28.678  31.136  1.00  0.00     0.049 A 
ATOM     60  H   UNL A   1      41.946  29.817  30.935  1.00  0.00     0.167 HD
ATOM     61  C   UNL A   1      44.074  30.624  32.630  1.00  0.00     0.074 A 
ATOM     62  C   UNL A   1      44.852  31.387  33.585  1.00  0.00     0.031 C 
ATOM     63  C   UNL A   1      44.479  29.455  32.076  1.00  0.00     0.037 A 
BRANCH  50  64
ATOM     64  C   UNL A   1      40.363  26.922  28.224  1.00  0.00     0.057 A 
ATOM     65  C   UNL A   1      39.464  25.927  28.633  1.00  0.00     0.134 A 
ATOM     66  C   UNL A   1      40.889  26.821  26.931  1.00  0.00     0.134 A 
ATOM     67  F   UNL A   1      38.930  25.955  29.864  1.00  0.00    -0.206 F 
ATOM     68  C   UNL A   1      39.126  24.860  27.799  1.00  0.00     0.040 A 
ATOM     69  C   UNL A   1      40.535  25.775  26.076  1.00  0.00     0.040 A 
ATOM     70  F   UNL A   1      41.750  27.742  26.471  1.00  0.00    -0.206 F 
ATOM     71  C   UNL A   1      39.656  24.787  26.513  1.00  0.00     0.006 A 
ENDBRANCH  50  64
BRANCH  51  72
ATOM     72  C   UNL A   1      42.266  34.647  34.264  1.00  0.00     0.057 A 
ATOM     73  C   UNL A   1      42.036  34.533  35.641  1.00  0.00     0.134 A 
ATOM     74  C   UNL A   1      42.761  35.870  33.794  1.00  0.00     0.134 A 
ATOM     75  F   UNL A   1      41.545  33.393  36.151  1.00  0.00    -0.206 F 
ATOM     76  C   UNL A   1      42.266  35.598  36.513  1.00  0.00     0.040 A 
ATOM     77  C   UNL A   1      43.022  36.934  34.658  1.00  0.00     0.040 A 
ATOM     78  F   UNL A   1      43.013  36.041  32.488  1.00  0.00    -0.206 F 
ATOM     79  C   UNL A   1      42.766  36.802  36.022  1.00  0.00     0.006 A 
ENDBRANCH  51  72
BRANCH  63  80
ATOM     80  C   UNL A   1      45.843  28.950  32.449  1.00  0.00     0.057 A 
ATOM     81  C   UNL A   1      46.039  28.041  33.496  1.00  0.00     0.134 A 
ATOM     82  C   UNL A   1      46.969  29.342  31.713  1.00  0.00     0.134 A 
ATOM     83  F   UNL A   1      45.004  27.636  34.247  1.00  0.00    -0.206 F 
ATOM     84  C   UNL A   1      47.310  27.555  33.809  1.00  0.00     0.040 A 
ATOM     85  C   UNL A   1      48.239  28.841  31.998  1.00  0.00     0.040 A 
ATOM     86  F   UNL A   1      46.849  30.203  30.691  1.00  0.00    -0.206 F 
ATOM     87  C   UNL A   1      48.413  27.948  33.054  1.00  0.00     0.006 A 
ENDBRANCH  63  80
ENDBRANCH  37  38
ENDBRANCH  29  32
ENDBRANCH  27  28
ENDBRANCH  26  27
ENDBRANCH  25  26
ENDBRANCH   1  25
TORSDOF 16
ENDMDL
MODEL 3
REMARK VINA RESULT:      -9.5      5.971     11.839
REMARK SMILES Cc1cc(C)cc(CSc2cc(C(=O)NCCCCCCNC(=O)c3ccc(-c4c5nc(c(-c6c(F)cccc6F)c6ccc([nH]6)c(-c6c(F)cccc6F)c6nc(c(-c7c(F)cccc7F)c7ccc4[nH]7)C=C6)C=C5)cc3)cc(Cl)n2)c1
REMARK SMILES IDX 18 1 17 2 16 3 15 4 13 5 14 6 12 8 10 9 11 10 82 11 80 12
REMARK SMILES IDX 79 13 81 14 9 15 8 16 7 17 1 18 2 19 3 20 83 21 4 22 5 23
REMARK SMILES IDX 6 24 19 25 20 26 21 27 22 28 23 29 24 31 25 32 26 33 78 34
REMARK SMILES IDX 27 35 77 36 28 37 29 38 30 39 71 40 31 41 76 42 70 43 72 44
REMARK SMILES IDX 32 45 75 46 69 47 68 48 33 50 59 51 42 52 58 53 43 54 46 55
REMARK SMILES IDX 57 56 73 57 44 58 45 59 56 61 74 62 47 63 34 64 35 65 40 66
REMARK SMILES IDX 36 67 37 68 39 69 41 70 38 71 60 72 61 73 66 74 62 75 63 76
REMARK SMILES IDX 65 77 67 78 64 79 48 80 49 81 54 82 50 83 51 84 53 85 55 86
REMARK SMILES IDX 52 87
REMARK H PARENT 15 7 22 30 72 49 46 60
REMARK Flexibility Score: inf
ROOT
ATOM      1  C   UNL A   1      37.138  21.987  24.367  1.00  0.00     0.002 C 
ENDROOT
BRANCH   1   2
ATOM      2  C   UNL A   1      37.394  23.060  25.438  1.00  0.00     0.021 C 
BRANCH   2   3
ATOM      3  C   UNL A   1      36.126  23.813  25.847  1.00  0.00     0.116 C 
BRANCH   3   4
ATOM      4  N   UNL A   1      35.388  23.054  26.835  1.00  0.00    -0.352 N 
ATOM      5  C   UNL A   1      34.245  22.306  26.827  1.00  0.00     0.251 C 
ATOM      6  O   UNL A   1      33.910  21.817  27.909  1.00  0.00    -0.269 OA
ATOM      7  H   UNL A   1      35.809  23.087  27.724  1.00  0.00     0.163 HD
BRANCH   5   8
ATOM      8  C   UNL A   1      33.408  22.008  25.630  1.00  0.00     0.045 A 
ATOM      9  C   UNL A   1      31.777  22.861  24.071  1.00  0.00     0.099 A 
ATOM     10  C   UNL A   1      32.592  23.058  25.175  1.00  0.00     0.049 A 
ATOM     11  N   UNL A   1      31.735  21.695  23.409  1.00  0.00    -0.230 NA
ATOM     12  C   UNL A   1      32.516  20.705  23.859  1.00  0.00     0.131 A 
ATOM     13  C   UNL A   1      33.390  20.813  24.923  1.00  0.00     0.055 A 
ATOM     14  Cl  UNL A   1      32.356  19.228  23.000  1.00  0.00    -0.062 Cl
BRANCH   9  15
ATOM     15  S   UNL A   1      30.831  24.206  23.397  1.00  0.00    -0.102 SA
BRANCH  15  16
ATOM     16  C   UNL A   1      30.359  25.088  24.921  1.00  0.00     0.112 C 
BRANCH  16  17
ATOM     17  C   UNL A   1      30.669  26.565  24.960  1.00  0.00    -0.037 A 
ATOM     18  C   UNL A   1      30.120  29.638  22.763  1.00  0.00     0.044 C 
ATOM     19  C   UNL A   1      30.550  28.760  23.900  1.00  0.00    -0.051 A 
ATOM     20  C   UNL A   1      31.276  29.303  24.965  1.00  0.00     0.006 A 
ATOM     21  C   UNL A   1      30.252  27.393  23.905  1.00  0.00     0.008 A 
ATOM     22  C   UNL A   1      31.695  28.501  26.033  1.00  0.00    -0.051 A 
ATOM     23  C   UNL A   1      32.503  29.098  27.146  1.00  0.00     0.044 C 
ATOM     24  C   UNL A   1      31.368  27.139  26.033  1.00  0.00     0.008 A 
ENDBRANCH  16  17
ENDBRANCH  15  16
ENDBRANCH   9  15
ENDBRANCH   5   8
ENDBRANCH   3   4
ENDBRANCH   2   3
ENDBRANCH   1   2
BRANCH   1  25
ATOM     25  C   UNL A   1      36.951  20.563  24.909  1.00  0.00     0.002 C 
BRANCH  25  26
ATOM     26  C   UNL A   1      38.211  19.695  24.881  1.00  0.00     0.021 C 
BRANCH  26  27
ATOM     27  C   UNL A   1      39.236  20.056  25.951  1.00  0.00     0.116 C 
BRANCH  27  28
ATOM     28  N   UNL A   1      40.404  19.192  25.887  1.00  0.00    -0.352 N 
ATOM     29  C   UNL A   1      41.731  19.515  26.019  1.00  0.00     0.251 C 
ATOM     30  H   UNL A   1      40.216  18.239  25.725  1.00  0.00     0.163 HD
ATOM     31  O   UNL A   1      42.600  18.713  25.700  1.00  0.00    -0.269 OA
BRANCH  29  32
ATOM     32  C   UNL A   1      42.107  20.847  26.537  1.00  0.00     0.039 A 
ATOM     33  C   UNL A   1      42.540  21.827  25.642  1.00  0.00     0.014 A 
ATOM     34  C   UNL A   1      42.036  21.122  27.906  1.00  0.00     0.014 A 
ATOM     35  C   UNL A   1      42.848  23.104  26.113  1.00  0.00     0.010 A 
ATOM     36  C   UNL A   1      42.268  22.414  28.363  1.00  0.00     0.010 A 
ATOM     37  C   UNL A   1      42.682  23.416  27.473  1.00  0.00    -0.014 A 
BRANCH  37  38
ATOM     38  C   UNL A   1      42.940  24.785  27.984  1.00  0.00     0.031 A 
ATOM     39  C   UNL A   1      44.329  25.191  28.388  1.00  0.00     0.074 A 
ATOM     40  C   UNL A   1      41.910  25.639  28.145  1.00  0.00     0.049 A 
ATOM     41  N   UNL A   1      44.741  26.316  28.918  1.00  0.00    -0.248 NA
ATOM     42  C   UNL A   1      45.393  24.193  28.199  1.00  0.00     0.031 C 
ATOM     43  C   UNL A   1      40.511  25.346  27.833  1.00  0.00     0.029 A 
ATOM     44  N   UNL A   1      41.881  26.926  28.622  1.00  0.00    -0.354 N 
ATOM     45  C   UNL A   1      46.103  26.154  29.134  1.00  0.00     0.074 A 
ATOM     46  C   UNL A   1      46.439  24.805  28.734  1.00  0.00     0.031 C 
ATOM     47  C   UNL A   1      39.764  26.428  28.103  1.00  0.00     0.029 A 
ATOM     48  C   UNL A   1      40.622  27.476  28.645  1.00  0.00     0.049 A 
ATOM     49  H   UNL A   1      42.686  27.409  28.919  1.00  0.00     0.167 HD
ATOM     50  C   UNL A   1      46.999  27.056  29.601  1.00  0.00     0.037 A 
ATOM     51  C   UNL A   1      40.207  28.686  29.067  1.00  0.00     0.037 A 
ATOM     52  C   UNL A   1      46.663  28.404  29.979  1.00  0.00     0.049 A 
ATOM     53  C   UNL A   1      41.217  29.664  29.596  1.00  0.00     0.074 A 
ATOM     54  C   UNL A   1      47.506  29.413  30.411  1.00  0.00     0.029 A 
ATOM     55  N   UNL A   1      45.378  28.928  29.977  1.00  0.00    -0.354 N 
ATOM     56  N   UNL A   1      42.514  29.523  29.730  1.00  0.00    -0.248 NA
ATOM     57  C   UNL A   1      40.709  30.973  30.030  1.00  0.00     0.031 C 
ATOM     58  C   UNL A   1      46.725  30.531  30.721  1.00  0.00     0.029 A 
ATOM     59  C   UNL A   1      45.403  30.239  30.424  1.00  0.00     0.049 A 
ATOM     60  H   UNL A   1      44.569  28.441  29.699  1.00  0.00     0.167 HD
ATOM     61  C   UNL A   1      42.980  30.732  30.228  1.00  0.00     0.074 A 
ATOM     62  C   UNL A   1      41.829  31.599  30.365  1.00  0.00     0.031 C 
ATOM     63  C   UNL A   1      44.249  31.093  30.542  1.00  0.00     0.037 A 
BRANCH  50  64
ATOM     64  C   UNL A   1      48.428  26.615  29.728  1.00  0.00     0.057 A 
ATOM     65  C   UNL A   1      49.363  26.827  28.705  1.00  0.00     0.134 A 
ATOM     66  C   UNL A   1      48.887  26.001  30.900  1.00  0.00     0.134 A 
ATOM     67  F   UNL A   1      48.989  27.400  27.550  1.00  0.00    -0.206 F 
ATOM     68  C   UNL A   1      50.692  26.418  28.831  1.00  0.00     0.040 A 
ATOM     69  C   UNL A   1      50.221  25.615  31.051  1.00  0.00     0.040 A 
ATOM     70  F   UNL A   1      48.049  25.773  31.923  1.00  0.00    -0.206 F 
ATOM     71  C   UNL A   1      51.125  25.817  30.010  1.00  0.00     0.006 A 
ENDBRANCH  50  64
BRANCH  51  72
ATOM     72  C   UNL A   1      38.769  29.047  28.984  1.00  0.00     0.057 A 
ATOM     73  C   UNL A   1      38.210  29.522  27.791  1.00  0.00     0.134 A 
ATOM     74  C   UNL A   1      37.920  28.935  30.092  1.00  0.00     0.134 A 
ATOM     75  F   UNL A   1      38.976  29.668  26.699  1.00  0.00    -0.206 F 
ATOM     76  C   UNL A   1      36.867  29.894  27.708  1.00  0.00     0.040 A 
ATOM     77  C   UNL A   1      36.569  29.277  30.016  1.00  0.00     0.040 A 
ATOM     78  F   UNL A   1      38.389  28.477  31.262  1.00  0.00    -0.206 F 
ATOM     79  C   UNL A   1      36.041  29.766  28.823  1.00  0.00     0.006 A 
ENDBRANCH  51  72
BRANCH  63  80
ATOM     80  C   UNL A   1      44.468  32.500  31.019  1.00  0.00     0.057 A 
ATOM     81  C   UNL A   1      44.466  32.833  32.379  1.00  0.00     0.134 A 
ATOM     82  C   UNL A   1      44.738  33.525  30.102  1.00  0.00     0.134 A 
ATOM     83  F   UNL A   1      44.202  31.901  33.307  1.00  0.00    -0.206 F 
ATOM     84  C   UNL A   1      44.704  34.140  32.809  1.00  0.00     0.040 A 
ATOM     85  C   UNL A   1      45.007  34.828  30.521  1.00  0.00     0.040 A 
ATOM     86  F   UNL A   1      44.765  33.271  28.785  1.00  0.00    -0.206 F 
ATOM     87  C   UNL A   1      44.984  35.140  31.879  1.00  0.00     0.006 A 
ENDBRANCH  63  80
ENDBRANCH  37  38
ENDBRANCH  29  32
ENDBRANCH  27  28
ENDBRANCH  26  27
ENDBRANCH  25  26
ENDBRANCH   1  25
TORSDOF 16
ENDMDL
