MODEL 1
REMARK VINA RESULT:     -11.3      0.000      0.000
REMARK SMILES O=C(NCCCCCCNC(=O)c1cccc(CS(=O)(=O)NCc2ccccc2)c1)c1ccc(-c2c3nc(c(-c4c(F)cccc4F)c4ccc([nH]4)c(-c4c(F)cccc4F)c4nc(c(-c5c(F)cccc5F)c5ccc2[nH]5)C=C4)C=C3)cc1
REMARK SMILES IDX 8 1 7 2 6 3 5 4 4 5 3 6 1 7 2 8 31 10 32 11 84 12 33 13
REMARK SMILES IDX 83 14 34 15 35 16 36 17 77 18 37 19 82 20 76 21 78 22 38 23
REMARK SMILES IDX 81 24 75 25 74 26 39 28 65 29 48 30 64 31 49 32 52 33 63 34
REMARK SMILES IDX 79 35 50 36 51 37 62 39 80 40 53 41 40 42 41 43 46 44 42 45
REMARK SMILES IDX 43 46 45 47 47 48 44 49 66 50 67 51 72 52 68 53 69 54 71 55
REMARK SMILES IDX 73 56 70 57 54 58 55 59 60 60 56 61 57 62 59 63 61 64 58 65
REMARK SMILES IDX 9 66 10 67 11 68 12 70 13 71 14 72 30 73 15 74 17 75 16 76
REMARK SMILES IDX 18 77 19 78 20 79 21 80 22 81 23 83 24 84 25 85 29 86 26 87
REMARK SMILES IDX 28 88 27 89
REMARK H PARENT 3 9 78 27 52 38 10 69 22 82
REMARK Flexibility Score: inf
ROOT
ATOM      1  C   UNL A   1      33.572  20.392  25.814  1.00  0.00     0.021 C 
ENDROOT
BRANCH   1   2
ATOM      2  C   UNL A   1      34.672  20.393  24.752  1.00  0.00     0.002 C 
BRANCH   2   3
ATOM      3  C   UNL A   1      35.973  21.086  25.168  1.00  0.00     0.002 C 
BRANCH   3   4
ATOM      4  C   UNL A   1      37.254  20.350  24.774  1.00  0.00     0.021 C 
BRANCH   4   5
ATOM      5  C   UNL A   1      38.483  20.762  25.570  1.00  0.00     0.116 C 
BRANCH   5   6
ATOM      6  N   UNL A   1      39.482  19.709  25.609  1.00  0.00    -0.352 N 
ATOM      7  O   UNL A   1      41.572  18.865  25.733  1.00  0.00    -0.269 OA
ATOM      8  C   UNL A   1      40.810  19.804  25.935  1.00  0.00     0.251 C 
ATOM      9  H   UNL A   1      39.163  18.808  25.371  1.00  0.00     0.163 HD
BRANCH   8  10
ATOM     10  C   UNL A   1      41.317  21.059  26.528  1.00  0.00     0.039 A 
ATOM     11  C   UNL A   1      41.899  22.036  25.715  1.00  0.00     0.014 A 
ATOM     12  C   UNL A   1      41.183  21.267  27.902  1.00  0.00     0.014 A 
ATOM     13  C   UNL A   1      42.433  23.183  26.289  1.00  0.00     0.010 A 
ATOM     14  C   UNL A   1      41.645  22.457  28.466  1.00  0.00     0.010 A 
ATOM     15  C   UNL A   1      42.272  23.423  27.662  1.00  0.00    -0.014 A 
BRANCH  15  16
ATOM     16  C   UNL A   1      42.627  24.753  28.210  1.00  0.00     0.031 A 
ATOM     17  C   UNL A   1      41.593  25.816  28.424  1.00  0.00     0.074 A 
ATOM     18  C   UNL A   1      43.925  24.989  28.487  1.00  0.00     0.049 A 
ATOM     19  N   UNL A   1      41.758  27.044  28.846  1.00  0.00    -0.248 NA
ATOM     20  C   UNL A   1      40.197  25.467  28.121  1.00  0.00     0.031 C 
ATOM     21  C   UNL A   1      45.016  24.028  28.295  1.00  0.00     0.029 A 
ATOM     22  N   UNL A   1      44.553  26.103  28.982  1.00  0.00    -0.354 N 
ATOM     23  C   UNL A   1      40.495  27.621  28.840  1.00  0.00     0.074 A 
ATOM     24  C   UNL A   1      39.572  26.613  28.363  1.00  0.00     0.031 C 
ATOM     25  C   UNL A   1      46.171  24.586  28.680  1.00  0.00     0.029 A 
ATOM     26  C   UNL A   1      45.917  25.964  29.078  1.00  0.00     0.049 A 
ATOM     27  H   UNL A   1      44.073  26.922  29.241  1.00  0.00     0.167 HD
ATOM     28  C   UNL A   1      40.150  28.880  29.200  1.00  0.00     0.037 A 
ATOM     29  C   UNL A   1      46.864  26.859  29.406  1.00  0.00     0.037 A 
ATOM     30  C   UNL A   1      41.080  29.866  29.691  1.00  0.00     0.049 A 
ATOM     31  C   UNL A   1      46.448  28.256  29.759  1.00  0.00     0.074 A 
ATOM     32  C   UNL A   1      40.812  31.139  30.162  1.00  0.00     0.029 A 
ATOM     33  N   UNL A   1      42.455  29.695  29.756  1.00  0.00    -0.354 N 
ATOM     34  N   UNL A   1      45.242  28.763  29.829  1.00  0.00    -0.248 NA
ATOM     35  C   UNL A   1      47.522  29.208  30.069  1.00  0.00     0.031 C 
ATOM     36  C   UNL A   1      42.030  31.763  30.450  1.00  0.00     0.029 A 
ATOM     37  C   UNL A   1      43.053  30.859  30.212  1.00  0.00     0.049 A 
ATOM     38  H   UNL A   1      42.934  28.869  29.516  1.00  0.00     0.167 HD
ATOM     39  C   UNL A   1      45.409  30.089  30.198  1.00  0.00     0.074 A 
ATOM     40  C   UNL A   1      46.832  30.300  30.368  1.00  0.00     0.031 C 
ATOM     41  C   UNL A   1      44.471  31.051  30.371  1.00  0.00     0.037 A 
BRANCH  28  42
ATOM     42  C   UNL A   1      38.713  29.291  29.064  1.00  0.00     0.057 A 
ATOM     43  C   UNL A   1      38.148  29.622  27.828  1.00  0.00     0.134 A 
ATOM     44  C   UNL A   1      37.859  29.247  30.174  1.00  0.00     0.134 A 
ATOM     45  F   UNL A   1      38.911  29.688  26.726  1.00  0.00    -0.206 F 
ATOM     46  C   UNL A   1      36.784  29.898  27.700  1.00  0.00     0.040 A 
ATOM     47  C   UNL A   1      36.492  29.500  30.057  1.00  0.00     0.040 A 
ATOM     48  F   UNL A   1      38.335  28.928  31.388  1.00  0.00    -0.206 F 
ATOM     49  C   UNL A   1      35.950  29.826  28.815  1.00  0.00     0.006 A 
ENDBRANCH  28  42
BRANCH  29  50
ATOM     50  C   UNL A   1      48.299  26.475  29.359  1.00  0.00     0.057 A 
ATOM     51  C   UNL A   1      48.919  25.844  30.442  1.00  0.00     0.134 A 
ATOM     52  C   UNL A   1      49.087  26.751  28.234  1.00  0.00     0.134 A 
ATOM     53  F   UNL A   1      48.220  25.568  31.554  1.00  0.00    -0.206 F 
ATOM     54  C   UNL A   1      50.277  25.524  30.420  1.00  0.00     0.040 A 
ATOM     55  C   UNL A   1      50.438  26.407  28.185  1.00  0.00     0.040 A 
ATOM     56  F   UNL A   1      48.551  27.346  27.160  1.00  0.00    -0.206 F 
ATOM     57  C   UNL A   1      51.040  25.803  29.286  1.00  0.00     0.006 A 
ENDBRANCH  29  50
BRANCH  41  58
ATOM     58  C   UNL A   1      44.956  32.412  30.770  1.00  0.00     0.057 A 
ATOM     59  C   UNL A   1      45.238  33.398  29.817  1.00  0.00     0.134 A 
ATOM     60  C   UNL A   1      45.105  32.752  32.120  1.00  0.00     0.134 A 
ATOM     61  F   UNL A   1      45.132  33.128  28.507  1.00  0.00    -0.206 F 
ATOM     62  C   UNL A   1      45.667  34.671  30.192  1.00  0.00     0.040 A 
ATOM     63  C   UNL A   1      45.506  34.029  32.509  1.00  0.00     0.040 A 
ATOM     64  F   UNL A   1      44.846  31.853  33.082  1.00  0.00    -0.206 F 
ATOM     65  C   UNL A   1      45.792  34.992  31.543  1.00  0.00     0.006 A 
ENDBRANCH  41  58
ENDBRANCH  15  16
ENDBRANCH   8  10
ENDBRANCH   5   6
ENDBRANCH   4   5
ENDBRANCH   3   4
ENDBRANCH   2   3
ENDBRANCH   1   2
BRANCH   1  66
ATOM     66  C   UNL A   1      32.209  20.829  25.297  1.00  0.00     0.116 C 
BRANCH  66  67
ATOM     67  N   UNL A   1      31.502  21.657  26.261  1.00  0.00    -0.352 N 
ATOM     68  C   UNL A   1      31.697  22.991  26.514  1.00  0.00     0.251 C 
ATOM     69  H   UNL A   1      30.803  21.210  26.792  1.00  0.00     0.163 HD
ATOM     70  O   UNL A   1      31.138  23.569  27.435  1.00  0.00    -0.269 OA
BRANCH  68  71
ATOM     71  C   UNL A   1      32.617  23.711  25.620  1.00  0.00     0.040 A 
ATOM     72  C   UNL A   1      33.792  24.253  26.134  1.00  0.00     0.014 A 
ATOM     73  C   UNL A   1      32.345  23.732  24.248  1.00  0.00     0.018 A 
ATOM     74  C   UNL A   1      34.745  24.747  25.246  1.00  0.00     0.001 A 
ATOM     75  C   UNL A   1      33.282  24.255  23.354  1.00  0.00    -0.031 A 
ATOM     76  C   UNL A   1      34.504  24.719  23.865  1.00  0.00     0.005 A 
BRANCH  75  77
ATOM     77  C   UNL A   1      32.970  24.275  21.883  1.00  0.00     0.189 C 
BRANCH  77  78
ATOM     78  S   UNL A   1      32.575  25.922  21.267  1.00  0.00     0.216 S 
ATOM     79  O   UNL A   1      33.759  26.753  21.316  1.00  0.00    -0.212 OA
ATOM     80  O   UNL A   1      31.906  25.721  19.998  1.00  0.00    -0.212 OA
BRANCH  78  81
ATOM     81  N   UNL A   1      31.385  26.560  22.238  1.00  0.00    -0.211 NA
ATOM     82  H   UNL A   1      31.183  25.833  22.925  1.00  0.00     0.141 HD
BRANCH  81  83
ATOM     83  C   UNL A   1      31.469  27.802  23.010  1.00  0.00     0.134 C 
BRANCH  83  84
ATOM     84  C   UNL A   1      32.048  27.751  24.399  1.00  0.00    -0.033 A 
ATOM     85  C   UNL A   1      31.306  27.200  25.452  1.00  0.00     0.005 A 
ATOM     86  C   UNL A   1      33.291  28.317  24.701  1.00  0.00     0.005 A 
ATOM     87  C   UNL A   1      31.777  27.192  26.761  1.00  0.00     0.000 A 
ATOM     88  C   UNL A   1      33.761  28.329  26.020  1.00  0.00     0.000 A 
ATOM     89  C   UNL A   1      33.007  27.765  27.047  1.00  0.00     0.000 A 
ENDBRANCH  83  84
ENDBRANCH  81  83
ENDBRANCH  78  81
ENDBRANCH  77  78
ENDBRANCH  75  77
ENDBRANCH  68  71
ENDBRANCH  66  67
ENDBRANCH   1  66
TORSDOF 18
ENDMDL
MODEL 2
REMARK VINA RESULT:     -11.0      4.452      9.002
REMARK SMILES O=C(NCCCCCCNC(=O)c1cccc(CS(=O)(=O)NCc2ccccc2)c1)c1ccc(-c2c3nc(c(-c4c(F)cccc4F)c4ccc([nH]4)c(-c4c(F)cccc4F)c4nc(c(-c5c(F)cccc5F)c5ccc2[nH]5)C=C4)C=C3)cc1
REMARK SMILES IDX 8 1 7 2 6 3 5 4 4 5 3 6 1 7 2 8 31 10 32 11 84 12 33 13
REMARK SMILES IDX 83 14 34 15 35 16 36 17 77 18 37 19 82 20 76 21 78 22 38 23
REMARK SMILES IDX 81 24 75 25 74 26 39 28 65 29 48 30 64 31 49 32 52 33 63 34
REMARK SMILES IDX 79 35 50 36 51 37 62 39 80 40 53 41 40 42 41 43 46 44 42 45
REMARK SMILES IDX 43 46 45 47 47 48 44 49 66 50 67 51 72 52 68 53 69 54 71 55
REMARK SMILES IDX 73 56 70 57 54 58 55 59 60 60 56 61 57 62 59 63 61 64 58 65
REMARK SMILES IDX 9 66 10 67 11 68 12 70 13 71 14 72 30 73 15 74 17 75 16 76
REMARK SMILES IDX 18 77 19 78 20 79 21 80 22 81 23 83 24 84 25 85 29 86 26 87
REMARK SMILES IDX 28 88 27 89
REMARK H PARENT 3 9 78 27 52 38 10 69 22 82
REMARK Flexibility Score: inf
ROOT
ATOM      1  C   UNL A   1      32.628  28.663  27.255  1.00  0.00     0.021 C 
ENDROOT
BRANCH   1   2
ATOM      2  C   UNL A   1      32.823  30.034  26.610  1.00  0.00     0.002 C 
BRANCH   2   3
ATOM      3  C   UNL A   1      31.537  30.710  26.125  1.00  0.00     0.002 C 
BRANCH   3   4
ATOM      4  C   UNL A   1      31.391  32.181  26.516  1.00  0.00     0.021 C 
BRANCH   4   5
ATOM      5  C   UNL A   1      32.611  32.769  27.208  1.00  0.00     0.116 C 
BRANCH   5   6
ATOM      6  N   UNL A   1      32.388  34.142  27.626  1.00  0.00    -0.352 N 
ATOM      7  O   UNL A   1      32.568  35.926  28.998  1.00  0.00    -0.269 OA
ATOM      8  C   UNL A   1      33.000  34.837  28.637  1.00  0.00     0.251 C 
ATOM      9  H   UNL A   1      31.708  34.640  27.116  1.00  0.00     0.163 HD
BRANCH   8  10
ATOM     10  C   UNL A   1      34.188  34.253  29.294  1.00  0.00     0.039 A 
ATOM     11  C   UNL A   1      34.038  33.425  30.411  1.00  0.00     0.014 A 
ATOM     12  C   UNL A   1      35.455  34.515  28.771  1.00  0.00     0.014 A 
ATOM     13  C   UNL A   1      35.162  32.935  31.063  1.00  0.00     0.010 A 
ATOM     14  C   UNL A   1      36.580  33.953  29.378  1.00  0.00     0.010 A 
ATOM     15  C   UNL A   1      36.439  33.158  30.527  1.00  0.00    -0.014 A 
BRANCH  15  16
ATOM     16  C   UNL A   1      37.598  32.428  31.092  1.00  0.00     0.031 A 
ATOM     17  C   UNL A   1      38.253  31.301  30.352  1.00  0.00     0.074 A 
ATOM     18  C   UNL A   1      38.032  32.793  32.315  1.00  0.00     0.049 A 
ATOM     19  N   UNL A   1      39.241  30.535  30.737  1.00  0.00    -0.248 NA
ATOM     20  C   UNL A   1      37.735  30.985  29.012  1.00  0.00     0.031 C 
ATOM     21  C   UNL A   1      37.450  33.864  33.130  1.00  0.00     0.029 A 
ATOM     22  N   UNL A   1      39.053  32.308  33.090  1.00  0.00    -0.354 N 
ATOM     23  C   UNL A   1      39.450  29.633  29.702  1.00  0.00     0.074 A 
ATOM     24  C   UNL A   1      38.480  29.940  28.673  1.00  0.00     0.031 C 
ATOM     25  C   UNL A   1      38.130  33.964  34.280  1.00  0.00     0.029 A 
ATOM     26  C   UNL A   1      39.147  32.923  34.316  1.00  0.00     0.049 A 
ATOM     27  H   UNL A   1      39.658  31.589  32.798  1.00  0.00     0.167 HD
ATOM     28  C   UNL A   1      40.370  28.642  29.630  1.00  0.00     0.037 A 
ATOM     29  C   UNL A   1      39.934  32.650  35.371  1.00  0.00     0.037 A 
ATOM     30  C   UNL A   1      41.342  28.363  30.658  1.00  0.00     0.049 A 
ATOM     31  C   UNL A   1      40.912  31.518  35.270  1.00  0.00     0.074 A 
ATOM     32  C   UNL A   1      42.369  27.436  30.639  1.00  0.00     0.029 A 
ATOM     33  N   UNL A   1      41.393  28.993  31.892  1.00  0.00    -0.354 N 
ATOM     34  N   UNL A   1      41.154  30.727  34.253  1.00  0.00    -0.248 NA
ATOM     35  C   UNL A   1      41.719  31.232  36.463  1.00  0.00     0.031 C 
ATOM     36  C   UNL A   1      43.001  27.459  31.885  1.00  0.00     0.029 A 
ATOM     37  C   UNL A   1      42.404  28.439  32.662  1.00  0.00     0.049 A 
ATOM     38  H   UNL A   1      40.801  29.725  32.178  1.00  0.00     0.167 HD
ATOM     39  C   UNL A   1      42.146  29.856  34.679  1.00  0.00     0.074 A 
ATOM     40  C   UNL A   1      42.482  30.235  36.036  1.00  0.00     0.031 C 
ATOM     41  C   UNL A   1      42.720  28.827  34.012  1.00  0.00     0.037 A 
BRANCH  28  42
ATOM     42  C   UNL A   1      40.374  27.760  28.416  1.00  0.00     0.057 A 
ATOM     43  C   UNL A   1      41.110  28.078  27.269  1.00  0.00     0.134 A 
ATOM     44  C   UNL A   1      39.717  26.523  28.441  1.00  0.00     0.134 A 
ATOM     45  F   UNL A   1      41.758  29.250  27.178  1.00  0.00    -0.206 F 
ATOM     46  C   UNL A   1      41.191  27.196  26.188  1.00  0.00     0.040 A 
ATOM     47  C   UNL A   1      39.807  25.625  27.377  1.00  0.00     0.040 A 
ATOM     48  F   UNL A   1      39.001  26.153  29.514  1.00  0.00    -0.206 F 
ATOM     49  C   UNL A   1      40.547  25.961  26.245  1.00  0.00     0.006 A 
ENDBRANCH  28  42
BRANCH  29  50
ATOM     50  C   UNL A   1      39.786  33.425  36.630  1.00  0.00     0.057 A 
ATOM     51  C   UNL A   1      40.564  34.559  36.882  1.00  0.00     0.134 A 
ATOM     52  C   UNL A   1      38.874  33.034  37.620  1.00  0.00     0.134 A 
ATOM     53  F   UNL A   1      41.466  34.974  35.979  1.00  0.00    -0.206 F 
ATOM     54  C   UNL A   1      40.461  35.263  38.082  1.00  0.00     0.040 A 
ATOM     55  C   UNL A   1      38.737  33.747  38.811  1.00  0.00     0.040 A 
ATOM     56  F   UNL A   1      38.092  31.962  37.436  1.00  0.00    -0.206 F 
ATOM     57  C   UNL A   1      39.542  34.859  39.050  1.00  0.00     0.006 A 
ENDBRANCH  29  50
BRANCH  41  58
ATOM     58  C   UNL A   1      43.773  28.047  34.739  1.00  0.00     0.057 A 
ATOM     59  C   UNL A   1      45.115  28.447  34.737  1.00  0.00     0.134 A 
ATOM     60  C   UNL A   1      43.436  26.909  35.482  1.00  0.00     0.134 A 
ATOM     61  F   UNL A   1      45.504  29.518  34.029  1.00  0.00    -0.206 F 
ATOM     62  C   UNL A   1      46.089  27.732  35.434  1.00  0.00     0.040 A 
ATOM     63  C   UNL A   1      44.395  26.202  36.207  1.00  0.00     0.040 A 
ATOM     64  F   UNL A   1      42.167  26.477  35.529  1.00  0.00    -0.206 F 
ATOM     65  C   UNL A   1      45.727  26.611  36.180  1.00  0.00     0.006 A 
ENDBRANCH  41  58
ENDBRANCH  15  16
ENDBRANCH   8  10
ENDBRANCH   5   6
ENDBRANCH   4   5
ENDBRANCH   3   4
ENDBRANCH   2   3
ENDBRANCH   1   2
BRANCH   1  66
ATOM     66  C   UNL A   1      32.220  27.569  26.279  1.00  0.00     0.116 C 
BRANCH  66  67
ATOM     67  N   UNL A   1      31.612  26.435  26.956  1.00  0.00    -0.352 N 
ATOM     68  C   UNL A   1      31.779  25.104  26.665  1.00  0.00     0.251 C 
ATOM     69  H   UNL A   1      31.012  26.645  27.708  1.00  0.00     0.163 HD
ATOM     70  O   UNL A   1      31.122  24.229  27.212  1.00  0.00    -0.269 OA
BRANCH  68  71
ATOM     71  C   UNL A   1      32.793  24.765  25.655  1.00  0.00     0.040 A 
ATOM     72  C   UNL A   1      34.064  24.370  26.062  1.00  0.00     0.014 A 
ATOM     73  C   UNL A   1      32.418  24.734  24.307  1.00  0.00     0.018 A 
ATOM     74  C   UNL A   1      34.942  23.856  25.111  1.00  0.00     0.001 A 
ATOM     75  C   UNL A   1      33.305  24.251  23.342  1.00  0.00    -0.031 A 
ATOM     76  C   UNL A   1      34.553  23.768  23.766  1.00  0.00     0.005 A 
BRANCH  75  77
ATOM     77  C   UNL A   1      32.888  24.230  21.899  1.00  0.00     0.189 C 
BRANCH  77  78
ATOM     78  S   UNL A   1      32.902  25.863  21.135  1.00  0.00     0.216 S 
ATOM     79  O   UNL A   1      34.008  26.633  21.664  1.00  0.00    -0.212 OA
ATOM     80  O   UNL A   1      32.822  25.635  19.707  1.00  0.00    -0.212 OA
BRANCH  78  81
ATOM     81  N   UNL A   1      31.459  26.609  21.494  1.00  0.00    -0.211 NA
ATOM     82  H   UNL A   1      30.797  25.848  21.647  1.00  0.00     0.141 HD
BRANCH  81  83
ATOM     83  C   UNL A   1      31.219  27.551  22.590  1.00  0.00     0.134 C 
BRANCH  83  84
ATOM     84  C   UNL A   1      29.984  28.411  22.544  1.00  0.00    -0.033 A 
ATOM     85  C   UNL A   1      30.042  29.700  22.000  1.00  0.00     0.005 A 
ATOM     86  C   UNL A   1      28.775  27.995  23.110  1.00  0.00     0.005 A 
ATOM     87  C   UNL A   1      28.942  30.551  21.998  1.00  0.00     0.000 A 
ATOM     88  C   UNL A   1      27.669  28.853  23.128  1.00  0.00     0.000 A 
ATOM     89  C   UNL A   1      27.752  30.128  22.571  1.00  0.00     0.000 A 
ENDBRANCH  83  84
ENDBRANCH  81  83
ENDBRANCH  78  81
ENDBRANCH  77  78
ENDBRANCH  75  77
ENDBRANCH  68  71
ENDBRANCH  66  67
ENDBRANCH   1  66
TORSDOF 18
ENDMDL
MODEL 3
REMARK VINA RESULT:     -10.7      4.292      9.299
REMARK SMILES O=C(NCCCCCCNC(=O)c1cccc(CS(=O)(=O)NCc2ccccc2)c1)c1ccc(-c2c3nc(c(-c4c(F)cccc4F)c4ccc([nH]4)c(-c4c(F)cccc4F)c4nc(c(-c5c(F)cccc5F)c5ccc2[nH]5)C=C4)C=C3)cc1
REMARK SMILES IDX 8 1 7 2 6 3 5 4 4 5 3 6 1 7 2 8 31 10 32 11 84 12 33 13
REMARK SMILES IDX 83 14 34 15 35 16 36 17 77 18 37 19 82 20 76 21 78 22 38 23
REMARK SMILES IDX 81 24 75 25 74 26 39 28 65 29 48 30 64 31 49 32 52 33 63 34
REMARK SMILES IDX 79 35 50 36 51 37 62 39 80 40 53 41 40 42 41 43 46 44 42 45
REMARK SMILES IDX 43 46 45 47 47 48 44 49 66 50 67 51 72 52 68 53 69 54 71 55
REMARK SMILES IDX 73 56 70 57 54 58 55 59 60 60 56 61 57 62 59 63 61 64 58 65
REMARK SMILES IDX 9 66 10 67 11 68 12 70 13 71 14 72 30 73 15 74 17 75 16 76
REMARK SMILES IDX 18 77 19 78 20 79 21 80 22 81 23 83 24 84 25 85 29 86 26 87
REMARK SMILES IDX 28 88 27 89
REMARK H PARENT 3 9 78 27 52 38 10 69 22 82
REMARK Flexibility Score: inf
ROOT
ATOM      1  C   UNL A   1      31.900  28.256  26.250  1.00  0.00     0.021 C 
ENDROOT
BRANCH   1   2
ATOM      2  C   UNL A   1      31.842  29.589  26.993  1.00  0.00     0.002 C 
BRANCH   2   3
ATOM      3  C   UNL A   1      31.600  30.814  26.106  1.00  0.00     0.002 C 
BRANCH   3   4
ATOM      4  C   UNL A   1      31.373  32.125  26.860  1.00  0.00     0.021 C 
BRANCH   4   5
ATOM      5  C   UNL A   1      32.649  32.870  27.220  1.00  0.00     0.116 C 
BRANCH   5   6
ATOM      6  N   UNL A   1      32.383  34.238  27.627  1.00  0.00    -0.352 N 
ATOM      7  O   UNL A   1      32.530  36.047  28.969  1.00  0.00    -0.269 OA
ATOM      8  C   UNL A   1      32.996  34.972  28.609  1.00  0.00     0.251 C 
ATOM      9  H   UNL A   1      31.668  34.700  27.131  1.00  0.00     0.163 HD
BRANCH   8  10
ATOM     10  C   UNL A   1      34.226  34.446  29.237  1.00  0.00     0.039 A 
ATOM     11  C   UNL A   1      34.162  33.796  30.474  1.00  0.00     0.014 A 
ATOM     12  C   UNL A   1      35.444  34.582  28.570  1.00  0.00     0.014 A 
ATOM     13  C   UNL A   1      35.330  33.365  31.088  1.00  0.00     0.010 A 
ATOM     14  C   UNL A   1      36.607  34.073  29.151  1.00  0.00     0.010 A 
ATOM     15  C   UNL A   1      36.557  33.460  30.413  1.00  0.00    -0.014 A 
BRANCH  15  16
ATOM     16  C   UNL A   1      37.746  32.778  30.974  1.00  0.00     0.031 A 
ATOM     17  C   UNL A   1      38.324  31.552  30.333  1.00  0.00     0.074 A 
ATOM     18  C   UNL A   1      38.281  33.281  32.104  1.00  0.00     0.049 A 
ATOM     19  N   UNL A   1      39.328  30.816  30.735  1.00  0.00    -0.248 NA
ATOM     20  C   UNL A   1      37.696  31.085  29.088  1.00  0.00     0.031 C 
ATOM     21  C   UNL A   1      37.781  34.459  32.821  1.00  0.00     0.029 A 
ATOM     22  N   UNL A   1      39.353  32.871  32.854  1.00  0.00    -0.354 N 
ATOM     23  C   UNL A   1      39.441  29.787  29.808  1.00  0.00     0.074 A 
ATOM     24  C   UNL A   1      38.397  29.987  28.827  1.00  0.00     0.031 C 
ATOM     25  C   UNL A   1      38.551  34.684  33.893  1.00  0.00     0.029 A 
ATOM     26  C   UNL A   1      39.553  33.631  33.982  1.00  0.00     0.049 A 
ATOM     27  H   UNL A   1      39.923  32.107  32.609  1.00  0.00     0.167 HD
ATOM     28  C   UNL A   1      40.337  28.773  29.791  1.00  0.00     0.037 A 
ATOM     29  C   UNL A   1      40.417  33.472  34.999  1.00  0.00     0.037 A 
ATOM     30  C   UNL A   1      41.383  28.600  30.768  1.00  0.00     0.049 A 
ATOM     31  C   UNL A   1      41.368  32.312  34.966  1.00  0.00     0.074 A 
ATOM     32  C   UNL A   1      42.392  27.652  30.786  1.00  0.00     0.029 A 
ATOM     33  N   UNL A   1      41.542  29.377  31.905  1.00  0.00    -0.354 N 
ATOM     34  N   UNL A   1      41.517  31.396  34.041  1.00  0.00    -0.248 NA
ATOM     35  C   UNL A   1      42.262  32.157  36.120  1.00  0.00     0.031 C 
ATOM     36  C   UNL A   1      43.122  27.815  31.967  1.00  0.00     0.029 A 
ATOM     37  C   UNL A   1      42.602  28.898  32.658  1.00  0.00     0.049 A 
ATOM     38  H   UNL A   1      40.985  30.153  32.142  1.00  0.00     0.167 HD
ATOM     39  C   UNL A   1      42.526  30.560  34.496  1.00  0.00     0.074 A 
ATOM     40  C   UNL A   1      42.974  31.097  35.764  1.00  0.00     0.031 C 
ATOM     41  C   UNL A   1      43.031  29.443  33.920  1.00  0.00     0.037 A 
BRANCH  28  42
ATOM     42  C   UNL A   1      40.232  27.748  28.701  1.00  0.00     0.057 A 
ATOM     43  C   UNL A   1      40.911  27.883  27.485  1.00  0.00     0.134 A 
ATOM     44  C   UNL A   1      39.527  26.556  28.918  1.00  0.00     0.134 A 
ATOM     45  F   UNL A   1      41.601  29.001  27.210  1.00  0.00    -0.206 F 
ATOM     46  C   UNL A   1      40.891  26.870  26.521  1.00  0.00     0.040 A 
ATOM     47  C   UNL A   1      39.515  25.530  27.973  1.00  0.00     0.040 A 
ATOM     48  F   UNL A   1      38.861  26.359  30.066  1.00  0.00    -0.206 F 
ATOM     49  C   UNL A   1      40.200  25.685  26.770  1.00  0.00     0.006 A 
ENDBRANCH  28  42
BRANCH  29  50
ATOM     50  C   UNL A   1      40.381  34.401  36.158  1.00  0.00     0.057 A 
ATOM     51  C   UNL A   1      41.166  35.557  36.188  1.00  0.00     0.134 A 
ATOM     52  C   UNL A   1      39.573  34.139  37.273  1.00  0.00     0.134 A 
ATOM     53  F   UNL A   1      41.972  35.854  35.158  1.00  0.00    -0.206 F 
ATOM     54  C   UNL A   1      41.170  36.408  37.295  1.00  0.00     0.040 A 
ATOM     55  C   UNL A   1      39.541  34.997  38.371  1.00  0.00     0.040 A 
ATOM     56  F   UNL A   1      38.789  33.052  37.302  1.00  0.00    -0.206 F 
ATOM     57  C   UNL A   1      40.352  36.130  38.389  1.00  0.00     0.006 A 
ENDBRANCH  29  50
BRANCH  41  58
ATOM     58  C   UNL A   1      44.127  28.733  34.657  1.00  0.00     0.057 A 
ATOM     59  C   UNL A   1      43.855  27.686  35.545  1.00  0.00     0.134 A 
ATOM     60  C   UNL A   1      45.469  29.075  34.446  1.00  0.00     0.134 A 
ATOM     61  F   UNL A   1      42.589  27.324  35.802  1.00  0.00    -0.206 F 
ATOM     62  C   UNL A   1      44.879  27.012  36.210  1.00  0.00     0.040 A 
ATOM     63  C   UNL A   1      46.503  28.390  35.084  1.00  0.00     0.040 A 
ATOM     64  F   UNL A   1      45.795  30.066  33.604  1.00  0.00    -0.206 F 
ATOM     65  C   UNL A   1      46.209  27.358  35.973  1.00  0.00     0.006 A 
ENDBRANCH  41  58
ENDBRANCH  15  16
ENDBRANCH   8  10
ENDBRANCH   5   6
ENDBRANCH   4   5
ENDBRANCH   3   4
ENDBRANCH   2   3
ENDBRANCH   1   2
BRANCH   1  66
ATOM     66  C   UNL A   1      32.515  28.344  24.861  1.00  0.00     0.116 C 
BRANCH  66  67
ATOM     67  N   UNL A   1      31.502  28.465  23.824  1.00  0.00    -0.352 N 
ATOM     68  C   UNL A   1      31.138  27.517  22.902  1.00  0.00     0.251 C 
ATOM     69  H   UNL A   1      31.023  29.324  23.779  1.00  0.00     0.163 HD
ATOM     70  O   UNL A   1      30.363  27.760  21.988  1.00  0.00    -0.269 OA
BRANCH  68  71
ATOM     71  C   UNL A   1      31.724  26.176  23.057  1.00  0.00     0.040 A 
ATOM     72  C   UNL A   1      32.953  25.889  22.471  1.00  0.00     0.014 A 
ATOM     73  C   UNL A   1      31.083  25.254  23.893  1.00  0.00     0.018 A 
ATOM     74  C   UNL A   1      33.587  24.694  22.797  1.00  0.00     0.001 A 
ATOM     75  C   UNL A   1      31.698  24.038  24.199  1.00  0.00    -0.031 A 
ATOM     76  C   UNL A   1      32.978  23.790  23.680  1.00  0.00     0.005 A 
BRANCH  75  77
ATOM     77  C   UNL A   1      30.993  23.057  25.094  1.00  0.00     0.189 C 
BRANCH  77  78
ATOM     78  S   UNL A   1      31.061  23.514  26.836  1.00  0.00     0.216 S 
ATOM     79  O   UNL A   1      31.630  24.839  26.966  1.00  0.00    -0.212 OA
ATOM     80  O   UNL A   1      29.737  23.260  27.365  1.00  0.00    -0.212 OA
BRANCH  78  81
ATOM     81  N   UNL A   1      32.015  22.400  27.621  1.00  0.00    -0.211 NA
ATOM     82  H   UNL A   1      31.895  21.532  27.098  1.00  0.00     0.141 HD
BRANCH  81  83
ATOM     83  C   UNL A   1      33.457  22.507  27.857  1.00  0.00     0.134 C 
BRANCH  83  84
ATOM     84  C   UNL A   1      34.398  22.239  26.713  1.00  0.00    -0.033 A 
ATOM     85  C   UNL A   1      35.390  23.171  26.382  1.00  0.00     0.005 A 
ATOM     86  C   UNL A   1      34.265  21.109  25.899  1.00  0.00     0.005 A 
ATOM     87  C   UNL A   1      36.236  22.993  25.292  1.00  0.00     0.000 A 
ATOM     88  C   UNL A   1      35.102  20.933  24.790  1.00  0.00     0.000 A 
ATOM     89  C   UNL A   1      36.087  21.873  24.489  1.00  0.00     0.000 A 
ENDBRANCH  83  84
ENDBRANCH  81  83
ENDBRANCH  78  81
ENDBRANCH  77  78
ENDBRANCH  75  77
ENDBRANCH  68  71
ENDBRANCH  66  67
ENDBRANCH   1  66
TORSDOF 18
ENDMDL
