MODEL 1
REMARK VINA RESULT:     -13.0      0.000      0.000
REMARK SMILES O=C(NCCCCCCNC(=O)c1cc(-c2ccccc2)nc(Nc2nc3ccccc3s2)n1)c1ccc(-c2c3nc(c(-c4c(F)cccc4F)c4ccc([nH]4)c(-c4c(F)cccc4F)c4nc(c(-c5c(F)cccc5F)c5ccc2[nH]5)C=C4)C=C3)cc1
REMARK SMILES IDX 6 1 5 2 4 3 3 4 1 5 2 6 35 8 36 9 88 10 37 11 87 12 38 13
REMARK SMILES IDX 39 14 40 15 81 16 41 17 86 18 80 19 82 20 42 21 85 22 79 23
REMARK SMILES IDX 78 24 43 26 69 27 52 28 68 29 53 30 56 31 67 32 83 33 54 34
REMARK SMILES IDX 55 35 66 37 84 38 57 39 44 40 45 41 50 42 46 43 47 44 49 45
REMARK SMILES IDX 51 46 48 47 70 48 71 49 76 50 72 51 73 52 75 53 77 54 74 55
REMARK SMILES IDX 58 56 59 57 64 58 60 59 61 60 63 61 65 62 62 63 7 64 8 65
REMARK SMILES IDX 9 66 10 67 11 68 12 70 13 71 14 72 34 73 15 74 23 75 22 76
REMARK SMILES IDX 16 77 17 78 21 79 18 80 20 81 19 82 24 83 25 85 26 86 33 87
REMARK SMILES IDX 27 88 32 89 28 90 31 91 29 92 30 93
REMARK H PARENT 3 7 82 25 56 36 10 69 24 84
REMARK Flexibility Score: inf
ROOT
ATOM      1  C   UNL A   1      36.875  20.646  24.975  1.00  0.00     0.002 C 
ENDROOT
BRANCH   1   2
ATOM      2  C   UNL A   1      38.063  19.685  24.940  1.00  0.00     0.021 C 
BRANCH   2   3
ATOM      3  C   UNL A   1      39.272  20.147  25.739  1.00  0.00     0.116 C 
BRANCH   3   4
ATOM      4  N   UNL A   1      40.272  19.102  25.875  1.00  0.00    -0.352 N 
ATOM      5  O   UNL A   1      42.363  18.264  26.020  1.00  0.00    -0.269 OA
ATOM      6  C   UNL A   1      41.616  19.229  26.119  1.00  0.00     0.251 C 
ATOM      7  H   UNL A   1      39.940  18.180  25.778  1.00  0.00     0.163 HD
BRANCH   6   8
ATOM      8  C   UNL A   1      42.158  20.552  26.494  1.00  0.00     0.039 A 
ATOM      9  C   UNL A   1      42.684  21.403  25.517  1.00  0.00     0.014 A 
ATOM     10  C   UNL A   1      42.115  20.953  27.831  1.00  0.00     0.014 A 
ATOM     11  C   UNL A   1      43.258  22.612  25.888  1.00  0.00     0.010 A 
ATOM     12  C   UNL A   1      42.616  22.205  28.192  1.00  0.00     0.010 A 
ATOM     13  C   UNL A   1      43.192  23.042  27.223  1.00  0.00    -0.014 A 
BRANCH  13  14
ATOM     14  C   UNL A   1      43.593  24.429  27.558  1.00  0.00     0.031 A 
ATOM     15  C   UNL A   1      42.583  25.471  27.930  1.00  0.00     0.074 A 
ATOM     16  C   UNL A   1      44.905  24.736  27.492  1.00  0.00     0.049 A 
ATOM     17  N   UNL A   1      42.774  26.738  28.198  1.00  0.00    -0.248 NA
ATOM     18  C   UNL A   1      41.176  25.047  28.007  1.00  0.00     0.031 C 
ATOM     19  C   UNL A   1      45.970  23.799  27.119  1.00  0.00     0.029 A 
ATOM     20  N   UNL A   1      45.567  25.913  27.725  1.00  0.00    -0.354 N 
ATOM     21  C   UNL A   1      41.517  27.270  28.452  1.00  0.00     0.074 A 
ATOM     22  C   UNL A   1      40.565  26.190  28.298  1.00  0.00     0.031 C 
ATOM     23  C   UNL A   1      47.150  24.431  27.165  1.00  0.00     0.029 A 
ATOM     24  C   UNL A   1      46.921  25.830  27.498  1.00  0.00     0.049 A 
ATOM     25  H   UNL A   1      45.119  26.735  28.026  1.00  0.00     0.167 HD
ATOM     26  C   UNL A   1      41.198  28.543  28.782  1.00  0.00     0.037 A 
ATOM     27  C   UNL A   1      47.868  26.785  27.511  1.00  0.00     0.037 A 
ATOM     28  C   UNL A   1      42.162  29.602  28.950  1.00  0.00     0.049 A 
ATOM     29  C   UNL A   1      47.471  28.194  27.838  1.00  0.00     0.074 A 
ATOM     30  C   UNL A   1      41.944  30.904  29.366  1.00  0.00     0.029 A 
ATOM     31  N   UNL A   1      43.520  29.486  28.693  1.00  0.00    -0.354 N 
ATOM     32  N   UNL A   1      46.289  28.663  28.158  1.00  0.00    -0.248 NA
ATOM     33  C   UNL A   1      48.532  29.208  27.798  1.00  0.00     0.031 C 
ATOM     34  C   UNL A   1      43.158  31.593  29.297  1.00  0.00     0.029 A 
ATOM     35  C   UNL A   1      44.142  30.707  28.891  1.00  0.00     0.049 A 
ATOM     36  H   UNL A   1      43.974  28.659  28.411  1.00  0.00     0.167 HD
ATOM     37  C   UNL A   1      46.466  30.023  28.365  1.00  0.00     0.074 A 
ATOM     38  C   UNL A   1      47.874  30.297  28.166  1.00  0.00     0.031 C 
ATOM     39  C   UNL A   1      45.544  30.963  28.684  1.00  0.00     0.037 A 
BRANCH  26  40
ATOM     40  C   UNL A   1      39.750  28.891  28.966  1.00  0.00     0.057 A 
ATOM     41  C   UNL A   1      38.936  29.282  27.896  1.00  0.00     0.134 A 
ATOM     42  C   UNL A   1      39.138  28.728  30.217  1.00  0.00     0.134 A 
ATOM     43  F   UNL A   1      39.460  29.461  26.674  1.00  0.00    -0.206 F 
ATOM     44  C   UNL A   1      37.567  29.499  28.063  1.00  0.00     0.040 A 
ATOM     45  C   UNL A   1      37.767  28.922  30.392  1.00  0.00     0.040 A 
ATOM     46  F   UNL A   1      39.858  28.348  31.282  1.00  0.00    -0.206 F 
ATOM     47  C   UNL A   1      36.977  29.308  29.311  1.00  0.00     0.006 A 
ENDBRANCH  26  40
BRANCH  27  48
ATOM     48  C   UNL A   1      49.268  26.449  27.147  1.00  0.00     0.057 A 
ATOM     49  C   UNL A   1      50.199  26.062  28.117  1.00  0.00     0.134 A 
ATOM     50  C   UNL A   1      49.713  26.528  25.820  1.00  0.00     0.134 A 
ATOM     51  F   UNL A   1      49.838  25.983  29.406  1.00  0.00    -0.206 F 
ATOM     52  C   UNL A   1      51.527  25.791  27.784  1.00  0.00     0.040 A 
ATOM     53  C   UNL A   1      51.029  26.228  25.471  1.00  0.00     0.040 A 
ATOM     54  F   UNL A   1      48.867  26.885  24.842  1.00  0.00    -0.206 F 
ATOM     55  C   UNL A   1      51.943  25.869  26.456  1.00  0.00     0.006 A 
ENDBRANCH  27  48
BRANCH  39  56
ATOM     56  C   UNL A   1      46.033  32.371  28.842  1.00  0.00     0.057 A 
ATOM     57  C   UNL A   1      46.515  32.848  30.067  1.00  0.00     0.134 A 
ATOM     58  C   UNL A   1      46.058  33.247  27.750  1.00  0.00     0.134 A 
ATOM     59  F   UNL A   1      46.500  32.063  31.155  1.00  0.00    -0.206 F 
ATOM     60  C   UNL A   1      46.992  34.151  30.205  1.00  0.00     0.040 A 
ATOM     61  C   UNL A   1      46.559  34.544  27.868  1.00  0.00     0.040 A 
ATOM     62  F   UNL A   1      45.615  32.851  26.547  1.00  0.00    -0.206 F 
ATOM     63  C   UNL A   1      47.023  35.001  29.100  1.00  0.00     0.006 A 
ENDBRANCH  39  56
ENDBRANCH  13  14
ENDBRANCH   6   8
ENDBRANCH   3   4
ENDBRANCH   2   3
ENDBRANCH   1   2
BRANCH   1  64
ATOM     64  C   UNL A   1      37.140  22.030  24.377  1.00  0.00     0.002 C 
BRANCH  64  65
ATOM     65  C   UNL A   1      37.170  23.185  25.383  1.00  0.00     0.021 C 
BRANCH  65  66
ATOM     66  C   UNL A   1      35.849  23.926  25.549  1.00  0.00     0.116 C 
BRANCH  66  67
ATOM     67  N   UNL A   1      35.177  23.584  26.789  1.00  0.00    -0.351 N 
ATOM     68  C   UNL A   1      34.101  22.750  26.983  1.00  0.00     0.270 C 
ATOM     69  H   UNL A   1      35.541  24.004  27.601  1.00  0.00     0.163 HD
ATOM     70  O   UNL A   1      33.608  22.634  28.101  1.00  0.00    -0.268 OA
BRANCH  68  71
ATOM     71  C   UNL A   1      33.571  21.979  25.834  1.00  0.00     0.134 A 
ATOM     72  C   UNL A   1      33.499  20.618  25.895  1.00  0.00     0.063 A 
ATOM     73  N   UNL A   1      33.233  22.692  24.757  1.00  0.00    -0.207 NA
ATOM     74  C   UNL A   1      33.107  19.998  24.731  1.00  0.00     0.077 A 
ATOM     75  C   UNL A   1      32.825  22.033  23.671  1.00  0.00     0.230 A 
ATOM     76  N   UNL A   1      32.757  20.690  23.618  1.00  0.00    -0.213 NA
BRANCH  74  77
ATOM     77  C   UNL A   1      33.144  18.531  24.647  1.00  0.00     0.000 A 
ATOM     78  C   UNL A   1      33.881  17.883  23.643  1.00  0.00     0.010 A 
ATOM     79  C   UNL A   1      32.540  17.737  25.640  1.00  0.00     0.010 A 
ATOM     80  C   UNL A   1      34.040  16.493  23.655  1.00  0.00     0.001 A 
ATOM     81  C   UNL A   1      32.695  16.350  25.650  1.00  0.00     0.001 A 
ATOM     82  C   UNL A   1      33.454  15.730  24.662  1.00  0.00     0.000 A 
ENDBRANCH  74  77
BRANCH  75  83
ATOM     83  N   UNL A   1      32.377  22.760  22.570  1.00  0.00    -0.300 N 
ATOM     84  H   UNL A   1      32.133  22.276  21.747  1.00  0.00     0.172 HD
BRANCH  83  85
ATOM     85  C   UNL A   1      32.265  24.105  22.591  1.00  0.00     0.190 A 
ATOM     86  N   UNL A   1      33.155  24.938  22.098  1.00  0.00    -0.220 NA
ATOM     87  S   UNL A   1      30.904  24.884  23.313  1.00  0.00    -0.097 S 
ATOM     88  C   UNL A   1      32.907  26.226  22.511  1.00  0.00     0.084 A 
ATOM     89  C   UNL A   1      31.717  26.404  23.213  1.00  0.00     0.056 A 
ATOM     90  C   UNL A   1      33.756  27.330  22.299  1.00  0.00     0.030 A 
ATOM     91  C   UNL A   1      31.347  27.661  23.721  1.00  0.00     0.021 A 
ATOM     92  C   UNL A   1      33.407  28.580  22.813  1.00  0.00     0.002 A 
ATOM     93  C   UNL A   1      32.218  28.741  23.517  1.00  0.00     0.002 A 
ENDBRANCH  83  85
ENDBRANCH  75  83
ENDBRANCH  68  71
ENDBRANCH  66  67
ENDBRANCH  65  66
ENDBRANCH  64  65
ENDBRANCH   1  64
TORSDOF 16
ENDMDL
MODEL 2
REMARK VINA RESULT:     -12.9      0.403      5.993
REMARK SMILES O=C(NCCCCCCNC(=O)c1cc(-c2ccccc2)nc(Nc2nc3ccccc3s2)n1)c1ccc(-c2c3nc(c(-c4c(F)cccc4F)c4ccc([nH]4)c(-c4c(F)cccc4F)c4nc(c(-c5c(F)cccc5F)c5ccc2[nH]5)C=C4)C=C3)cc1
REMARK SMILES IDX 6 1 5 2 4 3 3 4 1 5 2 6 35 8 36 9 88 10 37 11 87 12 38 13
REMARK SMILES IDX 39 14 40 15 81 16 41 17 86 18 80 19 82 20 42 21 85 22 79 23
REMARK SMILES IDX 78 24 43 26 69 27 52 28 68 29 53 30 56 31 67 32 83 33 54 34
REMARK SMILES IDX 55 35 66 37 84 38 57 39 44 40 45 41 50 42 46 43 47 44 49 45
REMARK SMILES IDX 51 46 48 47 70 48 71 49 76 50 72 51 73 52 75 53 77 54 74 55
REMARK SMILES IDX 58 56 59 57 64 58 60 59 61 60 63 61 65 62 62 63 7 64 8 65
REMARK SMILES IDX 9 66 10 67 11 68 12 70 13 71 14 72 34 73 15 74 23 75 22 76
REMARK SMILES IDX 16 77 17 78 21 79 18 80 20 81 19 82 24 83 25 85 26 86 33 87
REMARK SMILES IDX 27 88 32 89 28 90 31 91 29 92 30 93
REMARK H PARENT 3 7 82 25 56 36 10 69 24 84
REMARK Flexibility Score: inf
ROOT
ATOM      1  C   UNL A   1      36.770  20.512  24.996  1.00  0.00     0.002 C 
ENDROOT
BRANCH   1   2
ATOM      2  C   UNL A   1      37.968  19.565  24.985  1.00  0.00     0.021 C 
BRANCH   2   3
ATOM      3  C   UNL A   1      39.178  20.069  25.755  1.00  0.00     0.116 C 
BRANCH   3   4
ATOM      4  N   UNL A   1      40.193  19.042  25.916  1.00  0.00    -0.352 N 
ATOM      5  O   UNL A   1      42.297  18.234  26.048  1.00  0.00    -0.269 OA
ATOM      6  C   UNL A   1      41.542  19.195  26.118  1.00  0.00     0.251 C 
ATOM      7  H   UNL A   1      39.870  18.113  25.874  1.00  0.00     0.163 HD
BRANCH   6   8
ATOM      8  C   UNL A   1      42.078  20.540  26.413  1.00  0.00     0.039 A 
ATOM      9  C   UNL A   1      42.517  21.369  25.376  1.00  0.00     0.014 A 
ATOM     10  C   UNL A   1      42.118  20.984  27.737  1.00  0.00     0.014 A 
ATOM     11  C   UNL A   1      43.087  22.601  25.668  1.00  0.00     0.010 A 
ATOM     12  C   UNL A   1      42.613  22.257  28.023  1.00  0.00     0.010 A 
ATOM     13  C   UNL A   1      43.103  23.074  26.991  1.00  0.00    -0.014 A 
BRANCH  13  14
ATOM     14  C   UNL A   1      43.495  24.479  27.253  1.00  0.00     0.031 A 
ATOM     15  C   UNL A   1      44.922  24.927  27.155  1.00  0.00     0.074 A 
ATOM     16  C   UNL A   1      42.526  25.345  27.611  1.00  0.00     0.049 A 
ATOM     17  N   UNL A   1      45.428  26.108  27.404  1.00  0.00    -0.248 NA
ATOM     18  C   UNL A   1      45.914  23.927  26.730  1.00  0.00     0.031 C 
ATOM     19  C   UNL A   1      41.106  25.005  27.756  1.00  0.00     0.029 A 
ATOM     20  N   UNL A   1      42.580  26.678  27.925  1.00  0.00    -0.354 N 
ATOM     21  C   UNL A   1      46.794  25.992  27.191  1.00  0.00     0.074 A 
ATOM     22  C   UNL A   1      47.044  24.621  26.799  1.00  0.00     0.031 C 
ATOM     23  C   UNL A   1      40.424  26.102  28.114  1.00  0.00     0.029 A 
ATOM     24  C   UNL A   1      41.363  27.201  28.293  1.00  0.00     0.049 A 
ATOM     25  H   UNL A   1      43.407  27.208  27.890  1.00  0.00     0.167 HD
ATOM     26  C   UNL A   1      47.745  26.948  27.314  1.00  0.00     0.037 A 
ATOM     27  C   UNL A   1      41.043  28.418  28.768  1.00  0.00     0.037 A 
ATOM     28  C   UNL A   1      47.476  28.315  27.687  1.00  0.00     0.049 A 
ATOM     29  C   UNL A   1      42.129  29.439  28.933  1.00  0.00     0.074 A 
ATOM     30  C   UNL A   1      48.361  29.376  27.756  1.00  0.00     0.029 A 
ATOM     31  N   UNL A   1      46.235  28.802  28.071  1.00  0.00    -0.354 N 
ATOM     32  N   UNL A   1      43.405  29.338  28.647  1.00  0.00    -0.248 NA
ATOM     33  C   UNL A   1      41.738  30.738  29.493  1.00  0.00     0.031 C 
ATOM     34  C   UNL A   1      47.671  30.489  28.245  1.00  0.00     0.029 A 
ATOM     35  C   UNL A   1      46.344  30.136  28.428  1.00  0.00     0.049 A 
ATOM     36  H   UNL A   1      45.402  28.278  28.088  1.00  0.00     0.167 HD
ATOM     37  C   UNL A   1      43.966  30.560  28.984  1.00  0.00     0.074 A 
ATOM     38  C   UNL A   1      42.887  31.397  29.466  1.00  0.00     0.031 C 
ATOM     39  C   UNL A   1      45.260  30.952  28.910  1.00  0.00     0.037 A 
BRANCH  26  40
ATOM     40  C   UNL A   1      49.176  26.567  27.071  1.00  0.00     0.057 A 
ATOM     41  C   UNL A   1      50.009  26.107  28.098  1.00  0.00     0.134 A 
ATOM     42  C   UNL A   1      49.693  26.560  25.768  1.00  0.00     0.134 A 
ATOM     43  F   UNL A   1      49.578  26.094  29.369  1.00  0.00    -0.206 F 
ATOM     44  C   UNL A   1      51.304  25.655  27.838  1.00  0.00     0.040 A 
ATOM     45  C   UNL A   1      50.978  26.091  25.493  1.00  0.00     0.040 A 
ATOM     46  F   UNL A   1      48.945  26.979  24.737  1.00  0.00    -0.206 F 
ATOM     47  C   UNL A   1      51.788  25.636  26.531  1.00  0.00     0.006 A 
ENDBRANCH  26  40
BRANCH  27  48
ATOM     48  C   UNL A   1      39.645  28.715  29.174  1.00  0.00     0.057 A 
ATOM     49  C   UNL A   1      38.720  29.242  28.267  1.00  0.00     0.134 A 
ATOM     50  C   UNL A   1      39.209  28.495  30.488  1.00  0.00     0.134 A 
ATOM     51  F   UNL A   1      39.082  29.489  27.000  1.00  0.00    -0.206 F 
ATOM     52  C   UNL A   1      37.420  29.565  28.658  1.00  0.00     0.040 A 
ATOM     53  C   UNL A   1      37.903  28.783  30.883  1.00  0.00     0.040 A 
ATOM     54  F   UNL A   1      40.045  27.983  31.403  1.00  0.00    -0.206 F 
ATOM     55  C   UNL A   1      37.007  29.331  29.969  1.00  0.00     0.006 A 
ENDBRANCH  27  48
BRANCH  39  56
ATOM     56  C   UNL A   1      45.576  32.349  29.355  1.00  0.00     0.057 A 
ATOM     57  C   UNL A   1      45.970  32.629  30.669  1.00  0.00     0.134 A 
ATOM     58  C   UNL A   1      45.526  33.417  28.451  1.00  0.00     0.134 A 
ATOM     59  F   UNL A   1      46.019  31.651  31.587  1.00  0.00    -0.206 F 
ATOM     60  C   UNL A   1      46.287  33.925  31.074  1.00  0.00     0.040 A 
ATOM     61  C   UNL A   1      45.868  34.714  28.836  1.00  0.00     0.040 A 
ATOM     62  F   UNL A   1      45.162  33.215  27.175  1.00  0.00    -0.206 F 
ATOM     63  C   UNL A   1      46.245  34.971  30.153  1.00  0.00     0.006 A 
ENDBRANCH  39  56
ENDBRANCH  13  14
ENDBRANCH   6   8
ENDBRANCH   3   4
ENDBRANCH   2   3
ENDBRANCH   1   2
BRANCH   1  64
ATOM     64  C   UNL A   1      37.009  21.872  24.333  1.00  0.00     0.002 C 
BRANCH  64  65
ATOM     65  C   UNL A   1      37.065  23.067  25.289  1.00  0.00     0.021 C 
BRANCH  65  66
ATOM     66  C   UNL A   1      35.744  23.805  25.472  1.00  0.00     0.116 C 
BRANCH  66  67
ATOM     67  N   UNL A   1      35.121  23.511  26.750  1.00  0.00    -0.351 N 
ATOM     68  C   UNL A   1      34.019  22.730  27.010  1.00  0.00     0.270 C 
ATOM     69  H   UNL A   1      35.544  23.926  27.536  1.00  0.00     0.163 HD
ATOM     70  O   UNL A   1      33.579  22.651  28.153  1.00  0.00    -0.268 OA
BRANCH  68  71
ATOM     71  C   UNL A   1      33.399  21.967  25.901  1.00  0.00     0.134 A 
ATOM     72  C   UNL A   1      33.397  20.602  25.922  1.00  0.00     0.063 A 
ATOM     73  N   UNL A   1      32.908  22.694  24.895  1.00  0.00    -0.207 NA
ATOM     74  C   UNL A   1      32.905  19.999  24.789  1.00  0.00     0.077 A 
ATOM     75  C   UNL A   1      32.410  22.048  23.839  1.00  0.00     0.230 A 
ATOM     76  N   UNL A   1      32.399  20.705  23.746  1.00  0.00    -0.213 NA
BRANCH  74  77
ATOM     77  C   UNL A   1      33.000  18.539  24.650  1.00  0.00     0.000 A 
ATOM     78  C   UNL A   1      33.663  17.958  23.557  1.00  0.00     0.010 A 
ATOM     79  C   UNL A   1      32.533  17.686  25.668  1.00  0.00     0.010 A 
ATOM     80  C   UNL A   1      33.886  16.578  23.504  1.00  0.00     0.001 A 
ATOM     81  C   UNL A   1      32.752  16.308  25.614  1.00  0.00     0.001 A 
ATOM     82  C   UNL A   1      33.436  15.757  24.536  1.00  0.00     0.000 A 
ENDBRANCH  74  77
BRANCH  75  83
ATOM     83  N   UNL A   1      31.807  22.784  22.821  1.00  0.00    -0.300 N 
ATOM     84  H   UNL A   1      31.342  22.303  22.097  1.00  0.00     0.172 HD
BRANCH  83  85
ATOM     85  C   UNL A   1      31.836  24.133  22.792  1.00  0.00     0.190 A 
ATOM     86  N   UNL A   1      32.800  24.850  22.257  1.00  0.00    -0.220 NA
ATOM     87  S   UNL A   1      30.576  25.075  23.500  1.00  0.00    -0.097 S 
ATOM     88  C   UNL A   1      32.694  26.170  22.623  1.00  0.00     0.084 A 
ATOM     89  C   UNL A   1      31.541  26.498  23.332  1.00  0.00     0.056 A 
ATOM     90  C   UNL A   1      33.650  27.171  22.358  1.00  0.00     0.030 A 
ATOM     91  C   UNL A   1      31.312  27.805  23.796  1.00  0.00     0.021 A 
ATOM     92  C   UNL A   1      33.442  28.468  22.829  1.00  0.00     0.002 A 
ATOM     93  C   UNL A   1      32.287  28.779  23.540  1.00  0.00     0.002 A 
ENDBRANCH  83  85
ENDBRANCH  75  83
ENDBRANCH  68  71
ENDBRANCH  66  67
ENDBRANCH  65  66
ENDBRANCH  64  65
ENDBRANCH   1  64
TORSDOF 16
ENDMDL
MODEL 3
REMARK VINA RESULT:     -12.9      5.013     10.544
REMARK SMILES O=C(NCCCCCCNC(=O)c1cc(-c2ccccc2)nc(Nc2nc3ccccc3s2)n1)c1ccc(-c2c3nc(c(-c4c(F)cccc4F)c4ccc([nH]4)c(-c4c(F)cccc4F)c4nc(c(-c5c(F)cccc5F)c5ccc2[nH]5)C=C4)C=C3)cc1
REMARK SMILES IDX 6 1 5 2 4 3 3 4 1 5 2 6 35 8 36 9 88 10 37 11 87 12 38 13
REMARK SMILES IDX 39 14 40 15 81 16 41 17 86 18 80 19 82 20 42 21 85 22 79 23
REMARK SMILES IDX 78 24 43 26 69 27 52 28 68 29 53 30 56 31 67 32 83 33 54 34
REMARK SMILES IDX 55 35 66 37 84 38 57 39 44 40 45 41 50 42 46 43 47 44 49 45
REMARK SMILES IDX 51 46 48 47 70 48 71 49 76 50 72 51 73 52 75 53 77 54 74 55
REMARK SMILES IDX 58 56 59 57 64 58 60 59 61 60 63 61 65 62 62 63 7 64 8 65
REMARK SMILES IDX 9 66 10 67 11 68 12 70 13 71 14 72 34 73 15 74 23 75 22 76
REMARK SMILES IDX 16 77 17 78 21 79 18 80 20 81 19 82 24 83 25 85 26 86 33 87
REMARK SMILES IDX 27 88 32 89 28 90 31 91 29 92 30 93
REMARK H PARENT 3 7 82 25 56 36 10 69 24 84
REMARK Flexibility Score: inf
ROOT
ATOM      1  C   UNL A   1      31.404  30.885  26.074  1.00  0.00     0.002 C 
ENDROOT
BRANCH   1   2
ATOM      2  C   UNL A   1      31.309  32.221  26.809  1.00  0.00     0.021 C 
BRANCH   2   3
ATOM      3  C   UNL A   1      32.616  32.995  26.883  1.00  0.00     0.116 C 
BRANCH   3   4
ATOM      4  N   UNL A   1      32.473  34.245  27.610  1.00  0.00    -0.352 N 
ATOM      5  O   UNL A   1      32.797  35.672  29.328  1.00  0.00    -0.269 OA
ATOM      6  C   UNL A   1      33.160  34.675  28.717  1.00  0.00     0.251 C 
ATOM      7  H   UNL A   1      31.792  34.865  27.261  1.00  0.00     0.163 HD
BRANCH   6   8
ATOM      8  C   UNL A   1      34.340  33.913  29.173  1.00  0.00     0.039 A 
ATOM      9  C   UNL A   1      35.630  34.363  28.873  1.00  0.00     0.014 A 
ATOM     10  C   UNL A   1      34.155  32.752  29.928  1.00  0.00     0.014 A 
ATOM     11  C   UNL A   1      36.732  33.601  29.242  1.00  0.00     0.010 A 
ATOM     12  C   UNL A   1      35.265  32.032  30.371  1.00  0.00     0.010 A 
ATOM     13  C   UNL A   1      36.561  32.451  30.029  1.00  0.00    -0.014 A 
BRANCH  13  14
ATOM     14  C   UNL A   1      37.753  31.787  30.609  1.00  0.00     0.031 A 
ATOM     15  C   UNL A   1      38.516  30.742  29.853  1.00  0.00     0.074 A 
ATOM     16  C   UNL A   1      38.119  32.135  31.860  1.00  0.00     0.049 A 
ATOM     17  N   UNL A   1      39.546  30.036  30.245  1.00  0.00    -0.248 NA
ATOM     18  C   UNL A   1      38.069  30.442  28.484  1.00  0.00     0.031 C 
ATOM     19  C   UNL A   1      37.430  33.127  32.692  1.00  0.00     0.029 A 
ATOM     20  N   UNL A   1      39.146  31.695  32.653  1.00  0.00    -0.354 N 
ATOM     21  C   UNL A   1      39.858  29.193  29.188  1.00  0.00     0.074 A 
ATOM     22  C   UNL A   1      38.902  29.468  28.135  1.00  0.00     0.031 C 
ATOM     23  C   UNL A   1      38.063  33.231  33.869  1.00  0.00     0.029 A 
ATOM     24  C   UNL A   1      39.153  32.267  33.903  1.00  0.00     0.049 A 
ATOM     25  H   UNL A   1      39.813  31.035  32.357  1.00  0.00     0.167 HD
ATOM     26  C   UNL A   1      40.852  28.277  29.112  1.00  0.00     0.037 A 
ATOM     27  C   UNL A   1      39.922  32.011  34.976  1.00  0.00     0.037 A 
ATOM     28  C   UNL A   1      41.807  28.030  30.163  1.00  0.00     0.049 A 
ATOM     29  C   UNL A   1      40.986  30.958  34.870  1.00  0.00     0.074 A 
ATOM     30  C   UNL A   1      42.901  27.184  30.147  1.00  0.00     0.029 A 
ATOM     31  N   UNL A   1      41.770  28.614  31.421  1.00  0.00    -0.354 N 
ATOM     32  N   UNL A   1      41.321  30.228  33.834  1.00  0.00    -0.248 NA
ATOM     33  C   UNL A   1      41.771  30.685  36.080  1.00  0.00     0.031 C 
ATOM     34  C   UNL A   1      43.488  27.204  31.415  1.00  0.00     0.029 A 
ATOM     35  C   UNL A   1      42.792  28.105  32.205  1.00  0.00     0.049 A 
ATOM     36  H   UNL A   1      41.115  29.288  31.712  1.00  0.00     0.167 HD
ATOM     37  C   UNL A   1      42.360  29.417  34.264  1.00  0.00     0.074 A 
ATOM     38  C   UNL A   1      42.621  29.767  35.645  1.00  0.00     0.031 C 
ATOM     39  C   UNL A   1      43.034  28.462  33.579  1.00  0.00     0.037 A 
BRANCH  26  40
ATOM     40  C   UNL A   1      40.962  27.446  27.868  1.00  0.00     0.057 A 
ATOM     41  C   UNL A   1      41.762  27.830  26.784  1.00  0.00     0.134 A 
ATOM     42  C   UNL A   1      40.343  26.190  27.800  1.00  0.00     0.134 A 
ATOM     43  F   UNL A   1      42.378  29.022  26.783  1.00  0.00    -0.206 F 
ATOM     44  C   UNL A   1      41.940  26.997  25.678  1.00  0.00     0.040 A 
ATOM     45  C   UNL A   1      40.530  25.339  26.709  1.00  0.00     0.040 A 
ATOM     46  F   UNL A   1      39.571  25.757  28.808  1.00  0.00    -0.206 F 
ATOM     47  C   UNL A   1      41.331  25.743  25.643  1.00  0.00     0.006 A 
ENDBRANCH  26  40
BRANCH  27  48
ATOM     48  C   UNL A   1      39.674  32.722  36.256  1.00  0.00     0.057 A 
ATOM     49  C   UNL A   1      38.704  32.278  37.160  1.00  0.00     0.134 A 
ATOM     50  C   UNL A   1      40.391  33.878  36.595  1.00  0.00     0.134 A 
ATOM     51  F   UNL A   1      37.974  31.187  36.886  1.00  0.00    -0.206 F 
ATOM     52  C   UNL A   1      38.437  32.971  38.342  1.00  0.00     0.040 A 
ATOM     53  C   UNL A   1      40.157  34.561  37.788  1.00  0.00     0.040 A 
ATOM     54  F   UNL A   1      41.341  34.351  35.775  1.00  0.00    -0.206 F 
ATOM     55  C   UNL A   1      39.169  34.114  38.660  1.00  0.00     0.006 A 
ENDBRANCH  27  48
BRANCH  39  56
ATOM     56  C   UNL A   1      44.119  27.734  34.313  1.00  0.00     0.057 A 
ATOM     57  C   UNL A   1      43.880  26.512  34.954  1.00  0.00     0.134 A 
ATOM     58  C   UNL A   1      45.425  28.239  34.346  1.00  0.00     0.134 A 
ATOM     59  F   UNL A   1      42.646  25.985  34.974  1.00  0.00    -0.206 F 
ATOM     60  C   UNL A   1      44.898  25.825  35.616  1.00  0.00     0.040 A 
ATOM     61  C   UNL A   1      46.458  27.547  34.980  1.00  0.00     0.040 A 
ATOM     62  F   UNL A   1      45.722  29.402  33.747  1.00  0.00    -0.206 F 
ATOM     63  C   UNL A   1      46.194  26.338  35.622  1.00  0.00     0.006 A 
ENDBRANCH  39  56
ENDBRANCH  13  14
ENDBRANCH   6   8
ENDBRANCH   3   4
ENDBRANCH   2   3
ENDBRANCH   1   2
BRANCH   1  64
ATOM     64  C   UNL A   1      32.224  29.806  26.787  1.00  0.00     0.002 C 
BRANCH  64  65
ATOM     65  C   UNL A   1      33.624  29.560  26.216  1.00  0.00     0.021 C 
BRANCH  65  66
ATOM     66  C   UNL A   1      33.823  28.192  25.574  1.00  0.00     0.116 C 
BRANCH  66  67
ATOM     67  N   UNL A   1      34.386  28.286  24.240  1.00  0.00    -0.351 N 
ATOM     68  C   UNL A   1      33.746  28.186  23.027  1.00  0.00     0.270 C 
ATOM     69  H   UNL A   1      35.357  28.443  24.197  1.00  0.00     0.163 HD
ATOM     70  O   UNL A   1      34.395  28.214  21.986  1.00  0.00    -0.268 OA
BRANCH  68  71
ATOM     71  C   UNL A   1      32.268  28.076  23.000  1.00  0.00     0.134 A 
ATOM     72  C   UNL A   1      31.507  29.145  22.624  1.00  0.00     0.063 A 
ATOM     73  N   UNL A   1      31.761  26.911  23.407  1.00  0.00    -0.207 NA
ATOM     74  C   UNL A   1      30.148  28.971  22.751  1.00  0.00     0.077 A 
ATOM     75  C   UNL A   1      30.433  26.793  23.473  1.00  0.00     0.230 A 
ATOM     76  N   UNL A   1      29.597  27.801  23.163  1.00  0.00    -0.213 NA
BRANCH  74  77
ATOM     77  C   UNL A   1      29.250  30.111  22.518  1.00  0.00     0.000 A 
ATOM     78  C   UNL A   1      28.759  30.876  23.588  1.00  0.00     0.010 A 
ATOM     79  C   UNL A   1      28.954  30.539  21.210  1.00  0.00     0.010 A 
ATOM     80  C   UNL A   1      28.032  32.048  23.357  1.00  0.00     0.001 A 
ATOM     81  C   UNL A   1      28.224  31.707  20.979  1.00  0.00     0.001 A 
ATOM     82  C   UNL A   1      27.772  32.465  22.054  1.00  0.00     0.000 A 
ENDBRANCH  74  77
BRANCH  75  83
ATOM     83  N   UNL A   1      29.881  25.557  23.804  1.00  0.00    -0.300 N 
ATOM     84  H   UNL A   1      28.904  25.485  23.906  1.00  0.00     0.172 HD
BRANCH  83  85
ATOM     85  C   UNL A   1      30.639  24.456  23.989  1.00  0.00     0.190 A 
ATOM     86  N   UNL A   1      31.130  23.713  23.022  1.00  0.00    -0.220 NA
ATOM     87  S   UNL A   1      31.028  23.888  25.572  1.00  0.00    -0.097 S 
ATOM     88  C   UNL A   1      31.614  22.523  23.511  1.00  0.00     0.084 A 
ATOM     89  C   UNL A   1      31.627  22.414  24.900  1.00  0.00     0.056 A 
ATOM     90  C   UNL A   1      32.057  21.438  22.729  1.00  0.00     0.030 A 
ATOM     91  C   UNL A   1      32.068  21.243  25.539  1.00  0.00     0.021 A 
ATOM     92  C   UNL A   1      32.481  20.264  23.353  1.00  0.00     0.002 A 
ATOM     93  C   UNL A   1      32.484  20.169  24.740  1.00  0.00     0.002 A 
ENDBRANCH  83  85
ENDBRANCH  75  83
ENDBRANCH  68  71
ENDBRANCH  66  67
ENDBRANCH  65  66
ENDBRANCH  64  65
ENDBRANCH   1  64
TORSDOF 16
ENDMDL
