MODEL 1
REMARK VINA RESULT:     -10.9      0.000      0.000
REMARK SMILES COC(=O)c1ccccc1-c1ccc(/C=C(\C#N)C(=O)NCCCCCCNC(=O)c2ccc(-c3c4nc(c(-c5c(F)cccc5F)c5ccc([nH]5)c(-c5c(F)cccc5F)c5nc(c(-c6c(F)cccc6F)c6ccc3[nH]6)C=C5)C=C4)cc2)o1
REMARK SMILES IDX 23 1 22 2 21 3 19 4 20 5 16 7 15 8 14 9 11 10 12 11 85 12
REMARK SMILES IDX 13 13 10 14 5 15 6 16 7 17 9 18 8 19 3 20 4 21 2 22 1 23
REMARK SMILES IDX 17 24 18 25 24 26 25 27 26 28 27 29 28 30 29 31 30 33 31 34
REMARK SMILES IDX 32 35 84 36 33 37 83 38 34 39 35 40 36 41 77 42 37 43 82 44
REMARK SMILES IDX 76 45 78 46 38 47 81 48 75 49 74 50 39 52 65 53 48 54 64 55
REMARK SMILES IDX 49 56 52 57 63 58 79 59 50 60 51 61 62 63 80 64 53 65 40 66
REMARK SMILES IDX 41 67 46 68 42 69 43 70 45 71 47 72 44 73 66 74 67 75 72 76
REMARK SMILES IDX 68 77 69 78 71 79 73 80 70 81 54 82 55 83 60 84 56 85 57 86
REMARK SMILES IDX 59 87 61 88 58 89
REMARK H PARENT 21 6 28 32 78 51 52 62
REMARK Flexibility Score: inf
ROOT
ATOM      1  C   UNL A   1      40.254  22.482  27.338  1.00  0.00     0.021 C 
ENDROOT
BRANCH   1   2
ATOM      2  C   UNL A   1      39.127  22.790  26.354  1.00  0.00     0.116 C 
BRANCH   2   3
ATOM      3  N   UNL A   1      38.599  21.568  25.781  1.00  0.00    -0.351 N 
ATOM      4  C   UNL A   1      37.359  21.180  25.387  1.00  0.00     0.262 C 
ATOM      5  O   UNL A   1      37.261  20.022  24.971  1.00  0.00    -0.268 OA
ATOM      6  H   UNL A   1      39.283  20.871  25.652  1.00  0.00     0.163 HD
BRANCH   4   7
ATOM      7  C   UNL A   1      36.163  22.076  25.407  1.00  0.00     0.120 C 
ATOM      8  C   UNL A   1      36.142  23.056  24.479  1.00  0.00     0.072 C 
BRANCH   8   9
ATOM      9  C   UNL A   1      35.126  24.050  24.354  1.00  0.00     0.129 A 
ATOM     10  C   UNL A   1      33.808  25.779  24.848  1.00  0.00     0.135 A 
ATOM     11  C   UNL A   1      33.389  25.320  23.621  1.00  0.00     0.051 A 
ATOM     12  O   UNL A   1      34.864  25.038  25.277  1.00  0.00    -0.457 OA
ATOM     13  C   UNL A   1      34.227  24.224  23.306  1.00  0.00     0.051 A 
BRANCH  10  14
ATOM     14  C   UNL A   1      33.354  26.833  25.745  1.00  0.00     0.032 A 
ATOM     15  C   UNL A   1      32.157  26.741  26.477  1.00  0.00     0.071 A 
ATOM     16  C   UNL A   1      31.697  27.828  27.238  1.00  0.00     0.016 A 
ATOM     17  C   UNL A   1      32.443  29.003  27.302  1.00  0.00     0.001 A 
ATOM     18  C   UNL A   1      34.102  28.019  25.840  1.00  0.00     0.013 A 
ATOM     19  C   UNL A   1      33.649  29.095  26.611  1.00  0.00     0.001 A 
BRANCH  15  20
ATOM     20  C   UNL A   1      31.322  25.522  26.490  1.00  0.00     0.338 C 
ATOM     21  O   UNL A   1      31.733  24.426  26.845  1.00  0.00    -0.246 OA
BRANCH  20  22
ATOM     22  O   UNL A   1      30.097  25.804  25.993  1.00  0.00    -0.465 OA
ATOM     23  C   UNL A   1      30.002  25.709  24.573  1.00  0.00     0.282 C 
ENDBRANCH  20  22
ENDBRANCH  15  20
ENDBRANCH  10  14
ENDBRANCH   8   9
BRANCH   7  24
ATOM     24  C   UNL A   1      35.057  21.951  26.442  1.00  0.00     0.105 C 
ATOM     25  N   UNL A   1      34.140  21.848  27.301  1.00  0.00    -0.192 NA
ENDBRANCH   7  24
ENDBRANCH   4   7
ENDBRANCH   2   3
ENDBRANCH   1   2
BRANCH   1  26
ATOM     26  C   UNL A   1      40.726  21.024  27.264  1.00  0.00     0.002 C 
BRANCH  26  27
ATOM     27  C   UNL A   1      42.011  20.807  26.452  1.00  0.00     0.002 C 
BRANCH  27  28
ATOM     28  C   UNL A   1      42.127  19.433  25.784  1.00  0.00     0.021 C 
BRANCH  28  29
ATOM     29  C   UNL A   1      43.424  18.696  26.102  1.00  0.00     0.116 C 
BRANCH  29  30
ATOM     30  N   UNL A   1      44.217  18.478  24.901  1.00  0.00    -0.352 N 
ATOM     31  C   UNL A   1      44.823  19.395  24.084  1.00  0.00     0.251 C 
ATOM     32  H   UNL A   1      44.334  17.538  24.639  1.00  0.00     0.163 HD
ATOM     33  O   UNL A   1      45.243  19.058  22.981  1.00  0.00    -0.269 OA
BRANCH  31  34
ATOM     34  C   UNL A   1      44.969  20.795  24.531  1.00  0.00     0.039 A 
ATOM     35  C   UNL A   1      44.508  21.822  23.702  1.00  0.00     0.014 A 
ATOM     36  C   UNL A   1      45.592  21.093  25.747  1.00  0.00     0.014 A 
ATOM     37  C   UNL A   1      44.641  23.149  24.112  1.00  0.00     0.010 A 
ATOM     38  C   UNL A   1      45.663  22.412  26.182  1.00  0.00     0.010 A 
ATOM     39  C   UNL A   1      45.202  23.453  25.363  1.00  0.00    -0.014 A 
BRANCH  39  40
ATOM     40  C   UNL A   1      45.347  24.856  25.819  1.00  0.00     0.031 A 
ATOM     41  C   UNL A   1      46.692  25.525  25.764  1.00  0.00     0.074 A 
ATOM     42  C   UNL A   1      44.284  25.506  26.329  1.00  0.00     0.049 A 
ATOM     43  N   UNL A   1      47.044  26.713  26.187  1.00  0.00    -0.248 NA
ATOM     44  C   UNL A   1      47.795  24.745  25.179  1.00  0.00     0.031 C 
ATOM     45  C   UNL A   1      42.936  24.951  26.466  1.00  0.00     0.029 A 
ATOM     46  N   UNL A   1      44.175  26.775  26.837  1.00  0.00    -0.354 N 
ATOM     47  C   UNL A   1      48.405  26.817  25.931  1.00  0.00     0.074 A 
ATOM     48  C   UNL A   1      48.828  25.554  25.365  1.00  0.00     0.031 C 
ATOM     49  C   UNL A   1      42.131  25.882  27.002  1.00  0.00     0.029 A 
ATOM     50  C   UNL A   1      42.911  27.084  27.279  1.00  0.00     0.049 A 
ATOM     51  H   UNL A   1      44.930  27.405  26.881  1.00  0.00     0.167 HD
ATOM     52  C   UNL A   1      49.223  27.877  26.126  1.00  0.00     0.037 A 
ATOM     53  C   UNL A   1      42.440  28.209  27.847  1.00  0.00     0.037 A 
ATOM     54  C   UNL A   1      48.795  29.140  26.666  1.00  0.00     0.049 A 
ATOM     55  C   UNL A   1      43.374  29.369  28.063  1.00  0.00     0.074 A 
ATOM     56  C   UNL A   1      49.539  30.289  26.871  1.00  0.00     0.029 A 
ATOM     57  N   UNL A   1      47.502  29.420  27.083  1.00  0.00    -0.354 N 
ATOM     58  N   UNL A   1      44.648  29.470  27.773  1.00  0.00    -0.248 NA
ATOM     59  C   UNL A   1      42.800  30.573  28.681  1.00  0.00     0.031 C 
ATOM     60  C   UNL A   1      48.703  31.256  27.439  1.00  0.00     0.029 A 
ATOM     61  C   UNL A   1      47.429  30.721  27.552  1.00  0.00     0.049 A 
ATOM     62  H   UNL A   1      46.748  28.788  27.049  1.00  0.00     0.167 HD
ATOM     63  C   UNL A   1      45.021  30.757  28.140  1.00  0.00     0.074 A 
ATOM     64  C   UNL A   1      43.834  31.402  28.664  1.00  0.00     0.031 C 
ATOM     65  C   UNL A   1      46.235  31.351  28.050  1.00  0.00     0.037 A 
BRANCH  52  66
ATOM     66  C   UNL A   1      50.665  27.718  25.741  1.00  0.00     0.057 A 
ATOM     67  C   UNL A   1      51.094  27.882  24.417  1.00  0.00     0.134 A 
ATOM     68  C   UNL A   1      51.639  27.431  26.705  1.00  0.00     0.134 A 
ATOM     69  F   UNL A   1      50.208  28.145  23.443  1.00  0.00    -0.206 F 
ATOM     70  C   UNL A   1      52.437  27.745  24.062  1.00  0.00     0.040 A 
ATOM     71  C   UNL A   1      52.989  27.317  26.366  1.00  0.00     0.040 A 
ATOM     72  F   UNL A   1      51.298  27.266  27.991  1.00  0.00    -0.206 F 
ATOM     73  C   UNL A   1      53.389  27.469  25.040  1.00  0.00     0.006 A 
ENDBRANCH  52  66
BRANCH  53  74
ATOM     74  C   UNL A   1      41.010  28.311  28.232  1.00  0.00     0.057 A 
ATOM     75  C   UNL A   1      40.571  27.871  29.486  1.00  0.00     0.134 A 
ATOM     76  C   UNL A   1      40.049  28.825  27.355  1.00  0.00     0.134 A 
ATOM     77  F   UNL A   1      41.443  27.352  30.362  1.00  0.00    -0.206 F 
ATOM     78  C   UNL A   1      39.223  27.916  29.846  1.00  0.00     0.040 A 
ATOM     79  C   UNL A   1      38.701  28.898  27.711  1.00  0.00     0.040 A 
ATOM     80  F   UNL A   1      40.406  29.269  26.142  1.00  0.00    -0.206 F 
ATOM     81  C   UNL A   1      38.284  28.434  28.957  1.00  0.00     0.006 A 
ENDBRANCH  53  74
BRANCH  65  82
ATOM     82  C   UNL A   1      46.330  32.784  28.483  1.00  0.00     0.057 A 
ATOM     83  C   UNL A   1      46.664  33.140  29.795  1.00  0.00     0.134 A 
ATOM     84  C   UNL A   1      46.119  33.818  27.562  1.00  0.00     0.134 A 
ATOM     85  F   UNL A   1      46.864  32.196  30.727  1.00  0.00    -0.206 F 
ATOM     86  C   UNL A   1      46.764  34.478  30.183  1.00  0.00     0.040 A 
ATOM     87  C   UNL A   1      46.241  35.158  27.932  1.00  0.00     0.040 A 
ATOM     88  F   UNL A   1      45.804  33.543  26.288  1.00  0.00    -0.206 F 
ATOM     89  C   UNL A   1      46.558  35.490  29.247  1.00  0.00     0.006 A 
ENDBRANCH  65  82
ENDBRANCH  39  40
ENDBRANCH  31  34
ENDBRANCH  29  30
ENDBRANCH  28  29
ENDBRANCH  27  28
ENDBRANCH  26  27
ENDBRANCH   1  26
TORSDOF 18
ENDMDL
MODEL 2
REMARK VINA RESULT:     -10.8      5.978     10.853
REMARK SMILES COC(=O)c1ccccc1-c1ccc(/C=C(\C#N)C(=O)NCCCCCCNC(=O)c2ccc(-c3c4nc(c(-c5c(F)cccc5F)c5ccc([nH]5)c(-c5c(F)cccc5F)c5nc(c(-c6c(F)cccc6F)c6ccc3[nH]6)C=C5)C=C4)cc2)o1
REMARK SMILES IDX 23 1 22 2 21 3 19 4 20 5 16 7 15 8 14 9 11 10 12 11 85 12
REMARK SMILES IDX 13 13 10 14 5 15 6 16 7 17 9 18 8 19 3 20 4 21 2 22 1 23
REMARK SMILES IDX 17 24 18 25 24 26 25 27 26 28 27 29 28 30 29 31 30 33 31 34
REMARK SMILES IDX 32 35 84 36 33 37 83 38 34 39 35 40 36 41 77 42 37 43 82 44
REMARK SMILES IDX 76 45 78 46 38 47 81 48 75 49 74 50 39 52 65 53 48 54 64 55
REMARK SMILES IDX 49 56 52 57 63 58 79 59 50 60 51 61 62 63 80 64 53 65 40 66
REMARK SMILES IDX 41 67 46 68 42 69 43 70 45 71 47 72 44 73 66 74 67 75 72 76
REMARK SMILES IDX 68 77 69 78 71 79 73 80 70 81 54 82 55 83 60 84 56 85 57 86
REMARK SMILES IDX 59 87 61 88 58 89
REMARK H PARENT 21 6 28 32 78 51 52 62
REMARK Flexibility Score: inf
ROOT
ATOM      1  C   UNL A   1      44.528  24.588  31.532  1.00  0.00     0.021 C 
ENDROOT
BRANCH   1   2
ATOM      2  C   UNL A   1      45.812  25.293  31.098  1.00  0.00     0.116 C 
BRANCH   2   3
ATOM      3  N   UNL A   1      45.508  26.491  30.341  1.00  0.00    -0.351 N 
ATOM      4  C   UNL A   1      45.283  26.733  29.025  1.00  0.00     0.262 C 
ATOM      5  O   UNL A   1      45.089  27.913  28.717  1.00  0.00    -0.268 OA
ATOM      6  H   UNL A   1      45.453  27.301  30.899  1.00  0.00     0.163 HD
BRANCH   4   7
ATOM      7  C   UNL A   1      45.233  25.665  27.980  1.00  0.00     0.120 C 
ATOM      8  C   UNL A   1      44.006  25.354  27.512  1.00  0.00     0.072 C 
BRANCH   8   9
ATOM      9  C   UNL A   1      43.725  24.333  26.555  1.00  0.00     0.129 A 
ATOM     10  C   UNL A   1      43.328  22.315  25.691  1.00  0.00     0.135 A 
ATOM     11  C   UNL A   1      43.331  23.190  24.629  1.00  0.00     0.051 A 
ATOM     12  O   UNL A   1      43.538  23.000  26.848  1.00  0.00    -0.457 OA
ATOM     13  C   UNL A   1      43.580  24.470  25.178  1.00  0.00     0.051 A 
BRANCH  10  14
ATOM     14  C   UNL A   1      43.177  20.873  25.816  1.00  0.00     0.032 A 
ATOM     15  C   UNL A   1      42.109  20.281  26.516  1.00  0.00     0.071 A 
ATOM     16  C   UNL A   1      42.066  18.891  26.714  1.00  0.00     0.016 A 
ATOM     17  C   UNL A   1      43.067  18.077  26.187  1.00  0.00     0.001 A 
ATOM     18  C   UNL A   1      44.164  20.032  25.274  1.00  0.00     0.013 A 
ATOM     19  C   UNL A   1      44.109  18.646  25.459  1.00  0.00     0.001 A 
BRANCH  15  20
ATOM     20  C   UNL A   1      40.993  21.066  27.080  1.00  0.00     0.338 C 
ATOM     21  O   UNL A   1      41.066  21.686  28.131  1.00  0.00    -0.246 OA
BRANCH  20  22
ATOM     22  O   UNL A   1      39.898  20.926  26.298  1.00  0.00    -0.465 OA
ATOM     23  C   UNL A   1      39.169  22.134  26.086  1.00  0.00     0.282 C 
ENDBRANCH  20  22
ENDBRANCH  15  20
ENDBRANCH  10  14
ENDBRANCH   8   9
BRANCH   7  24
ATOM     24  C   UNL A   1      46.468  24.916  27.508  1.00  0.00     0.105 C 
ATOM     25  N   UNL A   1      47.492  24.293  27.116  1.00  0.00    -0.192 NA
ENDBRANCH   7  24
ENDBRANCH   4   7
ENDBRANCH   2   3
ENDBRANCH   1   2
BRANCH   1  26
ATOM     26  C   UNL A   1      44.313  24.630  33.051  1.00  0.00     0.002 C 
BRANCH  26  27
ATOM     27  C   UNL A   1      44.558  23.297  33.771  1.00  0.00     0.002 C 
BRANCH  27  28
ATOM     28  C   UNL A   1      45.768  23.283  34.709  1.00  0.00     0.021 C 
BRANCH  28  29
ATOM     29  C   UNL A   1      46.746  24.429  34.478  1.00  0.00     0.116 C 
BRANCH  29  30
ATOM     30  N   UNL A   1      47.117  25.070  35.730  1.00  0.00    -0.352 N 
ATOM     31  C   UNL A   1      46.744  26.293  36.222  1.00  0.00     0.251 C 
ATOM     32  H   UNL A   1      47.723  24.551  36.306  1.00  0.00     0.163 HD
ATOM     33  O   UNL A   1      47.340  26.783  37.177  1.00  0.00    -0.269 OA
BRANCH  31  34
ATOM     34  C   UNL A   1      45.621  27.023  35.601  1.00  0.00     0.039 A 
ATOM     35  C   UNL A   1      44.316  26.724  36.000  1.00  0.00     0.014 A 
ATOM     36  C   UNL A   1      45.854  27.973  34.601  1.00  0.00     0.014 A 
ATOM     37  C   UNL A   1      43.245  27.405  35.421  1.00  0.00     0.010 A 
ATOM     38  C   UNL A   1      44.791  28.696  34.073  1.00  0.00     0.010 A 
ATOM     39  C   UNL A   1      43.476  28.409  34.466  1.00  0.00    -0.014 A 
BRANCH  39  40
ATOM     40  C   UNL A   1      42.352  29.148  33.843  1.00  0.00     0.031 A 
ATOM     41  C   UNL A   1      41.824  28.715  32.504  1.00  0.00     0.074 A 
ATOM     42  C   UNL A   1      41.846  30.236  34.454  1.00  0.00     0.049 A 
ATOM     43  N   UNL A   1      40.904  29.272  31.757  1.00  0.00    -0.248 NA
ATOM     44  C   UNL A   1      42.426  27.508  31.914  1.00  0.00     0.031 C 
ATOM     45  C   UNL A   1      42.298  30.773  35.739  1.00  0.00     0.029 A 
ATOM     46  N   UNL A   1      40.844  31.090  34.070  1.00  0.00    -0.354 N 
ATOM     47  C   UNL A   1      40.829  28.494  30.608  1.00  0.00     0.074 A 
ATOM     48  C   UNL A   1      41.829  27.457  30.732  1.00  0.00     0.031 C 
ATOM     49  C   UNL A   1      41.562  31.854  36.046  1.00  0.00     0.029 A 
ATOM     50  C   UNL A   1      40.613  32.106  34.966  1.00  0.00     0.049 A 
ATOM     51  H   UNL A   1      40.339  30.985  33.232  1.00  0.00     0.167 HD
ATOM     52  C   UNL A   1      39.984  28.618  29.558  1.00  0.00     0.037 A 
ATOM     53  C   UNL A   1      39.737  33.125  34.916  1.00  0.00     0.037 A 
ATOM     54  C   UNL A   1      38.973  29.636  29.449  1.00  0.00     0.049 A 
ATOM     55  C   UNL A   1      38.818  33.246  33.731  1.00  0.00     0.074 A 
ATOM     56  C   UNL A   1      38.045  29.826  28.440  1.00  0.00     0.029 A 
ATOM     57  N   UNL A   1      38.758  30.634  30.387  1.00  0.00    -0.354 N 
ATOM     58  N   UNL A   1      38.725  32.476  32.675  1.00  0.00    -0.248 NA
ATOM     59  C   UNL A   1      37.877  34.376  33.736  1.00  0.00     0.031 C 
ATOM     60  C   UNL A   1      37.284  30.958  28.755  1.00  0.00     0.029 A 
ATOM     61  C   UNL A   1      37.716  31.449  29.977  1.00  0.00     0.049 A 
ATOM     62  H   UNL A   1      39.269  30.747  31.220  1.00  0.00     0.167 HD
ATOM     63  C   UNL A   1      37.696  33.006  31.907  1.00  0.00     0.074 A 
ATOM     64  C   UNL A   1      37.189  34.157  32.625  1.00  0.00     0.031 C 
ATOM     65  C   UNL A   1      37.213  32.578  30.715  1.00  0.00     0.037 A 
BRANCH  52  66
ATOM     66  C   UNL A   1      40.112  27.618  28.447  1.00  0.00     0.057 A 
ATOM     67  C   UNL A   1      40.824  27.908  27.275  1.00  0.00     0.134 A 
ATOM     68  C   UNL A   1      39.547  26.341  28.560  1.00  0.00     0.134 A 
ATOM     69  F   UNL A   1      41.377  29.118  27.098  1.00  0.00    -0.206 F 
ATOM     70  C   UNL A   1      40.950  26.973  26.247  1.00  0.00     0.040 A 
ATOM     71  C   UNL A   1      39.689  25.388  27.549  1.00  0.00     0.040 A 
ATOM     72  F   UNL A   1      38.856  25.997  29.657  1.00  0.00    -0.206 F 
ATOM     73  C   UNL A   1      40.388  25.706  26.386  1.00  0.00     0.006 A 
ENDBRANCH  52  66
BRANCH  53  74
ATOM     74  C   UNL A   1      39.664  34.104  36.030  1.00  0.00     0.057 A 
ATOM     75  C   UNL A   1      40.340  35.327  35.957  1.00  0.00     0.134 A 
ATOM     76  C   UNL A   1      38.940  33.834  37.196  1.00  0.00     0.134 A 
ATOM     77  F   UNL A   1      41.065  35.634  34.871  1.00  0.00    -0.206 F 
ATOM     78  C   UNL A   1      40.320  36.238  37.014  1.00  0.00     0.040 A 
ATOM     79  C   UNL A   1      38.892  34.747  38.252  1.00  0.00     0.040 A 
ATOM     80  F   UNL A   1      38.265  32.683  37.326  1.00  0.00    -0.206 F 
ATOM     81  C   UNL A   1      39.591  35.949  38.166  1.00  0.00     0.006 A 
ENDBRANCH  53  74
BRANCH  65  82
ATOM     82  C   UNL A   1      36.049  33.327  30.139  1.00  0.00     0.057 A 
ATOM     83  C   UNL A   1      34.764  33.235  30.688  1.00  0.00     0.134 A 
ATOM     84  C   UNL A   1      36.228  34.180  29.042  1.00  0.00     0.134 A 
ATOM     85  F   UNL A   1      34.526  32.426  31.730  1.00  0.00    -0.206 F 
ATOM     86  C   UNL A   1      33.691  33.950  30.152  1.00  0.00     0.040 A 
ATOM     87  C   UNL A   1      35.168  34.918  28.513  1.00  0.00     0.040 A 
ATOM     88  F   UNL A   1      37.435  34.318  28.475  1.00  0.00    -0.206 F 
ATOM     89  C   UNL A   1      33.894  34.799  29.066  1.00  0.00     0.006 A 
ENDBRANCH  65  82
ENDBRANCH  39  40
ENDBRANCH  31  34
ENDBRANCH  29  30
ENDBRANCH  28  29
ENDBRANCH  27  28
ENDBRANCH  26  27
ENDBRANCH   1  26
TORSDOF 18
ENDMDL
MODEL 3
REMARK VINA RESULT:     -10.7      6.128     11.472
REMARK SMILES COC(=O)c1ccccc1-c1ccc(/C=C(\C#N)C(=O)NCCCCCCNC(=O)c2ccc(-c3c4nc(c(-c5c(F)cccc5F)c5ccc([nH]5)c(-c5c(F)cccc5F)c5nc(c(-c6c(F)cccc6F)c6ccc3[nH]6)C=C5)C=C4)cc2)o1
REMARK SMILES IDX 23 1 22 2 21 3 19 4 20 5 16 7 15 8 14 9 11 10 12 11 85 12
REMARK SMILES IDX 13 13 10 14 5 15 6 16 7 17 9 18 8 19 3 20 4 21 2 22 1 23
REMARK SMILES IDX 17 24 18 25 24 26 25 27 26 28 27 29 28 30 29 31 30 33 31 34
REMARK SMILES IDX 32 35 84 36 33 37 83 38 34 39 35 40 36 41 77 42 37 43 82 44
REMARK SMILES IDX 76 45 78 46 38 47 81 48 75 49 74 50 39 52 65 53 48 54 64 55
REMARK SMILES IDX 49 56 52 57 63 58 79 59 50 60 51 61 62 63 80 64 53 65 40 66
REMARK SMILES IDX 41 67 46 68 42 69 43 70 45 71 47 72 44 73 66 74 67 75 72 76
REMARK SMILES IDX 68 77 69 78 71 79 73 80 70 81 54 82 55 83 60 84 56 85 57 86
REMARK SMILES IDX 59 87 61 88 58 89
REMARK H PARENT 21 6 28 32 78 51 52 62
REMARK Flexibility Score: inf
ROOT
ATOM      1  C   UNL A   1      44.899  24.830  31.810  1.00  0.00     0.021 C 
ENDROOT
BRANCH   1   2
ATOM      2  C   UNL A   1      46.069  25.438  31.038  1.00  0.00     0.116 C 
BRANCH   2   3
ATOM      3  N   UNL A   1      45.641  26.609  30.299  1.00  0.00    -0.351 N 
ATOM      4  C   UNL A   1      45.309  26.824  29.000  1.00  0.00     0.262 C 
ATOM      5  O   UNL A   1      45.025  27.988  28.701  1.00  0.00    -0.268 OA
ATOM      6  H   UNL A   1      45.579  27.419  30.855  1.00  0.00     0.163 HD
BRANCH   4   7
ATOM      7  C   UNL A   1      45.248  25.745  27.968  1.00  0.00     0.120 C 
ATOM      8  C   UNL A   1      44.021  25.460  27.483  1.00  0.00     0.072 C 
BRANCH   8   9
ATOM      9  C   UNL A   1      43.729  24.436  26.534  1.00  0.00     0.129 A 
ATOM     10  C   UNL A   1      43.308  22.417  25.686  1.00  0.00     0.135 A 
ATOM     11  C   UNL A   1      43.323  23.282  24.617  1.00  0.00     0.051 A 
ATOM     12  O   UNL A   1      43.525  23.107  26.837  1.00  0.00    -0.457 OA
ATOM     13  C   UNL A   1      43.587  24.564  25.155  1.00  0.00     0.051 A 
BRANCH  10  14
ATOM     14  C   UNL A   1      43.139  20.977  25.822  1.00  0.00     0.032 A 
ATOM     15  C   UNL A   1      42.050  20.403  26.504  1.00  0.00     0.071 A 
ATOM     16  C   UNL A   1      41.988  19.016  26.714  1.00  0.00     0.016 A 
ATOM     17  C   UNL A   1      42.992  18.186  26.219  1.00  0.00     0.001 A 
ATOM     18  C   UNL A   1      44.129  20.120  25.311  1.00  0.00     0.013 A 
ATOM     19  C   UNL A   1      44.056  18.737  25.509  1.00  0.00     0.001 A 
BRANCH  15  20
ATOM     20  C   UNL A   1      40.929  21.206  27.033  1.00  0.00     0.338 C 
ATOM     21  O   UNL A   1      40.958  21.774  28.116  1.00  0.00    -0.246 OA
BRANCH  20  22
ATOM     22  O   UNL A   1      39.882  21.144  26.180  1.00  0.00    -0.465 OA
ATOM     23  C   UNL A   1      39.082  22.325  26.145  1.00  0.00     0.282 C 
ENDBRANCH  20  22
ENDBRANCH  15  20
ENDBRANCH  10  14
ENDBRANCH   8   9
BRANCH   7  24
ATOM     24  C   UNL A   1      46.470  24.957  27.526  1.00  0.00     0.105 C 
ATOM     25  N   UNL A   1      47.483  24.303  27.158  1.00  0.00    -0.192 NA
ENDBRANCH   7  24
ENDBRANCH   4   7
ENDBRANCH   2   3
ENDBRANCH   1   2
BRANCH   1  26
ATOM     26  C   UNL A   1      44.909  25.209  33.297  1.00  0.00     0.002 C 
BRANCH  26  27
ATOM     27  C   UNL A   1      44.811  24.020  34.263  1.00  0.00     0.002 C 
BRANCH  27  28
ATOM     28  C   UNL A   1      46.016  23.841  35.191  1.00  0.00     0.021 C 
BRANCH  28  29
ATOM     29  C   UNL A   1      47.064  24.941  35.066  1.00  0.00     0.116 C 
BRANCH  29  30
ATOM     30  N   UNL A   1      47.297  25.599  36.343  1.00  0.00    -0.352 N 
ATOM     31  C   UNL A   1      46.819  26.800  36.799  1.00  0.00     0.251 C 
ATOM     32  H   UNL A   1      47.881  25.113  36.968  1.00  0.00     0.163 HD
ATOM     33  O   UNL A   1      47.309  27.320  37.797  1.00  0.00    -0.269 OA
BRANCH  31  34
ATOM     34  C   UNL A   1      45.714  27.469  36.086  1.00  0.00     0.039 A 
ATOM     35  C   UNL A   1      46.015  28.464  35.151  1.00  0.00     0.014 A 
ATOM     36  C   UNL A   1      44.383  27.143  36.366  1.00  0.00     0.014 A 
ATOM     37  C   UNL A   1      44.980  29.106  34.470  1.00  0.00     0.010 A 
ATOM     38  C   UNL A   1      43.357  27.737  35.640  1.00  0.00     0.010 A 
ATOM     39  C   UNL A   1      43.645  28.734  34.696  1.00  0.00    -0.014 A 
BRANCH  39  40
ATOM     40  C   UNL A   1      42.531  29.400  33.979  1.00  0.00     0.031 A 
ATOM     41  C   UNL A   1      41.803  30.545  34.627  1.00  0.00     0.074 A 
ATOM     42  C   UNL A   1      42.142  28.942  32.774  1.00  0.00     0.049 A 
ATOM     43  N   UNL A   1      40.757  31.207  34.202  1.00  0.00    -0.248 NA
ATOM     44  C   UNL A   1      42.303  30.990  35.938  1.00  0.00     0.031 C 
ATOM     45  C   UNL A   1      42.749  27.817  32.060  1.00  0.00     0.029 A 
ATOM     46  N   UNL A   1      41.136  29.362  31.942  1.00  0.00    -0.354 N 
ATOM     47  C   UNL A   1      40.467  32.133  35.197  1.00  0.00     0.074 A 
ATOM     48  C   UNL A   1      41.415  31.914  36.268  1.00  0.00     0.031 C 
ATOM     49  C   UNL A   1      42.115  27.649  30.887  1.00  0.00     0.029 A 
ATOM     50  C   UNL A   1      41.039  28.630  30.784  1.00  0.00     0.049 A 
ATOM     51  H   UNL A   1      40.541  30.116  32.155  1.00  0.00     0.167 HD
ATOM     52  C   UNL A   1      39.515  33.095  35.205  1.00  0.00     0.037 A 
ATOM     53  C   UNL A   1      40.174  28.738  29.758  1.00  0.00     0.037 A 
ATOM     54  C   UNL A   1      38.590  33.326  34.127  1.00  0.00     0.049 A 
ATOM     55  C   UNL A   1      39.118  29.808  29.798  1.00  0.00     0.074 A 
ATOM     56  C   UNL A   1      37.610  34.297  34.024  1.00  0.00     0.029 A 
ATOM     57  N   UNL A   1      38.537  32.576  32.962  1.00  0.00    -0.354 N 
ATOM     58  N   UNL A   1      38.886  30.707  30.723  1.00  0.00    -0.248 NA
ATOM     59  C   UNL A   1      38.208  29.882  28.646  1.00  0.00     0.031 C 
ATOM     60  C   UNL A   1      36.944  34.117  32.807  1.00  0.00     0.029 A 
ATOM     61  C   UNL A   1      37.535  33.057  32.137  1.00  0.00     0.049 A 
ATOM     62  H   UNL A   1      39.124  31.814  32.752  1.00  0.00     0.167 HD
ATOM     63  C   UNL A   1      37.828  31.473  30.252  1.00  0.00     0.074 A 
ATOM     64  C   UNL A   1      37.471  30.939  28.954  1.00  0.00     0.031 C 
ATOM     65  C   UNL A   1      37.208  32.525  30.840  1.00  0.00     0.037 A 
BRANCH  52  66
ATOM     66  C   UNL A   1      39.435  33.978  36.415  1.00  0.00     0.057 A 
ATOM     67  C   UNL A   1      40.012  35.255  36.432  1.00  0.00     0.134 A 
ATOM     68  C   UNL A   1      38.746  33.564  37.563  1.00  0.00     0.134 A 
ATOM     69  F   UNL A   1      40.696  35.705  35.370  1.00  0.00    -0.206 F 
ATOM     70  C   UNL A   1      39.927  36.080  37.555  1.00  0.00     0.040 A 
ATOM     71  C   UNL A   1      38.633  34.391  38.683  1.00  0.00     0.040 A 
ATOM     72  F   UNL A   1      38.168  32.356  37.612  1.00  0.00    -0.206 F 
ATOM     73  C   UNL A   1      39.229  35.651  38.681  1.00  0.00     0.006 A 
ENDBRANCH  52  66
BRANCH  53  74
ATOM     74  C   UNL A   1      40.280  27.825  28.592  1.00  0.00     0.057 A 
ATOM     75  C   UNL A   1      41.000  28.198  27.451  1.00  0.00     0.134 A 
ATOM     76  C   UNL A   1      39.650  26.576  28.579  1.00  0.00     0.134 A 
ATOM     77  F   UNL A   1      41.609  29.392  27.398  1.00  0.00    -0.206 F 
ATOM     78  C   UNL A   1      41.070  27.373  26.328  1.00  0.00     0.040 A 
ATOM     79  C   UNL A   1      39.733  25.730  27.471  1.00  0.00     0.040 A 
ATOM     80  F   UNL A   1      38.951  26.157  29.643  1.00  0.00    -0.206 F 
ATOM     81  C   UNL A   1      40.437  26.132  26.338  1.00  0.00     0.006 A 
ENDBRANCH  53  74
BRANCH  65  82
ATOM     82  C   UNL A   1      36.115  33.197  30.064  1.00  0.00     0.057 A 
ATOM     83  C   UNL A   1      34.766  33.059  30.415  1.00  0.00     0.134 A 
ATOM     84  C   UNL A   1      36.422  34.021  28.974  1.00  0.00     0.134 A 
ATOM     85  F   UNL A   1      34.407  32.273  31.441  1.00  0.00    -0.206 F 
ATOM     86  C   UNL A   1      33.758  33.702  29.694  1.00  0.00     0.040 A 
ATOM     87  C   UNL A   1      35.425  34.688  28.262  1.00  0.00     0.040 A 
ATOM     88  F   UNL A   1      37.695  34.200  28.592  1.00  0.00    -0.206 F 
ATOM     89  C   UNL A   1      34.088  34.524  28.618  1.00  0.00     0.006 A 
ENDBRANCH  65  82
ENDBRANCH  39  40
ENDBRANCH  31  34
ENDBRANCH  29  30
ENDBRANCH  28  29
ENDBRANCH  27  28
ENDBRANCH  26  27
ENDBRANCH   1  26
TORSDOF 18
ENDMDL
