MODEL 1
REMARK VINA RESULT:     -11.9      0.000      0.000
REMARK SMILES Cc1ccc(-c2c[nH]c(=O)cc2C(=O)NCCCCCCNC(=O)c2ccc(-c3c4nc(c(-c5c(F)cccc5F)c5ccc([nH]5)c(-c5c(F)cccc5F)c5nc(c(-c6c(F)cccc6F)c6ccc3[nH]6)C=C5)C=C4)cc2)cc1Cl
REMARK SMILES IDX 19 1 18 2 17 3 16 4 15 5 13 6 14 7 12 9 6 10 7 11 8 12 11 13
REMARK SMILES IDX 9 14 10 16 5 17 1 18 2 19 3 20 80 21 4 22 79 23 81 24 20 25
REMARK SMILES IDX 21 26 22 27 23 28 24 30 25 31 26 32 78 33 27 34 77 35 28 36
REMARK SMILES IDX 29 37 30 38 71 39 31 40 76 41 70 42 72 43 32 44 75 45 69 46
REMARK SMILES IDX 68 47 33 49 59 50 42 51 58 52 43 53 46 54 57 55 73 56 44 57
REMARK SMILES IDX 45 58 56 60 74 61 47 62 34 63 35 64 40 65 36 66 37 67 39 68
REMARK SMILES IDX 41 69 38 70 60 71 61 72 66 73 62 74 63 75 65 76 67 77 64 78
REMARK SMILES IDX 48 79 49 80 54 81 50 82 51 83 53 84 55 85 52 86
REMARK H PARENT 15 8 8 15 22 29 72 48 46 59
REMARK Flexibility Score: inf
ROOT
ATOM      1  C   UNL A   1      36.421  19.919  25.008  1.00  0.00     0.002 C 
ENDROOT
BRANCH   1   2
ATOM      2  C   UNL A   1      35.976  21.349  24.670  1.00  0.00     0.002 C 
BRANCH   2   3
ATOM      3  C   UNL A   1      35.731  22.254  25.889  1.00  0.00     0.021 C 
BRANCH   3   4
ATOM      4  C   UNL A   1      36.100  23.716  25.636  1.00  0.00     0.116 C 
BRANCH   4   5
ATOM      5  N   UNL A   1      35.455  24.189  24.431  1.00  0.00    -0.352 N 
ATOM      6  C   UNL A   1      34.214  24.577  24.057  1.00  0.00     0.252 C 
ATOM      7  O   UNL A   1      34.144  24.866  22.859  1.00  0.00    -0.269 OA
ATOM      8  H   UNL A   1      36.090  24.244  23.681  1.00  0.00     0.163 HD
BRANCH   6   9
ATOM      9  C   UNL A   1      33.012  24.722  24.966  1.00  0.00     0.054 A 
ATOM     10  C   UNL A   1      31.987  23.643  25.006  1.00  0.00     0.011 A 
ATOM     11  C   UNL A   1      30.850  23.846  25.702  1.00  0.00     0.095 A 
ATOM     12  N   UNL A   1      30.632  25.007  26.388  1.00  0.00    -0.328 N 
ATOM     13  C   UNL A   1      32.825  25.792  25.762  1.00  0.00     0.086 A 
ATOM     14  C   UNL A   1      31.553  26.010  26.488  1.00  0.00     0.248 A 
ATOM     15  H   UNL A   1      29.764  25.127  26.836  1.00  0.00     0.169 HD
ATOM     16  O   UNL A   1      31.355  27.039  27.117  1.00  0.00    -0.270 OA
BRANCH  10  17
ATOM     17  C   UNL A   1      32.123  22.292  24.417  1.00  0.00    -0.015 A 
ATOM     18  C   UNL A   1      32.400  18.358  22.638  1.00  0.00     0.046 C 
ATOM     19  C   UNL A   1      32.326  19.717  23.273  1.00  0.00    -0.032 A 
ATOM     20  C   UNL A   1      32.114  20.843  22.465  1.00  0.00     0.005 A 
ATOM     21  C   UNL A   1      32.459  19.900  24.658  1.00  0.00     0.044 A 
ATOM     22  C   UNL A   1      32.030  22.117  23.030  1.00  0.00     0.009 A 
ATOM     23  C   UNL A   1      32.350  21.173  25.227  1.00  0.00     0.029 A 
ATOM     24  Cl  UNL A   1      32.767  18.571  25.718  1.00  0.00    -0.084 Cl
ENDBRANCH  10  17
ENDBRANCH   6   9
ENDBRANCH   4   5
ENDBRANCH   3   4
ENDBRANCH   2   3
ENDBRANCH   1   2
BRANCH   1  25
ATOM     25  C   UNL A   1      37.874  19.602  24.647  1.00  0.00     0.021 C 
BRANCH  25  26
ATOM     26  C   UNL A   1      38.884  20.102  25.671  1.00  0.00     0.116 C 
BRANCH  26  27
ATOM     27  N   UNL A   1      40.012  19.192  25.792  1.00  0.00    -0.352 N 
ATOM     28  C   UNL A   1      41.323  19.477  26.074  1.00  0.00     0.251 C 
ATOM     29  H   UNL A   1      39.806  18.239  25.652  1.00  0.00     0.163 HD
ATOM     30  O   UNL A   1      42.195  18.634  25.892  1.00  0.00    -0.269 OA
BRANCH  28  31
ATOM     31  C   UNL A   1      41.680  20.812  26.594  1.00  0.00     0.039 A 
ATOM     32  C   UNL A   1      42.157  21.780  25.709  1.00  0.00     0.014 A 
ATOM     33  C   UNL A   1      41.553  21.100  27.956  1.00  0.00     0.014 A 
ATOM     34  C   UNL A   1      42.468  23.054  26.186  1.00  0.00     0.010 A 
ATOM     35  C   UNL A   1      41.783  22.391  28.414  1.00  0.00     0.010 A 
ATOM     36  C   UNL A   1      42.259  23.377  27.536  1.00  0.00    -0.014 A 
BRANCH  36  37
ATOM     37  C   UNL A   1      42.560  24.733  28.059  1.00  0.00     0.031 A 
ATOM     38  C   UNL A   1      43.964  25.087  28.464  1.00  0.00     0.074 A 
ATOM     39  C   UNL A   1      41.563  25.624  28.216  1.00  0.00     0.049 A 
ATOM     40  N   UNL A   1      44.418  26.194  28.996  1.00  0.00    -0.248 NA
ATOM     41  C   UNL A   1      44.990  24.050  28.273  1.00  0.00     0.031 C 
ATOM     42  C   UNL A   1      40.154  25.384  27.897  1.00  0.00     0.029 A 
ATOM     43  N   UNL A   1      41.581  26.910  28.693  1.00  0.00    -0.354 N 
ATOM     44  C   UNL A   1      45.773  25.980  29.210  1.00  0.00     0.074 A 
ATOM     45  C   UNL A   1      46.056  24.618  28.814  1.00  0.00     0.031 C 
ATOM     46  C   UNL A   1      39.449  26.497  28.158  1.00  0.00     0.029 A 
ATOM     47  C   UNL A   1      40.346  27.511  28.702  1.00  0.00     0.049 A 
ATOM     48  H   UNL A   1      42.402  27.360  28.997  1.00  0.00     0.167 HD
ATOM     49  C   UNL A   1      46.705  26.849  29.671  1.00  0.00     0.037 A 
ATOM     50  C   UNL A   1      39.979  28.740  29.113  1.00  0.00     0.037 A 
ATOM     51  C   UNL A   1      46.420  28.208  30.050  1.00  0.00     0.049 A 
ATOM     52  C   UNL A   1      41.028  29.676  29.647  1.00  0.00     0.074 A 
ATOM     53  C   UNL A   1      47.300  29.183  30.485  1.00  0.00     0.029 A 
ATOM     54  N   UNL A   1      45.157  28.781  30.044  1.00  0.00    -0.354 N 
ATOM     55  N   UNL A   1      42.317  29.484  29.785  1.00  0.00    -0.248 NA
ATOM     56  C   UNL A   1      40.569  31.005  30.076  1.00  0.00     0.031 C 
ATOM     57  C   UNL A   1      46.561  30.331  30.794  1.00  0.00     0.029 A 
ATOM     58  C   UNL A   1      45.230  30.090  30.492  1.00  0.00     0.049 A 
ATOM     59  H   UNL A   1      44.331  28.325  29.764  1.00  0.00     0.167 HD
ATOM     60  C   UNL A   1      42.829  30.676  30.282  1.00  0.00     0.074 A 
ATOM     61  C   UNL A   1      41.711  31.589  30.409  1.00  0.00     0.031 C 
ATOM     62  C   UNL A   1      44.109  30.989  30.602  1.00  0.00     0.037 A 
BRANCH  49  63
ATOM     63  C   UNL A   1      48.118  26.350  29.789  1.00  0.00     0.057 A 
ATOM     64  C   UNL A   1      49.028  26.447  28.727  1.00  0.00     0.134 A 
ATOM     65  C   UNL A   1      48.581  25.788  30.985  1.00  0.00     0.134 A 
ATOM     66  F   UNL A   1      48.648  26.964  27.549  1.00  0.00    -0.206 F 
ATOM     67  C   UNL A   1      50.337  25.973  28.839  1.00  0.00     0.040 A 
ATOM     68  C   UNL A   1      49.896  25.339  31.120  1.00  0.00     0.040 A 
ATOM     69  F   UNL A   1      47.767  25.670  32.044  1.00  0.00    -0.206 F 
ATOM     70  C   UNL A   1      50.776  25.422  30.042  1.00  0.00     0.006 A 
ENDBRANCH  49  63
BRANCH  50  71
ATOM     71  C   UNL A   1      38.560  29.165  29.013  1.00  0.00     0.057 A 
ATOM     72  C   UNL A   1      38.034  29.647  27.808  1.00  0.00     0.134 A 
ATOM     73  C   UNL A   1      37.699  29.115  30.116  1.00  0.00     0.134 A 
ATOM     74  F   UNL A   1      38.813  29.736  26.720  1.00  0.00    -0.206 F 
ATOM     75  C   UNL A   1      36.713  30.086  27.708  1.00  0.00     0.040 A 
ATOM     76  C   UNL A   1      36.366  29.523  30.023  1.00  0.00     0.040 A 
ATOM     77  F   UNL A   1      38.137  28.654  31.297  1.00  0.00    -0.206 F 
ATOM     78  C   UNL A   1      35.873  30.018  28.818  1.00  0.00     0.006 A 
ENDBRANCH  50  71
BRANCH  62  79
ATOM     79  C   UNL A   1      44.379  32.389  31.074  1.00  0.00     0.057 A 
ATOM     80  C   UNL A   1      44.654  33.435  30.185  1.00  0.00     0.134 A 
ATOM     81  C   UNL A   1      44.320  32.700  32.440  1.00  0.00     0.134 A 
ATOM     82  F   UNL A   1      44.736  33.204  28.866  1.00  0.00    -0.206 F 
ATOM     83  C   UNL A   1      44.889  34.734  30.640  1.00  0.00     0.040 A 
ATOM     84  C   UNL A   1      44.522  34.000  32.903  1.00  0.00     0.040 A 
ATOM     85  F   UNL A   1      44.051  31.747  33.345  1.00  0.00    -0.206 F 
ATOM     86  C   UNL A   1      44.815  35.021  32.001  1.00  0.00     0.006 A 
ENDBRANCH  62  79
ENDBRANCH  36  37
ENDBRANCH  28  31
ENDBRANCH  26  27
ENDBRANCH  25  26
ENDBRANCH   1  25
TORSDOF 14
ENDMDL
MODEL 2
REMARK VINA RESULT:     -11.8      3.780      8.581
REMARK SMILES Cc1ccc(-c2c[nH]c(=O)cc2C(=O)NCCCCCCNC(=O)c2ccc(-c3c4nc(c(-c5c(F)cccc5F)c5ccc([nH]5)c(-c5c(F)cccc5F)c5nc(c(-c6c(F)cccc6F)c6ccc3[nH]6)C=C5)C=C4)cc2)cc1Cl
REMARK SMILES IDX 19 1 18 2 17 3 16 4 15 5 13 6 14 7 12 9 6 10 7 11 8 12 11 13
REMARK SMILES IDX 9 14 10 16 5 17 1 18 2 19 3 20 80 21 4 22 79 23 81 24 20 25
REMARK SMILES IDX 21 26 22 27 23 28 24 30 25 31 26 32 78 33 27 34 77 35 28 36
REMARK SMILES IDX 29 37 30 38 71 39 31 40 76 41 70 42 72 43 32 44 75 45 69 46
REMARK SMILES IDX 68 47 33 49 59 50 42 51 58 52 43 53 46 54 57 55 73 56 44 57
REMARK SMILES IDX 45 58 56 60 74 61 47 62 34 63 35 64 40 65 36 66 37 67 39 68
REMARK SMILES IDX 41 69 38 70 60 71 61 72 66 73 62 74 63 75 65 76 67 77 64 78
REMARK SMILES IDX 48 79 49 80 54 81 50 82 51 83 53 84 55 85 52 86
REMARK H PARENT 15 8 8 15 22 29 72 48 46 59
REMARK Flexibility Score: inf
ROOT
ATOM      1  C   UNL A   1      31.544  30.474  25.746  1.00  0.00     0.002 C 
ENDROOT
BRANCH   1   2
ATOM      2  C   UNL A   1      32.914  29.804  25.927  1.00  0.00     0.002 C 
BRANCH   2   3
ATOM      3  C   UNL A   1      32.887  28.482  26.711  1.00  0.00     0.021 C 
BRANCH   3   4
ATOM      4  C   UNL A   1      31.574  28.254  27.461  1.00  0.00     0.116 C 
BRANCH   4   5
ATOM      5  N   UNL A   1      31.056  26.936  27.167  1.00  0.00    -0.352 N 
ATOM      6  C   UNL A   1      30.737  26.219  26.066  1.00  0.00     0.252 C 
ATOM      7  O   UNL A   1      30.272  25.108  26.337  1.00  0.00    -0.269 OA
ATOM      8  H   UNL A   1      30.891  26.424  27.991  1.00  0.00     0.163 HD
BRANCH   6   9
ATOM      9  C   UNL A   1      30.956  26.643  24.629  1.00  0.00     0.054 A 
ATOM     10  C   UNL A   1      32.170  26.180  23.904  1.00  0.00     0.011 A 
ATOM     11  C   UNL A   1      32.433  26.683  22.680  1.00  0.00     0.095 A 
ATOM     12  N   UNL A   1      31.597  27.585  22.085  1.00  0.00    -0.328 N 
ATOM     13  C   UNL A   1      30.087  27.425  23.961  1.00  0.00     0.086 A 
ATOM     14  C   UNL A   1      30.415  27.993  22.633  1.00  0.00     0.248 A 
ATOM     15  H   UNL A   1      31.861  27.961  21.215  1.00  0.00     0.169 HD
ATOM     16  O   UNL A   1      29.665  28.790  22.086  1.00  0.00    -0.270 OA
BRANCH  10  17
ATOM     17  C   UNL A   1      33.106  25.128  24.358  1.00  0.00    -0.015 A 
ATOM     18  C   UNL A   1      35.941  22.112  25.618  1.00  0.00     0.046 C 
ATOM     19  C   UNL A   1      34.936  23.142  25.189  1.00  0.00    -0.032 A 
ATOM     20  C   UNL A   1      35.182  24.496  25.455  1.00  0.00     0.005 A 
ATOM     21  C   UNL A   1      33.750  22.793  24.524  1.00  0.00     0.044 A 
ATOM     22  C   UNL A   1      34.270  25.476  25.058  1.00  0.00     0.009 A 
ATOM     23  C   UNL A   1      32.848  23.776  24.104  1.00  0.00     0.029 A 
ATOM     24  Cl  UNL A   1      33.350  21.144  24.198  1.00  0.00    -0.084 Cl
ENDBRANCH  10  17
ENDBRANCH   6   9
ENDBRANCH   4   5
ENDBRANCH   3   4
ENDBRANCH   2   3
ENDBRANCH   1   2
BRANCH   1  25
ATOM     25  C   UNL A   1      31.343  31.746  26.573  1.00  0.00     0.021 C 
BRANCH  25  26
ATOM     26  C   UNL A   1      32.642  32.369  27.067  1.00  0.00     0.116 C 
BRANCH  26  27
ATOM     27  N   UNL A   1      32.443  33.746  27.490  1.00  0.00    -0.352 N 
ATOM     28  C   UNL A   1      33.113  34.458  28.452  1.00  0.00     0.251 C 
ATOM     29  H   UNL A   1      31.728  34.235  27.022  1.00  0.00     0.163 HD
ATOM     30  O   UNL A   1      32.662  35.520  28.866  1.00  0.00    -0.269 OA
BRANCH  28  31
ATOM     31  C   UNL A   1      34.381  33.930  28.994  1.00  0.00     0.039 A 
ATOM     32  C   UNL A   1      34.349  33.114  30.126  1.00  0.00     0.014 A 
ATOM     33  C   UNL A   1      35.600  34.253  28.388  1.00  0.00     0.014 A 
ATOM     34  C   UNL A   1      35.540  32.586  30.627  1.00  0.00     0.010 A 
ATOM     35  C   UNL A   1      36.773  33.659  28.838  1.00  0.00     0.010 A 
ATOM     36  C   UNL A   1      36.757  32.834  29.972  1.00  0.00    -0.014 A 
BRANCH  36  37
ATOM     37  C   UNL A   1      38.031  32.262  30.474  1.00  0.00     0.031 A 
ATOM     38  C   UNL A   1      38.558  30.979  29.895  1.00  0.00     0.074 A 
ATOM     39  C   UNL A   1      38.683  32.870  31.483  1.00  0.00     0.049 A 
ATOM     40  N   UNL A   1      39.618  30.291  30.236  1.00  0.00    -0.248 NA
ATOM     41  C   UNL A   1      37.777  30.374  28.805  1.00  0.00     0.031 C 
ATOM     42  C   UNL A   1      38.249  34.097  32.155  1.00  0.00     0.029 A 
ATOM     43  N   UNL A   1      39.846  32.532  32.128  1.00  0.00    -0.354 N 
ATOM     44  C   UNL A   1      39.622  29.172  29.414  1.00  0.00     0.074 A 
ATOM     45  C   UNL A   1      38.427  29.238  28.602  1.00  0.00     0.031 C 
ATOM     46  C   UNL A   1      39.150  34.425  33.095  1.00  0.00     0.029 A 
ATOM     47  C   UNL A   1      40.199  33.411  33.123  1.00  0.00     0.049 A 
ATOM     48  H   UNL A   1      40.378  31.736  31.897  1.00  0.00     0.167 HD
ATOM     49  C   UNL A   1      40.551  28.191  29.323  1.00  0.00     0.037 A 
ATOM     50  C   UNL A   1      41.248  33.393  33.967  1.00  0.00     0.037 A 
ATOM     51  C   UNL A   1      41.747  28.138  30.123  1.00  0.00     0.049 A 
ATOM     52  C   UNL A   1      42.251  32.278  33.865  1.00  0.00     0.074 A 
ATOM     53  C   UNL A   1      42.774  27.212  30.077  1.00  0.00     0.029 A 
ATOM     54  N   UNL A   1      42.071  29.048  31.119  1.00  0.00    -0.354 N 
ATOM     55  N   UNL A   1      42.277  31.260  33.040  1.00  0.00    -0.248 NA
ATOM     56  C   UNL A   1      43.377  32.314  34.810  1.00  0.00     0.031 C 
ATOM     57  C   UNL A   1      43.694  27.532  31.082  1.00  0.00     0.029 A 
ATOM     58  C   UNL A   1      43.271  28.691  31.711  1.00  0.00     0.049 A 
ATOM     59  H   UNL A   1      41.528  29.830  31.368  1.00  0.00     0.167 HD
ATOM     60  C   UNL A   1      43.436  30.555  33.340  1.00  0.00     0.074 A 
ATOM     61  C   UNL A   1      44.091  31.270  34.415  1.00  0.00     0.031 C 
ATOM     62  C   UNL A   1      43.916  29.420  32.774  1.00  0.00     0.037 A 
BRANCH  49  63
ATOM     63  C   UNL A   1      40.307  27.097  28.322  1.00  0.00     0.057 A 
ATOM     64  C   UNL A   1      40.871  27.127  27.039  1.00  0.00     0.134 A 
ATOM     65  C   UNL A   1      39.517  25.988  28.651  1.00  0.00     0.134 A 
ATOM     66  F   UNL A   1      41.629  28.165  26.652  1.00  0.00    -0.206 F 
ATOM     67  C   UNL A   1      40.632  26.113  26.110  1.00  0.00     0.040 A 
ATOM     68  C   UNL A   1      39.297  24.952  27.742  1.00  0.00     0.040 A 
ATOM     69  F   UNL A   1      38.951  25.889  29.863  1.00  0.00    -0.206 F 
ATOM     70  C   UNL A   1      39.847  25.017  26.464  1.00  0.00     0.006 A 
ENDBRANCH  49  63
BRANCH  50  71
ATOM     71  C   UNL A   1      41.417  34.479  34.966  1.00  0.00     0.057 A 
ATOM     72  C   UNL A   1      42.107  35.655  34.645  1.00  0.00     0.134 A 
ATOM     73  C   UNL A   1      40.909  34.367  36.266  1.00  0.00     0.134 A 
ATOM     74  F   UNL A   1      42.632  35.815  33.421  1.00  0.00    -0.206 F 
ATOM     75  C   UNL A   1      42.307  36.667  35.584  1.00  0.00     0.040 A 
ATOM     76  C   UNL A   1      41.075  35.385  37.207  1.00  0.00     0.040 A 
ATOM     77  F   UNL A   1      40.229  33.271  36.635  1.00  0.00    -0.206 F 
ATOM     78  C   UNL A   1      41.784  36.536  36.869  1.00  0.00     0.006 A 
ENDBRANCH  50  71
BRANCH  62  79
ATOM     79  C   UNL A   1      45.236  28.907  33.274  1.00  0.00     0.057 A 
ATOM     80  C   UNL A   1      45.327  27.969  34.309  1.00  0.00     0.134 A 
ATOM     81  C   UNL A   1      46.433  29.330  32.679  1.00  0.00     0.134 A 
ATOM     82  F   UNL A   1      44.221  27.530  34.930  1.00  0.00    -0.206 F 
ATOM     83  C   UNL A   1      46.562  27.491  34.753  1.00  0.00     0.040 A 
ATOM     84  C   UNL A   1      47.670  28.837  33.094  1.00  0.00     0.040 A 
ATOM     85  F   UNL A   1      46.417  30.220  31.676  1.00  0.00    -0.206 F 
ATOM     86  C   UNL A   1      47.737  27.919  34.140  1.00  0.00     0.006 A 
ENDBRANCH  62  79
ENDBRANCH  36  37
ENDBRANCH  28  31
ENDBRANCH  26  27
ENDBRANCH  25  26
ENDBRANCH   1  25
TORSDOF 14
ENDMDL
MODEL 3
REMARK VINA RESULT:     -11.8      3.504      8.651
REMARK SMILES Cc1ccc(-c2c[nH]c(=O)cc2C(=O)NCCCCCCNC(=O)c2ccc(-c3c4nc(c(-c5c(F)cccc5F)c5ccc([nH]5)c(-c5c(F)cccc5F)c5nc(c(-c6c(F)cccc6F)c6ccc3[nH]6)C=C5)C=C4)cc2)cc1Cl
REMARK SMILES IDX 19 1 18 2 17 3 16 4 15 5 13 6 14 7 12 9 6 10 7 11 8 12 11 13
REMARK SMILES IDX 9 14 10 16 5 17 1 18 2 19 3 20 80 21 4 22 79 23 81 24 20 25
REMARK SMILES IDX 21 26 22 27 23 28 24 30 25 31 26 32 78 33 27 34 77 35 28 36
REMARK SMILES IDX 29 37 30 38 71 39 31 40 76 41 70 42 72 43 32 44 75 45 69 46
REMARK SMILES IDX 68 47 33 49 59 50 42 51 58 52 43 53 46 54 57 55 73 56 44 57
REMARK SMILES IDX 45 58 56 60 74 61 47 62 34 63 35 64 40 65 36 66 37 67 39 68
REMARK SMILES IDX 41 69 38 70 60 71 61 72 66 73 62 74 63 75 65 76 67 77 64 78
REMARK SMILES IDX 48 79 49 80 54 81 50 82 51 83 53 84 55 85 52 86
REMARK H PARENT 15 8 8 15 22 29 72 48 46 59
REMARK Flexibility Score: inf
ROOT
ATOM      1  C   UNL A   1      31.373  30.644  25.745  1.00  0.00     0.002 C 
ENDROOT
BRANCH   1   2
ATOM      2  C   UNL A   1      32.765  30.004  25.847  1.00  0.00     0.002 C 
BRANCH   2   3
ATOM      3  C   UNL A   1      32.797  28.635  26.545  1.00  0.00     0.021 C 
BRANCH   3   4
ATOM      4  C   UNL A   1      31.559  28.368  27.401  1.00  0.00     0.116 C 
BRANCH   4   5
ATOM      5  N   UNL A   1      31.054  27.037  27.142  1.00  0.00    -0.352 N 
ATOM      6  C   UNL A   1      30.740  26.289  26.060  1.00  0.00     0.252 C 
ATOM      7  O   UNL A   1      30.287  25.181  26.361  1.00  0.00    -0.269 OA
ATOM      8  H   UNL A   1      30.896  26.544  27.979  1.00  0.00     0.163 HD
BRANCH   6   9
ATOM      9  C   UNL A   1      30.952  26.679  24.612  1.00  0.00     0.054 A 
ATOM     10  C   UNL A   1      32.158  26.191  23.889  1.00  0.00     0.011 A 
ATOM     11  C   UNL A   1      32.415  26.664  22.653  1.00  0.00     0.095 A 
ATOM     12  N   UNL A   1      31.580  27.558  22.043  1.00  0.00    -0.328 N 
ATOM     13  C   UNL A   1      30.083  27.451  23.932  1.00  0.00     0.086 A 
ATOM     14  C   UNL A   1      30.405  27.986  22.589  1.00  0.00     0.248 A 
ATOM     15  H   UNL A   1      31.840  27.912  21.162  1.00  0.00     0.169 HD
ATOM     16  O   UNL A   1      29.656  28.774  22.029  1.00  0.00    -0.270 OA
BRANCH  10  17
ATOM     17  C   UNL A   1      33.090  25.143  24.361  1.00  0.00    -0.015 A 
ATOM     18  C   UNL A   1      35.916  22.140  25.672  1.00  0.00     0.046 C 
ATOM     19  C   UNL A   1      34.913  23.166  25.226  1.00  0.00    -0.032 A 
ATOM     20  C   UNL A   1      35.163  24.524  25.470  1.00  0.00     0.005 A 
ATOM     21  C   UNL A   1      33.728  22.810  24.564  1.00  0.00     0.044 A 
ATOM     22  C   UNL A   1      34.254  25.499  25.057  1.00  0.00     0.009 A 
ATOM     23  C   UNL A   1      32.829  23.789  24.128  1.00  0.00     0.029 A 
ATOM     24  Cl  UNL A   1      33.323  21.157  24.264  1.00  0.00    -0.084 Cl
ENDBRANCH  10  17
ENDBRANCH   6   9
ENDBRANCH   4   5
ENDBRANCH   3   4
ENDBRANCH   2   3
ENDBRANCH   1   2
BRANCH   1  25
ATOM     25  C   UNL A   1      31.239  31.994  26.453  1.00  0.00     0.021 C 
BRANCH  25  26
ATOM     26  C   UNL A   1      32.515  32.454  27.145  1.00  0.00     0.116 C 
BRANCH  26  27
ATOM     27  N   UNL A   1      32.395  33.821  27.627  1.00  0.00    -0.352 N 
ATOM     28  C   UNL A   1      33.156  34.476  28.560  1.00  0.00     0.251 C 
ATOM     29  H   UNL A   1      31.666  34.349  27.227  1.00  0.00     0.163 HD
ATOM     30  O   UNL A   1      32.773  35.538  29.040  1.00  0.00    -0.269 OA
BRANCH  28  31
ATOM     31  C   UNL A   1      34.441  33.889  28.991  1.00  0.00     0.039 A 
ATOM     32  C   UNL A   1      34.478  33.114  30.152  1.00  0.00     0.014 A 
ATOM     33  C   UNL A   1      35.607  34.117  28.254  1.00  0.00     0.014 A 
ATOM     34  C   UNL A   1      35.681  32.530  30.550  1.00  0.00     0.010 A 
ATOM     35  C   UNL A   1      36.783  33.467  28.605  1.00  0.00     0.010 A 
ATOM     36  C   UNL A   1      36.837  32.681  29.766  1.00  0.00    -0.014 A 
BRANCH  36  37
ATOM     37  C   UNL A   1      38.120  32.049  30.159  1.00  0.00     0.031 A 
ATOM     38  C   UNL A   1      39.045  32.755  31.111  1.00  0.00     0.074 A 
ATOM     39  C   UNL A   1      38.474  30.867  29.620  1.00  0.00     0.049 A 
ATOM     40  N   UNL A   1      40.233  32.397  31.530  1.00  0.00    -0.248 NA
ATOM     41  C   UNL A   1      38.588  34.049  31.642  1.00  0.00     0.031 C 
ATOM     42  C   UNL A   1      37.680  30.104  28.654  1.00  0.00     0.029 A 
ATOM     43  N   UNL A   1      39.600  30.103  29.801  1.00  0.00    -0.354 N 
ATOM     44  C   UNL A   1      40.664  33.423  32.360  1.00  0.00     0.074 A 
ATOM     45  C   UNL A   1      39.643  34.447  32.335  1.00  0.00     0.031 C 
ATOM     46  C   UNL A   1      38.329  28.968  28.352  1.00  0.00     0.029 A 
ATOM     47  C   UNL A   1      39.601  28.943  29.066  1.00  0.00     0.049 A 
ATOM     48  H   UNL A   1      40.335  30.362  30.402  1.00  0.00     0.167 HD
ATOM     49  C   UNL A   1      41.797  33.495  33.098  1.00  0.00     0.037 A 
ATOM     50  C   UNL A   1      40.530  27.972  28.975  1.00  0.00     0.037 A 
ATOM     51  C   UNL A   1      42.804  32.467  33.131  1.00  0.00     0.049 A 
ATOM     52  C   UNL A   1      41.793  28.088  29.783  1.00  0.00     0.074 A 
ATOM     53  C   UNL A   1      43.966  32.421  33.880  1.00  0.00     0.029 A 
ATOM     54  N   UNL A   1      42.769  31.304  32.374  1.00  0.00    -0.354 N 
ATOM     55  N   UNL A   1      42.160  29.033  30.614  1.00  0.00    -0.248 NA
ATOM     56  C   UNL A   1      42.768  26.997  29.646  1.00  0.00     0.031 C 
ATOM     57  C   UNL A   1      44.661  31.257  33.537  1.00  0.00     0.029 A 
ATOM     58  C   UNL A   1      43.902  30.547  32.621  1.00  0.00     0.049 A 
ATOM     59  H   UNL A   1      42.047  31.056  31.754  1.00  0.00     0.167 HD
ATOM     60  C   UNL A   1      43.389  28.636  31.125  1.00  0.00     0.074 A 
ATOM     61  C   UNL A   1      43.698  27.357  30.518  1.00  0.00     0.031 C 
ATOM     62  C   UNL A   1      44.189  29.270  32.018  1.00  0.00     0.037 A 
BRANCH  49  63
ATOM     63  C   UNL A   1      42.004  34.730  33.930  1.00  0.00     0.057 A 
ATOM     64  C   UNL A   1      41.598  34.797  35.270  1.00  0.00     0.134 A 
ATOM     65  C   UNL A   1      42.637  35.858  33.393  1.00  0.00     0.134 A 
ATOM     66  F   UNL A   1      40.975  33.757  35.846  1.00  0.00    -0.206 F 
ATOM     67  C   UNL A   1      41.784  35.950  36.035  1.00  0.00     0.040 A 
ATOM     68  C   UNL A   1      42.857  37.006  34.156  1.00  0.00     0.040 A 
ATOM     69  F   UNL A   1      43.057  35.862  32.119  1.00  0.00    -0.206 F 
ATOM     70  C   UNL A   1      42.421  37.058  35.479  1.00  0.00     0.006 A 
ENDBRANCH  49  63
BRANCH  50  71
ATOM     71  C   UNL A   1      40.292  26.793  28.103  1.00  0.00     0.057 A 
ATOM     72  C   UNL A   1      39.493  25.726  28.535  1.00  0.00     0.134 A 
ATOM     73  C   UNL A   1      40.862  26.695  26.829  1.00  0.00     0.134 A 
ATOM     74  F   UNL A   1      38.932  25.754  29.752  1.00  0.00    -0.206 F 
ATOM     75  C   UNL A   1      39.291  24.595  27.742  1.00  0.00     0.040 A 
ATOM     76  C   UNL A   1      40.644  25.583  26.013  1.00  0.00     0.040 A 
ATOM     77  F   UNL A   1      41.629  27.686  26.351  1.00  0.00    -0.206 F 
ATOM     78  C   UNL A   1      39.863  24.525  26.474  1.00  0.00     0.006 A 
ENDBRANCH  50  71
BRANCH  62  79
ATOM     79  C   UNL A   1      45.452  28.569  32.429  1.00  0.00     0.057 A 
ATOM     80  C   UNL A   1      45.488  27.665  33.498  1.00  0.00     0.134 A 
ATOM     81  C   UNL A   1      46.641  28.774  31.716  1.00  0.00     0.134 A 
ATOM     82  F   UNL A   1      44.388  27.432  34.230  1.00  0.00    -0.206 F 
ATOM     83  C   UNL A   1      46.667  27.011  33.859  1.00  0.00     0.040 A 
ATOM     84  C   UNL A   1      47.818  28.102  32.048  1.00  0.00     0.040 A 
ATOM     85  F   UNL A   1      46.674  29.618  30.674  1.00  0.00    -0.206 F 
ATOM     86  C   UNL A   1      47.835  27.223  33.129  1.00  0.00     0.006 A 
ENDBRANCH  62  79
ENDBRANCH  36  37
ENDBRANCH  28  31
ENDBRANCH  26  27
ENDBRANCH  25  26
ENDBRANCH   1  25
TORSDOF 14
ENDMDL
