MODEL 1
REMARK VINA RESULT:     -12.0      0.000      0.000
REMARK SMILES O=C(NCCCCCCNC(=O)c1ccc2c(=O)n(CCC[NH+]3CCOCC3)c(=O)[nH]c2c1)c1ccc(-c2c3nc(c(-c4c(F)cccc4F)c4ccc([nH]4)c(-c4c(F)cccc4F)c4nc(c(-c5c(F)cccc5F)c5ccc2[nH]5)C=C4)C=C3)cc1
REMARK SMILES IDX 7 1 6 2 5 3 4 4 3 5 1 6 2 7 34 9 35 10 87 11 36 12 86 13
REMARK SMILES IDX 37 14 38 15 39 16 80 17 40 18 85 19 79 20 81 21 41 22 84 23
REMARK SMILES IDX 78 24 77 25 42 27 68 28 51 29 67 30 52 31 55 32 66 33 82 34
REMARK SMILES IDX 53 35 54 36 65 38 83 39 56 40 43 41 44 42 49 43 45 44 46 45
REMARK SMILES IDX 48 46 50 47 47 48 69 49 70 50 75 51 71 52 72 53 74 54 76 55
REMARK SMILES IDX 73 56 57 57 58 58 63 59 59 60 60 61 62 62 64 63 61 64 8 65
REMARK SMILES IDX 9 66 10 67 11 68 12 70 13 71 14 72 33 73 15 74 32 75 16 76
REMARK SMILES IDX 31 77 17 78 29 79 18 81 19 82 30 83 20 84 21 85 22 86 23 87
REMARK SMILES IDX 24 88 28 89 25 91 27 92 26 93
REMARK H PARENT 3 8 81 26 55 37 10 69 31 80 23 90
REMARK Flexibility Score: inf
ROOT
ATOM      1  C   UNL A   1      35.929  20.864  25.013  1.00  0.00     0.002 C 
ENDROOT
BRANCH   1   2
ATOM      2  C   UNL A   1      37.391  20.904  24.561  1.00  0.00     0.002 C 
BRANCH   2   3
ATOM      3  C   UNL A   1      38.194  19.627  24.820  1.00  0.00     0.021 C 
BRANCH   3   4
ATOM      4  C   UNL A   1      39.125  19.681  26.025  1.00  0.00     0.116 C 
BRANCH   4   5
ATOM      5  N   UNL A   1      40.393  19.013  25.789  1.00  0.00    -0.352 N 
ATOM      6  O   UNL A   1      42.622  18.811  25.558  1.00  0.00    -0.269 OA
ATOM      7  C   UNL A   1      41.671  19.489  25.934  1.00  0.00     0.251 C 
ATOM      8  H   UNL A   1      40.325  18.081  25.479  1.00  0.00     0.163 HD
BRANCH   7   9
ATOM      9  C   UNL A   1      41.910  20.828  26.520  1.00  0.00     0.039 A 
ATOM     10  C   UNL A   1      42.195  21.893  25.660  1.00  0.00     0.014 A 
ATOM     11  C   UNL A   1      41.890  21.035  27.902  1.00  0.00     0.014 A 
ATOM     12  C   UNL A   1      42.429  23.165  26.183  1.00  0.00     0.010 A 
ATOM     13  C   UNL A   1      42.044  22.319  28.417  1.00  0.00     0.010 A 
ATOM     14  C   UNL A   1      42.341  23.392  27.567  1.00  0.00    -0.014 A 
BRANCH  14  15
ATOM     15  C   UNL A   1      42.620  24.735  28.136  1.00  0.00     0.031 A 
ATOM     16  C   UNL A   1      44.030  25.126  28.489  1.00  0.00     0.074 A 
ATOM     17  C   UNL A   1      41.606  25.595  28.356  1.00  0.00     0.049 A 
ATOM     18  N   UNL A   1      44.478  26.248  28.993  1.00  0.00    -0.248 NA
ATOM     19  C   UNL A   1      45.072  24.109  28.274  1.00  0.00     0.031 C 
ATOM     20  C   UNL A   1      40.191  25.323  28.101  1.00  0.00     0.029 A 
ATOM     21  N   UNL A   1      41.617  26.879  28.838  1.00  0.00    -0.354 N 
ATOM     22  C   UNL A   1      45.843  26.063  29.174  1.00  0.00     0.074 A 
ATOM     23  C   UNL A   1      46.140  24.702  28.782  1.00  0.00     0.031 C 
ATOM     24  C   UNL A   1      39.476  26.425  28.383  1.00  0.00     0.029 A 
ATOM     25  C   UNL A   1      40.377  27.468  28.863  1.00  0.00     0.049 A 
ATOM     26  H   UNL A   1      42.437  27.336  29.139  1.00  0.00     0.167 HD
ATOM     27  C   UNL A   1      46.773  26.950  29.601  1.00  0.00     0.037 A 
ATOM     28  C   UNL A   1      40.014  28.714  29.216  1.00  0.00     0.037 A 
ATOM     29  C   UNL A   1      46.487  28.317  29.951  1.00  0.00     0.049 A 
ATOM     30  C   UNL A   1      41.067  29.686  29.671  1.00  0.00     0.074 A 
ATOM     31  C   UNL A   1      47.366  29.317  30.325  1.00  0.00     0.029 A 
ATOM     32  N   UNL A   1      45.218  28.874  29.964  1.00  0.00    -0.354 N 
ATOM     33  N   UNL A   1      42.363  29.518  29.774  1.00  0.00    -0.248 NA
ATOM     34  C   UNL A   1      40.601  31.026  30.055  1.00  0.00     0.031 C 
ATOM     35  C   UNL A   1      46.624  30.472  30.597  1.00  0.00     0.029 A 
ATOM     36  C   UNL A   1      45.287  30.202  30.356  1.00  0.00     0.049 A 
ATOM     37  H   UNL A   1      44.389  28.398  29.728  1.00  0.00     0.167 HD
ATOM     38  C   UNL A   1      42.871  30.738  30.202  1.00  0.00     0.074 A 
ATOM     39  C   UNL A   1      41.744  31.640  30.325  1.00  0.00     0.031 C 
ATOM     40  C   UNL A   1      44.155  31.083  30.471  1.00  0.00     0.037 A 
BRANCH  27  41
ATOM     41  C   UNL A   1      48.188  26.460  29.706  1.00  0.00     0.057 A 
ATOM     42  C   UNL A   1      49.077  26.606  28.633  1.00  0.00     0.134 A 
ATOM     43  C   UNL A   1      48.676  25.850  30.870  1.00  0.00     0.134 A 
ATOM     44  F   UNL A   1      48.675  27.178  27.487  1.00  0.00    -0.206 F 
ATOM     45  C   UNL A   1      50.402  26.173  28.718  1.00  0.00     0.040 A 
ATOM     46  C   UNL A   1      50.006  25.440  30.977  1.00  0.00     0.040 A 
ATOM     47  F   UNL A   1      47.881  25.695  31.940  1.00  0.00    -0.206 F 
ATOM     48  C   UNL A   1      50.872  25.597  29.897  1.00  0.00     0.006 A 
ENDBRANCH  27  41
BRANCH  28  49
ATOM     49  C   UNL A   1      38.599  29.144  29.102  1.00  0.00     0.057 A 
ATOM     50  C   UNL A   1      37.732  29.128  30.199  1.00  0.00     0.134 A 
ATOM     51  C   UNL A   1      38.092  29.615  27.885  1.00  0.00     0.134 A 
ATOM     52  F   UNL A   1      38.157  28.684  31.391  1.00  0.00    -0.206 F 
ATOM     53  C   UNL A   1      36.411  29.566  30.091  1.00  0.00     0.040 A 
ATOM     54  C   UNL A   1      36.781  30.078  27.767  1.00  0.00     0.040 A 
ATOM     55  F   UNL A   1      38.883  29.674  26.803  1.00  0.00    -0.206 F 
ATOM     56  C   UNL A   1      35.936  30.052  28.874  1.00  0.00     0.006 A 
ENDBRANCH  28  49
BRANCH  40  57
ATOM     57  C   UNL A   1      44.397  32.503  30.891  1.00  0.00     0.057 A 
ATOM     58  C   UNL A   1      44.398  32.855  32.246  1.00  0.00     0.134 A 
ATOM     59  C   UNL A   1      44.639  33.518  29.957  1.00  0.00     0.134 A 
ATOM     60  F   UNL A   1      44.165  31.930  33.191  1.00  0.00    -0.206 F 
ATOM     61  C   UNL A   1      44.643  34.165  32.659  1.00  0.00     0.040 A 
ATOM     62  C   UNL A   1      44.911  34.827  30.359  1.00  0.00     0.040 A 
ATOM     63  F   UNL A   1      44.668  33.242  28.644  1.00  0.00    -0.206 F 
ATOM     64  C   UNL A   1      44.911  35.153  31.714  1.00  0.00     0.006 A 
ENDBRANCH  40  57
ENDBRANCH  14  15
ENDBRANCH   7   9
ENDBRANCH   4   5
ENDBRANCH   3   4
ENDBRANCH   2   3
ENDBRANCH   1   2
BRANCH   1  65
ATOM     65  C   UNL A   1      35.604  21.712  26.244  1.00  0.00     0.021 C 
BRANCH  65  66
ATOM     66  C   UNL A   1      34.201  21.506  26.806  1.00  0.00     0.116 C 
BRANCH  66  67
ATOM     67  N   UNL A   1      33.571  20.298  26.283  1.00  0.00    -0.352 N 
ATOM     68  C   UNL A   1      32.594  20.188  25.323  1.00  0.00     0.251 C 
ATOM     69  H   UNL A   1      33.887  19.451  26.669  1.00  0.00     0.163 HD
ATOM     70  O   UNL A   1      32.029  19.128  25.092  1.00  0.00    -0.269 OA
BRANCH  68  71
ATOM     71  C   UNL A   1      32.236  21.396  24.563  1.00  0.00     0.041 A 
ATOM     72  C   UNL A   1      32.892  21.628  23.348  1.00  0.00     0.015 A 
ATOM     73  C   UNL A   1      31.332  22.323  25.106  1.00  0.00     0.040 A 
ATOM     74  C   UNL A   1      32.758  22.863  22.745  1.00  0.00     0.017 A 
ATOM     75  C   UNL A   1      31.180  23.550  24.471  1.00  0.00     0.056 A 
ATOM     76  C   UNL A   1      31.933  23.822  23.342  1.00  0.00     0.064 A 
ATOM     77  N   UNL A   1      30.308  24.533  24.940  1.00  0.00    -0.307 N 
ATOM     78  C   UNL A   1      31.914  25.177  22.821  1.00  0.00     0.264 A 
ATOM     79  C   UNL A   1      30.101  25.742  24.313  1.00  0.00     0.328 A 
ATOM     80  H   UNL A   1      29.810  24.352  25.770  1.00  0.00     0.171 HD
ATOM     81  O   UNL A   1      32.864  25.479  22.107  1.00  0.00    -0.268 OA
ATOM     82  N   UNL A   1      30.896  26.018  23.205  1.00  0.00    -0.260 N 
ATOM     83  O   UNL A   1      29.245  26.501  24.761  1.00  0.00    -0.248 OA
BRANCH  82  84
ATOM     84  C   UNL A   1      30.631  27.219  22.398  1.00  0.00     0.137 C 
BRANCH  84  85
ATOM     85  C   UNL A   1      31.423  28.496  22.722  1.00  0.00     0.083 C 
BRANCH  85  86
ATOM     86  C   UNL A   1      31.187  29.290  24.034  1.00  0.00     0.264 C 
BRANCH  86  87
ATOM     87  N   UNL A   1      32.374  29.703  24.810  1.00  0.00    -0.331 N 
ATOM     88  C   UNL A   1      33.465  28.690  24.836  1.00  0.00     0.291 C 
ATOM     89  C   UNL A   1      32.014  29.950  26.235  1.00  0.00     0.291 C 
ATOM     90  H   UNL A   1      32.705  30.542  24.336  1.00  0.00     0.348 HD
ATOM     91  C   UNL A   1      33.216  27.448  25.722  1.00  0.00     0.221 C 
ATOM     92  C   UNL A   1      31.742  28.675  27.058  1.00  0.00     0.221 C 
ATOM     93  O   UNL A   1      32.895  27.822  27.065  1.00  0.00    -0.370 OA
ENDBRANCH  86  87
ENDBRANCH  85  86
ENDBRANCH  84  85
ENDBRANCH  82  84
ENDBRANCH  68  71
ENDBRANCH  66  67
ENDBRANCH  65  66
ENDBRANCH   1  65
TORSDOF 17
ENDMDL
MODEL 2
REMARK VINA RESULT:     -12.0      1.637      2.810
REMARK SMILES O=C(NCCCCCCNC(=O)c1ccc2c(=O)n(CCC[NH+]3CCOCC3)c(=O)[nH]c2c1)c1ccc(-c2c3nc(c(-c4c(F)cccc4F)c4ccc([nH]4)c(-c4c(F)cccc4F)c4nc(c(-c5c(F)cccc5F)c5ccc2[nH]5)C=C4)C=C3)cc1
REMARK SMILES IDX 7 1 6 2 5 3 4 4 3 5 1 6 2 7 34 9 35 10 87 11 36 12 86 13
REMARK SMILES IDX 37 14 38 15 39 16 80 17 40 18 85 19 79 20 81 21 41 22 84 23
REMARK SMILES IDX 78 24 77 25 42 27 68 28 51 29 67 30 52 31 55 32 66 33 82 34
REMARK SMILES IDX 53 35 54 36 65 38 83 39 56 40 43 41 44 42 49 43 45 44 46 45
REMARK SMILES IDX 48 46 50 47 47 48 69 49 70 50 75 51 71 52 72 53 74 54 76 55
REMARK SMILES IDX 73 56 57 57 58 58 63 59 59 60 60 61 62 62 64 63 61 64 8 65
REMARK SMILES IDX 9 66 10 67 11 68 12 70 13 71 14 72 33 73 15 74 32 75 16 76
REMARK SMILES IDX 31 77 17 78 29 79 18 81 19 82 30 83 20 84 21 85 22 86 23 87
REMARK SMILES IDX 24 88 28 89 25 91 27 92 26 93
REMARK H PARENT 3 8 81 26 55 37 10 69 31 80 23 90
REMARK Flexibility Score: inf
ROOT
ATOM      1  C   UNL A   1      35.943  20.867  25.135  1.00  0.00     0.002 C 
ENDROOT
BRANCH   1   2
ATOM      2  C   UNL A   1      37.373  20.993  24.603  1.00  0.00     0.002 C 
BRANCH   2   3
ATOM      3  C   UNL A   1      38.266  19.771  24.823  1.00  0.00     0.021 C 
BRANCH   3   4
ATOM      4  C   UNL A   1      39.188  19.852  26.035  1.00  0.00     0.116 C 
BRANCH   4   5
ATOM      5  N   UNL A   1      40.376  19.029  25.896  1.00  0.00    -0.352 N 
ATOM      6  O   UNL A   1      42.569  18.564  25.708  1.00  0.00    -0.269 OA
ATOM      7  C   UNL A   1      41.699  19.382  25.986  1.00  0.00     0.251 C 
ATOM      8  H   UNL A   1      40.208  18.077  25.709  1.00  0.00     0.163 HD
BRANCH   7   9
ATOM      9  C   UNL A   1      42.081  20.753  26.395  1.00  0.00     0.039 A 
ATOM     10  C   UNL A   1      42.241  21.024  27.756  1.00  0.00     0.014 A 
ATOM     11  C   UNL A   1      42.247  21.775  25.456  1.00  0.00     0.014 A 
ATOM     12  C   UNL A   1      42.597  22.308  28.173  1.00  0.00     0.010 A 
ATOM     13  C   UNL A   1      42.680  23.033  25.866  1.00  0.00     0.010 A 
ATOM     14  C   UNL A   1      42.834  23.321  27.229  1.00  0.00    -0.014 A 
BRANCH  14  15
ATOM     15  C   UNL A   1      43.181  24.698  27.663  1.00  0.00     0.031 A 
ATOM     16  C   UNL A   1      44.610  25.167  27.608  1.00  0.00     0.074 A 
ATOM     17  C   UNL A   1      42.219  25.518  28.128  1.00  0.00     0.049 A 
ATOM     18  N   UNL A   1      45.115  26.328  27.939  1.00  0.00    -0.248 NA
ATOM     19  C   UNL A   1      45.609  24.191  27.145  1.00  0.00     0.031 C 
ATOM     20  C   UNL A   1      40.805  25.171  28.276  1.00  0.00     0.029 A 
ATOM     21  N   UNL A   1      42.289  26.821  28.552  1.00  0.00    -0.354 N 
ATOM     22  C   UNL A   1      46.486  26.214  27.746  1.00  0.00     0.074 A 
ATOM     23  C   UNL A   1      46.741  24.853  27.325  1.00  0.00     0.031 C 
ATOM     24  C   UNL A   1      40.133  26.250  28.711  1.00  0.00     0.029 A 
ATOM     25  C   UNL A   1      41.071  27.353  28.898  1.00  0.00     0.049 A 
ATOM     26  H   UNL A   1      43.133  27.326  28.606  1.00  0.00     0.167 HD
ATOM     27  C   UNL A   1      47.446  27.160  27.878  1.00  0.00     0.037 A 
ATOM     28  C   UNL A   1      40.749  28.594  29.302  1.00  0.00     0.037 A 
ATOM     29  C   UNL A   1      47.190  28.525  28.254  1.00  0.00     0.049 A 
ATOM     30  C   UNL A   1      41.830  29.632  29.426  1.00  0.00     0.074 A 
ATOM     31  C   UNL A   1      48.081  29.579  28.347  1.00  0.00     0.029 A 
ATOM     32  N   UNL A   1      45.943  29.024  28.597  1.00  0.00    -0.354 N 
ATOM     33  N   UNL A   1      43.113  29.527  29.176  1.00  0.00    -0.248 NA
ATOM     34  C   UNL A   1      41.412  30.963  29.885  1.00  0.00     0.031 C 
ATOM     35  C   UNL A   1      47.378  30.710  28.779  1.00  0.00     0.029 A 
ATOM     36  C   UNL A   1      46.043  30.369  28.919  1.00  0.00     0.049 A 
ATOM     37  H   UNL A   1      45.110  28.501  28.610  1.00  0.00     0.167 HD
ATOM     38  C   UNL A   1      43.649  30.787  29.415  1.00  0.00     0.074 A 
ATOM     39  C   UNL A   1      42.549  31.640  29.816  1.00  0.00     0.031 C 
ATOM     40  C   UNL A   1      44.936  31.201  29.314  1.00  0.00     0.037 A 
BRANCH  27  41
ATOM     41  C   UNL A   1      48.862  26.740  27.606  1.00  0.00     0.057 A 
ATOM     42  C   UNL A   1      49.681  26.274  28.642  1.00  0.00     0.134 A 
ATOM     43  C   UNL A   1      49.414  26.788  26.319  1.00  0.00     0.134 A 
ATOM     44  F   UNL A   1      49.218  26.205  29.900  1.00  0.00    -0.206 F 
ATOM     45  C   UNL A   1      50.994  25.861  28.406  1.00  0.00     0.040 A 
ATOM     46  C   UNL A   1      50.716  26.352  26.065  1.00  0.00     0.040 A 
ATOM     47  F   UNL A   1      48.678  27.209  25.279  1.00  0.00    -0.206 F 
ATOM     48  C   UNL A   1      51.511  25.890  27.112  1.00  0.00     0.006 A 
ENDBRANCH  27  41
BRANCH  28  49
ATOM     49  C   UNL A   1      39.334  28.954  29.567  1.00  0.00     0.057 A 
ATOM     50  C   UNL A   1      38.517  29.509  28.579  1.00  0.00     0.134 A 
ATOM     51  C   UNL A   1      38.760  28.713  30.822  1.00  0.00     0.134 A 
ATOM     52  F   UNL A   1      39.009  29.768  27.359  1.00  0.00    -0.206 F 
ATOM     53  C   UNL A   1      37.176  29.812  28.827  1.00  0.00     0.040 A 
ATOM     54  C   UNL A   1      37.417  28.989  31.077  1.00  0.00     0.040 A 
ATOM     55  F   UNL A   1      39.490  28.161  31.803  1.00  0.00    -0.206 F 
ATOM     56  C   UNL A   1      36.621  29.543  30.076  1.00  0.00     0.006 A 
ENDBRANCH  28  49
BRANCH  40  57
ATOM     57  C   UNL A   1      45.204  32.646  29.613  1.00  0.00     0.057 A 
ATOM     58  C   UNL A   1      45.098  33.613  28.605  1.00  0.00     0.134 A 
ATOM     59  C   UNL A   1      45.555  33.084  30.896  1.00  0.00     0.134 A 
ATOM     60  F   UNL A   1      44.773  33.259  27.352  1.00  0.00    -0.206 F 
ATOM     61  C   UNL A   1      45.321  34.965  28.866  1.00  0.00     0.040 A 
ATOM     62  C   UNL A   1      45.755  34.436  31.175  1.00  0.00     0.040 A 
ATOM     63  F   UNL A   1      45.657  32.208  31.909  1.00  0.00    -0.206 F 
ATOM     64  C   UNL A   1      45.641  35.381  30.157  1.00  0.00     0.006 A 
ENDBRANCH  40  57
ENDBRANCH  14  15
ENDBRANCH   7   9
ENDBRANCH   4   5
ENDBRANCH   3   4
ENDBRANCH   2   3
ENDBRANCH   1   2
BRANCH   1  65
ATOM     65  C   UNL A   1      35.635  21.696  26.383  1.00  0.00     0.021 C 
BRANCH  65  66
ATOM     66  C   UNL A   1      34.328  21.333  27.081  1.00  0.00     0.116 C 
BRANCH  66  67
ATOM     67  N   UNL A   1      33.574  20.324  26.346  1.00  0.00    -0.352 N 
ATOM     68  C   UNL A   1      32.537  20.504  25.463  1.00  0.00     0.251 C 
ATOM     69  H   UNL A   1      33.843  19.391  26.503  1.00  0.00     0.163 HD
ATOM     70  O   UNL A   1      31.876  19.565  25.040  1.00  0.00    -0.269 OA
BRANCH  68  71
ATOM     71  C   UNL A   1      32.232  21.875  25.028  1.00  0.00     0.041 A 
ATOM     72  C   UNL A   1      31.220  22.570  25.703  1.00  0.00     0.015 A 
ATOM     73  C   UNL A   1      32.880  22.416  23.906  1.00  0.00     0.040 A 
ATOM     74  C   UNL A   1      30.749  23.750  25.162  1.00  0.00     0.017 A 
ATOM     75  C   UNL A   1      32.419  23.622  23.391  1.00  0.00     0.056 A 
ATOM     76  C   UNL A   1      31.331  24.236  23.987  1.00  0.00     0.064 A 
ATOM     77  N   UNL A   1      32.999  24.231  22.279  1.00  0.00    -0.307 N 
ATOM     78  C   UNL A   1      30.739  25.377  23.312  1.00  0.00     0.264 A 
ATOM     79  C   UNL A   1      32.595  25.445  21.768  1.00  0.00     0.328 A 
ATOM     80  H   UNL A   1      33.742  23.765  21.831  1.00  0.00     0.171 HD
ATOM     81  O   UNL A   1      29.583  25.633  23.627  1.00  0.00    -0.268 OA
ATOM     82  N   UNL A   1      31.475  26.030  22.350  1.00  0.00    -0.260 N 
ATOM     83  O   UNL A   1      33.232  25.936  20.838  1.00  0.00    -0.248 OA
BRANCH  82  84
ATOM     84  C   UNL A   1      31.075  27.390  21.958  1.00  0.00     0.137 C 
BRANCH  84  85
ATOM     85  C   UNL A   1      31.201  28.510  23.003  1.00  0.00     0.083 C 
BRANCH  85  86
ATOM     86  C   UNL A   1      29.977  29.360  23.435  1.00  0.00     0.264 C 
BRANCH  86  87
ATOM     87  N   UNL A   1      28.864  29.501  22.473  1.00  0.00    -0.331 N 
ATOM     88  C   UNL A   1      29.071  30.569  21.457  1.00  0.00     0.291 C 
ATOM     89  C   UNL A   1      27.598  29.847  23.178  1.00  0.00     0.291 C 
ATOM     90  H   UNL A   1      28.821  28.596  22.006  1.00  0.00     0.348 HD
ATOM     91  C   UNL A   1      28.925  32.022  21.963  1.00  0.00     0.221 C 
ATOM     92  C   UNL A   1      27.526  31.299  23.690  1.00  0.00     0.221 C 
ATOM     93  O   UNL A   1      27.663  32.226  22.605  1.00  0.00    -0.370 OA
ENDBRANCH  86  87
ENDBRANCH  85  86
ENDBRANCH  84  85
ENDBRANCH  82  84
ENDBRANCH  68  71
ENDBRANCH  66  67
ENDBRANCH  65  66
ENDBRANCH   1  65
TORSDOF 17
ENDMDL
MODEL 3
REMARK VINA RESULT:     -11.9      1.353      1.834
REMARK SMILES O=C(NCCCCCCNC(=O)c1ccc2c(=O)n(CCC[NH+]3CCOCC3)c(=O)[nH]c2c1)c1ccc(-c2c3nc(c(-c4c(F)cccc4F)c4ccc([nH]4)c(-c4c(F)cccc4F)c4nc(c(-c5c(F)cccc5F)c5ccc2[nH]5)C=C4)C=C3)cc1
REMARK SMILES IDX 7 1 6 2 5 3 4 4 3 5 1 6 2 7 34 9 35 10 87 11 36 12 86 13
REMARK SMILES IDX 37 14 38 15 39 16 80 17 40 18 85 19 79 20 81 21 41 22 84 23
REMARK SMILES IDX 78 24 77 25 42 27 68 28 51 29 67 30 52 31 55 32 66 33 82 34
REMARK SMILES IDX 53 35 54 36 65 38 83 39 56 40 43 41 44 42 49 43 45 44 46 45
REMARK SMILES IDX 48 46 50 47 47 48 69 49 70 50 75 51 71 52 72 53 74 54 76 55
REMARK SMILES IDX 73 56 57 57 58 58 63 59 59 60 60 61 62 62 64 63 61 64 8 65
REMARK SMILES IDX 9 66 10 67 11 68 12 70 13 71 14 72 33 73 15 74 32 75 16 76
REMARK SMILES IDX 31 77 17 78 29 79 18 81 19 82 30 83 20 84 21 85 22 86 23 87
REMARK SMILES IDX 24 88 28 89 25 91 27 92 26 93
REMARK H PARENT 3 8 81 26 55 37 10 69 31 80 23 90
REMARK Flexibility Score: inf
ROOT
ATOM      1  C   UNL A   1      36.075  20.790  25.113  1.00  0.00     0.002 C 
ENDROOT
BRANCH   1   2
ATOM      2  C   UNL A   1      37.567  20.875  24.781  1.00  0.00     0.002 C 
BRANCH   2   3
ATOM      3  C   UNL A   1      38.358  19.580  24.972  1.00  0.00     0.021 C 
BRANCH   3   4
ATOM      4  C   UNL A   1      39.323  19.578  26.152  1.00  0.00     0.116 C 
BRANCH   4   5
ATOM      5  N   UNL A   1      40.592  18.944  25.843  1.00  0.00    -0.352 N 
ATOM      6  O   UNL A   1      42.808  18.802  25.478  1.00  0.00    -0.269 OA
ATOM      7  C   UNL A   1      41.863  19.456  25.909  1.00  0.00     0.251 C 
ATOM      8  H   UNL A   1      40.531  18.009  25.540  1.00  0.00     0.163 HD
BRANCH   7   9
ATOM      9  C   UNL A   1      42.099  20.804  26.474  1.00  0.00     0.039 A 
ATOM     10  C   UNL A   1      42.294  21.873  25.596  1.00  0.00     0.014 A 
ATOM     11  C   UNL A   1      42.166  21.015  27.854  1.00  0.00     0.014 A 
ATOM     12  C   UNL A   1      42.524  23.154  26.099  1.00  0.00     0.010 A 
ATOM     13  C   UNL A   1      42.315  22.305  28.355  1.00  0.00     0.010 A 
ATOM     14  C   UNL A   1      42.521  23.384  27.485  1.00  0.00    -0.014 A 
BRANCH  14  15
ATOM     15  C   UNL A   1      42.797  24.737  28.031  1.00  0.00     0.031 A 
ATOM     16  C   UNL A   1      44.213  25.163  28.311  1.00  0.00     0.074 A 
ATOM     17  C   UNL A   1      41.776  25.574  28.297  1.00  0.00     0.049 A 
ATOM     18  N   UNL A   1      44.659  26.298  28.784  1.00  0.00    -0.248 NA
ATOM     19  C   UNL A   1      45.266  24.169  28.049  1.00  0.00     0.031 C 
ATOM     20  C   UNL A   1      40.356  25.268  28.115  1.00  0.00     0.029 A 
ATOM     21  N   UNL A   1      41.780  26.862  28.770  1.00  0.00    -0.354 N 
ATOM     22  C   UNL A   1      46.035  26.146  28.898  1.00  0.00     0.074 A 
ATOM     23  C   UNL A   1      46.345  24.791  28.499  1.00  0.00     0.031 C 
ATOM     24  C   UNL A   1      39.630  26.355  28.426  1.00  0.00     0.029 A 
ATOM     25  C   UNL A   1      40.529  27.422  28.854  1.00  0.00     0.049 A 
ATOM     26  H   UNL A   1      42.603  27.339  29.027  1.00  0.00     0.167 HD
ATOM     27  C   UNL A   1      46.965  27.058  29.271  1.00  0.00     0.037 A 
ATOM     28  C   UNL A   1      40.156  28.662  29.218  1.00  0.00     0.037 A 
ATOM     29  C   UNL A   1      46.664  28.420  29.627  1.00  0.00     0.049 A 
ATOM     30  C   UNL A   1      41.207  29.661  29.613  1.00  0.00     0.074 A 
ATOM     31  C   UNL A   1      47.537  29.443  29.951  1.00  0.00     0.029 A 
ATOM     32  N   UNL A   1      45.384  28.948  29.701  1.00  0.00    -0.354 N 
ATOM     33  N   UNL A   1      42.509  29.524  29.651  1.00  0.00    -0.248 NA
ATOM     34  C   UNL A   1      40.728  30.992  30.012  1.00  0.00     0.031 C 
ATOM     35  C   UNL A   1      46.783  30.583  30.253  1.00  0.00     0.029 A 
ATOM     36  C   UNL A   1      45.442  30.280  30.081  1.00  0.00     0.049 A 
ATOM     37  H   UNL A   1      44.557  28.451  29.510  1.00  0.00     0.167 HD
ATOM     38  C   UNL A   1      43.009  30.759  30.046  1.00  0.00     0.074 A 
ATOM     39  C   UNL A   1      41.869  31.634  30.220  1.00  0.00     0.031 C 
ATOM     40  C   UNL A   1      44.296  31.135  30.248  1.00  0.00     0.037 A 
BRANCH  27  41
ATOM     41  C   UNL A   1      48.395  26.602  29.308  1.00  0.00     0.057 A 
ATOM     42  C   UNL A   1      49.232  26.783  28.199  1.00  0.00     0.134 A 
ATOM     43  C   UNL A   1      48.948  25.991  30.441  1.00  0.00     0.134 A 
ATOM     44  F   UNL A   1      48.766  27.357  27.079  1.00  0.00    -0.206 F 
ATOM     45  C   UNL A   1      50.569  26.382  28.220  1.00  0.00     0.040 A 
ATOM     46  C   UNL A   1      50.291  25.612  30.485  1.00  0.00     0.040 A 
ATOM     47  F   UNL A   1      48.205  25.804  31.543  1.00  0.00    -0.206 F 
ATOM     48  C   UNL A   1      51.104  25.804  29.370  1.00  0.00     0.006 A 
ENDBRANCH  27  41
BRANCH  28  49
ATOM     49  C   UNL A   1      38.726  29.057  29.173  1.00  0.00     0.057 A 
ATOM     50  C   UNL A   1      37.897  28.957  30.294  1.00  0.00     0.134 A 
ATOM     51  C   UNL A   1      38.167  29.580  28.000  1.00  0.00     0.134 A 
ATOM     52  F   UNL A   1      38.372  28.461  31.445  1.00  0.00    -0.206 F 
ATOM     53  C   UNL A   1      36.562  29.364  30.252  1.00  0.00     0.040 A 
ATOM     54  C   UNL A   1      36.842  30.012  27.950  1.00  0.00     0.040 A 
ATOM     55  F   UNL A   1      38.920  29.719  26.898  1.00  0.00    -0.206 F 
ATOM     56  C   UNL A   1      36.034  29.902  29.080  1.00  0.00     0.006 A 
ENDBRANCH  28  49
BRANCH  40  57
ATOM     57  C   UNL A   1      44.526  32.563  30.647  1.00  0.00     0.057 A 
ATOM     58  C   UNL A   1      44.585  32.925  31.998  1.00  0.00     0.134 A 
ATOM     59  C   UNL A   1      44.699  33.577  29.696  1.00  0.00     0.134 A 
ATOM     60  F   UNL A   1      44.419  32.002  32.959  1.00  0.00    -0.206 F 
ATOM     61  C   UNL A   1      44.819  34.243  32.390  1.00  0.00     0.040 A 
ATOM     62  C   UNL A   1      44.960  34.894  30.076  1.00  0.00     0.040 A 
ATOM     63  F   UNL A   1      44.670  33.292  28.385  1.00  0.00    -0.206 F 
ATOM     64  C   UNL A   1      45.017  35.231  31.427  1.00  0.00     0.006 A 
ENDBRANCH  40  57
ENDBRANCH  14  15
ENDBRANCH   7   9
ENDBRANCH   4   5
ENDBRANCH   3   4
ENDBRANCH   2   3
ENDBRANCH   1   2
BRANCH   1  65
ATOM     65  C   UNL A   1      35.559  21.859  26.078  1.00  0.00     0.021 C 
BRANCH  65  66
ATOM     66  C   UNL A   1      34.239  21.517  26.760  1.00  0.00     0.116 C 
BRANCH  66  67
ATOM     67  N   UNL A   1      33.629  20.313  26.205  1.00  0.00    -0.352 N 
ATOM     68  C   UNL A   1      32.669  20.213  25.226  1.00  0.00     0.251 C 
ATOM     69  H   UNL A   1      33.945  19.461  26.580  1.00  0.00     0.163 HD
ATOM     70  O   UNL A   1      32.118  19.152  24.966  1.00  0.00    -0.269 OA
BRANCH  68  71
ATOM     71  C   UNL A   1      32.313  21.431  24.483  1.00  0.00     0.041 A 
ATOM     72  C   UNL A   1      33.038  21.729  23.322  1.00  0.00     0.015 A 
ATOM     73  C   UNL A   1      31.340  22.305  24.993  1.00  0.00     0.040 A 
ATOM     74  C   UNL A   1      32.895  22.978  22.750  1.00  0.00     0.017 A 
ATOM     75  C   UNL A   1      31.181  23.546  24.388  1.00  0.00     0.056 A 
ATOM     76  C   UNL A   1      31.995  23.884  23.321  1.00  0.00     0.064 A 
ATOM     77  N   UNL A   1      30.242  24.479  24.828  1.00  0.00    -0.307 N 
ATOM     78  C   UNL A   1      31.956  25.255  22.843  1.00  0.00     0.264 A 
ATOM     79  C   UNL A   1      30.029  25.700  24.227  1.00  0.00     0.328 A 
ATOM     80  H   UNL A   1      29.698  24.251  25.618  1.00  0.00     0.171 HD
ATOM     81  O   UNL A   1      32.938  25.617  22.203  1.00  0.00    -0.268 OA
ATOM     82  N   UNL A   1      30.882  26.044  23.184  1.00  0.00    -0.260 N 
ATOM     83  O   UNL A   1      29.115  26.410  24.641  1.00  0.00    -0.248 OA
BRANCH  82  84
ATOM     84  C   UNL A   1      30.623  27.261  22.400  1.00  0.00     0.137 C 
BRANCH  84  85
ATOM     85  C   UNL A   1      30.565  28.603  23.147  1.00  0.00     0.083 C 
BRANCH  85  86
ATOM     86  C   UNL A   1      30.018  29.887  22.471  1.00  0.00     0.264 C 
BRANCH  86  87
ATOM     87  N   UNL A   1      28.571  30.163  22.591  1.00  0.00    -0.331 N 
ATOM     88  C   UNL A   1      27.911  30.513  21.302  1.00  0.00     0.291 C 
ATOM     89  C   UNL A   1      28.326  31.318  23.500  1.00  0.00     0.291 C 
ATOM     90  H   UNL A   1      28.177  29.292  22.945  1.00  0.00     0.348 HD
ATOM     91  C   UNL A   1      28.217  31.921  20.745  1.00  0.00     0.221 C 
ATOM     92  C   UNL A   1      28.684  32.692  22.901  1.00  0.00     0.221 C 
ATOM     93  O   UNL A   1      27.926  32.938  21.709  1.00  0.00    -0.370 OA
ENDBRANCH  86  87
ENDBRANCH  85  86
ENDBRANCH  84  85
ENDBRANCH  82  84
ENDBRANCH  68  71
ENDBRANCH  66  67
ENDBRANCH  65  66
ENDBRANCH   1  65
TORSDOF 17
ENDMDL
