MODEL 1
REMARK VINA RESULT:     -10.8      0.000      0.000
REMARK SMILES CC[C@H](C)[C@@H](NC(=O)/C=C/c1csc(C)n1)C(=O)NCCCCCCNC(=O)c1ccc(-c2c3nc(c(-c4c(F)cccc4F)c4ccc([nH]4)c(-c4c(F)cccc4F)c4nc(c(-c5c(F)cccc5F)c5ccc2[nH]5)C=C4)C=C3)cc1
REMARK SMILES IDX 22 1 21 2 20 3 19 4 17 5 18 6 5 8 3 9 4 10 2 11 1 12 6 13
REMARK SMILES IDX 7 14 8 16 9 17 10 18 11 19 12 20 16 21 13 22 14 23 15 24
REMARK SMILES IDX 23 25 24 26 25 27 26 28 27 29 28 31 29 32 30 33 82 34 31 35
REMARK SMILES IDX 81 36 32 37 33 38 34 39 75 40 35 41 80 42 74 43 76 44 36 45
REMARK SMILES IDX 79 46 73 47 72 48 37 50 63 51 46 52 62 53 47 54 50 55 61 56
REMARK SMILES IDX 77 57 48 58 49 59 60 61 78 62 51 63 38 64 39 65 44 66 40 67
REMARK SMILES IDX 41 68 43 69 45 70 42 71 64 72 65 73 70 74 66 75 67 76 69 77
REMARK SMILES IDX 71 78 68 79 52 80 53 81 58 82 54 83 55 84 57 85 59 86 56 87
REMARK H PARENT 19 7 6 15 26 30 76 49 50 60
REMARK Flexibility Score: inf
ROOT
ATOM      1  C   UNL A   1      31.798  29.440  26.949  1.00  0.00     0.002 C 
ENDROOT
BRANCH   1   2
ATOM      2  C   UNL A   1      33.204  28.902  27.234  1.00  0.00     0.021 C 
BRANCH   2   3
ATOM      3  C   UNL A   1      33.705  27.931  26.175  1.00  0.00     0.116 C 
BRANCH   3   4
ATOM      4  N   UNL A   1      34.087  28.645  24.977  1.00  0.00    -0.354 N 
ATOM      5  C   UNL A   1      33.607  28.539  23.712  1.00  0.00     0.242 C 
ATOM      6  O   UNL A   1      34.096  29.277  22.847  1.00  0.00    -0.273 OA
ATOM      7  H   UNL A   1      34.804  29.309  25.096  1.00  0.00     0.163 HD
BRANCH   5   8
ATOM      8  C   UNL A   1      32.561  27.477  23.321  1.00  0.00     0.174 C 
BRANCH   8   9
ATOM      9  C   UNL A   1      31.126  28.050  23.590  1.00  0.00     0.018 C 
ATOM     10  C   UNL A   1      30.578  28.851  22.401  1.00  0.00     0.010 C 
BRANCH   9  11
ATOM     11  C   UNL A   1      30.086  26.964  23.981  1.00  0.00     0.002 C 
ATOM     12  C   UNL A   1      30.421  26.327  25.326  1.00  0.00     0.004 C 
ENDBRANCH   9  11
ENDBRANCH   8   9
BRANCH   8  13
ATOM     13  N   UNL A   1      32.688  26.955  21.936  1.00  0.00    -0.340 N 
ATOM     14  C   UNL A   1      32.460  25.702  21.432  1.00  0.00     0.244 C 
ATOM     15  H   UNL A   1      32.985  27.619  21.272  1.00  0.00     0.164 HD
ATOM     16  O   UNL A   1      32.127  25.570  20.258  1.00  0.00    -0.270 OA
BRANCH  14  17
ATOM     17  C   UNL A   1      32.889  24.528  22.211  1.00  0.00     0.073 C 
ATOM     18  C   UNL A   1      32.083  23.821  23.013  1.00  0.00     0.035 C 
BRANCH  18  19
ATOM     19  C   UNL A   1      32.570  22.925  24.018  1.00  0.00     0.074 A 
ATOM     20  C   UNL A   1      32.760  21.576  23.814  1.00  0.00     0.095 A 
ATOM     21  N   UNL A   1      32.696  23.353  25.328  1.00  0.00    -0.242 NA
ATOM     22  S   UNL A   1      33.131  20.811  25.303  1.00  0.00    -0.127 S 
ATOM     23  C   UNL A   1      32.995  22.329  26.101  1.00  0.00     0.090 A 
ATOM     24  C   UNL A   1      33.180  22.402  27.577  1.00  0.00     0.079 C 
ENDBRANCH  18  19
ENDBRANCH  14  17
ENDBRANCH   8  13
ENDBRANCH   5   8
ENDBRANCH   3   4
ENDBRANCH   2   3
ENDBRANCH   1   2
BRANCH   1  25
ATOM     25  C   UNL A   1      31.752  30.720  26.110  1.00  0.00     0.002 C 
BRANCH  25  26
ATOM     26  C   UNL A   1      31.438  31.999  26.888  1.00  0.00     0.021 C 
BRANCH  26  27
ATOM     27  C   UNL A   1      32.661  32.808  27.298  1.00  0.00     0.116 C 
BRANCH  27  28
ATOM     28  N   UNL A   1      32.341  34.188  27.622  1.00  0.00    -0.352 N 
ATOM     29  C   UNL A   1      32.947  35.004  28.544  1.00  0.00     0.251 C 
ATOM     30  H   UNL A   1      31.595  34.587  27.118  1.00  0.00     0.163 HD
ATOM     31  O   UNL A   1      32.500  36.115  28.794  1.00  0.00    -0.269 OA
BRANCH  29  32
ATOM     32  C   UNL A   1      34.139  34.502  29.256  1.00  0.00     0.039 A 
ATOM     33  C   UNL A   1      33.972  33.884  30.497  1.00  0.00     0.014 A 
ATOM     34  C   UNL A   1      35.407  34.614  28.679  1.00  0.00     0.014 A 
ATOM     35  C   UNL A   1      35.077  33.332  31.143  1.00  0.00     0.010 A 
ATOM     36  C   UNL A   1      36.496  34.007  29.293  1.00  0.00     0.010 A 
ATOM     37  C   UNL A   1      36.342  33.371  30.535  1.00  0.00    -0.014 A 
BRANCH  37  38
ATOM     38  C   UNL A   1      37.533  32.783  31.192  1.00  0.00     0.031 A 
ATOM     39  C   UNL A   1      38.209  31.594  30.571  1.00  0.00     0.074 A 
ATOM     40  C   UNL A   1      37.953  33.262  32.377  1.00  0.00     0.049 A 
ATOM     41  N   UNL A   1      39.184  30.858  31.037  1.00  0.00    -0.248 NA
ATOM     42  C   UNL A   1      37.694  31.156  29.263  1.00  0.00     0.031 C 
ATOM     43  C   UNL A   1      37.354  34.386  33.099  1.00  0.00     0.029 A 
ATOM     44  N   UNL A   1      38.977  32.850  33.192  1.00  0.00    -0.354 N 
ATOM     45  C   UNL A   1      39.381  29.857  30.095  1.00  0.00     0.074 A 
ATOM     46  C   UNL A   1      38.395  30.052  29.055  1.00  0.00     0.031 C 
ATOM     47  C   UNL A   1      38.027  34.580  34.244  1.00  0.00     0.029 A 
ATOM     48  C   UNL A   1      39.082  33.576  34.353  1.00  0.00     0.049 A 
ATOM     49  H   UNL A   1      39.578  32.104  32.966  1.00  0.00     0.167 HD
ATOM     50  C   UNL A   1      40.313  28.875  30.089  1.00  0.00     0.037 A 
ATOM     51  C   UNL A   1      39.928  33.439  35.391  1.00  0.00     0.037 A 
ATOM     52  C   UNL A   1      41.314  28.708  31.108  1.00  0.00     0.049 A 
ATOM     53  C   UNL A   1      40.965  32.352  35.355  1.00  0.00     0.074 A 
ATOM     54  C   UNL A   1      42.342  27.783  31.164  1.00  0.00     0.029 A 
ATOM     55  N   UNL A   1      41.413  29.489  32.249  1.00  0.00    -0.354 N 
ATOM     56  N   UNL A   1      41.176  31.443  34.434  1.00  0.00    -0.248 NA
ATOM     57  C   UNL A   1      41.885  32.274  36.498  1.00  0.00     0.031 C 
ATOM     58  C   UNL A   1      43.044  27.984  32.358  1.00  0.00     0.029 A 
ATOM     59  C   UNL A   1      42.477  29.059  33.024  1.00  0.00     0.049 A 
ATOM     60  H   UNL A   1      40.815  30.238  32.475  1.00  0.00     0.167 HD
ATOM     61  C   UNL A   1      42.268  30.705  34.871  1.00  0.00     0.074 A 
ATOM     62  C   UNL A   1      42.680  31.277  36.137  1.00  0.00     0.031 C 
ATOM     63  C   UNL A   1      42.878  29.650  34.276  1.00  0.00     0.037 A 
BRANCH  50  64
ATOM     64  C   UNL A   1      40.285  27.910  28.940  1.00  0.00     0.057 A 
ATOM     65  C   UNL A   1      39.552  26.718  28.993  1.00  0.00     0.134 A 
ATOM     66  C   UNL A   1      40.996  28.180  27.764  1.00  0.00     0.134 A 
ATOM     67  F   UNL A   1      38.861  26.393  30.097  1.00  0.00    -0.206 F 
ATOM     68  C   UNL A   1      39.553  25.811  27.930  1.00  0.00     0.040 A 
ATOM     69  C   UNL A   1      40.983  27.294  26.685  1.00  0.00     0.040 A 
ATOM     70  F   UNL A   1      41.716  29.305  27.645  1.00  0.00    -0.206 F 
ATOM     71  C   UNL A   1      40.267  26.102  26.770  1.00  0.00     0.006 A 
ENDBRANCH  50  64
BRANCH  51  72
ATOM     72  C   UNL A   1      39.846  34.376  36.538  1.00  0.00     0.057 A 
ATOM     73  C   UNL A   1      39.136  34.035  37.694  1.00  0.00     0.134 A 
ATOM     74  C   UNL A   1      40.481  35.622  36.513  1.00  0.00     0.134 A 
ATOM     75  F   UNL A   1      38.493  32.861  37.770  1.00  0.00    -0.206 F 
ATOM     76  C   UNL A   1      39.050  34.905  38.782  1.00  0.00     0.040 A 
ATOM     77  C   UNL A   1      40.421  36.494  37.601  1.00  0.00     0.040 A 
ATOM     78  F   UNL A   1      41.184  36.003  35.436  1.00  0.00    -0.206 F 
ATOM     79  C   UNL A   1      39.699  36.138  38.738  1.00  0.00     0.006 A 
ENDBRANCH  51  72
BRANCH  63  80
ATOM     80  C   UNL A   1      44.077  29.072  34.964  1.00  0.00     0.057 A 
ATOM     81  C   UNL A   1      45.376  29.511  34.678  1.00  0.00     0.134 A 
ATOM     82  C   UNL A   1      43.924  28.101  35.962  1.00  0.00     0.134 A 
ATOM     83  F   UNL A   1      45.588  30.430  33.724  1.00  0.00    -0.206 F 
ATOM     84  C   UNL A   1      46.482  28.991  35.351  1.00  0.00     0.040 A 
ATOM     85  C   UNL A   1      45.021  27.592  36.657  1.00  0.00     0.040 A 
ATOM     86  F   UNL A   1      42.705  27.646  36.287  1.00  0.00    -0.206 F 
ATOM     87  C   UNL A   1      46.306  28.035  36.350  1.00  0.00     0.006 A 
ENDBRANCH  63  80
ENDBRANCH  37  38
ENDBRANCH  29  32
ENDBRANCH  27  28
ENDBRANCH  26  27
ENDBRANCH  25  26
ENDBRANCH   1  25
TORSDOF 18
ENDMDL
MODEL 2
REMARK VINA RESULT:     -10.5      1.110      6.266
REMARK SMILES CC[C@H](C)[C@@H](NC(=O)/C=C/c1csc(C)n1)C(=O)NCCCCCCNC(=O)c1ccc(-c2c3nc(c(-c4c(F)cccc4F)c4ccc([nH]4)c(-c4c(F)cccc4F)c4nc(c(-c5c(F)cccc5F)c5ccc2[nH]5)C=C4)C=C3)cc1
REMARK SMILES IDX 22 1 21 2 20 3 19 4 17 5 18 6 5 8 3 9 4 10 2 11 1 12 6 13
REMARK SMILES IDX 7 14 8 16 9 17 10 18 11 19 12 20 16 21 13 22 14 23 15 24
REMARK SMILES IDX 23 25 24 26 25 27 26 28 27 29 28 31 29 32 30 33 82 34 31 35
REMARK SMILES IDX 81 36 32 37 33 38 34 39 75 40 35 41 80 42 74 43 76 44 36 45
REMARK SMILES IDX 79 46 73 47 72 48 37 50 63 51 46 52 62 53 47 54 50 55 61 56
REMARK SMILES IDX 77 57 48 58 49 59 60 61 78 62 51 63 38 64 39 65 44 66 40 67
REMARK SMILES IDX 41 68 43 69 45 70 42 71 64 72 65 73 70 74 66 75 67 76 69 77
REMARK SMILES IDX 71 78 68 79 52 80 53 81 58 82 54 83 55 84 57 85 59 86 56 87
REMARK H PARENT 19 7 6 15 26 30 76 49 50 60
REMARK Flexibility Score: inf
ROOT
ATOM      1  C   UNL A   1      32.754  30.189  26.546  1.00  0.00     0.002 C 
ENDROOT
BRANCH   1   2
ATOM      2  C   UNL A   1      32.733  28.705  26.926  1.00  0.00     0.021 C 
BRANCH   2   3
ATOM      3  C   UNL A   1      33.677  27.854  26.088  1.00  0.00     0.116 C 
BRANCH   3   4
ATOM      4  N   UNL A   1      34.065  28.564  24.889  1.00  0.00    -0.354 N 
ATOM      5  C   UNL A   1      33.718  28.342  23.596  1.00  0.00     0.242 C 
ATOM      6  O   UNL A   1      34.179  29.104  22.737  1.00  0.00    -0.273 OA
ATOM      7  H   UNL A   1      34.674  29.325  25.033  1.00  0.00     0.163 HD
BRANCH   5   8
ATOM      8  C   UNL A   1      32.863  27.131  23.177  1.00  0.00     0.174 C 
BRANCH   8   9
ATOM      9  C   UNL A   1      31.364  27.580  23.062  1.00  0.00     0.018 C 
ATOM     10  C   UNL A   1      30.521  27.135  24.264  1.00  0.00     0.010 C 
BRANCH   9  11
ATOM     11  C   UNL A   1      31.187  29.112  22.870  1.00  0.00     0.002 C 
ATOM     12  C   UNL A   1      29.832  29.588  23.386  1.00  0.00     0.004 C 
ENDBRANCH   9  11
ENDBRANCH   8   9
BRANCH   8  13
ATOM     13  N   UNL A   1      33.319  26.441  21.944  1.00  0.00    -0.340 N 
ATOM     14  C   UNL A   1      33.002  25.205  21.445  1.00  0.00     0.244 C 
ATOM     15  H   UNL A   1      33.955  26.955  21.395  1.00  0.00     0.164 HD
ATOM     16  O   UNL A   1      33.052  25.005  20.235  1.00  0.00    -0.270 OA
BRANCH  14  17
ATOM     17  C   UNL A   1      32.885  24.067  22.373  1.00  0.00     0.073 C 
ATOM     18  C   UNL A   1      33.852  23.677  23.213  1.00  0.00     0.035 C 
BRANCH  18  19
ATOM     19  C   UNL A   1      33.871  22.390  23.840  1.00  0.00     0.074 A 
ATOM     20  C   UNL A   1      34.912  21.933  24.619  1.00  0.00     0.095 A 
ATOM     21  N   UNL A   1      32.904  21.450  23.528  1.00  0.00    -0.242 NA
ATOM     22  S   UNL A   1      34.669  20.279  24.998  1.00  0.00    -0.127 S 
ATOM     23  C   UNL A   1      33.211  20.297  24.085  1.00  0.00     0.090 A 
ATOM     24  C   UNL A   1      32.416  19.045  23.945  1.00  0.00     0.079 C 
ENDBRANCH  18  19
ENDBRANCH  14  17
ENDBRANCH   8  13
ENDBRANCH   5   8
ENDBRANCH   3   4
ENDBRANCH   2   3
ENDBRANCH   1   2
BRANCH   1  25
ATOM     25  C   UNL A   1      31.377  30.853  26.451  1.00  0.00     0.002 C 
BRANCH  25  26
ATOM     26  C   UNL A   1      31.378  32.378  26.567  1.00  0.00     0.021 C 
BRANCH  26  27
ATOM     27  C   UNL A   1      32.592  32.960  27.279  1.00  0.00     0.116 C 
BRANCH  27  28
ATOM     28  N   UNL A   1      32.370  34.313  27.759  1.00  0.00    -0.352 N 
ATOM     29  C   UNL A   1      33.068  34.994  28.725  1.00  0.00     0.251 C 
ATOM     30  H   UNL A   1      31.624  34.801  27.340  1.00  0.00     0.163 HD
ATOM     31  O   UNL A   1      32.699  36.095  29.110  1.00  0.00    -0.269 OA
BRANCH  29  32
ATOM     32  C   UNL A   1      34.262  34.358  29.314  1.00  0.00     0.039 A 
ATOM     33  C   UNL A   1      34.101  33.514  30.415  1.00  0.00     0.014 A 
ATOM     34  C   UNL A   1      35.525  34.571  28.756  1.00  0.00     0.014 A 
ATOM     35  C   UNL A   1      35.209  32.842  30.932  1.00  0.00     0.010 A 
ATOM     36  C   UNL A   1      36.615  33.852  29.231  1.00  0.00     0.010 A 
ATOM     37  C   UNL A   1      36.468  32.990  30.329  1.00  0.00    -0.014 A 
BRANCH  37  38
ATOM     38  C   UNL A   1      37.660  32.280  30.849  1.00  0.00     0.031 A 
ATOM     39  C   UNL A   1      38.380  32.824  32.049  1.00  0.00     0.074 A 
ATOM     40  C   UNL A   1      38.138  31.202  30.199  1.00  0.00     0.049 A 
ATOM     41  N   UNL A   1      39.503  32.429  32.592  1.00  0.00    -0.248 NA
ATOM     42  C   UNL A   1      37.770  33.991  32.707  1.00  0.00     0.031 C 
ATOM     43  C   UNL A   1      37.549  30.605  29.000  1.00  0.00     0.029 A 
ATOM     44  N   UNL A   1      39.242  30.429  30.451  1.00  0.00    -0.354 N 
ATOM     45  C   UNL A   1      39.746  33.313  33.635  1.00  0.00     0.074 A 
ATOM     46  C   UNL A   1      38.680  34.291  33.621  1.00  0.00     0.031 C 
ATOM     47  C   UNL A   1      38.293  29.550  28.626  1.00  0.00     0.029 A 
ATOM     48  C   UNL A   1      39.426  29.419  29.537  1.00  0.00     0.049 A 
ATOM     49  H   UNL A   1      39.846  30.583  31.213  1.00  0.00     0.167 HD
ATOM     50  C   UNL A   1      40.757  33.299  34.535  1.00  0.00     0.037 A 
ATOM     51  C   UNL A   1      40.404  28.500  29.443  1.00  0.00     0.037 A 
ATOM     52  C   UNL A   1      41.794  32.303  34.567  1.00  0.00     0.049 A 
ATOM     53  C   UNL A   1      41.508  28.493  30.462  1.00  0.00     0.074 A 
ATOM     54  C   UNL A   1      42.828  32.163  35.475  1.00  0.00     0.029 A 
ATOM     55  N   UNL A   1      41.923  31.272  33.648  1.00  0.00    -0.354 N 
ATOM     56  N   UNL A   1      41.700  29.302  31.477  1.00  0.00    -0.248 NA
ATOM     57  C   UNL A   1      42.527  27.443  30.330  1.00  0.00     0.031 C 
ATOM     58  C   UNL A   1      43.604  31.066  35.085  1.00  0.00     0.029 A 
ATOM     59  C   UNL A   1      43.029  30.499  33.959  1.00  0.00     0.049 A 
ATOM     60  H   UNL A   1      41.318  31.114  32.887  1.00  0.00     0.167 HD
ATOM     61  C   UNL A   1      42.841  28.843  32.119  1.00  0.00     0.074 A 
ATOM     62  C   UNL A   1      43.296  27.680  31.384  1.00  0.00     0.031 C 
ATOM     63  C   UNL A   1      43.457  29.338  33.220  1.00  0.00     0.037 A 
BRANCH  50  64
ATOM     64  C   UNL A   1      40.781  34.398  35.556  1.00  0.00     0.057 A 
ATOM     65  C   UNL A   1      40.135  34.274  36.793  1.00  0.00     0.134 A 
ATOM     66  C   UNL A   1      41.465  35.593  35.302  1.00  0.00     0.134 A 
ATOM     67  F   UNL A   1      39.450  33.159  37.092  1.00  0.00    -0.206 F 
ATOM     68  C   UNL A   1      40.139  35.312  37.727  1.00  0.00     0.040 A 
ATOM     69  C   UNL A   1      41.499  36.627  36.240  1.00  0.00     0.040 A 
ATOM     70  F   UNL A   1      42.108  35.777  34.140  1.00  0.00    -0.206 F 
ATOM     71  C   UNL A   1      40.827  36.491  37.452  1.00  0.00     0.006 A 
ENDBRANCH  50  64
BRANCH  51  72
ATOM     72  C   UNL A   1      40.366  27.492  28.355  1.00  0.00     0.057 A 
ATOM     73  C   UNL A   1      39.646  26.302  28.503  1.00  0.00     0.134 A 
ATOM     74  C   UNL A   1      41.034  27.697  27.143  1.00  0.00     0.134 A 
ATOM     75  F   UNL A   1      39.000  26.042  29.649  1.00  0.00    -0.206 F 
ATOM     76  C   UNL A   1      39.600  25.344  27.489  1.00  0.00     0.040 A 
ATOM     77  C   UNL A   1      40.980  26.758  26.111  1.00  0.00     0.040 A 
ATOM     78  F   UNL A   1      41.734  28.822  26.937  1.00  0.00    -0.206 F 
ATOM     79  C   UNL A   1      40.265  25.574  26.286  1.00  0.00     0.006 A 
ENDBRANCH  51  72
BRANCH  63  80
ATOM     80  C   UNL A   1      44.663  28.603  33.722  1.00  0.00     0.057 A 
ATOM     81  C   UNL A   1      44.553  27.497  34.574  1.00  0.00     0.134 A 
ATOM     82  C   UNL A   1      45.947  28.977  33.305  1.00  0.00     0.134 A 
ATOM     83  F   UNL A   1      43.352  27.097  35.017  1.00  0.00    -0.206 F 
ATOM     84  C   UNL A   1      45.681  26.797  35.005  1.00  0.00     0.040 A 
ATOM     85  C   UNL A   1      47.080  28.270  33.712  1.00  0.00     0.040 A 
ATOM     86  F   UNL A   1      46.119  30.022  32.484  1.00  0.00    -0.206 F 
ATOM     87  C   UNL A   1      46.949  27.179  34.568  1.00  0.00     0.006 A 
ENDBRANCH  63  80
ENDBRANCH  37  38
ENDBRANCH  29  32
ENDBRANCH  27  28
ENDBRANCH  26  27
ENDBRANCH  25  26
ENDBRANCH   1  25
TORSDOF 18
ENDMDL
MODEL 3
REMARK VINA RESULT:     -10.2      1.377      6.267
REMARK SMILES CC[C@H](C)[C@@H](NC(=O)/C=C/c1csc(C)n1)C(=O)NCCCCCCNC(=O)c1ccc(-c2c3nc(c(-c4c(F)cccc4F)c4ccc([nH]4)c(-c4c(F)cccc4F)c4nc(c(-c5c(F)cccc5F)c5ccc2[nH]5)C=C4)C=C3)cc1
REMARK SMILES IDX 22 1 21 2 20 3 19 4 17 5 18 6 5 8 3 9 4 10 2 11 1 12 6 13
REMARK SMILES IDX 7 14 8 16 9 17 10 18 11 19 12 20 16 21 13 22 14 23 15 24
REMARK SMILES IDX 23 25 24 26 25 27 26 28 27 29 28 31 29 32 30 33 82 34 31 35
REMARK SMILES IDX 81 36 32 37 33 38 34 39 75 40 35 41 80 42 74 43 76 44 36 45
REMARK SMILES IDX 79 46 73 47 72 48 37 50 63 51 46 52 62 53 47 54 50 55 61 56
REMARK SMILES IDX 77 57 48 58 49 59 60 61 78 62 51 63 38 64 39 65 44 66 40 67
REMARK SMILES IDX 41 68 43 69 45 70 42 71 64 72 65 73 70 74 66 75 67 76 69 77
REMARK SMILES IDX 71 78 68 79 52 80 53 81 58 82 54 83 55 84 57 85 59 86 56 87
REMARK H PARENT 19 7 6 15 26 30 76 49 50 60
REMARK Flexibility Score: inf
ROOT
ATOM      1  C   UNL A   1      32.506  30.100  26.124  1.00  0.00     0.002 C 
ENDROOT
BRANCH   1   2
ATOM      2  C   UNL A   1      32.289  28.650  26.570  1.00  0.00     0.021 C 
BRANCH   2   3
ATOM      3  C   UNL A   1      32.689  27.629  25.516  1.00  0.00     0.116 C 
BRANCH   3   4
ATOM      4  N   UNL A   1      31.946  26.401  25.697  1.00  0.00    -0.354 N 
ATOM      5  C   UNL A   1      31.134  25.740  24.833  1.00  0.00     0.242 C 
ATOM      6  O   UNL A   1      30.613  24.688  25.223  1.00  0.00    -0.273 OA
ATOM      7  H   UNL A   1      32.045  25.980  26.581  1.00  0.00     0.163 HD
BRANCH   5   8
ATOM      8  C   UNL A   1      30.780  26.311  23.446  1.00  0.00     0.174 C 
BRANCH   8   9
ATOM      9  C   UNL A   1      29.987  27.651  23.634  1.00  0.00     0.018 C 
ATOM     10  C   UNL A   1      30.480  28.765  22.700  1.00  0.00     0.010 C 
BRANCH   9  11
ATOM     11  C   UNL A   1      28.451  27.495  23.455  1.00  0.00     0.002 C 
ATOM     12  C   UNL A   1      27.805  28.801  23.002  1.00  0.00     0.004 C 
ENDBRANCH   9  11
ENDBRANCH   8   9
BRANCH   8  13
ATOM     13  N   UNL A   1      31.935  26.486  22.529  1.00  0.00    -0.340 N 
ATOM     14  C   UNL A   1      32.772  25.561  21.963  1.00  0.00     0.244 C 
ATOM     15  H   UNL A   1      32.131  27.421  22.287  1.00  0.00     0.164 HD
ATOM     16  O   UNL A   1      33.312  25.805  20.888  1.00  0.00    -0.270 OA
BRANCH  14  17
ATOM     17  C   UNL A   1      33.233  24.423  22.776  1.00  0.00     0.073 C 
ATOM     18  C   UNL A   1      32.756  23.177  22.668  1.00  0.00     0.035 C 
BRANCH  18  19
ATOM     19  C   UNL A   1      32.944  22.177  23.675  1.00  0.00     0.074 A 
ATOM     20  C   UNL A   1      32.447  20.895  23.583  1.00  0.00     0.095 A 
ATOM     21  N   UNL A   1      33.485  22.519  24.902  1.00  0.00    -0.242 NA
ATOM     22  S   UNL A   1      32.681  20.075  25.070  1.00  0.00    -0.127 S 
ATOM     23  C   UNL A   1      33.409  21.490  25.722  1.00  0.00     0.090 A 
ATOM     24  C   UNL A   1      33.867  21.496  27.139  1.00  0.00     0.079 C 
ENDBRANCH  18  19
ENDBRANCH  14  17
ENDBRANCH   8  13
ENDBRANCH   5   8
ENDBRANCH   3   4
ENDBRANCH   2   3
ENDBRANCH   1   2
BRANCH   1  25
ATOM     25  C   UNL A   1      31.224  30.908  25.900  1.00  0.00     0.002 C 
BRANCH  25  26
ATOM     26  C   UNL A   1      31.246  32.333  26.456  1.00  0.00     0.021 C 
BRANCH  26  27
ATOM     27  C   UNL A   1      32.575  32.758  27.064  1.00  0.00     0.116 C 
BRANCH  27  28
ATOM     28  N   UNL A   1      32.530  34.090  27.643  1.00  0.00    -0.352 N 
ATOM     29  C   UNL A   1      33.339  34.617  28.619  1.00  0.00     0.251 C 
ATOM     30  H   UNL A   1      31.831  34.688  27.293  1.00  0.00     0.163 HD
ATOM     31  O   UNL A   1      33.116  35.721  29.094  1.00  0.00    -0.269 OA
BRANCH  29  32
ATOM     32  C   UNL A   1      34.473  33.809  29.109  1.00  0.00     0.039 A 
ATOM     33  C   UNL A   1      35.772  34.202  28.782  1.00  0.00     0.014 A 
ATOM     34  C   UNL A   1      34.247  32.689  29.915  1.00  0.00     0.014 A 
ATOM     35  C   UNL A   1      36.855  33.496  29.305  1.00  0.00     0.010 A 
ATOM     36  C   UNL A   1      35.326  32.027  30.486  1.00  0.00     0.010 A 
ATOM     37  C   UNL A   1      36.639  32.418  30.178  1.00  0.00    -0.014 A 
BRANCH  37  38
ATOM     38  C   UNL A   1      37.769  31.656  30.759  1.00  0.00     0.031 A 
ATOM     39  C   UNL A   1      38.238  31.974  32.150  1.00  0.00     0.074 A 
ATOM     40  C   UNL A   1      38.421  30.745  30.013  1.00  0.00     0.049 A 
ATOM     41  N   UNL A   1      39.276  31.514  32.800  1.00  0.00    -0.248 NA
ATOM     42  C   UNL A   1      37.450  32.967  32.897  1.00  0.00     0.031 C 
ATOM     43  C   UNL A   1      38.084  30.379  28.636  1.00  0.00     0.029 A 
ATOM     44  N   UNL A   1      39.515  29.972  30.306  1.00  0.00    -0.354 N 
ATOM     45  C   UNL A   1      39.280  32.181  34.019  1.00  0.00     0.074 A 
ATOM     46  C   UNL A   1      38.170  33.108  33.999  1.00  0.00     0.031 C 
ATOM     47  C   UNL A   1      38.948  29.444  28.208  1.00  0.00     0.029 A 
ATOM     48  C   UNL A   1      39.916  29.170  29.266  1.00  0.00     0.049 A 
ATOM     49  H   UNL A   1      39.969  29.990  31.180  1.00  0.00     0.167 HD
ATOM     50  C   UNL A   1      40.122  32.020  35.066  1.00  0.00     0.037 A 
ATOM     51  C   UNL A   1      40.955  28.318  29.176  1.00  0.00     0.037 A 
ATOM     52  C   UNL A   1      41.202  31.070  35.093  1.00  0.00     0.049 A 
ATOM     53  C   UNL A   1      41.867  28.144  30.357  1.00  0.00     0.074 A 
ATOM     54  C   UNL A   1      42.074  30.785  36.129  1.00  0.00     0.029 A 
ATOM     55  N   UNL A   1      41.553  30.247  34.034  1.00  0.00    -0.354 N 
ATOM     56  N   UNL A   1      41.831  28.741  31.524  1.00  0.00    -0.248 NA
ATOM     57  C   UNL A   1      42.961  27.173  30.213  1.00  0.00     0.031 C 
ATOM     58  C   UNL A   1      42.975  29.812  35.683  1.00  0.00     0.029 A 
ATOM     59  C   UNL A   1      42.638  29.462  34.385  1.00  0.00     0.049 A 
ATOM     60  H   UNL A   1      41.097  30.224  33.161  1.00  0.00     0.167 HD
ATOM     61  C   UNL A   1      42.875  28.199  32.261  1.00  0.00     0.074 A 
ATOM     62  C   UNL A   1      43.523  27.221  31.412  1.00  0.00     0.031 C 
ATOM     63  C   UNL A   1      43.261  28.485  33.529  1.00  0.00     0.037 A 
BRANCH  50  64
ATOM     64  C   UNL A   1      39.900  32.894  36.265  1.00  0.00     0.057 A 
ATOM     65  C   UNL A   1      38.979  32.560  37.265  1.00  0.00     0.134 A 
ATOM     66  C   UNL A   1      40.622  34.084  36.424  1.00  0.00     0.134 A 
ATOM     67  F   UNL A   1      38.244  31.440  37.165  1.00  0.00    -0.206 F 
ATOM     68  C   UNL A   1      38.758  33.392  38.364  1.00  0.00     0.040 A 
ATOM     69  C   UNL A   1      40.430  34.911  37.532  1.00  0.00     0.040 A 
ATOM     70  F   UNL A   1      41.523  34.463  35.505  1.00  0.00    -0.206 F 
ATOM     71  C   UNL A   1      39.489  34.570  38.501  1.00  0.00     0.006 A 
ENDBRANCH  50  64
BRANCH  51  72
ATOM     72  C   UNL A   1      41.168  27.546  27.928  1.00  0.00     0.057 A 
ATOM     73  C   UNL A   1      40.591  26.284  27.757  1.00  0.00     0.134 A 
ATOM     74  C   UNL A   1      41.940  28.053  26.876  1.00  0.00     0.134 A 
ATOM     75  F   UNL A   1      39.856  25.739  28.737  1.00  0.00    -0.206 F 
ATOM     76  C   UNL A   1      40.782  25.544  26.588  1.00  0.00     0.040 A 
ATOM     77  C   UNL A   1      42.122  27.334  25.693  1.00  0.00     0.040 A 
ATOM     78  F   UNL A   1      42.512  29.261  26.976  1.00  0.00    -0.206 F 
ATOM     79  C   UNL A   1      41.547  26.073  25.549  1.00  0.00     0.006 A 
ENDBRANCH  51  72
BRANCH  63  80
ATOM     80  C   UNL A   1      44.410  27.703  34.090  1.00  0.00     0.057 A 
ATOM     81  C   UNL A   1      45.725  28.181  34.038  1.00  0.00     0.134 A 
ATOM     82  C   UNL A   1      44.188  26.480  34.736  1.00  0.00     0.134 A 
ATOM     83  F   UNL A   1      46.003  29.340  33.422  1.00  0.00    -0.206 F 
ATOM     84  C   UNL A   1      46.782  27.462  34.597  1.00  0.00     0.040 A 
ATOM     85  C   UNL A   1      45.235  25.763  35.318  1.00  0.00     0.040 A 
ATOM     86  F   UNL A   1      42.950  25.972  34.826  1.00  0.00    -0.206 F 
ATOM     87  C   UNL A   1      46.537  26.253  35.246  1.00  0.00     0.006 A 
ENDBRANCH  63  80
ENDBRANCH  37  38
ENDBRANCH  29  32
ENDBRANCH  27  28
ENDBRANCH  26  27
ENDBRANCH  25  26
ENDBRANCH   1  25
TORSDOF 18
ENDMDL
