MODEL 1
REMARK VINA RESULT:     -11.8      0.000      0.000
REMARK SMILES C[C@H]1CCCC[C@@]1(NC(=O)N[C@@H]1CCOC1)C(=O)NCCCCCCNC(=O)c1ccc(-c2c3nc(c(-c4c(F)cccc4F)c4ccc([nH]4)c(-c4c(F)cccc4F)c4nc(c(-c5c(F)cccc5F)c5ccc2[nH]5)C=C4)C=C3)cc1
REMARK SMILES IDX 22 1 21 2 20 3 19 4 17 5 18 6 7 8 1 9 2 10 3 11 4 12 6 13
REMARK SMILES IDX 5 14 8 15 9 16 10 18 11 19 12 21 13 22 16 23 14 24 15 25
REMARK SMILES IDX 23 26 24 27 25 28 26 29 27 30 28 32 29 33 30 34 82 35 31 36
REMARK SMILES IDX 81 37 32 38 33 39 34 40 75 41 35 42 80 43 74 44 76 45 36 46
REMARK SMILES IDX 79 47 73 48 72 49 37 51 63 52 46 53 62 54 47 55 50 56 61 57
REMARK SMILES IDX 77 58 48 59 49 60 60 62 78 63 51 64 38 65 39 66 44 67 40 68
REMARK SMILES IDX 41 69 43 70 45 71 42 72 64 73 65 74 70 75 66 76 67 77 69 78
REMARK SMILES IDX 71 79 68 80 52 81 53 82 58 83 54 84 55 85 57 86 59 87 56 88
REMARK H PARENT 19 7 8 17 11 20 26 31 76 50 50 61
REMARK Flexibility Score: inf
ROOT
ATOM      1  C   UNL A   1      36.221  21.262  25.598  1.00  0.00     0.002 C 
ENDROOT
BRANCH   1   2
ATOM      2  C   UNL A   1      34.787  21.460  26.101  1.00  0.00     0.021 C 
BRANCH   2   3
ATOM      3  C   UNL A   1      33.708  21.430  25.025  1.00  0.00     0.116 C 
BRANCH   3   4
ATOM      4  N   UNL A   1      34.151  21.828  23.722  1.00  0.00    -0.354 N 
ATOM      5  C   UNL A   1      34.218  23.042  23.127  1.00  0.00     0.246 C 
ATOM      6  O   UNL A   1      35.228  23.178  22.416  1.00  0.00    -0.272 OA
ATOM      7  H   UNL A   1      34.462  21.084  23.157  1.00  0.00     0.163 HD
BRANCH   5   8
ATOM      8  C   UNL A   1      33.193  24.221  23.229  1.00  0.00     0.123 C 
ATOM      9  C   UNL A   1      30.695  23.524  23.666  1.00  0.00     0.011 C 
ATOM     10  C   UNL A   1      31.911  24.339  24.107  1.00  0.00     0.021 C 
ATOM     11  C   UNL A   1      32.100  24.292  25.631  1.00  0.00     0.006 C 
ATOM     12  C   UNL A   1      33.365  24.964  26.177  1.00  0.00     0.000 C 
ATOM     13  C   UNL A   1      34.115  25.368  23.780  1.00  0.00     0.039 C 
ATOM     14  C   UNL A   1      34.546  25.087  25.219  1.00  0.00     0.003 C 
BRANCH   8  15
ATOM     15  N   UNL A   1      32.827  24.597  21.812  1.00  0.00    -0.323 N 
ATOM     16  C   UNL A   1      32.695  25.712  21.081  1.00  0.00     0.315 C 
ATOM     17  H   UNL A   1      32.630  23.798  21.273  1.00  0.00     0.166 HD
ATOM     18  O   UNL A   1      32.912  25.609  19.869  1.00  0.00    -0.249 OA
ATOM     19  N   UNL A   1      32.330  26.921  21.525  1.00  0.00    -0.333 N 
ATOM     20  H   UNL A   1      32.505  27.641  20.877  1.00  0.00     0.165 HD
BRANCH  19  21
ATOM     21  C   UNL A   1      31.729  27.398  22.761  1.00  0.00     0.112 C 
ATOM     22  C   UNL A   1      30.218  27.271  22.755  1.00  0.00     0.056 C 
ATOM     23  C   UNL A   1      31.945  28.883  23.051  1.00  0.00     0.185 C 
ATOM     24  C   UNL A   1      29.699  28.659  22.480  1.00  0.00     0.162 C 
ATOM     25  O   UNL A   1      30.706  29.583  22.884  1.00  0.00    -0.379 OA
ENDBRANCH  19  21
ENDBRANCH   8  15
ENDBRANCH   5   8
ENDBRANCH   3   4
ENDBRANCH   2   3
ENDBRANCH   1   2
BRANCH   1  26
ATOM     26  C   UNL A   1      36.538  19.882  25.016  1.00  0.00     0.002 C 
BRANCH  26  27
ATOM     27  C   UNL A   1      38.007  19.636  24.667  1.00  0.00     0.021 C 
BRANCH  27  28
ATOM     28  C   UNL A   1      38.979  19.980  25.783  1.00  0.00     0.116 C 
BRANCH  28  29
ATOM     29  N   UNL A   1      40.085  19.042  25.833  1.00  0.00    -0.352 N 
ATOM     30  C   UNL A   1      41.419  19.313  26.031  1.00  0.00     0.251 C 
ATOM     31  H   UNL A   1      39.852  18.094  25.710  1.00  0.00     0.163 HD
ATOM     32  O   UNL A   1      42.273  18.471  25.810  1.00  0.00    -0.269 OA
BRANCH  30  33
ATOM     33  C   UNL A   1      41.797  20.658  26.511  1.00  0.00     0.039 A 
ATOM     34  C   UNL A   1      41.908  20.893  27.882  1.00  0.00     0.014 A 
ATOM     35  C   UNL A   1      42.082  21.667  25.587  1.00  0.00     0.014 A 
ATOM     36  C   UNL A   1      42.359  22.137  28.331  1.00  0.00     0.010 A 
ATOM     37  C   UNL A   1      42.611  22.870  26.031  1.00  0.00     0.010 A 
ATOM     38  C   UNL A   1      42.742  23.122  27.406  1.00  0.00    -0.014 A 
BRANCH  38  39
ATOM     39  C   UNL A   1      43.250  24.448  27.830  1.00  0.00     0.031 A 
ATOM     40  C   UNL A   1      42.269  25.516  28.223  1.00  0.00     0.074 A 
ATOM     41  C   UNL A   1      44.565  24.727  27.755  1.00  0.00     0.049 A 
ATOM     42  N   UNL A   1      42.471  26.789  28.445  1.00  0.00    -0.248 NA
ATOM     43  C   UNL A   1      40.861  25.099  28.340  1.00  0.00     0.031 C 
ATOM     44  C   UNL A   1      45.611  23.783  27.360  1.00  0.00     0.029 A 
ATOM     45  N   UNL A   1      45.242  25.900  27.978  1.00  0.00    -0.354 N 
ATOM     46  C   UNL A   1      41.215  27.329  28.694  1.00  0.00     0.074 A 
ATOM     47  C   UNL A   1      40.255  26.258  28.544  1.00  0.00     0.031 C 
ATOM     48  C   UNL A   1      46.797  24.413  27.374  1.00  0.00     0.029 A 
ATOM     49  C   UNL A   1      46.589  25.813  27.728  1.00  0.00     0.049 A 
ATOM     50  H   UNL A   1      44.803  26.725  28.289  1.00  0.00     0.167 HD
ATOM     51  C   UNL A   1      40.895  28.600  29.034  1.00  0.00     0.037 A 
ATOM     52  C   UNL A   1      47.544  26.763  27.757  1.00  0.00     0.037 A 
ATOM     53  C   UNL A   1      41.863  29.650  29.204  1.00  0.00     0.049 A 
ATOM     54  C   UNL A   1      47.166  28.172  28.124  1.00  0.00     0.074 A 
ATOM     55  C   UNL A   1      41.653  30.957  29.606  1.00  0.00     0.029 A 
ATOM     56  N   UNL A   1      43.225  29.513  28.978  1.00  0.00    -0.354 N 
ATOM     57  N   UNL A   1      45.984  28.663  28.408  1.00  0.00    -0.248 NA
ATOM     58  C   UNL A   1      48.254  29.160  28.176  1.00  0.00     0.031 C 
ATOM     59  C   UNL A   1      42.880  31.626  29.568  1.00  0.00     0.029 A 
ATOM     60  C   UNL A   1      43.864  30.718  29.206  1.00  0.00     0.049 A 
ATOM     61  H   UNL A   1      43.669  28.681  28.694  1.00  0.00     0.167 HD
ATOM     62  C   UNL A   1      46.190  30.003  28.713  1.00  0.00     0.074 A 
ATOM     63  C   UNL A   1      47.610  30.249  28.574  1.00  0.00     0.031 C 
ATOM     64  C   UNL A   1      45.283  30.940  29.084  1.00  0.00     0.037 A 
BRANCH  51  65
ATOM     65  C   UNL A   1      39.440  28.919  29.225  1.00  0.00     0.057 A 
ATOM     66  C   UNL A   1      38.632  29.372  28.172  1.00  0.00     0.134 A 
ATOM     67  C   UNL A   1      38.836  28.763  30.478  1.00  0.00     0.134 A 
ATOM     68  F   UNL A   1      39.149  29.555  26.948  1.00  0.00    -0.206 F 
ATOM     69  C   UNL A   1      37.288  29.698  28.370  1.00  0.00     0.040 A 
ATOM     70  C   UNL A   1      37.485  29.052  30.681  1.00  0.00     0.040 A 
ATOM     71  F   UNL A   1      39.547  28.327  31.529  1.00  0.00    -0.206 F 
ATOM     72  C   UNL A   1      36.711  29.533  29.627  1.00  0.00     0.006 A 
ENDBRANCH  51  65
BRANCH  52  73
ATOM     73  C   UNL A   1      48.950  26.404  27.442  1.00  0.00     0.057 A 
ATOM     74  C   UNL A   1      49.831  25.993  28.447  1.00  0.00     0.134 A 
ATOM     75  C   UNL A   1      49.442  26.445  26.131  1.00  0.00     0.134 A 
ATOM     76  F   UNL A   1      49.424  25.948  29.725  1.00  0.00    -0.206 F 
ATOM     77  C   UNL A   1      51.154  25.647  28.166  1.00  0.00     0.040 A 
ATOM     78  C   UNL A   1      50.754  26.077  25.831  1.00  0.00     0.040 A 
ATOM     79  F   UNL A   1      48.645  26.819  25.120  1.00  0.00    -0.206 F 
ATOM     80  C   UNL A   1      51.617  25.683  26.851  1.00  0.00     0.006 A 
ENDBRANCH  52  73
BRANCH  64  81
ATOM     81  C   UNL A   1      45.796  32.308  29.428  1.00  0.00     0.057 A 
ATOM     82  C   UNL A   1      46.240  32.638  30.713  1.00  0.00     0.134 A 
ATOM     83  C   UNL A   1      45.924  33.283  28.428  1.00  0.00     0.134 A 
ATOM     84  F   UNL A   1      46.135  31.754  31.717  1.00  0.00    -0.206 F 
ATOM     85  C   UNL A   1      46.786  33.892  30.996  1.00  0.00     0.040 A 
ATOM     86  C   UNL A   1      46.493  34.529  28.691  1.00  0.00     0.040 A 
ATOM     87  F   UNL A   1      45.525  33.027  27.173  1.00  0.00    -0.206 F 
ATOM     88  C   UNL A   1      46.924  34.837  29.979  1.00  0.00     0.006 A 
ENDBRANCH  64  81
ENDBRANCH  38  39
ENDBRANCH  30  33
ENDBRANCH  28  29
ENDBRANCH  27  28
ENDBRANCH  26  27
ENDBRANCH   1  26
TORSDOF 15
ENDMDL
MODEL 2
REMARK VINA RESULT:     -11.7      1.424      2.284
REMARK SMILES C[C@H]1CCCC[C@@]1(NC(=O)N[C@@H]1CCOC1)C(=O)NCCCCCCNC(=O)c1ccc(-c2c3nc(c(-c4c(F)cccc4F)c4ccc([nH]4)c(-c4c(F)cccc4F)c4nc(c(-c5c(F)cccc5F)c5ccc2[nH]5)C=C4)C=C3)cc1
REMARK SMILES IDX 22 1 21 2 20 3 19 4 17 5 18 6 7 8 1 9 2 10 3 11 4 12 6 13
REMARK SMILES IDX 5 14 8 15 9 16 10 18 11 19 12 21 13 22 16 23 14 24 15 25
REMARK SMILES IDX 23 26 24 27 25 28 26 29 27 30 28 32 29 33 30 34 82 35 31 36
REMARK SMILES IDX 81 37 32 38 33 39 34 40 75 41 35 42 80 43 74 44 76 45 36 46
REMARK SMILES IDX 79 47 73 48 72 49 37 51 63 52 46 53 62 54 47 55 50 56 61 57
REMARK SMILES IDX 77 58 48 59 49 60 60 62 78 63 51 64 38 65 39 66 44 67 40 68
REMARK SMILES IDX 41 69 43 70 45 71 42 72 64 73 65 74 70 75 66 76 67 77 69 78
REMARK SMILES IDX 71 79 68 80 52 81 53 82 58 83 54 84 55 85 57 86 59 87 56 88
REMARK H PARENT 19 7 8 17 11 20 26 31 76 50 50 61
REMARK Flexibility Score: inf
ROOT
ATOM      1  C   UNL A   1      35.552  20.738  25.055  1.00  0.00     0.002 C 
ENDROOT
BRANCH   1   2
ATOM      2  C   UNL A   1      34.738  21.390  26.177  1.00  0.00     0.021 C 
BRANCH   2   3
ATOM      3  C   UNL A   1      33.224  21.307  26.018  1.00  0.00     0.116 C 
BRANCH   3   4
ATOM      4  N   UNL A   1      32.482  22.156  26.902  1.00  0.00    -0.354 N 
ATOM      5  C   UNL A   1      31.768  23.283  26.674  1.00  0.00     0.246 C 
ATOM      6  O   UNL A   1      30.733  23.347  27.360  1.00  0.00    -0.272 OA
ATOM      7  H   UNL A   1      32.494  21.868  27.843  1.00  0.00     0.163 HD
BRANCH   5   8
ATOM      8  C   UNL A   1      32.109  24.458  25.697  1.00  0.00     0.123 C 
ATOM      9  C   UNL A   1      34.670  24.961  25.372  1.00  0.00     0.011 C 
ATOM     10  C   UNL A   1      33.324  24.618  24.734  1.00  0.00     0.021 C 
ATOM     11  C   UNL A   1      33.477  23.568  23.622  1.00  0.00     0.006 C 
ATOM     12  C   UNL A   1      32.176  23.047  22.999  1.00  0.00     0.000 C 
ATOM     13  C   UNL A   1      30.879  24.398  24.721  1.00  0.00     0.039 C 
ATOM     14  C   UNL A   1      30.919  23.137  23.859  1.00  0.00     0.003 C 
BRANCH   8  15
ATOM     15  N   UNL A   1      31.973  25.735  26.494  1.00  0.00    -0.323 N 
ATOM     16  C   UNL A   1      31.373  26.926  26.371  1.00  0.00     0.315 C 
ATOM     17  H   UNL A   1      32.463  25.674  27.346  1.00  0.00     0.166 HD
ATOM     18  O   UNL A   1      31.037  27.488  27.418  1.00  0.00    -0.249 OA
ATOM     19  N   UNL A   1      31.121  27.580  25.230  1.00  0.00    -0.333 N 
ATOM     20  H   UNL A   1      30.486  28.324  25.342  1.00  0.00     0.165 HD
BRANCH  19  21
ATOM     21  C   UNL A   1      31.587  27.425  23.860  1.00  0.00     0.112 C 
ATOM     22  C   UNL A   1      32.197  28.700  23.311  1.00  0.00     0.056 C 
ATOM     23  C   UNL A   1      30.493  27.104  22.841  1.00  0.00     0.185 C 
ATOM     24  C   UNL A   1      31.140  29.301  22.421  1.00  0.00     0.162 C 
ATOM     25  O   UNL A   1      30.278  28.246  22.003  1.00  0.00    -0.379 OA
ENDBRANCH  19  21
ENDBRANCH   8  15
ENDBRANCH   5   8
ENDBRANCH   3   4
ENDBRANCH   2   3
ENDBRANCH   1   2
BRANCH   1  26
ATOM     26  C   UNL A   1      37.013  21.184  24.947  1.00  0.00     0.002 C 
BRANCH  26  27
ATOM     27  C   UNL A   1      38.051  20.061  25.003  1.00  0.00     0.021 C 
BRANCH  27  28
ATOM     28  C   UNL A   1      39.179  20.303  25.990  1.00  0.00     0.116 C 
BRANCH  28  29
ATOM     29  N   UNL A   1      40.128  19.205  25.994  1.00  0.00    -0.352 N 
ATOM     30  C   UNL A   1      41.500  19.269  26.042  1.00  0.00     0.251 C 
ATOM     31  H   UNL A   1      39.740  18.300  25.959  1.00  0.00     0.163 HD
ATOM     32  O   UNL A   1      42.187  18.291  25.795  1.00  0.00    -0.269 OA
BRANCH  30  33
ATOM     33  C   UNL A   1      42.130  20.559  26.390  1.00  0.00     0.039 A 
ATOM     34  C   UNL A   1      42.522  21.430  25.371  1.00  0.00     0.014 A 
ATOM     35  C   UNL A   1      42.286  20.914  27.732  1.00  0.00     0.014 A 
ATOM     36  C   UNL A   1      43.027  22.689  25.702  1.00  0.00     0.010 A 
ATOM     37  C   UNL A   1      42.707  22.195  28.056  1.00  0.00     0.010 A 
ATOM     38  C   UNL A   1      43.094  23.090  27.046  1.00  0.00    -0.014 A 
BRANCH  38  39
ATOM     39  C   UNL A   1      43.599  24.424  27.448  1.00  0.00     0.031 A 
ATOM     40  C   UNL A   1      42.623  25.468  27.911  1.00  0.00     0.074 A 
ATOM     41  C   UNL A   1      44.901  24.731  27.292  1.00  0.00     0.049 A 
ATOM     42  N   UNL A   1      42.812  26.743  28.131  1.00  0.00    -0.248 NA
ATOM     43  C   UNL A   1      41.235  25.020  28.114  1.00  0.00     0.031 C 
ATOM     44  C   UNL A   1      45.939  23.813  26.823  1.00  0.00     0.029 A 
ATOM     45  N   UNL A   1      45.565  25.917  27.481  1.00  0.00    -0.354 N 
ATOM     46  C   UNL A   1      41.563  27.254  28.465  1.00  0.00     0.074 A 
ATOM     47  C   UNL A   1      40.619  26.164  28.367  1.00  0.00     0.031 C 
ATOM     48  C   UNL A   1      47.110  24.469  26.767  1.00  0.00     0.029 A 
ATOM     49  C   UNL A   1      46.896  25.862  27.145  1.00  0.00     0.049 A 
ATOM     50  H   UNL A   1      45.130  26.730  27.827  1.00  0.00     0.167 HD
ATOM     51  C   UNL A   1      41.239  28.515  28.834  1.00  0.00     0.037 A 
ATOM     52  C   UNL A   1      47.830  26.832  27.121  1.00  0.00     0.037 A 
ATOM     53  C   UNL A   1      42.193  29.585  28.951  1.00  0.00     0.049 A 
ATOM     54  C   UNL A   1      47.447  28.229  27.523  1.00  0.00     0.074 A 
ATOM     55  C   UNL A   1      41.982  30.884  29.377  1.00  0.00     0.029 A 
ATOM     56  N   UNL A   1      43.540  29.479  28.637  1.00  0.00    -0.354 N 
ATOM     57  N   UNL A   1      46.275  28.692  27.887  1.00  0.00    -0.248 NA
ATOM     58  C   UNL A   1      48.514  29.240  27.515  1.00  0.00     0.031 C 
ATOM     59  C   UNL A   1      43.190  31.579  29.266  1.00  0.00     0.029 A 
ATOM     60  C   UNL A   1      44.167  30.696  28.835  1.00  0.00     0.049 A 
ATOM     61  H   UNL A   1      43.983  28.659  28.320  1.00  0.00     0.167 HD
ATOM     62  C   UNL A   1      46.471  30.034  28.189  1.00  0.00     0.074 A 
ATOM     63  C   UNL A   1      47.874  30.312  27.962  1.00  0.00     0.031 C 
ATOM     64  C   UNL A   1      45.571  30.950  28.624  1.00  0.00     0.037 A 
BRANCH  51  65
ATOM     65  C   UNL A   1      39.793  28.801  29.120  1.00  0.00     0.057 A 
ATOM     66  C   UNL A   1      39.251  28.689  30.408  1.00  0.00     0.134 A 
ATOM     67  C   UNL A   1      38.930  29.202  28.092  1.00  0.00     0.134 A 
ATOM     68  F   UNL A   1      40.018  28.298  31.437  1.00  0.00    -0.206 F 
ATOM     69  C   UNL A   1      37.897  28.925  30.655  1.00  0.00     0.040 A 
ATOM     70  C   UNL A   1      37.582  29.475  28.333  1.00  0.00     0.040 A 
ATOM     71  F   UNL A   1      39.381  29.336  26.836  1.00  0.00    -0.206 F 
ATOM     72  C   UNL A   1      37.060  29.324  29.616  1.00  0.00     0.006 A 
ENDBRANCH  51  65
BRANCH  52  73
ATOM     73  C   UNL A   1      49.220  26.505  26.714  1.00  0.00     0.057 A 
ATOM     74  C   UNL A   1      50.142  25.999  27.638  1.00  0.00     0.134 A 
ATOM     75  C   UNL A   1      49.657  26.672  25.394  1.00  0.00     0.134 A 
ATOM     76  F   UNL A   1      49.788  25.832  28.921  1.00  0.00    -0.206 F 
ATOM     77  C   UNL A   1      51.450  25.683  27.269  1.00  0.00     0.040 A 
ATOM     78  C   UNL A   1      50.954  26.336  25.005  1.00  0.00     0.040 A 
ATOM     79  F   UNL A   1      48.819  27.142  24.458  1.00  0.00    -0.206 F 
ATOM     80  C   UNL A   1      51.857  25.846  25.946  1.00  0.00     0.006 A 
ENDBRANCH  52  73
BRANCH  64  81
ATOM     81  C   UNL A   1      46.076  32.326  28.946  1.00  0.00     0.057 A 
ATOM     82  C   UNL A   1      46.621  32.648  30.194  1.00  0.00     0.134 A 
ATOM     83  C   UNL A   1      46.089  33.319  27.957  1.00  0.00     0.134 A 
ATOM     84  F   UNL A   1      46.628  31.746  31.187  1.00  0.00    -0.206 F 
ATOM     85  C   UNL A   1      47.156  33.912  30.450  1.00  0.00     0.040 A 
ATOM     86  C   UNL A   1      46.646  34.576  28.191  1.00  0.00     0.040 A 
ATOM     87  F   UNL A   1      45.589  33.071  26.737  1.00  0.00    -0.206 F 
ATOM     88  C   UNL A   1      47.180  34.876  29.442  1.00  0.00     0.006 A 
ENDBRANCH  64  81
ENDBRANCH  38  39
ENDBRANCH  30  33
ENDBRANCH  28  29
ENDBRANCH  27  28
ENDBRANCH  26  27
ENDBRANCH   1  26
TORSDOF 15
ENDMDL
MODEL 3
REMARK VINA RESULT:     -11.7      1.470      2.219
REMARK SMILES C[C@H]1CCCC[C@@]1(NC(=O)N[C@@H]1CCOC1)C(=O)NCCCCCCNC(=O)c1ccc(-c2c3nc(c(-c4c(F)cccc4F)c4ccc([nH]4)c(-c4c(F)cccc4F)c4nc(c(-c5c(F)cccc5F)c5ccc2[nH]5)C=C4)C=C3)cc1
REMARK SMILES IDX 22 1 21 2 20 3 19 4 17 5 18 6 7 8 1 9 2 10 3 11 4 12 6 13
REMARK SMILES IDX 5 14 8 15 9 16 10 18 11 19 12 21 13 22 16 23 14 24 15 25
REMARK SMILES IDX 23 26 24 27 25 28 26 29 27 30 28 32 29 33 30 34 82 35 31 36
REMARK SMILES IDX 81 37 32 38 33 39 34 40 75 41 35 42 80 43 74 44 76 45 36 46
REMARK SMILES IDX 79 47 73 48 72 49 37 51 63 52 46 53 62 54 47 55 50 56 61 57
REMARK SMILES IDX 77 58 48 59 49 60 60 62 78 63 51 64 38 65 39 66 44 67 40 68
REMARK SMILES IDX 41 69 43 70 45 71 42 72 64 73 65 74 70 75 66 76 67 77 69 78
REMARK SMILES IDX 71 79 68 80 52 81 53 82 58 83 54 84 55 85 57 86 59 87 56 88
REMARK H PARENT 19 7 8 17 11 20 26 31 76 50 50 61
REMARK Flexibility Score: inf
ROOT
ATOM      1  C   UNL A   1      36.379  22.470  25.105  1.00  0.00     0.002 C 
ENDROOT
BRANCH   1   2
ATOM      2  C   UNL A   1      35.557  23.342  26.059  1.00  0.00     0.021 C 
BRANCH   2   3
ATOM      3  C   UNL A   1      34.757  24.458  25.399  1.00  0.00     0.116 C 
BRANCH   3   4
ATOM      4  N   UNL A   1      33.595  24.873  26.126  1.00  0.00    -0.354 N 
ATOM      5  C   UNL A   1      32.312  24.442  26.090  1.00  0.00     0.246 C 
ATOM      6  O   UNL A   1      31.778  24.419  27.212  1.00  0.00    -0.272 OA
ATOM      7  H   UNL A   1      33.758  25.602  26.767  1.00  0.00     0.163 HD
BRANCH   5   8
ATOM      8  C   UNL A   1      31.477  24.009  24.839  1.00  0.00     0.123 C 
ATOM      9  C   UNL A   1      32.213  25.081  22.552  1.00  0.00     0.011 C 
ATOM     10  C   UNL A   1      31.940  23.814  23.363  1.00  0.00     0.021 C 
ATOM     11  C   UNL A   1      33.004  22.736  23.102  1.00  0.00     0.006 C 
ATOM     12  C   UNL A   1      32.909  21.469  23.961  1.00  0.00     0.000 C 
ATOM     13  C   UNL A   1      31.023  22.567  25.269  1.00  0.00     0.039 C 
ATOM     14  C   UNL A   1      32.210  21.605  25.309  1.00  0.00     0.003 C 
BRANCH   8  15
ATOM     15  N   UNL A   1      30.236  24.872  24.829  1.00  0.00    -0.323 N 
ATOM     16  C   UNL A   1      29.905  26.136  24.531  1.00  0.00     0.315 C 
ATOM     17  H   UNL A   1      29.448  24.362  25.124  1.00  0.00     0.166 HD
ATOM     18  O   UNL A   1      28.752  26.326  24.130  1.00  0.00    -0.249 OA
ATOM     19  N   UNL A   1      30.688  27.216  24.645  1.00  0.00    -0.333 N 
ATOM     20  H   UNL A   1      30.333  28.003  24.174  1.00  0.00     0.165 HD
BRANCH  19  21
ATOM     21  C   UNL A   1      31.952  27.473  25.318  1.00  0.00     0.112 C 
ATOM     22  C   UNL A   1      31.760  28.073  26.697  1.00  0.00     0.056 C 
ATOM     23  C   UNL A   1      32.854  28.494  24.624  1.00  0.00     0.185 C 
ATOM     24  C   UNL A   1      32.046  29.545  26.538  1.00  0.00     0.162 C 
ATOM     25  O   UNL A   1      32.886  29.700  25.398  1.00  0.00    -0.379 OA
ENDBRANCH  19  21
ENDBRANCH   8  15
ENDBRANCH   5   8
ENDBRANCH   3   4
ENDBRANCH   2   3
ENDBRANCH   1   2
BRANCH   1  26
ATOM     26  C   UNL A   1      36.334  20.963  25.374  1.00  0.00     0.002 C 
BRANCH  26  27
ATOM     27  C   UNL A   1      37.580  20.181  24.951  1.00  0.00     0.021 C 
BRANCH  27  28
ATOM     28  C   UNL A   1      38.827  20.516  25.750  1.00  0.00     0.116 C 
BRANCH  28  29
ATOM     29  N   UNL A   1      39.731  19.384  25.827  1.00  0.00    -0.352 N 
ATOM     30  C   UNL A   1      41.098  19.397  25.974  1.00  0.00     0.251 C 
ATOM     31  H   UNL A   1      39.313  18.494  25.767  1.00  0.00     0.163 HD
ATOM     32  O   UNL A   1      41.763  18.393  25.781  1.00  0.00    -0.269 OA
BRANCH  30  33
ATOM     33  C   UNL A   1      41.748  20.665  26.362  1.00  0.00     0.039 A 
ATOM     34  C   UNL A   1      42.103  21.586  25.374  1.00  0.00     0.014 A 
ATOM     35  C   UNL A   1      41.962  20.949  27.713  1.00  0.00     0.014 A 
ATOM     36  C   UNL A   1      42.628  22.825  25.749  1.00  0.00     0.010 A 
ATOM     37  C   UNL A   1      42.403  22.211  28.086  1.00  0.00     0.010 A 
ATOM     38  C   UNL A   1      42.753  23.155  27.108  1.00  0.00    -0.014 A 
BRANCH  38  39
ATOM     39  C   UNL A   1      43.283  24.465  27.557  1.00  0.00     0.031 A 
ATOM     40  C   UNL A   1      42.321  25.530  28.001  1.00  0.00     0.074 A 
ATOM     41  C   UNL A   1      44.598  24.734  27.460  1.00  0.00     0.049 A 
ATOM     42  N   UNL A   1      42.539  26.794  28.253  1.00  0.00    -0.248 NA
ATOM     43  C   UNL A   1      40.912  25.123  28.138  1.00  0.00     0.031 C 
ATOM     44  C   UNL A   1      45.626  23.792  27.016  1.00  0.00     0.029 A 
ATOM     45  N   UNL A   1      45.291  25.894  27.701  1.00  0.00    -0.354 N 
ATOM     46  C   UNL A   1      41.295  27.338  28.546  1.00  0.00     0.074 A 
ATOM     47  C   UNL A   1      40.321  26.280  28.388  1.00  0.00     0.031 C 
ATOM     48  C   UNL A   1      46.818  24.411  27.021  1.00  0.00     0.029 A 
ATOM     49  C   UNL A   1      46.631  25.803  27.418  1.00  0.00     0.049 A 
ATOM     50  H   UNL A   1      44.866  26.714  28.045  1.00  0.00     0.167 HD
ATOM     51  C   UNL A   1      40.994  28.602  28.927  1.00  0.00     0.037 A 
ATOM     52  C   UNL A   1      47.595  26.743  27.452  1.00  0.00     0.037 A 
ATOM     53  C   UNL A   1      41.975  29.638  29.105  1.00  0.00     0.049 A 
ATOM     54  C   UNL A   1      47.239  28.144  27.866  1.00  0.00     0.074 A 
ATOM     55  C   UNL A   1      41.786  30.935  29.548  1.00  0.00     0.029 A 
ATOM     56  N   UNL A   1      43.330  29.496  28.845  1.00  0.00    -0.354 N 
ATOM     57  N   UNL A   1      46.068  28.637  28.191  1.00  0.00    -0.248 NA
ATOM     58  C   UNL A   1      48.337  29.120  27.922  1.00  0.00     0.031 C 
ATOM     59  C   UNL A   1      43.019  31.594  29.501  1.00  0.00     0.029 A 
ATOM     60  C   UNL A   1      43.986  30.688  29.093  1.00  0.00     0.049 A 
ATOM     61  H   UNL A   1      43.761  28.668  28.529  1.00  0.00     0.167 HD
ATOM     62  C   UNL A   1      46.293  29.966  28.528  1.00  0.00     0.074 A 
ATOM     63  C   UNL A   1      47.712  30.204  28.364  1.00  0.00     0.031 C 
ATOM     64  C   UNL A   1      45.404  30.901  28.945  1.00  0.00     0.037 A 
BRANCH  51  65
ATOM     65  C   UNL A   1      39.547  28.928  29.160  1.00  0.00     0.057 A 
ATOM     66  C   UNL A   1      38.950  28.811  30.423  1.00  0.00     0.134 A 
ATOM     67  C   UNL A   1      38.739  29.372  28.105  1.00  0.00     0.134 A 
ATOM     68  F   UNL A   1      39.662  28.380  31.475  1.00  0.00    -0.206 F 
ATOM     69  C   UNL A   1      37.594  29.086  30.619  1.00  0.00     0.040 A 
ATOM     70  C   UNL A   1      37.392  29.683  28.296  1.00  0.00     0.040 A 
ATOM     71  F   UNL A   1      39.245  29.512  26.871  1.00  0.00    -0.206 F 
ATOM     72  C   UNL A   1      36.813  29.527  29.554  1.00  0.00     0.006 A 
ENDBRANCH  51  65
BRANCH  52  73
ATOM     73  C   UNL A   1      48.991  26.380  27.096  1.00  0.00     0.057 A 
ATOM     74  C   UNL A   1      49.889  25.929  28.069  1.00  0.00     0.134 A 
ATOM     75  C   UNL A   1      49.455  26.458  25.777  1.00  0.00     0.134 A 
ATOM     76  F   UNL A   1      49.508  25.848  29.353  1.00  0.00    -0.206 F 
ATOM     77  C   UNL A   1      51.202  25.580  27.749  1.00  0.00     0.040 A 
ATOM     78  C   UNL A   1      50.757  26.087  25.438  1.00  0.00     0.040 A 
ATOM     79  F   UNL A   1      48.641  26.872  24.795  1.00  0.00    -0.206 F 
ATOM     80  C   UNL A   1      51.637  25.652  26.427  1.00  0.00     0.006 A 
ENDBRANCH  52  73
BRANCH  64  81
ATOM     81  C   UNL A   1      45.937  32.254  29.315  1.00  0.00     0.057 A 
ATOM     82  C   UNL A   1      46.419  32.542  30.596  1.00  0.00     0.134 A 
ATOM     83  C   UNL A   1      46.045  33.258  28.341  1.00  0.00     0.134 A 
ATOM     84  F   UNL A   1      46.335  31.629  31.576  1.00  0.00    -0.206 F 
ATOM     85  C   UNL A   1      46.982  33.783  30.901  1.00  0.00     0.040 A 
ATOM     86  C   UNL A   1      46.631  34.491  28.626  1.00  0.00     0.040 A 
ATOM     87  F   UNL A   1      45.611  33.043  27.091  1.00  0.00    -0.206 F 
ATOM     88  C   UNL A   1      47.100  34.757  29.910  1.00  0.00     0.006 A 
ENDBRANCH  64  81
ENDBRANCH  38  39
ENDBRANCH  30  33
ENDBRANCH  28  29
ENDBRANCH  27  28
ENDBRANCH  26  27
ENDBRANCH   1  26
TORSDOF 15
ENDMDL
