MODEL 1
REMARK VINA RESULT:     -10.8      0.000      0.000
REMARK SMILES O=C(CCCN1C(=O)/C(=C/c2ccccc2Cl)SC1=S)Nc1cccc(C(=O)NCCCCCCNC(=O)c2ccc(-c3c4nc(c(-c5c(F)cccc5F)c5ccc([nH]5)c(-c5c(F)cccc5F)c5nc(c(-c6c(F)cccc6F)c6ccc3[nH]6)C=C5)C=C4)cc2)c1
REMARK SMILES IDX 30 1 29 2 27 3 28 4 26 6 22 7 23 8 93 9 24 10 25 11 21 12
REMARK SMILES IDX 1 13 2 14 3 16 4 17 5 18 6 19 7 20 19 21 8 22 9 23 18 24
REMARK SMILES IDX 20 25 10 26 11 27 12 28 16 29 13 30 15 31 17 32 14 33 31 34
REMARK SMILES IDX 32 35 33 36 34 37 35 38 36 39 37 40 38 42 39 43 40 44 92 45
REMARK SMILES IDX 41 46 91 47 42 48 43 49 44 50 85 51 45 52 90 53 84 54 86 55
REMARK SMILES IDX 46 56 89 57 83 58 82 59 47 61 73 62 56 63 72 64 57 65 60 66
REMARK SMILES IDX 71 67 87 68 58 69 59 70 70 72 88 73 61 74 48 75 49 76 54 77
REMARK SMILES IDX 50 78 51 79 53 80 55 81 52 82 74 83 75 84 80 85 76 86 77 87
REMARK SMILES IDX 79 88 81 89 78 90 62 91 63 92 68 93 64 94 65 95 67 96 69 97
REMARK SMILES IDX 66 98
REMARK H PARENT 29 5 21 15 36 41 86 60 60 71
REMARK Flexibility Score: inf
ROOT
ATOM      1  C   UNL A   1      40.414  29.294  28.314  1.00  0.00     0.116 C 
ENDROOT
BRANCH   1   2
ATOM      2  N   UNL A   1      39.732  28.605  29.402  1.00  0.00    -0.352 N 
ATOM      3  C   UNL A   1      38.460  28.771  29.914  1.00  0.00     0.251 C 
ATOM      4  O   UNL A   1      38.103  28.083  30.868  1.00  0.00    -0.269 OA
ATOM      5  H   UNL A   1      40.266  27.908  29.846  1.00  0.00     0.163 HD
BRANCH   3   6
ATOM      6  C   UNL A   1      37.543  29.819  29.390  1.00  0.00     0.041 A 
ATOM      7  C   UNL A   1      35.816  30.470  27.828  1.00  0.00     0.041 A 
ATOM      8  C   UNL A   1      36.138  31.813  28.044  1.00  0.00     0.026 A 
ATOM      9  C   UNL A   1      36.443  29.493  28.598  1.00  0.00     0.040 A 
ATOM     10  C   UNL A   1      37.112  32.162  28.984  1.00  0.00     0.003 A 
ATOM     11  C   UNL A   1      37.839  31.163  29.634  1.00  0.00     0.014 A 
BRANCH   7  12
ATOM     12  N   UNL A   1      34.983  30.154  26.732  1.00  0.00    -0.326 N 
ATOM     13  O   UNL A   1      32.912  30.904  27.488  1.00  0.00    -0.275 OA
ATOM     14  C   UNL A   1      33.607  30.276  26.692  1.00  0.00     0.224 C 
ATOM     15  H   UNL A   1      35.424  29.816  25.919  1.00  0.00     0.169 HD
BRANCH  14  16
ATOM     16  C   UNL A   1      32.931  29.435  25.630  1.00  0.00     0.102 C 
BRANCH  16  17
ATOM     17  C   UNL A   1      33.453  28.011  25.475  1.00  0.00     0.032 C 
BRANCH  17  18
ATOM     18  C   UNL A   1      32.872  27.187  24.314  1.00  0.00     0.128 C 
BRANCH  18  19
ATOM     19  N   UNL A   1      32.558  25.781  24.588  1.00  0.00    -0.293 N 
ATOM     20  C   UNL A   1      33.589  24.850  24.543  1.00  0.00     0.266 C 
ATOM     21  C   UNL A   1      31.290  25.257  24.761  1.00  0.00     0.148 C 
ATOM     22  O   UNL A   1      34.779  25.101  24.408  1.00  0.00    -0.268 OA
ATOM     23  C   UNL A   1      33.042  23.472  24.672  1.00  0.00     0.081 C 
ATOM     24  S   UNL A   1      31.415  23.564  25.216  1.00  0.00    -0.054 SA
ATOM     25  S   UNL A   1      29.813  26.009  24.597  1.00  0.00    -0.052 S 
ATOM     26  C   UNL A   1      33.729  22.373  24.324  1.00  0.00     0.031 C 
BRANCH  26  27
ATOM     27  C   UNL A   1      33.209  20.993  24.389  1.00  0.00    -0.006 A 
ATOM     28  C   UNL A   1      32.674  20.454  23.208  1.00  0.00     0.010 A 
ATOM     29  C   UNL A   1      33.228  20.189  25.544  1.00  0.00     0.048 A 
ATOM     30  C   UNL A   1      32.231  19.129  23.163  1.00  0.00     0.001 A 
ATOM     31  C   UNL A   1      32.813  18.853  25.486  1.00  0.00     0.021 A 
ATOM     32  Cl  UNL A   1      33.713  20.799  27.091  1.00  0.00    -0.084 Cl
ATOM     33  C   UNL A   1      32.323  18.324  24.295  1.00  0.00     0.002 A 
ENDBRANCH  26  27
ENDBRANCH  18  19
ENDBRANCH  17  18
ENDBRANCH  16  17
ENDBRANCH  14  16
ENDBRANCH   7  12
ENDBRANCH   3   6
ENDBRANCH   1   2
BRANCH   1  34
ATOM     34  C   UNL A   1      40.819  28.393  27.153  1.00  0.00     0.021 C 
BRANCH  34  35
ATOM     35  C   UNL A   1      40.912  26.898  27.456  1.00  0.00     0.002 C 
BRANCH  35  36
ATOM     36  C   UNL A   1      39.875  26.004  26.772  1.00  0.00     0.002 C 
BRANCH  36  37
ATOM     37  C   UNL A   1      39.574  24.669  27.458  1.00  0.00     0.021 C 
BRANCH  37  38
ATOM     38  C   UNL A   1      40.780  23.933  28.036  1.00  0.00     0.116 C 
BRANCH  38  39
ATOM     39  N   UNL A   1      41.388  23.013  27.089  1.00  0.00    -0.352 N 
ATOM     40  C   UNL A   1      42.477  23.186  26.267  1.00  0.00     0.251 C 
ATOM     41  H   UNL A   1      40.955  22.131  27.027  1.00  0.00     0.163 HD
ATOM     42  O   UNL A   1      42.755  22.343  25.424  1.00  0.00    -0.269 OA
BRANCH  40  43
ATOM     43  C   UNL A   1      43.299  24.410  26.380  1.00  0.00     0.039 A 
ATOM     44  C   UNL A   1      43.922  24.694  27.598  1.00  0.00     0.014 A 
ATOM     45  C   UNL A   1      43.465  25.269  25.290  1.00  0.00     0.014 A 
ATOM     46  C   UNL A   1      44.786  25.787  27.697  1.00  0.00     0.010 A 
ATOM     47  C   UNL A   1      44.377  26.318  25.370  1.00  0.00     0.010 A 
ATOM     48  C   UNL A   1      45.059  26.577  26.570  1.00  0.00    -0.014 A 
BRANCH  48  49
ATOM     49  C   UNL A   1      46.093  27.641  26.602  1.00  0.00     0.031 A 
ATOM     50  C   UNL A   1      45.701  29.085  26.709  1.00  0.00     0.074 A 
ATOM     51  C   UNL A   1      47.389  27.305  26.449  1.00  0.00     0.049 A 
ATOM     52  N   UNL A   1      46.455  30.154  26.658  1.00  0.00    -0.248 NA
ATOM     53  C   UNL A   1      44.267  29.367  26.873  1.00  0.00     0.031 C 
ATOM     54  C   UNL A   1      47.896  25.939  26.306  1.00  0.00     0.029 A 
ATOM     55  N   UNL A   1      48.515  28.087  26.373  1.00  0.00    -0.354 N 
ATOM     56  C   UNL A   1      45.591  31.233  26.778  1.00  0.00     0.074 A 
ATOM     57  C   UNL A   1      44.250  30.692  26.848  1.00  0.00     0.031 C 
ATOM     58  C   UNL A   1      49.233  25.977  26.185  1.00  0.00     0.029 A 
ATOM     59  C   UNL A   1      49.671  27.369  26.189  1.00  0.00     0.049 A 
ATOM     60  H   UNL A   1      48.495  29.068  26.443  1.00  0.00     0.167 HD
ATOM     61  C   UNL A   1      45.888  32.554  26.842  1.00  0.00     0.037 A 
ATOM     62  C   UNL A   1      50.942  27.784  26.028  1.00  0.00     0.037 A 
ATOM     63  C   UNL A   1      47.224  33.088  26.767  1.00  0.00     0.049 A 
ATOM     64  C   UNL A   1      51.240  29.257  26.033  1.00  0.00     0.074 A 
ATOM     65  C   UNL A   1      47.634  34.405  26.870  1.00  0.00     0.029 A 
ATOM     66  N   UNL A   1      48.367  32.330  26.553  1.00  0.00    -0.354 N 
ATOM     67  N   UNL A   1      50.421  30.265  26.211  1.00  0.00    -0.248 NA
ATOM     68  C   UNL A   1      52.638  29.650  25.807  1.00  0.00     0.031 C 
ATOM     69  C   UNL A   1      49.017  34.451  26.661  1.00  0.00     0.029 A 
ATOM     70  C   UNL A   1      49.478  33.157  26.483  1.00  0.00     0.049 A 
ATOM     71  H   UNL A   1      48.386  31.350  26.463  1.00  0.00     0.167 HD
ATOM     72  C   UNL A   1      51.205  31.409  26.143  1.00  0.00     0.074 A 
ATOM     73  C   UNL A   1      52.567  30.969  25.921  1.00  0.00     0.031 C 
ATOM     74  C   UNL A   1      50.829  32.706  26.257  1.00  0.00     0.037 A 
BRANCH  61  75
ATOM     75  C   UNL A   1      44.738  33.509  26.990  1.00  0.00     0.057 A 
ATOM     76  C   UNL A   1      44.090  34.064  25.877  1.00  0.00     0.134 A 
ATOM     77  C   UNL A   1      44.264  33.872  28.257  1.00  0.00     0.134 A 
ATOM     78  F   UNL A   1      44.497  33.766  24.634  1.00  0.00    -0.206 F 
ATOM     79  C   UNL A   1      43.042  34.977  26.020  1.00  0.00     0.040 A 
ATOM     80  C   UNL A   1      43.198  34.760  28.412  1.00  0.00     0.040 A 
ATOM     81  F   UNL A   1      44.829  33.371  29.366  1.00  0.00    -0.206 F 
ATOM     82  C   UNL A   1      42.591  35.324  27.292  1.00  0.00     0.006 A 
ENDBRANCH  61  75
BRANCH  62  83
ATOM     83  C   UNL A   1      52.031  26.788  25.869  1.00  0.00     0.057 A 
ATOM     84  C   UNL A   1      52.356  26.277  24.607  1.00  0.00     0.134 A 
ATOM     85  C   UNL A   1      52.779  26.333  26.961  1.00  0.00     0.134 A 
ATOM     86  F   UNL A   1      51.661  26.660  23.526  1.00  0.00    -0.206 F 
ATOM     87  C   UNL A   1      53.379  25.345  24.438  1.00  0.00     0.040 A 
ATOM     88  C   UNL A   1      53.822  25.419  26.802  1.00  0.00     0.040 A 
ATOM     89  F   UNL A   1      52.521  26.788  28.196  1.00  0.00    -0.206 F 
ATOM     90  C   UNL A   1      54.121  24.918  25.536  1.00  0.00     0.006 A 
ENDBRANCH  62  83
BRANCH  74  91
ATOM     91  C   UNL A   1      51.908  33.746  26.163  1.00  0.00     0.057 A 
ATOM     92  C   UNL A   1      52.606  34.191  27.294  1.00  0.00     0.134 A 
ATOM     93  C   UNL A   1      52.286  34.274  24.921  1.00  0.00     0.134 A 
ATOM     94  F   UNL A   1      52.283  33.738  28.514  1.00  0.00    -0.206 F 
ATOM     95  C   UNL A   1      53.631  35.135  27.194  1.00  0.00     0.040 A 
ATOM     96  C   UNL A   1      53.326  35.197  24.806  1.00  0.00     0.040 A 
ATOM     97  F   UNL A   1      51.663  33.886  23.798  1.00  0.00    -0.206 F 
ATOM     98  C   UNL A   1      53.999  35.632  25.945  1.00  0.00     0.006 A 
ENDBRANCH  74  91
ENDBRANCH  48  49
ENDBRANCH  40  43
ENDBRANCH  38  39
ENDBRANCH  37  38
ENDBRANCH  36  37
ENDBRANCH  35  36
ENDBRANCH  34  35
ENDBRANCH   1  34
TORSDOF 19
ENDMDL
MODEL 2
REMARK VINA RESULT:     -10.7      6.139     13.103
REMARK SMILES O=C(CCCN1C(=O)/C(=C/c2ccccc2Cl)SC1=S)Nc1cccc(C(=O)NCCCCCCNC(=O)c2ccc(-c3c4nc(c(-c5c(F)cccc5F)c5ccc([nH]5)c(-c5c(F)cccc5F)c5nc(c(-c6c(F)cccc6F)c6ccc3[nH]6)C=C5)C=C4)cc2)c1
REMARK SMILES IDX 30 1 29 2 27 3 28 4 26 6 22 7 23 8 93 9 24 10 25 11 21 12
REMARK SMILES IDX 1 13 2 14 3 16 4 17 5 18 6 19 7 20 19 21 8 22 9 23 18 24
REMARK SMILES IDX 20 25 10 26 11 27 12 28 16 29 13 30 15 31 17 32 14 33 31 34
REMARK SMILES IDX 32 35 33 36 34 37 35 38 36 39 37 40 38 42 39 43 40 44 92 45
REMARK SMILES IDX 41 46 91 47 42 48 43 49 44 50 85 51 45 52 90 53 84 54 86 55
REMARK SMILES IDX 46 56 89 57 83 58 82 59 47 61 73 62 56 63 72 64 57 65 60 66
REMARK SMILES IDX 71 67 87 68 58 69 59 70 70 72 88 73 61 74 48 75 49 76 54 77
REMARK SMILES IDX 50 78 51 79 53 80 55 81 52 82 74 83 75 84 80 85 76 86 77 87
REMARK SMILES IDX 79 88 81 89 78 90 62 91 63 92 68 93 64 94 65 95 67 96 69 97
REMARK SMILES IDX 66 98
REMARK H PARENT 29 5 21 15 36 41 86 60 60 71
REMARK Flexibility Score: inf
ROOT
ATOM      1  C   UNL A   1      46.279  25.528  27.796  1.00  0.00     0.116 C 
ENDROOT
BRANCH   1   2
ATOM      2  N   UNL A   1      46.765  25.717  26.435  1.00  0.00    -0.352 N 
ATOM      3  C   UNL A   1      46.357  26.593  25.447  1.00  0.00     0.251 C 
ATOM      4  O   UNL A   1      46.906  26.554  24.348  1.00  0.00    -0.269 OA
ATOM      5  H   UNL A   1      47.505  25.122  26.176  1.00  0.00     0.163 HD
BRANCH   3   6
ATOM      6  C   UNL A   1      45.216  27.524  25.659  1.00  0.00     0.041 A 
ATOM      7  C   UNL A   1      44.282  29.429  26.818  1.00  0.00     0.041 A 
ATOM      8  C   UNL A   1      42.999  29.011  26.454  1.00  0.00     0.026 A 
ATOM      9  C   UNL A   1      45.384  28.744  26.311  1.00  0.00     0.040 A 
ATOM     10  C   UNL A   1      42.828  27.891  25.634  1.00  0.00     0.003 A 
ATOM     11  C   UNL A   1      43.936  27.127  25.264  1.00  0.00     0.014 A 
BRANCH   7  12
ATOM     12  N   UNL A   1      44.399  30.430  27.807  1.00  0.00    -0.326 N 
ATOM     13  O   UNL A   1      44.275  32.370  26.525  1.00  0.00    -0.275 OA
ATOM     14  C   UNL A   1      44.511  31.789  27.582  1.00  0.00     0.224 C 
ATOM     15  H   UNL A   1      44.402  30.132  28.746  1.00  0.00     0.169 HD
BRANCH  14  16
ATOM     16  C   UNL A   1      45.104  32.571  28.734  1.00  0.00     0.102 C 
BRANCH  16  17
ATOM     17  C   UNL A   1      44.469  33.928  29.015  1.00  0.00     0.032 C 
BRANCH  17  18
ATOM     18  C   UNL A   1      44.960  35.110  28.161  1.00  0.00     0.128 C 
BRANCH  18  19
ATOM     19  N   UNL A   1      44.411  36.432  28.477  1.00  0.00    -0.293 N 
ATOM     20  C   UNL A   1      45.163  37.291  29.270  1.00  0.00     0.266 C 
ATOM     21  C   UNL A   1      43.136  36.871  28.168  1.00  0.00     0.148 C 
ATOM     22  O   UNL A   1      46.311  37.100  29.649  1.00  0.00    -0.268 OA
ATOM     23  C   UNL A   1      44.364  38.498  29.620  1.00  0.00     0.081 C 
ATOM     24  S   UNL A   1      42.980  38.565  28.605  1.00  0.00    -0.054 SA
ATOM     25  S   UNL A   1      41.873  36.025  27.487  1.00  0.00    -0.052 S 
ATOM     26  C   UNL A   1      44.681  39.321  30.631  1.00  0.00     0.031 C 
BRANCH  26  27
ATOM     27  C   UNL A   1      43.893  40.499  31.042  1.00  0.00    -0.006 A 
ATOM     28  C   UNL A   1      43.132  40.383  32.217  1.00  0.00     0.010 A 
ATOM     29  C   UNL A   1      43.867  41.722  30.345  1.00  0.00     0.048 A 
ATOM     30  C   UNL A   1      42.419  41.475  32.718  1.00  0.00     0.001 A 
ATOM     31  C   UNL A   1      43.177  42.822  30.867  1.00  0.00     0.021 A 
ATOM     32  Cl  UNL A   1      44.633  41.928  28.806  1.00  0.00    -0.084 Cl
ATOM     33  C   UNL A   1      42.461  42.700  32.056  1.00  0.00     0.002 A 
ENDBRANCH  26  27
ENDBRANCH  18  19
ENDBRANCH  17  18
ENDBRANCH  16  17
ENDBRANCH  14  16
ENDBRANCH   7  12
ENDBRANCH   3   6
ENDBRANCH   1   2
BRANCH   1  34
ATOM     34  C   UNL A   1      45.629  24.172  28.049  1.00  0.00     0.021 C 
BRANCH  34  35
ATOM     35  C   UNL A   1      44.881  23.547  26.873  1.00  0.00     0.002 C 
BRANCH  35  36
ATOM     36  C   UNL A   1      43.354  23.634  26.920  1.00  0.00     0.002 C 
BRANCH  36  37
ATOM     37  C   UNL A   1      42.589  22.455  26.312  1.00  0.00     0.021 C 
BRANCH  37  38
ATOM     38  C   UNL A   1      41.443  21.903  27.155  1.00  0.00     0.116 C 
BRANCH  38  39
ATOM     39  N   UNL A   1      40.179  21.867  26.436  1.00  0.00    -0.352 N 
ATOM     40  C   UNL A   1      39.183  22.812  26.355  1.00  0.00     0.251 C 
ATOM     41  H   UNL A   1      40.011  21.040  25.928  1.00  0.00     0.163 HD
ATOM     42  O   UNL A   1      38.117  22.543  25.816  1.00  0.00    -0.269 OA
BRANCH  40  43
ATOM     43  C   UNL A   1      39.387  24.151  26.949  1.00  0.00     0.039 A 
ATOM     44  C   UNL A   1      38.949  24.383  28.256  1.00  0.00     0.014 A 
ATOM     45  C   UNL A   1      40.016  25.170  26.228  1.00  0.00     0.014 A 
ATOM     46  C   UNL A   1      39.225  25.605  28.873  1.00  0.00     0.010 A 
ATOM     47  C   UNL A   1      40.349  26.362  26.866  1.00  0.00     0.010 A 
ATOM     48  C   UNL A   1      39.971  26.585  28.199  1.00  0.00    -0.014 A 
BRANCH  48  49
ATOM     49  C   UNL A   1      40.419  27.823  28.885  1.00  0.00     0.031 A 
ATOM     50  C   UNL A   1      41.805  27.924  29.451  1.00  0.00     0.074 A 
ATOM     51  C   UNL A   1      39.541  28.828  29.070  1.00  0.00     0.049 A 
ATOM     52  N   UNL A   1      42.341  28.885  30.161  1.00  0.00    -0.248 NA
ATOM     53  C   UNL A   1      42.701  26.785  29.206  1.00  0.00     0.031 C 
ATOM     54  C   UNL A   1      38.157  28.839  28.593  1.00  0.00     0.029 A 
ATOM     55  N   UNL A   1      39.677  30.028  29.721  1.00  0.00    -0.354 N 
ATOM     56  C   UNL A   1      43.632  28.465  30.452  1.00  0.00     0.074 A 
ATOM     57  C   UNL A   1      43.779  27.140  29.889  1.00  0.00     0.031 C 
ATOM     58  C   UNL A   1      37.580  29.999  28.946  1.00  0.00     0.029 A 
ATOM     59  C   UNL A   1      38.534  30.789  29.716  1.00  0.00     0.049 A 
ATOM     60  H   UNL A   1      40.514  30.316  30.151  1.00  0.00     0.167 HD
ATOM     61  C   UNL A   1      44.611  29.131  31.112  1.00  0.00     0.037 A 
ATOM     62  C   UNL A   1      38.276  31.984  30.282  1.00  0.00     0.037 A 
ATOM     63  C   UNL A   1      44.457  30.447  31.674  1.00  0.00     0.049 A 
ATOM     64  C   UNL A   1      39.356  32.673  31.068  1.00  0.00     0.074 A 
ATOM     65  C   UNL A   1      45.401  31.226  32.319  1.00  0.00     0.029 A 
ATOM     66  N   UNL A   1      43.274  31.175  31.673  1.00  0.00    -0.354 N 
ATOM     67  N   UNL A   1      40.592  32.295  31.281  1.00  0.00    -0.248 NA
ATOM     68  C   UNL A   1      39.001  33.952  31.698  1.00  0.00     0.031 C 
ATOM     69  C   UNL A   1      44.776  32.399  32.759  1.00  0.00     0.029 A 
ATOM     70  C   UNL A   1      43.456  32.377  32.339  1.00  0.00     0.049 A 
ATOM     71  H   UNL A   1      42.431  30.879  31.260  1.00  0.00     0.167 HD
ATOM     72  C   UNL A   1      41.170  33.297  32.049  1.00  0.00     0.074 A 
ATOM     73  C   UNL A   1      40.152  34.307  32.252  1.00  0.00     0.031 C 
ATOM     74  C   UNL A   1      42.432  33.373  32.539  1.00  0.00     0.037 A 
BRANCH  61  75
ATOM     75  C   UNL A   1      45.931  28.430  31.267  1.00  0.00     0.057 A 
ATOM     76  C   UNL A   1      46.979  28.617  30.355  1.00  0.00     0.134 A 
ATOM     77  C   UNL A   1      46.163  27.567  32.346  1.00  0.00     0.134 A 
ATOM     78  F   UNL A   1      46.823  29.423  29.295  1.00  0.00    -0.206 F 
ATOM     79  C   UNL A   1      48.193  27.938  30.486  1.00  0.00     0.040 A 
ATOM     80  C   UNL A   1      47.383  26.907  32.505  1.00  0.00     0.040 A 
ATOM     81  F   UNL A   1      45.209  27.350  33.264  1.00  0.00    -0.206 F 
ATOM     82  C   UNL A   1      48.398  27.082  31.566  1.00  0.00     0.006 A 
ENDBRANCH  61  75
BRANCH  62  83
ATOM     83  C   UNL A   1      36.944  32.614  30.104  1.00  0.00     0.057 A 
ATOM     84  C   UNL A   1      35.885  32.303  30.965  1.00  0.00     0.134 A 
ATOM     85  C   UNL A   1      36.698  33.546  29.089  1.00  0.00     0.134 A 
ATOM     86  F   UNL A   1      36.054  31.403  31.944  1.00  0.00    -0.206 F 
ATOM     87  C   UNL A   1      34.627  32.888  30.817  1.00  0.00     0.040 A 
ATOM     88  C   UNL A   1      35.451  34.157  28.946  1.00  0.00     0.040 A 
ATOM     89  F   UNL A   1      37.672  33.891  28.235  1.00  0.00    -0.206 F 
ATOM     90  C   UNL A   1      34.409  33.825  29.810  1.00  0.00     0.006 A 
ENDBRANCH  62  83
BRANCH  74  91
ATOM     91  C   UNL A   1      42.791  34.599  33.326  1.00  0.00     0.057 A 
ATOM     92  C   UNL A   1      42.807  34.600  34.727  1.00  0.00     0.134 A 
ATOM     93  C   UNL A   1      43.173  35.780  32.675  1.00  0.00     0.134 A 
ATOM     94  F   UNL A   1      42.437  33.508  35.412  1.00  0.00    -0.206 F 
ATOM     95  C   UNL A   1      43.174  35.737  35.452  1.00  0.00     0.040 A 
ATOM     96  C   UNL A   1      43.568  36.913  33.388  1.00  0.00     0.040 A 
ATOM     97  F   UNL A   1      43.187  35.845  31.335  1.00  0.00    -0.206 F 
ATOM     98  C   UNL A   1      43.565  36.894  34.781  1.00  0.00     0.006 A 
ENDBRANCH  74  91
ENDBRANCH  48  49
ENDBRANCH  40  43
ENDBRANCH  38  39
ENDBRANCH  37  38
ENDBRANCH  36  37
ENDBRANCH  35  36
ENDBRANCH  34  35
ENDBRANCH   1  34
TORSDOF 19
ENDMDL
MODEL 3
REMARK VINA RESULT:     -10.7      1.255      5.927
REMARK SMILES O=C(CCCN1C(=O)/C(=C/c2ccccc2Cl)SC1=S)Nc1cccc(C(=O)NCCCCCCNC(=O)c2ccc(-c3c4nc(c(-c5c(F)cccc5F)c5ccc([nH]5)c(-c5c(F)cccc5F)c5nc(c(-c6c(F)cccc6F)c6ccc3[nH]6)C=C5)C=C4)cc2)c1
REMARK SMILES IDX 30 1 29 2 27 3 28 4 26 6 22 7 23 8 93 9 24 10 25 11 21 12
REMARK SMILES IDX 1 13 2 14 3 16 4 17 5 18 6 19 7 20 19 21 8 22 9 23 18 24
REMARK SMILES IDX 20 25 10 26 11 27 12 28 16 29 13 30 15 31 17 32 14 33 31 34
REMARK SMILES IDX 32 35 33 36 34 37 35 38 36 39 37 40 38 42 39 43 40 44 92 45
REMARK SMILES IDX 41 46 91 47 42 48 43 49 44 50 85 51 45 52 90 53 84 54 86 55
REMARK SMILES IDX 46 56 89 57 83 58 82 59 47 61 73 62 56 63 72 64 57 65 60 66
REMARK SMILES IDX 71 67 87 68 58 69 59 70 70 72 88 73 61 74 48 75 49 76 54 77
REMARK SMILES IDX 50 78 51 79 53 80 55 81 52 82 74 83 75 84 80 85 76 86 77 87
REMARK SMILES IDX 79 88 81 89 78 90 62 91 63 92 68 93 64 94 65 95 67 96 69 97
REMARK SMILES IDX 66 98
REMARK H PARENT 29 5 21 15 36 41 86 60 60 71
REMARK Flexibility Score: inf
ROOT
ATOM      1  C   UNL A   1      39.027  27.173  30.148  1.00  0.00     0.116 C 
ENDROOT
BRANCH   1   2
ATOM      2  N   UNL A   1      38.493  27.472  31.470  1.00  0.00    -0.352 N 
ATOM      3  C   UNL A   1      37.796  28.573  31.931  1.00  0.00     0.251 C 
ATOM      4  O   UNL A   1      37.463  28.620  33.113  1.00  0.00    -0.269 OA
ATOM      5  H   UNL A   1      38.655  26.777  32.147  1.00  0.00     0.163 HD
BRANCH   3   6
ATOM      6  C   UNL A   1      37.513  29.737  31.048  1.00  0.00     0.041 A 
ATOM      7  C   UNL A   1      36.219  30.711  29.253  1.00  0.00     0.041 A 
ATOM      8  C   UNL A   1      37.220  31.667  29.061  1.00  0.00     0.026 A 
ATOM      9  C   UNL A   1      36.323  29.831  30.328  1.00  0.00     0.040 A 
ATOM     10  C   UNL A   1      38.333  31.702  29.906  1.00  0.00     0.003 A 
ATOM     11  C   UNL A   1      38.497  30.716  30.880  1.00  0.00     0.014 A 
BRANCH   7  12
ATOM     12  N   UNL A   1      35.225  30.580  28.258  1.00  0.00    -0.326 N 
ATOM     13  O   UNL A   1      34.085  32.600  28.470  1.00  0.00    -0.275 OA
ATOM     14  C   UNL A   1      34.181  31.456  28.030  1.00  0.00     0.224 C 
ATOM     15  H   UNL A   1      35.281  29.791  27.672  1.00  0.00     0.169 HD
BRANCH  14  16
ATOM     16  C   UNL A   1      33.015  30.861  27.271  1.00  0.00     0.102 C 
BRANCH  16  17
ATOM     17  C   UNL A   1      33.305  29.576  26.504  1.00  0.00     0.032 C 
BRANCH  17  18
ATOM     18  C   UNL A   1      32.152  28.997  25.666  1.00  0.00     0.128 C 
BRANCH  18  19
ATOM     19  N   UNL A   1      32.295  27.614  25.202  1.00  0.00    -0.293 N 
ATOM     20  C   UNL A   1      31.953  26.583  26.070  1.00  0.00     0.266 C 
ATOM     21  C   UNL A   1      32.873  27.219  24.010  1.00  0.00     0.148 C 
ATOM     22  O   UNL A   1      31.424  26.713  27.167  1.00  0.00    -0.268 OA
ATOM     23  C   UNL A   1      32.334  25.270  25.484  1.00  0.00     0.081 C 
ATOM     24  S   UNL A   1      32.686  25.483  23.816  1.00  0.00    -0.054 SA
ATOM     25  S   UNL A   1      33.647  28.146  22.863  1.00  0.00    -0.052 S 
ATOM     26  C   UNL A   1      32.449  24.146  26.209  1.00  0.00     0.031 C 
BRANCH  26  27
ATOM     27  C   UNL A   1      32.871  22.836  25.678  1.00  0.00    -0.006 A 
ATOM     28  C   UNL A   1      31.859  21.956  25.264  1.00  0.00     0.010 A 
ATOM     29  C   UNL A   1      34.212  22.423  25.551  1.00  0.00     0.048 A 
ATOM     30  C   UNL A   1      32.174  20.727  24.678  1.00  0.00     0.001 A 
ATOM     31  C   UNL A   1      34.524  21.205  24.936  1.00  0.00     0.021 A 
ATOM     32  Cl  UNL A   1      35.532  23.353  26.176  1.00  0.00    -0.084 Cl
ATOM     33  C   UNL A   1      33.506  20.363  24.493  1.00  0.00     0.002 A 
ENDBRANCH  26  27
ENDBRANCH  18  19
ENDBRANCH  17  18
ENDBRANCH  16  17
ENDBRANCH  14  16
ENDBRANCH   7  12
ENDBRANCH   3   6
ENDBRANCH   1   2
BRANCH   1  34
ATOM     34  C   UNL A   1      40.457  27.654  29.923  1.00  0.00     0.021 C 
BRANCH  34  35
ATOM     35  C   UNL A   1      40.717  28.428  28.632  1.00  0.00     0.002 C 
BRANCH  35  36
ATOM     36  C   UNL A   1      40.858  27.591  27.358  1.00  0.00     0.002 C 
BRANCH  36  37
ATOM     37  C   UNL A   1      39.947  26.366  27.248  1.00  0.00     0.021 C 
BRANCH  37  38
ATOM     38  C   UNL A   1      40.238  25.426  26.081  1.00  0.00     0.116 C 
BRANCH  38  39
ATOM     39  N   UNL A   1      40.688  24.112  26.511  1.00  0.00    -0.352 N 
ATOM     40  C   UNL A   1      41.963  23.640  26.716  1.00  0.00     0.251 C 
ATOM     41  H   UNL A   1      39.969  23.461  26.684  1.00  0.00     0.163 HD
ATOM     42  O   UNL A   1      42.154  22.451  26.938  1.00  0.00    -0.269 OA
BRANCH  40  43
ATOM     43  C   UNL A   1      43.113  24.565  26.636  1.00  0.00     0.039 A 
ATOM     44  C   UNL A   1      43.614  24.912  25.378  1.00  0.00     0.014 A 
ATOM     45  C   UNL A   1      43.690  25.098  27.792  1.00  0.00     0.014 A 
ATOM     46  C   UNL A   1      44.631  25.864  25.274  1.00  0.00     0.010 A 
ATOM     47  C   UNL A   1      44.657  26.095  27.685  1.00  0.00     0.010 A 
ATOM     48  C   UNL A   1      45.123  26.500  26.425  1.00  0.00    -0.014 A 
BRANCH  48  49
ATOM     49  C   UNL A   1      46.083  27.629  26.333  1.00  0.00     0.031 A 
ATOM     50  C   UNL A   1      47.556  27.371  26.202  1.00  0.00     0.074 A 
ATOM     51  C   UNL A   1      45.630  28.891  26.455  1.00  0.00     0.049 A 
ATOM     52  N   UNL A   1      48.549  28.223  26.203  1.00  0.00    -0.248 NA
ATOM     53  C   UNL A   1      47.968  25.965  26.075  1.00  0.00     0.031 C 
ATOM     54  C   UNL A   1      44.226  29.272  26.617  1.00  0.00     0.029 A 
ATOM     55  N   UNL A   1      46.303  30.087  26.477  1.00  0.00    -0.354 N 
ATOM     56  C   UNL A   1      49.703  27.460  26.083  1.00  0.00     0.074 A 
ATOM     57  C   UNL A   1      49.289  26.073  26.068  1.00  0.00     0.031 C 
ATOM     58  C   UNL A   1      44.139  30.610  26.696  1.00  0.00     0.029 A 
ATOM     59  C   UNL A   1      45.483  31.177  26.643  1.00  0.00     0.049 A 
ATOM     60  H   UNL A   1      47.280  30.157  26.383  1.00  0.00     0.167 HD
ATOM     61  C   UNL A   1      50.988  27.879  25.977  1.00  0.00     0.037 A 
ATOM     62  C   UNL A   1      45.779  32.485  26.755  1.00  0.00     0.037 A 
ATOM     63  C   UNL A   1      51.394  29.260  25.997  1.00  0.00     0.049 A 
ATOM     64  C   UNL A   1      47.217  32.920  26.704  1.00  0.00     0.074 A 
ATOM     65  C   UNL A   1      52.664  29.789  25.849  1.00  0.00     0.029 A 
ATOM     66  N   UNL A   1      50.536  30.333  26.195  1.00  0.00    -0.354 N 
ATOM     67  N   UNL A   1      48.294  32.195  26.525  1.00  0.00    -0.248 NA
ATOM     68  C   UNL A   1      47.480  34.355  26.876  1.00  0.00     0.031 C 
ATOM     69  C   UNL A   1      52.583  31.176  26.014  1.00  0.00     0.029 A 
ATOM     70  C   UNL A   1      51.255  31.519  26.210  1.00  0.00     0.049 A 
ATOM     71  H   UNL A   1      49.561  30.263  26.308  1.00  0.00     0.167 HD
ATOM     72  C   UNL A   1      49.360  33.084  26.541  1.00  0.00     0.074 A 
ATOM     73  C   UNL A   1      48.797  34.406  26.732  1.00  0.00     0.031 C 
ATOM     74  C   UNL A   1      50.684  32.829  26.406  1.00  0.00     0.037 A 
BRANCH  61  75
ATOM     75  C   UNL A   1      52.044  26.819  25.840  1.00  0.00     0.057 A 
ATOM     76  C   UNL A   1      52.382  26.266  24.597  1.00  0.00     0.134 A 
ATOM     77  C   UNL A   1      52.740  26.350  26.963  1.00  0.00     0.134 A 
ATOM     78  F   UNL A   1      51.750  26.663  23.482  1.00  0.00    -0.206 F 
ATOM     79  C   UNL A   1      53.341  25.258  24.480  1.00  0.00     0.040 A 
ATOM     80  C   UNL A   1      53.723  25.364  26.855  1.00  0.00     0.040 A 
ATOM     81  F   UNL A   1      52.476  26.842  28.183  1.00  0.00    -0.206 F 
ATOM     82  C   UNL A   1      54.018  24.807  25.612  1.00  0.00     0.006 A 
ENDBRANCH  61  75
BRANCH  62  83
ATOM     83  C   UNL A   1      44.688  33.480  26.905  1.00  0.00     0.057 A 
ATOM     84  C   UNL A   1      44.084  34.055  25.781  1.00  0.00     0.134 A 
ATOM     85  C   UNL A   1      44.213  33.870  28.162  1.00  0.00     0.134 A 
ATOM     86  F   UNL A   1      44.509  33.736  24.550  1.00  0.00    -0.206 F 
ATOM     87  C   UNL A   1      43.053  34.988  25.902  1.00  0.00     0.040 A 
ATOM     88  C   UNL A   1      43.166  34.784  28.297  1.00  0.00     0.040 A 
ATOM     89  F   UNL A   1      44.746  33.352  29.279  1.00  0.00    -0.206 F 
ATOM     90  C   UNL A   1      42.586  35.349  27.163  1.00  0.00     0.006 A 
ENDBRANCH  62  83
BRANCH  74  91
ATOM     91  C   UNL A   1      51.618  34.003  26.440  1.00  0.00     0.057 A 
ATOM     92  C   UNL A   1      52.226  34.430  27.628  1.00  0.00     0.134 A 
ATOM     93  C   UNL A   1      51.952  34.685  25.262  1.00  0.00     0.134 A 
ATOM     94  F   UNL A   1      51.938  33.832  28.793  1.00  0.00    -0.206 F 
ATOM     95  C   UNL A   1      53.119  35.504  27.645  1.00  0.00     0.040 A 
ATOM     96  C   UNL A   1      52.864  35.741  25.262  1.00  0.00     0.040 A 
ATOM     97  F   UNL A   1      51.411  34.323  24.089  1.00  0.00    -0.206 F 
ATOM     98  C   UNL A   1      53.447  36.155  26.458  1.00  0.00     0.006 A 
ENDBRANCH  74  91
ENDBRANCH  48  49
ENDBRANCH  40  43
ENDBRANCH  38  39
ENDBRANCH  37  38
ENDBRANCH  36  37
ENDBRANCH  35  36
ENDBRANCH  34  35
ENDBRANCH   1  34
TORSDOF 19
ENDMDL
