MODEL 1
REMARK VINA RESULT:     -12.1      0.000      0.000
REMARK SMILES O=C(NCCCCCCNC(=O)[C@H]1CCCCN1C(=O)c1cn2ccccc2n1)c1ccc(-c2c3nc(c(-c4c(F)cccc4F)c4ccc([nH]4)c(-c4c(F)cccc4F)c4nc(c(-c5c(F)cccc5F)c5ccc2[nH]5)C=C4)C=C3)cc1
REMARK SMILES IDX 6 1 5 2 4 3 3 4 1 5 2 6 30 8 31 9 83 10 32 11 82 12 33 13
REMARK SMILES IDX 34 14 35 15 76 16 36 17 81 18 75 19 77 20 37 21 80 22 74 23
REMARK SMILES IDX 73 24 38 26 64 27 47 28 63 29 48 30 51 31 62 32 78 33 49 34
REMARK SMILES IDX 50 35 61 37 79 38 52 39 39 40 40 41 45 42 41 43 42 44 44 45
REMARK SMILES IDX 46 46 43 47 65 48 66 49 71 50 67 51 68 52 70 53 72 54 69 55
REMARK SMILES IDX 53 56 54 57 59 58 55 59 56 60 58 61 60 62 57 63 7 64 8 65
REMARK SMILES IDX 9 66 10 67 11 68 12 70 13 71 14 72 18 73 15 74 17 75 16 76
REMARK SMILES IDX 19 77 20 78 21 79 22 80 29 81 23 82 28 83 24 84 27 85 25 86
REMARK SMILES IDX 26 87
REMARK H PARENT 3 7 77 25 51 36 10 69
REMARK Flexibility Score: inf
ROOT
ATOM      1  C   UNL A   1      37.021  20.513  24.948  1.00  0.00     0.002 C 
ENDROOT
BRANCH   1   2
ATOM      2  C   UNL A   1      38.200  19.541  24.932  1.00  0.00     0.021 C 
BRANCH   2   3
ATOM      3  C   UNL A   1      39.241  19.758  26.022  1.00  0.00     0.116 C 
BRANCH   3   4
ATOM      4  N   UNL A   1      40.368  18.844  25.929  1.00  0.00    -0.352 N 
ATOM      5  O   UNL A   1      42.540  18.243  25.822  1.00  0.00    -0.269 OA
ATOM      6  C   UNL A   1      41.710  19.115  26.041  1.00  0.00     0.251 C 
ATOM      7  H   UNL A   1      40.137  17.902  25.762  1.00  0.00     0.163 HD
BRANCH   6   8
ATOM      8  C   UNL A   1      42.151  20.482  26.400  1.00  0.00     0.039 A 
ATOM      9  C   UNL A   1      42.275  20.866  27.737  1.00  0.00     0.014 A 
ATOM     10  C   UNL A   1      42.437  21.392  25.377  1.00  0.00     0.014 A 
ATOM     11  C   UNL A   1      42.553  22.191  28.051  1.00  0.00     0.010 A 
ATOM     12  C   UNL A   1      42.800  22.702  25.698  1.00  0.00     0.010 A 
ATOM     13  C   UNL A   1      42.835  23.120  27.037  1.00  0.00    -0.014 A 
BRANCH  13  14
ATOM     14  C   UNL A   1      43.237  24.500  27.406  1.00  0.00     0.031 A 
ATOM     15  C   UNL A   1      44.672  24.940  27.348  1.00  0.00     0.074 A 
ATOM     16  C   UNL A   1      42.277  25.368  27.781  1.00  0.00     0.049 A 
ATOM     17  N   UNL A   1      45.185  26.111  27.630  1.00  0.00    -0.248 NA
ATOM     18  C   UNL A   1      45.662  23.938  26.925  1.00  0.00     0.031 C 
ATOM     19  C   UNL A   1      40.851  25.050  27.888  1.00  0.00     0.029 A 
ATOM     20  N   UNL A   1      42.348  26.692  28.128  1.00  0.00    -0.354 N 
ATOM     21  C   UNL A   1      46.555  25.985  27.437  1.00  0.00     0.074 A 
ATOM     22  C   UNL A   1      46.797  24.615  27.037  1.00  0.00     0.031 C 
ATOM     23  C   UNL A   1      40.178  26.156  28.233  1.00  0.00     0.029 A 
ATOM     24  C   UNL A   1      41.128  27.243  28.431  1.00  0.00     0.049 A 
ATOM     25  H   UNL A   1      43.192  27.198  28.156  1.00  0.00     0.167 HD
ATOM     26  C   UNL A   1      47.517  26.929  27.575  1.00  0.00     0.037 A 
ATOM     27  C   UNL A   1      40.808  28.483  28.844  1.00  0.00     0.037 A 
ATOM     28  C   UNL A   1      47.267  28.294  27.963  1.00  0.00     0.049 A 
ATOM     29  C   UNL A   1      41.898  29.499  29.015  1.00  0.00     0.074 A 
ATOM     30  C   UNL A   1      48.171  29.335  28.094  1.00  0.00     0.029 A 
ATOM     31  N   UNL A   1      46.021  28.807  28.292  1.00  0.00    -0.354 N 
ATOM     32  N   UNL A   1      43.183  29.374  28.793  1.00  0.00    -0.248 NA
ATOM     33  C   UNL A   1      41.494  30.825  29.498  1.00  0.00     0.031 C 
ATOM     34  C   UNL A   1      47.480  30.464  28.544  1.00  0.00     0.029 A 
ATOM     35  C   UNL A   1      46.137  30.143  28.648  1.00  0.00     0.049 A 
ATOM     36  H   UNL A   1      45.178  28.299  28.274  1.00  0.00     0.167 HD
ATOM     37  C   UNL A   1      43.742  30.608  29.094  1.00  0.00     0.074 A 
ATOM     38  C   UNL A   1      42.650  31.473  29.494  1.00  0.00     0.031 C 
ATOM     39  C   UNL A   1      45.041  30.988  29.048  1.00  0.00     0.037 A 
BRANCH  26  40
ATOM     40  C   UNL A   1      48.939  26.517  27.320  1.00  0.00     0.057 A 
ATOM     41  C   UNL A   1      49.764  26.028  28.341  1.00  0.00     0.134 A 
ATOM     42  C   UNL A   1      49.473  26.560  26.025  1.00  0.00     0.134 A 
ATOM     43  F   UNL A   1      49.319  25.970  29.606  1.00  0.00    -0.206 F 
ATOM     44  C   UNL A   1      51.074  25.617  28.088  1.00  0.00     0.040 A 
ATOM     45  C   UNL A   1      50.774  26.129  25.755  1.00  0.00     0.040 A 
ATOM     46  F   UNL A   1      48.736  27.008  24.999  1.00  0.00    -0.206 F 
ATOM     47  C   UNL A   1      51.581  25.660  26.790  1.00  0.00     0.006 A 
ENDBRANCH  26  40
BRANCH  27  48
ATOM     48  C   UNL A   1      39.392  28.821  29.129  1.00  0.00     0.057 A 
ATOM     49  C   UNL A   1      38.844  28.633  30.402  1.00  0.00     0.134 A 
ATOM     50  C   UNL A   1      38.558  29.358  28.139  1.00  0.00     0.134 A 
ATOM     51  F   UNL A   1      39.590  28.109  31.387  1.00  0.00    -0.206 F 
ATOM     52  C   UNL A   1      37.515  28.955  30.679  1.00  0.00     0.040 A 
ATOM     53  C   UNL A   1      37.236  29.709  28.409  1.00  0.00     0.040 A 
ATOM     54  F   UNL A   1      39.028  29.570  26.901  1.00  0.00    -0.206 F 
ATOM     55  C   UNL A   1      36.709  29.501  29.682  1.00  0.00     0.006 A 
ENDBRANCH  27  48
BRANCH  39  56
ATOM     56  C   UNL A   1      45.345  32.410  29.418  1.00  0.00     0.057 A 
ATOM     57  C   UNL A   1      45.691  32.773  30.725  1.00  0.00     0.134 A 
ATOM     58  C   UNL A   1      45.309  33.423  28.451  1.00  0.00     0.134 A 
ATOM     59  F   UNL A   1      45.727  31.853  31.701  1.00  0.00    -0.206 F 
ATOM     60  C   UNL A   1      45.967  34.099  31.064  1.00  0.00     0.040 A 
ATOM     61  C   UNL A   1      45.609  34.747  28.772  1.00  0.00     0.040 A 
ATOM     62  F   UNL A   1      44.991  33.140  27.180  1.00  0.00    -0.206 F 
ATOM     63  C   UNL A   1      45.933  35.088  30.083  1.00  0.00     0.006 A 
ENDBRANCH  39  56
ENDBRANCH  13  14
ENDBRANCH   6   8
ENDBRANCH   3   4
ENDBRANCH   2   3
ENDBRANCH   1   2
BRANCH   1  64
ATOM     64  C   UNL A   1      37.316  21.927  24.441  1.00  0.00     0.002 C 
BRANCH  64  65
ATOM     65  C   UNL A   1      37.592  22.989  25.512  1.00  0.00     0.021 C 
BRANCH  65  66
ATOM     66  C   UNL A   1      36.373  23.753  26.021  1.00  0.00     0.116 C 
BRANCH  66  67
ATOM     67  N   UNL A   1      35.537  22.952  26.888  1.00  0.00    -0.354 N 
ATOM     68  C   UNL A   1      34.187  22.764  26.874  1.00  0.00     0.242 C 
ATOM     69  H   UNL A   1      36.018  22.468  27.597  1.00  0.00     0.163 HD
ATOM     70  O   UNL A   1      33.732  22.040  27.765  1.00  0.00    -0.273 OA
BRANCH  68  71
ATOM     71  C   UNL A   1      33.289  23.457  25.810  1.00  0.00     0.174 C 
ATOM     72  C   UNL A   1      33.738  23.273  24.355  1.00  0.00     0.035 C 
ATOM     73  N   UNL A   1      31.894  22.975  25.921  1.00  0.00    -0.325 N 
ATOM     74  C   UNL A   1      33.611  21.822  23.907  1.00  0.00     0.004 C 
ATOM     75  C   UNL A   1      31.650  21.591  25.492  1.00  0.00     0.121 C 
ATOM     76  C   UNL A   1      32.178  21.332  24.085  1.00  0.00     0.022 C 
BRANCH  73  77
ATOM     77  C   UNL A   1      30.929  23.845  26.438  1.00  0.00     0.274 C 
ATOM     78  O   UNL A   1      30.083  23.468  27.249  1.00  0.00    -0.267 OA
BRANCH  77  79
ATOM     79  C   UNL A   1      30.976  25.244  26.006  1.00  0.00     0.147 A 
ATOM     80  C   UNL A   1      30.506  25.765  24.813  1.00  0.00     0.127 A 
ATOM     81  N   UNL A   1      31.512  26.254  26.788  1.00  0.00    -0.223 NA
ATOM     82  N   UNL A   1      30.795  27.102  24.849  1.00  0.00    -0.306 N 
ATOM     83  C   UNL A   1      31.393  27.354  26.078  1.00  0.00     0.137 A 
ATOM     84  C   UNL A   1      30.579  28.082  23.884  1.00  0.00     0.093 A 
ATOM     85  C   UNL A   1      31.777  28.699  26.351  1.00  0.00     0.048 A 
ATOM     86  C   UNL A   1      30.956  29.347  24.138  1.00  0.00     0.018 A 
ATOM     87  C   UNL A   1      31.570  29.654  25.423  1.00  0.00     0.005 A 
ENDBRANCH  77  79
ENDBRANCH  73  77
ENDBRANCH  68  71
ENDBRANCH  66  67
ENDBRANCH  65  66
ENDBRANCH  64  65
ENDBRANCH   1  64
TORSDOF 15
ENDMDL
MODEL 2
REMARK VINA RESULT:     -12.0      4.902     10.029
REMARK SMILES O=C(NCCCCCCNC(=O)[C@H]1CCCCN1C(=O)c1cn2ccccc2n1)c1ccc(-c2c3nc(c(-c4c(F)cccc4F)c4ccc([nH]4)c(-c4c(F)cccc4F)c4nc(c(-c5c(F)cccc5F)c5ccc2[nH]5)C=C4)C=C3)cc1
REMARK SMILES IDX 6 1 5 2 4 3 3 4 1 5 2 6 30 8 31 9 83 10 32 11 82 12 33 13
REMARK SMILES IDX 34 14 35 15 76 16 36 17 81 18 75 19 77 20 37 21 80 22 74 23
REMARK SMILES IDX 73 24 38 26 64 27 47 28 63 29 48 30 51 31 62 32 78 33 49 34
REMARK SMILES IDX 50 35 61 37 79 38 52 39 39 40 40 41 45 42 41 43 42 44 44 45
REMARK SMILES IDX 46 46 43 47 65 48 66 49 71 50 67 51 68 52 70 53 72 54 69 55
REMARK SMILES IDX 53 56 54 57 59 58 55 59 56 60 58 61 60 62 57 63 7 64 8 65
REMARK SMILES IDX 9 66 10 67 11 68 12 70 13 71 14 72 18 73 15 74 17 75 16 76
REMARK SMILES IDX 19 77 20 78 21 79 22 80 29 81 23 82 28 83 24 84 27 85 25 86
REMARK SMILES IDX 26 87
REMARK H PARENT 3 7 77 25 51 36 10 69
REMARK Flexibility Score: inf
ROOT
ATOM      1  C   UNL A   1      31.501  30.727  26.290  1.00  0.00     0.002 C 
ENDROOT
BRANCH   1   2
ATOM      2  C   UNL A   1      31.366  32.152  26.822  1.00  0.00     0.021 C 
BRANCH   2   3
ATOM      3  C   UNL A   1      32.675  32.901  27.025  1.00  0.00     0.116 C 
BRANCH   3   4
ATOM      4  N   UNL A   1      32.503  34.190  27.676  1.00  0.00    -0.352 N 
ATOM      5  O   UNL A   1      32.855  35.782  29.237  1.00  0.00    -0.269 OA
ATOM      6  C   UNL A   1      33.203  34.723  28.731  1.00  0.00     0.251 C 
ATOM      7  H   UNL A   1      31.788  34.758  27.311  1.00  0.00     0.163 HD
BRANCH   6   8
ATOM      8  C   UNL A   1      34.370  33.992  29.278  1.00  0.00     0.039 A 
ATOM      9  C   UNL A   1      34.193  32.884  30.109  1.00  0.00     0.014 A 
ATOM     10  C   UNL A   1      35.657  34.430  28.951  1.00  0.00     0.014 A 
ATOM     11  C   UNL A   1      35.296  32.300  30.722  1.00  0.00     0.010 A 
ATOM     12  C   UNL A   1      36.767  33.785  29.503  1.00  0.00     0.010 A 
ATOM     13  C   UNL A   1      36.595  32.732  30.414  1.00  0.00    -0.014 A 
BRANCH  13  14
ATOM     14  C   UNL A   1      37.757  32.018  30.998  1.00  0.00     0.031 A 
ATOM     15  C   UNL A   1      38.233  32.306  32.393  1.00  0.00     0.074 A 
ATOM     16  C   UNL A   1      38.376  31.082  30.251  1.00  0.00     0.049 A 
ATOM     17  N   UNL A   1      39.227  31.764  33.052  1.00  0.00    -0.248 NA
ATOM     18  C   UNL A   1      37.505  33.338  33.148  1.00  0.00     0.031 C 
ATOM     19  C   UNL A   1      38.011  30.727  28.877  1.00  0.00     0.029 A 
ATOM     20  N   UNL A   1      39.426  30.251  30.541  1.00  0.00    -0.354 N 
ATOM     21  C   UNL A   1      39.257  32.397  34.288  1.00  0.00     0.074 A 
ATOM     22  C   UNL A   1      38.196  33.383  34.280  1.00  0.00     0.031 C 
ATOM     23  C   UNL A   1      38.796  29.724  28.460  1.00  0.00     0.029 A 
ATOM     24  C   UNL A   1      39.757  29.408  29.509  1.00  0.00     0.049 A 
ATOM     25  H   UNL A   1      39.898  30.257  31.405  1.00  0.00     0.167 HD
ATOM     26  C   UNL A   1      40.089  32.170  35.333  1.00  0.00     0.037 A 
ATOM     27  C   UNL A   1      40.738  28.494  29.408  1.00  0.00     0.037 A 
ATOM     28  C   UNL A   1      41.137  31.181  35.337  1.00  0.00     0.049 A 
ATOM     29  C   UNL A   1      41.662  28.284  30.570  1.00  0.00     0.074 A 
ATOM     30  C   UNL A   1      42.008  30.849  36.361  1.00  0.00     0.029 A 
ATOM     31  N   UNL A   1      41.460  30.366  34.261  1.00  0.00    -0.354 N 
ATOM     32  N   UNL A   1      41.654  28.865  31.745  1.00  0.00    -0.248 NA
ATOM     33  C   UNL A   1      42.734  27.296  30.392  1.00  0.00     0.031 C 
ATOM     34  C   UNL A   1      42.886  29.868  35.890  1.00  0.00     0.029 A 
ATOM     35  C   UNL A   1      42.533  29.551  34.589  1.00  0.00     0.049 A 
ATOM     36  H   UNL A   1      40.996  30.366  33.393  1.00  0.00     0.167 HD
ATOM     37  C   UNL A   1      42.708  28.304  32.452  1.00  0.00     0.074 A 
ATOM     38  C   UNL A   1      43.319  27.322  31.580  1.00  0.00     0.031 C 
ATOM     39  C   UNL A   1      43.133  28.581  33.709  1.00  0.00     0.037 A 
BRANCH  26  40
ATOM     40  C   UNL A   1      39.915  33.020  36.559  1.00  0.00     0.057 A 
ATOM     41  C   UNL A   1      38.980  32.705  37.553  1.00  0.00     0.134 A 
ATOM     42  C   UNL A   1      40.731  34.140  36.773  1.00  0.00     0.134 A 
ATOM     43  F   UNL A   1      38.161  31.652  37.407  1.00  0.00    -0.206 F 
ATOM     44  C   UNL A   1      38.848  33.483  38.705  1.00  0.00     0.040 A 
ATOM     45  C   UNL A   1      40.625  34.911  37.931  1.00  0.00     0.040 A 
ATOM     46  F   UNL A   1      41.653  34.493  35.866  1.00  0.00    -0.206 F 
ATOM     47  C   UNL A   1      39.677  34.587  38.900  1.00  0.00     0.006 A 
ENDBRANCH  26  40
BRANCH  27  48
ATOM     48  C   UNL A   1      40.895  27.717  28.153  1.00  0.00     0.057 A 
ATOM     49  C   UNL A   1      40.270  26.478  27.985  1.00  0.00     0.134 A 
ATOM     50  C   UNL A   1      41.659  28.207  27.085  1.00  0.00     0.134 A 
ATOM     51  F   UNL A   1      39.537  25.951  28.979  1.00  0.00    -0.206 F 
ATOM     52  C   UNL A   1      40.407  25.745  26.806  1.00  0.00     0.040 A 
ATOM     53  C   UNL A   1      41.783  27.497  25.891  1.00  0.00     0.040 A 
ATOM     54  F   UNL A   1      42.275  29.394  27.182  1.00  0.00    -0.206 F 
ATOM     55  C   UNL A   1      41.160  26.259  25.752  1.00  0.00     0.006 A 
ENDBRANCH  27  48
BRANCH  39  56
ATOM     56  C   UNL A   1      44.302  27.791  34.219  1.00  0.00     0.057 A 
ATOM     57  C   UNL A   1      45.615  28.265  34.111  1.00  0.00     0.134 A 
ATOM     58  C   UNL A   1      44.109  26.552  34.842  1.00  0.00     0.134 A 
ATOM     59  F   UNL A   1      45.868  29.438  33.509  1.00  0.00    -0.206 F 
ATOM     60  C   UNL A   1      46.699  27.523  34.583  1.00  0.00     0.040 A 
ATOM     61  C   UNL A   1      45.181  25.813  35.340  1.00  0.00     0.040 A 
ATOM     62  F   UNL A   1      42.875  26.045  34.981  1.00  0.00    -0.206 F 
ATOM     63  C   UNL A   1      46.481  26.295  35.206  1.00  0.00     0.006 A 
ENDBRANCH  39  56
ENDBRANCH  13  14
ENDBRANCH   6   8
ENDBRANCH   3   4
ENDBRANCH   2   3
ENDBRANCH   1   2
BRANCH   1  64
ATOM     64  C   UNL A   1      32.165  29.723  27.235  1.00  0.00     0.002 C 
BRANCH  64  65
ATOM     65  C   UNL A   1      33.690  29.602  27.136  1.00  0.00     0.021 C 
BRANCH  65  66
ATOM     66  C   UNL A   1      34.213  28.541  26.172  1.00  0.00     0.116 C 
BRANCH  66  67
ATOM     67  N   UNL A   1      34.096  28.942  24.788  1.00  0.00    -0.354 N 
ATOM     68  C   UNL A   1      33.571  28.272  23.722  1.00  0.00     0.242 C 
ATOM     69  H   UNL A   1      34.449  29.838  24.583  1.00  0.00     0.163 HD
ATOM     70  O   UNL A   1      33.632  28.854  22.634  1.00  0.00    -0.273 OA
BRANCH  68  71
ATOM     71  C   UNL A   1      32.969  26.848  23.885  1.00  0.00     0.174 C 
ATOM     72  C   UNL A   1      31.919  26.704  24.994  1.00  0.00     0.035 C 
ATOM     73  N   UNL A   1      32.354  26.401  22.615  1.00  0.00    -0.325 N 
ATOM     74  C   UNL A   1      30.655  27.494  24.677  1.00  0.00     0.004 C 
ATOM     75  C   UNL A   1      31.113  27.080  22.221  1.00  0.00     0.121 C 
ATOM     76  C   UNL A   1      30.074  27.054  23.338  1.00  0.00     0.022 C 
BRANCH  73  77
ATOM     77  C   UNL A   1      32.997  25.399  21.881  1.00  0.00     0.274 C 
ATOM     78  O   UNL A   1      33.206  25.511  20.673  1.00  0.00    -0.267 OA
BRANCH  77  79
ATOM     79  C   UNL A   1      33.453  24.212  22.608  1.00  0.00     0.147 A 
ATOM     80  C   UNL A   1      32.679  23.146  23.034  1.00  0.00     0.127 A 
ATOM     81  N   UNL A   1      34.778  24.007  22.959  1.00  0.00    -0.223 NA
ATOM     82  N   UNL A   1      33.534  22.300  23.688  1.00  0.00    -0.306 N 
ATOM     83  C   UNL A   1      34.803  22.861  23.601  1.00  0.00     0.137 A 
ATOM     84  C   UNL A   1      33.265  21.103  24.346  1.00  0.00     0.093 A 
ATOM     85  C   UNL A   1      35.873  22.142  24.208  1.00  0.00     0.048 A 
ATOM     86  C   UNL A   1      34.275  20.436  24.931  1.00  0.00     0.018 A 
ATOM     87  C   UNL A   1      35.622  20.982  24.846  1.00  0.00     0.005 A 
ENDBRANCH  77  79
ENDBRANCH  73  77
ENDBRANCH  68  71
ENDBRANCH  66  67
ENDBRANCH  65  66
ENDBRANCH  64  65
ENDBRANCH   1  64
TORSDOF 15
ENDMDL
MODEL 3
REMARK VINA RESULT:     -11.9      0.823      6.208
REMARK SMILES O=C(NCCCCCCNC(=O)[C@H]1CCCCN1C(=O)c1cn2ccccc2n1)c1ccc(-c2c3nc(c(-c4c(F)cccc4F)c4ccc([nH]4)c(-c4c(F)cccc4F)c4nc(c(-c5c(F)cccc5F)c5ccc2[nH]5)C=C4)C=C3)cc1
REMARK SMILES IDX 6 1 5 2 4 3 3 4 1 5 2 6 30 8 31 9 83 10 32 11 82 12 33 13
REMARK SMILES IDX 34 14 35 15 76 16 36 17 81 18 75 19 77 20 37 21 80 22 74 23
REMARK SMILES IDX 73 24 38 26 64 27 47 28 63 29 48 30 51 31 62 32 78 33 49 34
REMARK SMILES IDX 50 35 61 37 79 38 52 39 39 40 40 41 45 42 41 43 42 44 44 45
REMARK SMILES IDX 46 46 43 47 65 48 66 49 71 50 67 51 68 52 70 53 72 54 69 55
REMARK SMILES IDX 53 56 54 57 59 58 55 59 56 60 58 61 60 62 57 63 7 64 8 65
REMARK SMILES IDX 9 66 10 67 11 68 12 70 13 71 14 72 18 73 15 74 17 75 16 76
REMARK SMILES IDX 19 77 20 78 21 79 22 80 29 81 23 82 28 83 24 84 27 85 25 86
REMARK SMILES IDX 26 87
REMARK H PARENT 3 7 77 25 51 36 10 69
REMARK Flexibility Score: inf
ROOT
ATOM      1  C   UNL A   1      36.942  20.513  24.829  1.00  0.00     0.002 C 
ENDROOT
BRANCH   1   2
ATOM      2  C   UNL A   1      38.102  19.525  24.943  1.00  0.00     0.021 C 
BRANCH   2   3
ATOM      3  C   UNL A   1      39.148  19.863  25.996  1.00  0.00     0.116 C 
BRANCH   3   4
ATOM      4  N   UNL A   1      40.355  19.060  25.884  1.00  0.00    -0.352 N 
ATOM      5  O   UNL A   1      42.574  18.661  25.817  1.00  0.00    -0.269 OA
ATOM      6  C   UNL A   1      41.663  19.439  26.063  1.00  0.00     0.251 C 
ATOM      7  H   UNL A   1      40.215  18.115  25.647  1.00  0.00     0.163 HD
BRANCH   6   8
ATOM      8  C   UNL A   1      41.967  20.812  26.527  1.00  0.00     0.039 A 
ATOM      9  C   UNL A   1      42.214  21.838  25.613  1.00  0.00     0.014 A 
ATOM     10  C   UNL A   1      42.010  21.068  27.902  1.00  0.00     0.014 A 
ATOM     11  C   UNL A   1      42.635  23.082  26.070  1.00  0.00     0.010 A 
ATOM     12  C   UNL A   1      42.350  22.344  28.358  1.00  0.00     0.010 A 
ATOM     13  C   UNL A   1      42.691  23.354  27.446  1.00  0.00    -0.014 A 
BRANCH  13  14
ATOM     14  C   UNL A   1      43.037  24.723  27.903  1.00  0.00     0.031 A 
ATOM     15  C   UNL A   1      41.974  25.745  28.189  1.00  0.00     0.074 A 
ATOM     16  C   UNL A   1      44.337  25.032  28.076  1.00  0.00     0.049 A 
ATOM     17  N   UNL A   1      42.111  26.980  28.602  1.00  0.00    -0.248 NA
ATOM     18  C   UNL A   1      40.578  25.333  27.981  1.00  0.00     0.031 C 
ATOM     19  C   UNL A   1      45.459  24.124  27.816  1.00  0.00     0.029 A 
ATOM     20  N   UNL A   1      44.937  26.180  28.522  1.00  0.00    -0.354 N 
ATOM     21  C   UNL A   1      40.825  27.499  28.687  1.00  0.00     0.074 A 
ATOM     22  C   UNL A   1      39.922  26.452  28.259  1.00  0.00     0.031 C 
ATOM     23  C   UNL A   1      46.604  24.736  28.146  1.00  0.00     0.029 A 
ATOM     24  C   UNL A   1      46.306  26.095  28.579  1.00  0.00     0.049 A 
ATOM     25  H   UNL A   1      44.435  26.988  28.775  1.00  0.00     0.167 HD
ATOM     26  C   UNL A   1      40.438  28.733  29.092  1.00  0.00     0.037 A 
ATOM     27  C   UNL A   1      47.225  27.014  28.925  1.00  0.00     0.037 A 
ATOM     28  C   UNL A   1      41.343  29.767  29.526  1.00  0.00     0.049 A 
ATOM     29  C   UNL A   1      46.768  28.381  29.341  1.00  0.00     0.074 A 
ATOM     30  C   UNL A   1      41.045  31.036  29.991  1.00  0.00     0.029 A 
ATOM     31  N   UNL A   1      42.725  29.653  29.543  1.00  0.00    -0.354 N 
ATOM     32  N   UNL A   1      45.547  28.844  29.452  1.00  0.00    -0.248 NA
ATOM     33  C   UNL A   1      47.816  29.353  29.677  1.00  0.00     0.031 C 
ATOM     34  C   UNL A   1      42.247  31.705  30.246  1.00  0.00     0.029 A 
ATOM     35  C   UNL A   1      43.294  30.837  29.986  1.00  0.00     0.049 A 
ATOM     36  H   UNL A   1      43.229  28.848  29.279  1.00  0.00     0.167 HD
ATOM     37  C   UNL A   1      45.677  30.156  29.883  1.00  0.00     0.074 A 
ATOM     38  C   UNL A   1      47.096  30.407  30.035  1.00  0.00     0.031 C 
ATOM     39  C   UNL A   1      44.708  31.072  30.128  1.00  0.00     0.037 A 
BRANCH  26  40
ATOM     40  C   UNL A   1      38.969  29.044  29.069  1.00  0.00     0.057 A 
ATOM     41  C   UNL A   1      38.159  28.886  30.201  1.00  0.00     0.134 A 
ATOM     42  C   UNL A   1      38.366  29.559  27.913  1.00  0.00     0.134 A 
ATOM     43  F   UNL A   1      38.669  28.388  31.338  1.00  0.00    -0.206 F 
ATOM     44  C   UNL A   1      36.801  29.208  30.179  1.00  0.00     0.040 A 
ATOM     45  C   UNL A   1      37.015  29.907  27.885  1.00  0.00     0.040 A 
ATOM     46  F   UNL A   1      39.085  29.744  26.796  1.00  0.00    -0.206 F 
ATOM     47  C   UNL A   1      36.226  29.728  29.020  1.00  0.00     0.006 A 
ENDBRANCH  26  40
BRANCH  27  48
ATOM     48  C   UNL A   1      48.667  26.667  28.881  1.00  0.00     0.057 A 
ATOM     49  C   UNL A   1      49.418  26.842  27.716  1.00  0.00     0.134 A 
ATOM     50  C   UNL A   1      49.330  26.170  30.011  1.00  0.00     0.134 A 
ATOM     51  F   UNL A   1      48.834  27.301  26.598  1.00  0.00    -0.206 F 
ATOM     52  C   UNL A   1      50.776  26.524  27.668  1.00  0.00     0.040 A 
ATOM     53  C   UNL A   1      50.692  25.873  29.985  1.00  0.00     0.040 A 
ATOM     54  F   UNL A   1      48.665  25.989  31.161  1.00  0.00    -0.206 F 
ATOM     55  C   UNL A   1      51.418  26.044  28.809  1.00  0.00     0.006 A 
ENDBRANCH  27  48
BRANCH  39  56
ATOM     56  C   UNL A   1      45.156  32.421  30.607  1.00  0.00     0.057 A 
ATOM     57  C   UNL A   1      45.408  33.473  29.717  1.00  0.00     0.134 A 
ATOM     58  C   UNL A   1      45.318  32.676  31.974  1.00  0.00     0.134 A 
ATOM     59  F   UNL A   1      45.287  33.289  28.394  1.00  0.00    -0.206 F 
ATOM     60  C   UNL A   1      45.830  34.725  30.169  1.00  0.00     0.040 A 
ATOM     61  C   UNL A   1      45.714  33.929  32.440  1.00  0.00     0.040 A 
ATOM     62  F   UNL A   1      45.088  31.712  32.878  1.00  0.00    -0.206 F 
ATOM     63  C   UNL A   1      45.977  34.956  31.536  1.00  0.00     0.006 A 
ENDBRANCH  39  56
ENDBRANCH  13  14
ENDBRANCH   6   8
ENDBRANCH   3   4
ENDBRANCH   2   3
ENDBRANCH   1   2
BRANCH   1  64
ATOM     64  C   UNL A   1      37.313  21.927  24.376  1.00  0.00     0.002 C 
BRANCH  64  65
ATOM     65  C   UNL A   1      37.606  22.942  25.487  1.00  0.00     0.021 C 
BRANCH  65  66
ATOM     66  C   UNL A   1      36.400  23.707  26.024  1.00  0.00     0.116 C 
BRANCH  66  67
ATOM     67  N   UNL A   1      35.558  22.893  26.872  1.00  0.00    -0.354 N 
ATOM     68  C   UNL A   1      34.204  22.728  26.862  1.00  0.00     0.242 C 
ATOM     69  H   UNL A   1      36.035  22.380  27.562  1.00  0.00     0.163 HD
ATOM     70  O   UNL A   1      33.744  21.983  27.734  1.00  0.00    -0.273 OA
BRANCH  68  71
ATOM     71  C   UNL A   1      33.310  23.469  25.828  1.00  0.00     0.174 C 
ATOM     72  C   UNL A   1      33.744  23.322  24.364  1.00  0.00     0.035 C 
ATOM     73  N   UNL A   1      31.908  23.008  25.937  1.00  0.00    -0.325 N 
ATOM     74  C   UNL A   1      33.588  21.888  23.873  1.00  0.00     0.004 C 
ATOM     75  C   UNL A   1      31.635  21.643  25.468  1.00  0.00     0.121 C 
ATOM     76  C   UNL A   1      32.147  21.418  24.049  1.00  0.00     0.022 C 
BRANCH  73  77
ATOM     77  C   UNL A   1      30.962  23.879  26.488  1.00  0.00     0.274 C 
ATOM     78  O   UNL A   1      30.154  23.506  27.339  1.00  0.00    -0.267 OA
BRANCH  77  79
ATOM     79  C   UNL A   1      30.985  25.275  26.044  1.00  0.00     0.147 A 
ATOM     80  C   UNL A   1      30.518  25.774  24.841  1.00  0.00     0.127 A 
ATOM     81  N   UNL A   1      31.491  26.304  26.822  1.00  0.00    -0.223 NA
ATOM     82  N   UNL A   1      30.778  27.118  24.867  1.00  0.00    -0.306 N 
ATOM     83  C   UNL A   1      31.357  27.394  26.100  1.00  0.00     0.137 A 
ATOM     84  C   UNL A   1      30.552  28.084  23.890  1.00  0.00     0.093 A 
ATOM     85  C   UNL A   1      31.709  28.749  26.364  1.00  0.00     0.048 A 
ATOM     86  C   UNL A   1      30.900  29.359  24.136  1.00  0.00     0.018 A 
ATOM     87  C   UNL A   1      31.493  29.691  25.425  1.00  0.00     0.005 A 
ENDBRANCH  77  79
ENDBRANCH  73  77
ENDBRANCH  68  71
ENDBRANCH  66  67
ENDBRANCH  65  66
ENDBRANCH  64  65
ENDBRANCH   1  64
TORSDOF 15
ENDMDL
