MODEL 1
REMARK VINA RESULT:     -11.6      0.000      0.000
REMARK SMILES O=Cc1ccc2c(c1)C=C(C(=O)NCCCCCCNC(=O)c1ccc(-c3c4nc(c(-c5c(F)cccc5F)c5ccc([nH]5)c(-c5c(F)cccc5F)c5nc(c(-c6c(F)cccc6F)c6ccc3[nH]6)C=C5)C=C4)cc1)[C@H](C(F)(F)F)O2
REMARK SMILES IDX 17 1 16 2 15 3 14 4 13 5 11 6 12 7 10 9 3 10 4 11 8 12 5 13
REMARK SMILES IDX 7 14 6 15 9 16 82 17 77 18 2 19 1 20 78 21 79 22 80 23 81 24
REMARK SMILES IDX 18 25 19 26 20 27 21 28 22 30 23 31 24 32 76 33 25 34 75 35
REMARK SMILES IDX 26 36 27 37 28 38 69 39 29 40 74 41 68 42 70 43 30 44 73 45
REMARK SMILES IDX 67 46 66 47 31 49 57 50 40 51 56 52 41 53 44 54 55 55 71 56
REMARK SMILES IDX 42 57 43 58 54 60 72 61 45 62 32 63 33 64 38 65 34 66 35 67
REMARK SMILES IDX 37 68 39 69 36 70 58 71 59 72 64 73 60 74 61 75 63 76 65 77
REMARK SMILES IDX 62 78 46 79 47 80 52 81 48 82 49 83 51 84 53 85 50 86
REMARK H PARENT 13 8 20 29 70 48 44 59
REMARK Flexibility Score: inf
ROOT
ATOM      1  C   UNL A   1      37.694  21.267  24.720  1.00  0.00     0.002 C 
ENDROOT
BRANCH   1   2
ATOM      2  C   UNL A   1      38.091  22.340  25.742  1.00  0.00     0.002 C 
BRANCH   2   3
ATOM      3  C   UNL A   1      37.217  23.603  25.711  1.00  0.00     0.021 C 
BRANCH   3   4
ATOM      4  C   UNL A   1      35.763  23.329  26.114  1.00  0.00     0.116 C 
BRANCH   4   5
ATOM      5  N   UNL A   1      34.885  23.735  25.031  1.00  0.00    -0.352 N 
ATOM      6  C   UNL A   1      34.099  23.044  24.167  1.00  0.00     0.251 C 
ATOM      7  O   UNL A   1      33.674  23.641  23.181  1.00  0.00    -0.270 OA
ATOM      8  H   UNL A   1      34.853  24.710  24.896  1.00  0.00     0.163 HD
BRANCH   6   9
ATOM      9  C   UNL A   1      33.663  21.642  24.409  1.00  0.00     0.067 C 
ATOM     10  C   UNL A   1      34.437  16.922  25.060  1.00  0.00     0.015 A 
ATOM     11  C   UNL A   1      33.127  16.760  25.515  1.00  0.00     0.015 A 
ATOM     12  C   UNL A   1      34.885  18.171  24.622  1.00  0.00     0.023 A 
ATOM     13  C   UNL A   1      32.273  17.862  25.564  1.00  0.00     0.048 A 
ATOM     14  C   UNL A   1      34.016  19.270  24.652  1.00  0.00     0.018 A 
ATOM     15  C   UNL A   1      32.721  19.114  25.141  1.00  0.00     0.128 A 
ATOM     16  C   UNL A   1      34.485  20.591  24.273  1.00  0.00     0.025 C 
ATOM     17  O   UNL A   1      31.856  20.153  25.304  1.00  0.00    -0.475 OA
ATOM     18  C   UNL A   1      32.172  21.430  24.676  1.00  0.00     0.314 C 
BRANCH  10  19
ATOM     19  C   UNL A   1      35.374  15.781  25.067  1.00  0.00     0.260 C 
ATOM     20  O   UNL A   1      36.295  15.702  25.868  1.00  0.00    -0.298 OA
ENDBRANCH  10  19
BRANCH  18  21
ATOM     21  C   UNL A   1      31.433  22.525  25.483  1.00  0.00     0.429 C 
ATOM     22  F   UNL A   1      31.046  23.572  24.720  1.00  0.00    -0.167 F 
ATOM     23  F   UNL A   1      30.284  22.032  26.023  1.00  0.00    -0.167 F 
ATOM     24  F   UNL A   1      32.174  22.997  26.512  1.00  0.00    -0.167 F 
ENDBRANCH  18  21
ENDBRANCH   6   9
ENDBRANCH   4   5
ENDBRANCH   3   4
ENDBRANCH   2   3
ENDBRANCH   1   2
BRANCH   1  25
ATOM     25  C   UNL A   1      38.465  19.952  24.849  1.00  0.00     0.021 C 
BRANCH  25  26
ATOM     26  C   UNL A   1      39.270  19.836  26.137  1.00  0.00     0.116 C 
BRANCH  26  27
ATOM     27  N   UNL A   1      40.472  19.039  25.943  1.00  0.00    -0.352 N 
ATOM     28  C   UNL A   1      41.782  19.448  25.936  1.00  0.00     0.251 C 
ATOM     29  H   UNL A   1      40.325  18.077  25.797  1.00  0.00     0.163 HD
ATOM     30  O   UNL A   1      42.663  18.710  25.514  1.00  0.00    -0.269 OA
BRANCH  28  31
ATOM     31  C   UNL A   1      42.117  20.796  26.439  1.00  0.00     0.039 A 
ATOM     32  C   UNL A   1      42.473  21.794  25.529  1.00  0.00     0.014 A 
ATOM     33  C   UNL A   1      42.078  21.067  27.809  1.00  0.00     0.014 A 
ATOM     34  C   UNL A   1      42.741  23.083  25.993  1.00  0.00     0.010 A 
ATOM     35  C   UNL A   1      42.268  22.367  28.260  1.00  0.00     0.010 A 
ATOM     36  C   UNL A   1      42.613  23.386  27.359  1.00  0.00    -0.014 A 
BRANCH  36  37
ATOM     37  C   UNL A   1      42.865  24.753  27.878  1.00  0.00     0.031 A 
ATOM     38  C   UNL A   1      44.257  25.146  28.294  1.00  0.00     0.074 A 
ATOM     39  C   UNL A   1      41.841  25.615  28.032  1.00  0.00     0.049 A 
ATOM     40  N   UNL A   1      44.668  26.241  28.878  1.00  0.00    -0.248 NA
ATOM     41  C   UNL A   1      45.326  24.162  28.044  1.00  0.00     0.031 C 
ATOM     42  C   UNL A   1      40.443  25.342  27.692  1.00  0.00     0.029 A 
ATOM     43  N   UNL A   1      41.816  26.893  28.531  1.00  0.00    -0.354 N 
ATOM     44  C   UNL A   1      46.034  26.077  29.069  1.00  0.00     0.074 A 
ATOM     45  C   UNL A   1      46.373  24.753  28.600  1.00  0.00     0.031 C 
ATOM     46  C   UNL A   1      39.701  26.426  27.978  1.00  0.00     0.029 A 
ATOM     47  C   UNL A   1      40.560  27.451  28.562  1.00  0.00     0.049 A 
ATOM     48  H   UNL A   1      42.623  27.367  28.838  1.00  0.00     0.167 HD
ATOM     49  C   UNL A   1      46.931  26.963  29.563  1.00  0.00     0.037 A 
ATOM     50  C   UNL A   1      40.148  28.646  29.025  1.00  0.00     0.037 A 
ATOM     51  C   UNL A   1      46.595  28.288  30.010  1.00  0.00     0.049 A 
ATOM     52  C   UNL A   1      41.164  29.594  29.607  1.00  0.00     0.074 A 
ATOM     53  C   UNL A   1      47.436  29.269  30.506  1.00  0.00     0.029 A 
ATOM     54  N   UNL A   1      45.316  28.821  30.005  1.00  0.00    -0.354 N 
ATOM     55  N   UNL A   1      42.460  29.441  29.740  1.00  0.00    -0.248 NA
ATOM     56  C   UNL A   1      40.662  30.886  30.096  1.00  0.00     0.031 C 
ATOM     57  C   UNL A   1      46.659  30.382  30.839  1.00  0.00     0.029 A 
ATOM     58  C   UNL A   1      45.343  30.113  30.498  1.00  0.00     0.049 A 
ATOM     59  H   UNL A   1      44.508  28.350  29.696  1.00  0.00     0.167 HD
ATOM     60  C   UNL A   1      42.929  30.630  30.283  1.00  0.00     0.074 A 
ATOM     61  C   UNL A   1      41.783  31.499  30.446  1.00  0.00     0.031 C 
ATOM     62  C   UNL A   1      44.197  30.975  30.618  1.00  0.00     0.037 A 
BRANCH  49  63
ATOM     63  C   UNL A   1      48.369  26.537  29.626  1.00  0.00     0.057 A 
ATOM     64  C   UNL A   1      49.279  26.873  28.614  1.00  0.00     0.134 A 
ATOM     65  C   UNL A   1      48.866  25.843  30.737  1.00  0.00     0.134 A 
ATOM     66  F   UNL A   1      48.864  27.526  27.518  1.00  0.00    -0.206 F 
ATOM     67  C   UNL A   1      50.626  26.520  28.697  1.00  0.00     0.040 A 
ATOM     68  C   UNL A   1      50.217  25.510  30.844  1.00  0.00     0.040 A 
ATOM     69  F   UNL A   1      48.051  25.495  31.743  1.00  0.00    -0.206 F 
ATOM     70  C   UNL A   1      51.101  25.846  29.820  1.00  0.00     0.006 A 
ENDBRANCH  49  63
BRANCH  50  71
ATOM     71  C   UNL A   1      38.714  29.029  28.967  1.00  0.00     0.057 A 
ATOM     72  C   UNL A   1      38.156  29.572  27.802  1.00  0.00     0.134 A 
ATOM     73  C   UNL A   1      37.880  28.922  30.087  1.00  0.00     0.134 A 
ATOM     74  F   UNL A   1      38.906  29.718  26.699  1.00  0.00    -0.206 F 
ATOM     75  C   UNL A   1      36.839  30.033  27.764  1.00  0.00     0.040 A 
ATOM     76  C   UNL A   1      36.551  29.349  30.054  1.00  0.00     0.040 A 
ATOM     77  F   UNL A   1      38.346  28.400  31.231  1.00  0.00    -0.206 F 
ATOM     78  C   UNL A   1      36.032  29.921  28.894  1.00  0.00     0.006 A 
ENDBRANCH  50  71
BRANCH  62  79
ATOM     79  C   UNL A   1      44.425  32.370  31.123  1.00  0.00     0.057 A 
ATOM     80  C   UNL A   1      44.412  32.680  32.488  1.00  0.00     0.134 A 
ATOM     81  C   UNL A   1      44.712  33.407  30.226  1.00  0.00     0.134 A 
ATOM     82  F   UNL A   1      44.132  31.735  33.398  1.00  0.00    -0.206 F 
ATOM     83  C   UNL A   1      44.656  33.978  32.941  1.00  0.00     0.040 A 
ATOM     84  C   UNL A   1      44.987  34.701  30.669  1.00  0.00     0.040 A 
ATOM     85  F   UNL A   1      44.750  33.175  28.905  1.00  0.00    -0.206 F 
ATOM     86  C   UNL A   1      44.953  34.990  32.031  1.00  0.00     0.006 A 
ENDBRANCH  62  79
ENDBRANCH  36  37
ENDBRANCH  28  31
ENDBRANCH  26  27
ENDBRANCH  25  26
ENDBRANCH   1  25
TORSDOF 15
ENDMDL
MODEL 2
REMARK VINA RESULT:     -11.6      1.632      6.315
REMARK SMILES O=Cc1ccc2c(c1)C=C(C(=O)NCCCCCCNC(=O)c1ccc(-c3c4nc(c(-c5c(F)cccc5F)c5ccc([nH]5)c(-c5c(F)cccc5F)c5nc(c(-c6c(F)cccc6F)c6ccc3[nH]6)C=C5)C=C4)cc1)[C@H](C(F)(F)F)O2
REMARK SMILES IDX 17 1 16 2 15 3 14 4 13 5 11 6 12 7 10 9 3 10 4 11 8 12 5 13
REMARK SMILES IDX 7 14 6 15 9 16 82 17 77 18 2 19 1 20 78 21 79 22 80 23 81 24
REMARK SMILES IDX 18 25 19 26 20 27 21 28 22 30 23 31 24 32 76 33 25 34 75 35
REMARK SMILES IDX 26 36 27 37 28 38 69 39 29 40 74 41 68 42 70 43 30 44 73 45
REMARK SMILES IDX 67 46 66 47 31 49 57 50 40 51 56 52 41 53 44 54 55 55 71 56
REMARK SMILES IDX 42 57 43 58 54 60 72 61 45 62 32 63 33 64 38 65 34 66 35 67
REMARK SMILES IDX 37 68 39 69 36 70 58 71 59 72 64 73 60 74 61 75 63 76 65 77
REMARK SMILES IDX 62 78 46 79 47 80 52 81 48 82 49 83 51 84 53 85 50 86
REMARK H PARENT 13 8 20 29 70 48 44 59
REMARK Flexibility Score: inf
ROOT
ATOM      1  C   UNL A   1      36.540  20.687  25.044  1.00  0.00     0.002 C 
ENDROOT
BRANCH   1   2
ATOM      2  C   UNL A   1      36.748  22.181  24.761  1.00  0.00     0.002 C 
BRANCH   2   3
ATOM      3  C   UNL A   1      36.433  23.103  25.948  1.00  0.00     0.021 C 
BRANCH   3   4
ATOM      4  C   UNL A   1      35.215  24.000  25.698  1.00  0.00     0.116 C 
BRANCH   4   5
ATOM      5  N   UNL A   1      34.178  23.674  26.661  1.00  0.00    -0.352 N 
ATOM      6  C   UNL A   1      33.124  22.819  26.634  1.00  0.00     0.251 C 
ATOM      7  O   UNL A   1      32.260  22.954  27.497  1.00  0.00    -0.270 OA
ATOM      8  H   UNL A   1      34.255  24.176  27.505  1.00  0.00     0.163 HD
BRANCH   6   9
ATOM      9  C   UNL A   1      33.021  21.687  25.675  1.00  0.00     0.067 C 
ATOM     10  C   UNL A   1      32.995  17.006  24.494  1.00  0.00     0.015 A 
ATOM     11  C   UNL A   1      32.469  17.316  23.237  1.00  0.00     0.015 A 
ATOM     12  C   UNL A   1      33.312  18.023  25.398  1.00  0.00     0.023 A 
ATOM     13  C   UNL A   1      32.228  18.648  22.901  1.00  0.00     0.048 A 
ATOM     14  C   UNL A   1      33.088  19.361  25.047  1.00  0.00     0.018 A 
ATOM     15  C   UNL A   1      32.529  19.665  23.807  1.00  0.00     0.128 A 
ATOM     16  C   UNL A   1      33.340  20.426  26.002  1.00  0.00     0.025 C 
ATOM     17  O   UNL A   1      32.182  20.929  23.438  1.00  0.00    -0.475 OA
ATOM     18  C   UNL A   1      32.674  22.049  24.230  1.00  0.00     0.314 C 
BRANCH  10  19
ATOM     19  C   UNL A   1      33.191  15.598  24.892  1.00  0.00     0.260 C 
ATOM     20  O   UNL A   1      34.241  15.200  25.376  1.00  0.00    -0.298 OA
ENDBRANCH  10  19
BRANCH  18  21
ATOM     21  C   UNL A   1      31.691  23.224  24.009  1.00  0.00     0.429 C 
ATOM     22  F   UNL A   1      32.289  24.434  24.089  1.00  0.00    -0.167 F 
ATOM     23  F   UNL A   1      31.154  23.174  22.759  1.00  0.00    -0.167 F 
ATOM     24  F   UNL A   1      30.655  23.201  24.878  1.00  0.00    -0.167 F 
ENDBRANCH  18  21
ENDBRANCH   6   9
ENDBRANCH   4   5
ENDBRANCH   3   4
ENDBRANCH   2   3
ENDBRANCH   1   2
BRANCH   1  25
ATOM     25  C   UNL A   1      37.794  19.828  24.872  1.00  0.00     0.021 C 
BRANCH  25  26
ATOM     26  C   UNL A   1      38.961  20.262  25.750  1.00  0.00     0.116 C 
BRANCH  26  27
ATOM     27  N   UNL A   1      39.951  19.205  25.879  1.00  0.00    -0.352 N 
ATOM     28  C   UNL A   1      41.310  19.314  26.037  1.00  0.00     0.251 C 
ATOM     29  H   UNL A   1      39.598  18.287  25.849  1.00  0.00     0.163 HD
ATOM     30  O   UNL A   1      42.036  18.341  25.882  1.00  0.00    -0.269 OA
BRANCH  28  31
ATOM     31  C   UNL A   1      41.889  20.626  26.392  1.00  0.00     0.039 A 
ATOM     32  C   UNL A   1      42.207  21.528  25.375  1.00  0.00     0.014 A 
ATOM     33  C   UNL A   1      42.116  20.957  27.730  1.00  0.00     0.014 A 
ATOM     34  C   UNL A   1      42.707  22.789  25.706  1.00  0.00     0.010 A 
ATOM     35  C   UNL A   1      42.539  22.239  28.060  1.00  0.00     0.010 A 
ATOM     36  C   UNL A   1      42.850  23.164  27.052  1.00  0.00    -0.014 A 
BRANCH  36  37
ATOM     37  C   UNL A   1      43.353  24.506  27.435  1.00  0.00     0.031 A 
ATOM     38  C   UNL A   1      42.380  25.569  27.869  1.00  0.00     0.074 A 
ATOM     39  C   UNL A   1      44.667  24.788  27.336  1.00  0.00     0.049 A 
ATOM     40  N   UNL A   1      42.596  26.832  28.131  1.00  0.00    -0.248 NA
ATOM     41  C   UNL A   1      40.969  25.163  27.998  1.00  0.00     0.031 C 
ATOM     42  C   UNL A   1      45.706  23.851  26.902  1.00  0.00     0.029 A 
ATOM     43  N   UNL A   1      45.353  25.951  27.580  1.00  0.00    -0.354 N 
ATOM     44  C   UNL A   1      41.355  27.369  28.449  1.00  0.00     0.074 A 
ATOM     45  C   UNL A   1      40.381  26.314  28.285  1.00  0.00     0.031 C 
ATOM     46  C   UNL A   1      46.897  24.473  26.926  1.00  0.00     0.029 A 
ATOM     47  C   UNL A   1      46.701  25.861  27.331  1.00  0.00     0.049 A 
ATOM     48  H   UNL A   1      44.920  26.773  27.904  1.00  0.00     0.167 HD
ATOM     49  C   UNL A   1      41.059  28.621  28.870  1.00  0.00     0.037 A 
ATOM     50  C   UNL A   1      47.667  26.797  27.407  1.00  0.00     0.037 A 
ATOM     51  C   UNL A   1      42.033  29.663  29.053  1.00  0.00     0.049 A 
ATOM     52  C   UNL A   1      47.299  28.193  27.839  1.00  0.00     0.074 A 
ATOM     53  C   UNL A   1      41.836  30.959  29.496  1.00  0.00     0.029 A 
ATOM     54  N   UNL A   1      43.391  29.525  28.810  1.00  0.00    -0.354 N 
ATOM     55  N   UNL A   1      46.127  28.673  28.179  1.00  0.00    -0.248 NA
ATOM     56  C   UNL A   1      48.390  29.175  27.906  1.00  0.00     0.031 C 
ATOM     57  C   UNL A   1      43.068  31.617  29.484  1.00  0.00     0.029 A 
ATOM     58  C   UNL A   1      44.041  30.714  29.086  1.00  0.00     0.049 A 
ATOM     59  H   UNL A   1      43.827  28.702  28.489  1.00  0.00     0.167 HD
ATOM     60  C   UNL A   1      46.349  29.995  28.542  1.00  0.00     0.074 A 
ATOM     61  C   UNL A   1      47.768  30.239  28.391  1.00  0.00     0.031 C 
ATOM     62  C   UNL A   1      45.459  30.927  28.964  1.00  0.00     0.037 A 
BRANCH  49  63
ATOM     63  C   UNL A   1      39.624  28.930  29.185  1.00  0.00     0.057 A 
ATOM     64  C   UNL A   1      38.736  29.377  28.197  1.00  0.00     0.134 A 
ATOM     65  C   UNL A   1      39.107  28.717  30.470  1.00  0.00     0.134 A 
ATOM     66  F   UNL A   1      39.171  29.612  26.950  1.00  0.00    -0.206 F 
ATOM     67  C   UNL A   1      37.391  29.616  28.479  1.00  0.00     0.040 A 
ATOM     68  C   UNL A   1      37.757  28.926  30.756  1.00  0.00     0.040 A 
ATOM     69  F   UNL A   1      39.901  28.285  31.460  1.00  0.00    -0.206 F 
ATOM     70  C   UNL A   1      36.895  29.380  29.760  1.00  0.00     0.006 A 
ENDBRANCH  49  63
BRANCH  50  71
ATOM     71  C   UNL A   1      49.075  26.465  27.068  1.00  0.00     0.057 A 
ATOM     72  C   UNL A   1      49.542  26.553  25.750  1.00  0.00     0.134 A 
ATOM     73  C   UNL A   1      49.971  25.994  28.035  1.00  0.00     0.134 A 
ATOM     74  F   UNL A   1      48.728  26.980  24.773  1.00  0.00    -0.206 F 
ATOM     75  C   UNL A   1      50.830  26.144  25.399  1.00  0.00     0.040 A 
ATOM     76  C   UNL A   1      51.273  25.613  27.705  1.00  0.00     0.040 A 
ATOM     77  F   UNL A   1      49.593  25.896  29.318  1.00  0.00    -0.206 F 
ATOM     78  C   UNL A   1      51.700  25.673  26.380  1.00  0.00     0.006 A 
ENDBRANCH  50  71
BRANCH  62  79
ATOM     79  C   UNL A   1      45.998  32.269  29.363  1.00  0.00     0.057 A 
ATOM     80  C   UNL A   1      46.088  33.335  28.459  1.00  0.00     0.134 A 
ATOM     81  C   UNL A   1      46.385  32.510  30.688  1.00  0.00     0.134 A 
ATOM     82  F   UNL A   1      45.745  33.167  27.173  1.00  0.00    -0.206 F 
ATOM     83  C   UNL A   1      46.565  34.587  28.855  1.00  0.00     0.040 A 
ATOM     84  C   UNL A   1      46.833  33.764  31.102  1.00  0.00     0.040 A 
ATOM     85  F   UNL A   1      46.313  31.535  31.607  1.00  0.00    -0.206 F 
ATOM     86  C   UNL A   1      46.930  34.805  30.182  1.00  0.00     0.006 A 
ENDBRANCH  62  79
ENDBRANCH  36  37
ENDBRANCH  28  31
ENDBRANCH  26  27
ENDBRANCH  25  26
ENDBRANCH   1  25
TORSDOF 15
ENDMDL
MODEL 3
REMARK VINA RESULT:     -11.5      5.234      9.945
REMARK SMILES O=Cc1ccc2c(c1)C=C(C(=O)NCCCCCCNC(=O)c1ccc(-c3c4nc(c(-c5c(F)cccc5F)c5ccc([nH]5)c(-c5c(F)cccc5F)c5nc(c(-c6c(F)cccc6F)c6ccc3[nH]6)C=C5)C=C4)cc1)[C@H](C(F)(F)F)O2
REMARK SMILES IDX 17 1 16 2 15 3 14 4 13 5 11 6 12 7 10 9 3 10 4 11 8 12 5 13
REMARK SMILES IDX 7 14 6 15 9 16 82 17 77 18 2 19 1 20 78 21 79 22 80 23 81 24
REMARK SMILES IDX 18 25 19 26 20 27 21 28 22 30 23 31 24 32 76 33 25 34 75 35
REMARK SMILES IDX 26 36 27 37 28 38 69 39 29 40 74 41 68 42 70 43 30 44 73 45
REMARK SMILES IDX 67 46 66 47 31 49 57 50 40 51 56 52 41 53 44 54 55 55 71 56
REMARK SMILES IDX 42 57 43 58 54 60 72 61 45 62 32 63 33 64 38 65 34 66 35 67
REMARK SMILES IDX 37 68 39 69 36 70 58 71 59 72 64 73 60 74 61 75 63 76 65 77
REMARK SMILES IDX 62 78 46 79 47 80 52 81 48 82 49 83 51 84 53 85 50 86
REMARK H PARENT 13 8 20 29 70 48 44 59
REMARK Flexibility Score: inf
ROOT
ATOM      1  C   UNL A   1      31.577  30.399  26.069  1.00  0.00     0.002 C 
ENDROOT
BRANCH   1   2
ATOM      2  C   UNL A   1      32.652  29.649  26.866  1.00  0.00     0.002 C 
BRANCH   2   3
ATOM      3  C   UNL A   1      33.823  29.126  26.019  1.00  0.00     0.021 C 
BRANCH   3   4
ATOM      4  C   UNL A   1      33.770  27.609  25.804  1.00  0.00     0.116 C 
BRANCH   4   5
ATOM      5  N   UNL A   1      34.011  27.318  24.402  1.00  0.00    -0.352 N 
ATOM      6  C   UNL A   1      33.191  27.195  23.328  1.00  0.00     0.251 C 
ATOM      7  O   UNL A   1      33.654  26.678  22.314  1.00  0.00    -0.270 OA
ATOM      8  H   UNL A   1      34.962  27.182  24.187  1.00  0.00     0.163 HD
BRANCH   6   9
ATOM      9  C   UNL A   1      31.805  27.735  23.297  1.00  0.00     0.067 C 
ATOM     10  C   UNL A   1      28.395  30.821  21.830  1.00  0.00     0.015 A 
ATOM     11  C   UNL A   1      27.402  29.984  22.345  1.00  0.00     0.015 A 
ATOM     12  C   UNL A   1      29.745  30.495  21.984  1.00  0.00     0.023 A 
ATOM     13  C   UNL A   1      27.764  28.798  22.984  1.00  0.00     0.048 A 
ATOM     14  C   UNL A   1      30.103  29.313  22.646  1.00  0.00     0.018 A 
ATOM     15  C   UNL A   1      29.110  28.461  23.126  1.00  0.00     0.128 A 
ATOM     16  C   UNL A   1      31.498  28.919  22.749  1.00  0.00     0.025 C 
ATOM     17  O   UNL A   1      29.376  27.247  23.681  1.00  0.00    -0.475 OA
ATOM     18  C   UNL A   1      30.748  26.939  24.066  1.00  0.00     0.314 C 
BRANCH  10  19
ATOM     19  C   UNL A   1      28.027  32.044  21.090  1.00  0.00     0.260 C 
ATOM     20  O   UNL A   1      27.982  33.141  21.629  1.00  0.00    -0.298 OA
ENDBRANCH  10  19
BRANCH  18  21
ATOM     21  C   UNL A   1      30.881  25.397  24.065  1.00  0.00     0.429 C 
ATOM     22  F   UNL A   1      31.909  24.956  24.824  1.00  0.00    -0.167 F 
ATOM     23  F   UNL A   1      29.770  24.817  24.597  1.00  0.00    -0.167 F 
ATOM     24  F   UNL A   1      31.024  24.891  22.818  1.00  0.00    -0.167 F 
ENDBRANCH  18  21
ENDBRANCH   6   9
ENDBRANCH   4   5
ENDBRANCH   3   4
ENDBRANCH   2   3
ENDBRANCH   1   2
BRANCH   1  25
ATOM     25  C   UNL A   1      31.376  31.856  26.490  1.00  0.00     0.021 C 
BRANCH  25  26
ATOM     26  C   UNL A   1      32.564  32.449  27.238  1.00  0.00     0.116 C 
BRANCH  26  27
ATOM     27  N   UNL A   1      32.363  33.861  27.522  1.00  0.00    -0.352 N 
ATOM     28  C   UNL A   1      32.977  34.644  28.466  1.00  0.00     0.251 C 
ATOM     29  H   UNL A   1      31.695  34.316  26.960  1.00  0.00     0.163 HD
ATOM     30  O   UNL A   1      32.527  35.746  28.751  1.00  0.00    -0.269 OA
BRANCH  28  31
ATOM     31  C   UNL A   1      34.188  34.137  29.143  1.00  0.00     0.039 A 
ATOM     32  C   UNL A   1      34.052  33.379  30.307  1.00  0.00     0.014 A 
ATOM     33  C   UNL A   1      35.455  34.415  28.622  1.00  0.00     0.014 A 
ATOM     34  C   UNL A   1      35.190  32.854  30.923  1.00  0.00     0.010 A 
ATOM     35  C   UNL A   1      36.578  33.827  29.191  1.00  0.00     0.010 A 
ATOM     36  C   UNL A   1      36.459  33.050  30.354  1.00  0.00    -0.014 A 
BRANCH  36  37
ATOM     37  C   UNL A   1      37.683  32.482  30.970  1.00  0.00     0.031 A 
ATOM     38  C   UNL A   1      38.324  31.263  30.363  1.00  0.00     0.074 A 
ATOM     39  C   UNL A   1      38.181  33.020  32.101  1.00  0.00     0.049 A 
ATOM     40  N   UNL A   1      39.322  30.545  30.808  1.00  0.00    -0.248 NA
ATOM     41  C   UNL A   1      37.747  30.771  29.099  1.00  0.00     0.031 C 
ATOM     42  C   UNL A   1      37.633  34.184  32.800  1.00  0.00     0.029 A 
ATOM     43  N   UNL A   1      39.254  32.646  32.871  1.00  0.00    -0.354 N 
ATOM     44  C   UNL A   1      39.488  29.518  29.887  1.00  0.00     0.074 A 
ATOM     45  C   UNL A   1      38.448  29.666  28.893  1.00  0.00     0.031 C 
ATOM     46  C   UNL A   1      38.382  34.438  33.886  1.00  0.00     0.029 A 
ATOM     47  C   UNL A   1      39.433  33.430  33.986  1.00  0.00     0.049 A 
ATOM     48  H   UNL A   1      39.840  31.889  32.646  1.00  0.00     0.167 HD
ATOM     49  C   UNL A   1      40.439  28.556  29.856  1.00  0.00     0.037 A 
ATOM     50  C   UNL A   1      40.334  33.335  34.982  1.00  0.00     0.037 A 
ATOM     51  C   UNL A   1      41.485  28.423  30.834  1.00  0.00     0.049 A 
ATOM     52  C   UNL A   1      41.355  32.228  34.941  1.00  0.00     0.074 A 
ATOM     53  C   UNL A   1      42.510  27.494  30.879  1.00  0.00     0.029 A 
ATOM     54  N   UNL A   1      41.644  29.249  31.936  1.00  0.00    -0.354 N 
ATOM     55  N   UNL A   1      41.526  31.291  34.040  1.00  0.00    -0.248 NA
ATOM     56  C   UNL A   1      42.316  32.170  36.052  1.00  0.00     0.031 C 
ATOM     57  C   UNL A   1      43.267  27.734  32.029  1.00  0.00     0.029 A 
ATOM     58  C   UNL A   1      42.745  28.846  32.670  1.00  0.00     0.049 A 
ATOM     59  H   UNL A   1      41.060  30.009  32.161  1.00  0.00     0.167 HD
ATOM     60  C   UNL A   1      42.636  30.565  34.452  1.00  0.00     0.074 A 
ATOM     61  C   UNL A   1      43.105  31.175  35.677  1.00  0.00     0.031 C 
ATOM     62  C   UNL A   1      43.218  29.488  33.868  1.00  0.00     0.037 A 
BRANCH  49  63
ATOM     63  C   UNL A   1      40.409  27.582  28.714  1.00  0.00     0.057 A 
ATOM     64  C   UNL A   1      41.177  27.782  27.559  1.00  0.00     0.134 A 
ATOM     65  C   UNL A   1      39.659  26.402  28.794  1.00  0.00     0.134 A 
ATOM     66  F   UNL A   1      41.909  28.898  27.414  1.00  0.00    -0.206 F 
ATOM     67  C   UNL A   1      41.188  26.853  26.519  1.00  0.00     0.040 A 
ATOM     68  C   UNL A   1      39.684  25.451  27.773  1.00  0.00     0.040 A 
ATOM     69  F   UNL A   1      38.906  26.146  29.874  1.00  0.00    -0.206 F 
ATOM     70  C   UNL A   1      40.448  25.677  26.629  1.00  0.00     0.006 A 
ENDBRANCH  49  63
BRANCH  50  71
ATOM     71  C   UNL A   1      40.324  34.303  36.110  1.00  0.00     0.057 A 
ATOM     72  C   UNL A   1      39.555  34.069  37.258  1.00  0.00     0.134 A 
ATOM     73  C   UNL A   1      41.030  35.511  36.046  1.00  0.00     0.134 A 
ATOM     74  F   UNL A   1      38.842  32.939  37.373  1.00  0.00    -0.206 F 
ATOM     75  C   UNL A   1      39.453  35.016  38.278  1.00  0.00     0.040 A 
ATOM     76  C   UNL A   1      40.963  36.453  37.074  1.00  0.00     0.040 A 
ATOM     77  F   UNL A   1      41.795  35.793  34.982  1.00  0.00    -0.206 F 
ATOM     78  C   UNL A   1      40.160  36.213  38.187  1.00  0.00     0.006 A 
ENDBRANCH  50  71
BRANCH  62  79
ATOM     79  C   UNL A   1      44.465  28.947  34.502  1.00  0.00     0.057 A 
ATOM     80  C   UNL A   1      45.738  29.429  34.174  1.00  0.00     0.134 A 
ATOM     81  C   UNL A   1      44.382  27.962  35.495  1.00  0.00     0.134 A 
ATOM     82  F   UNL A   1      45.888  30.363  33.223  1.00  0.00    -0.206 F 
ATOM     83  C   UNL A   1      46.887  28.933  34.796  1.00  0.00     0.040 A 
ATOM     84  C   UNL A   1      45.520  27.481  36.145  1.00  0.00     0.040 A 
ATOM     85  F   UNL A   1      43.192  27.464  35.864  1.00  0.00    -0.206 F 
ATOM     86  C   UNL A   1      46.777  27.963  35.790  1.00  0.00     0.006 A 
ENDBRANCH  62  79
ENDBRANCH  36  37
ENDBRANCH  28  31
ENDBRANCH  26  27
ENDBRANCH  25  26
ENDBRANCH   1  25
TORSDOF 15
ENDMDL
