MODEL 1
REMARK VINA RESULT:     -12.9      0.000      0.000
REMARK SMILES O=C(NCCCCCCNC(=O)[C@H]1CC=CC[C@@H]1C(=O)Nc1nn(Cc2ccccc2F)cc1Br)c1ccc(-c2c3nc(c(-c4c(F)cccc4F)c4ccc([nH]4)c(-c4c(F)cccc4F)c4nc(c(-c5c(F)cccc5F)c5ccc2[nH]5)C=C4)C=C3)cc1
REMARK SMILES IDX 7 1 6 2 5 3 4 4 3 5 1 6 2 7 36 9 37 10 89 11 38 12 88 13
REMARK SMILES IDX 39 14 40 15 41 16 82 17 42 18 87 19 81 20 83 21 43 22 86 23
REMARK SMILES IDX 80 24 79 25 44 27 70 28 53 29 69 30 54 31 57 32 68 33 84 34
REMARK SMILES IDX 55 35 56 36 67 38 85 39 58 40 45 41 46 42 51 43 47 44 48 45
REMARK SMILES IDX 50 46 52 47 49 48 71 49 72 50 77 51 73 52 74 53 76 54 78 55
REMARK SMILES IDX 75 56 59 57 60 58 65 59 61 60 62 61 64 62 66 63 63 64 8 65
REMARK SMILES IDX 9 66 10 67 11 68 12 70 13 71 14 72 18 73 15 74 17 75 16 76
REMARK SMILES IDX 19 77 20 78 21 79 22 81 23 82 34 83 24 84 33 85 35 86 25 87
REMARK SMILES IDX 26 88 27 89 31 90 28 91 30 92 32 93 29 94
REMARK H PARENT 3 8 83 26 57 37 10 69 21 80
REMARK Flexibility Score: inf
ROOT
ATOM      1  C   UNL A   1      32.773  29.391  27.145  1.00  0.00     0.002 C 
ENDROOT
BRANCH   1   2
ATOM      2  C   UNL A   1      34.241  28.978  27.317  1.00  0.00     0.002 C 
BRANCH   2   3
ATOM      3  C   UNL A   1      35.237  30.123  27.524  1.00  0.00     0.021 C 
BRANCH   3   4
ATOM      4  C   UNL A   1      34.597  31.505  27.659  1.00  0.00     0.116 C 
BRANCH   4   5
ATOM      5  N   UNL A   1      34.431  31.955  29.026  1.00  0.00    -0.352 N 
ATOM      6  O   UNL A   1      34.709  32.336  31.193  1.00  0.00    -0.269 OA
ATOM      7  C   UNL A   1      35.158  31.805  30.174  1.00  0.00     0.251 C 
ATOM      8  H   UNL A   1      33.614  32.488  29.157  1.00  0.00     0.163 HD
BRANCH   7   9
ATOM      9  C   UNL A   1      36.414  31.017  30.278  1.00  0.00     0.039 A 
ATOM     10  C   UNL A   1      36.492  29.696  30.716  1.00  0.00     0.014 A 
ATOM     11  C   UNL A   1      37.592  31.653  29.843  1.00  0.00     0.014 A 
ATOM     12  C   UNL A   1      37.721  29.042  30.774  1.00  0.00     0.010 A 
ATOM     13  C   UNL A   1      38.819  30.994  29.866  1.00  0.00     0.010 A 
ATOM     14  C   UNL A   1      38.885  29.687  30.345  1.00  0.00    -0.014 A 
BRANCH  14  15
ATOM     15  C   UNL A   1      40.107  28.886  30.269  1.00  0.00     0.031 A 
ATOM     16  C   UNL A   1      40.799  28.619  31.568  1.00  0.00     0.074 A 
ATOM     17  C   UNL A   1      40.549  28.257  29.164  1.00  0.00     0.049 A 
ATOM     18  N   UNL A   1      42.017  28.898  31.912  1.00  0.00    -0.248 NA
ATOM     19  C   UNL A   1      40.007  27.980  32.631  1.00  0.00     0.031 C 
ATOM     20  C   UNL A   1      39.864  28.077  27.886  1.00  0.00     0.029 A 
ATOM     21  N   UNL A   1      41.703  27.544  29.009  1.00  0.00    -0.354 N 
ATOM     22  C   UNL A   1      42.196  28.351  33.183  1.00  0.00     0.074 A 
ATOM     23  C   UNL A   1      40.907  27.869  33.609  1.00  0.00     0.031 C 
ATOM     24  C   UNL A   1      40.521  27.140  27.163  1.00  0.00     0.029 A 
ATOM     25  C   UNL A   1      41.733  26.756  27.870  1.00  0.00     0.049 A 
ATOM     26  H   UNL A   1      42.449  27.586  29.649  1.00  0.00     0.167 HD
ATOM     27  C   UNL A   1      43.420  28.197  33.760  1.00  0.00     0.037 A 
ATOM     28  C   UNL A   1      42.653  25.811  27.570  1.00  0.00     0.037 A 
ATOM     29  C   UNL A   1      44.432  28.988  33.124  1.00  0.00     0.049 A 
ATOM     30  C   UNL A   1      43.863  26.060  28.392  1.00  0.00     0.074 A 
ATOM     31  C   UNL A   1      44.640  30.339  32.931  1.00  0.00     0.029 A 
ATOM     32  N   UNL A   1      45.334  28.357  32.307  1.00  0.00    -0.354 N 
ATOM     33  N   UNL A   1      44.683  27.058  28.227  1.00  0.00    -0.248 NA
ATOM     34  C   UNL A   1      43.994  25.346  29.652  1.00  0.00     0.031 C 
ATOM     35  C   UNL A   1      45.297  30.437  31.670  1.00  0.00     0.029 A 
ATOM     36  C   UNL A   1      45.452  29.136  31.186  1.00  0.00     0.049 A 
ATOM     37  H   UNL A   1      45.804  27.511  32.488  1.00  0.00     0.167 HD
ATOM     38  C   UNL A   1      45.148  27.349  29.500  1.00  0.00     0.074 A 
ATOM     39  C   UNL A   1      44.793  26.189  30.308  1.00  0.00     0.031 C 
ATOM     40  C   UNL A   1      45.531  28.612  29.843  1.00  0.00     0.037 A 
BRANCH  27  41
ATOM     41  C   UNL A   1      43.758  27.126  34.761  1.00  0.00     0.057 A 
ATOM     42  C   UNL A   1      43.767  27.348  36.151  1.00  0.00     0.134 A 
ATOM     43  C   UNL A   1      43.818  25.777  34.364  1.00  0.00     0.134 A 
ATOM     44  F   UNL A   1      43.598  28.572  36.669  1.00  0.00    -0.206 F 
ATOM     45  C   UNL A   1      43.856  26.309  37.082  1.00  0.00     0.040 A 
ATOM     46  C   UNL A   1      43.858  24.725  35.289  1.00  0.00     0.040 A 
ATOM     47  F   UNL A   1      43.772  25.439  33.067  1.00  0.00    -0.206 F 
ATOM     48  C   UNL A   1      43.879  24.990  36.653  1.00  0.00     0.006 A 
ENDBRANCH  27  41
BRANCH  28  49
ATOM     49  C   UNL A   1      42.482  24.556  26.805  1.00  0.00     0.057 A 
ATOM     50  C   UNL A   1      41.865  23.426  27.369  1.00  0.00     0.134 A 
ATOM     51  C   UNL A   1      43.164  24.347  25.597  1.00  0.00     0.134 A 
ATOM     52  F   UNL A   1      41.250  23.491  28.558  1.00  0.00    -0.206 F 
ATOM     53  C   UNL A   1      41.932  22.162  26.775  1.00  0.00     0.040 A 
ATOM     54  C   UNL A   1      43.251  23.085  24.999  1.00  0.00     0.040 A 
ATOM     55  F   UNL A   1      43.818  25.354  25.001  1.00  0.00    -0.206 F 
ATOM     56  C   UNL A   1      42.642  21.984  25.595  1.00  0.00     0.006 A 
ENDBRANCH  28  49
BRANCH  40  57
ATOM     57  C   UNL A   1      45.744  29.611  28.742  1.00  0.00     0.057 A 
ATOM     58  C   UNL A   1      44.637  30.308  28.241  1.00  0.00     0.134 A 
ATOM     59  C   UNL A   1      46.961  29.780  28.067  1.00  0.00     0.134 A 
ATOM     60  F   UNL A   1      43.426  30.148  28.798  1.00  0.00    -0.206 F 
ATOM     61  C   UNL A   1      44.736  31.143  27.127  1.00  0.00     0.040 A 
ATOM     62  C   UNL A   1      47.080  30.642  26.972  1.00  0.00     0.040 A 
ATOM     63  F   UNL A   1      48.047  29.074  28.407  1.00  0.00    -0.206 F 
ATOM     64  C   UNL A   1      45.963  31.320  26.493  1.00  0.00     0.006 A 
ENDBRANCH  40  57
ENDBRANCH  14  15
ENDBRANCH   7   9
ENDBRANCH   4   5
ENDBRANCH   3   4
ENDBRANCH   2   3
ENDBRANCH   1   2
BRANCH   1  65
ATOM     65  C   UNL A   1      31.739  28.369  27.626  1.00  0.00     0.021 C 
BRANCH  65  66
ATOM     66  C   UNL A   1      31.145  27.524  26.504  1.00  0.00     0.116 C 
BRANCH  66  67
ATOM     67  N   UNL A   1      31.088  26.121  26.862  1.00  0.00    -0.356 N 
ATOM     68  C   UNL A   1      31.671  24.974  26.454  1.00  0.00     0.224 C 
ATOM     69  H   UNL A   1      30.455  25.962  27.599  1.00  0.00     0.163 HD
ATOM     70  O   UNL A   1      31.445  24.013  27.210  1.00  0.00    -0.275 OA
BRANCH  68  71
ATOM     71  C   UNL A   1      32.536  24.735  25.202  1.00  0.00     0.095 C 
ATOM     72  C   UNL A   1      33.545  23.612  25.533  1.00  0.00     0.041 C 
ATOM     73  C   UNL A   1      31.877  24.508  23.844  1.00  0.00     0.095 C 
ATOM     74  C   UNL A   1      33.001  22.238  25.282  1.00  0.00    -0.030 C 
ATOM     75  C   UNL A   1      31.339  23.079  23.620  1.00  0.00     0.041 C 
ATOM     76  C   UNL A   1      31.997  22.004  24.430  1.00  0.00    -0.030 C 
BRANCH  73  77
ATOM     77  C   UNL A   1      32.792  24.871  22.668  1.00  0.00     0.229 C 
ATOM     78  O   UNL A   1      33.691  24.119  22.283  1.00  0.00    -0.274 OA
ATOM     79  N   UNL A   1      32.478  25.959  21.898  1.00  0.00    -0.308 N 
ATOM     80  H   UNL A   1      32.757  25.913  20.955  1.00  0.00     0.171 HD
BRANCH  79  81
ATOM     81  C   UNL A   1      31.819  27.110  22.275  1.00  0.00     0.168 A 
ATOM     82  N   UNL A   1      30.534  27.362  22.000  1.00  0.00    -0.153 NA
ATOM     83  C   UNL A   1      32.360  28.145  23.069  1.00  0.00     0.080 A 
ATOM     84  N   UNL A   1      30.252  28.504  22.666  1.00  0.00    -0.265 N 
ATOM     85  C   UNL A   1      31.352  29.051  23.270  1.00  0.00     0.127 A 
ATOM     86  Br  UNL A   1      34.121  28.258  23.688  1.00  0.00    -0.045 Br
BRANCH  84  87
ATOM     87  C   UNL A   1      28.869  28.922  22.886  1.00  0.00     0.182 C 
BRANCH  87  88
ATOM     88  C   UNL A   1      28.538  30.278  22.332  1.00  0.00     0.009 A 
ATOM     89  C   UNL A   1      28.094  30.445  21.012  1.00  0.00     0.008 A 
ATOM     90  C   UNL A   1      28.714  31.417  23.125  1.00  0.00     0.128 A 
ATOM     91  C   UNL A   1      27.847  31.726  20.507  1.00  0.00     0.001 A 
ATOM     92  C   UNL A   1      28.465  32.693  22.630  1.00  0.00     0.039 A 
ATOM     93  F   UNL A   1      29.158  31.291  24.382  1.00  0.00    -0.207 F 
ATOM     94  C   UNL A   1      28.029  32.850  21.315  1.00  0.00     0.003 A 
ENDBRANCH  87  88
ENDBRANCH  84  87
ENDBRANCH  79  81
ENDBRANCH  73  77
ENDBRANCH  68  71
ENDBRANCH  66  67
ENDBRANCH  65  66
ENDBRANCH   1  65
TORSDOF 17
ENDMDL
MODEL 2
REMARK VINA RESULT:     -12.7      2.663      7.452
REMARK SMILES O=C(NCCCCCCNC(=O)[C@H]1CC=CC[C@@H]1C(=O)Nc1nn(Cc2ccccc2F)cc1Br)c1ccc(-c2c3nc(c(-c4c(F)cccc4F)c4ccc([nH]4)c(-c4c(F)cccc4F)c4nc(c(-c5c(F)cccc5F)c5ccc2[nH]5)C=C4)C=C3)cc1
REMARK SMILES IDX 7 1 6 2 5 3 4 4 3 5 1 6 2 7 36 9 37 10 89 11 38 12 88 13
REMARK SMILES IDX 39 14 40 15 41 16 82 17 42 18 87 19 81 20 83 21 43 22 86 23
REMARK SMILES IDX 80 24 79 25 44 27 70 28 53 29 69 30 54 31 57 32 68 33 84 34
REMARK SMILES IDX 55 35 56 36 67 38 85 39 58 40 45 41 46 42 51 43 47 44 48 45
REMARK SMILES IDX 50 46 52 47 49 48 71 49 72 50 77 51 73 52 74 53 76 54 78 55
REMARK SMILES IDX 75 56 59 57 60 58 65 59 61 60 62 61 64 62 66 63 63 64 8 65
REMARK SMILES IDX 9 66 10 67 11 68 12 70 13 71 14 72 18 73 15 74 17 75 16 76
REMARK SMILES IDX 19 77 20 78 21 79 22 81 23 82 34 83 24 84 33 85 35 86 25 87
REMARK SMILES IDX 26 88 27 89 31 90 28 91 30 92 32 93 29 94
REMARK H PARENT 3 8 83 26 57 37 10 69 21 80
REMARK Flexibility Score: inf
ROOT
ATOM      1  C   UNL A   1      37.408  22.688  25.593  1.00  0.00     0.002 C 
ENDROOT
BRANCH   1   2
ATOM      2  C   UNL A   1      38.686  21.850  25.741  1.00  0.00     0.002 C 
BRANCH   2   3
ATOM      3  C   UNL A   1      39.672  22.322  26.815  1.00  0.00     0.021 C 
BRANCH   3   4
ATOM      4  C   UNL A   1      40.998  21.564  26.836  1.00  0.00     0.116 C 
BRANCH   4   5
ATOM      5  N   UNL A   1      41.904  21.917  25.762  1.00  0.00    -0.352 N 
ATOM      6  O   UNL A   1      43.254  23.014  24.385  1.00  0.00    -0.269 OA
ATOM      7  C   UNL A   1      42.531  23.071  25.384  1.00  0.00     0.251 C 
ATOM      8  H   UNL A   1      42.117  21.156  25.175  1.00  0.00     0.163 HD
BRANCH   7   9
ATOM      9  C   UNL A   1      42.362  24.382  26.064  1.00  0.00     0.039 A 
ATOM     10  C   UNL A   1      41.439  25.359  25.694  1.00  0.00     0.014 A 
ATOM     11  C   UNL A   1      43.165  24.608  27.197  1.00  0.00     0.014 A 
ATOM     12  C   UNL A   1      41.357  26.557  26.400  1.00  0.00     0.010 A 
ATOM     13  C   UNL A   1      43.063  25.790  27.929  1.00  0.00     0.010 A 
ATOM     14  C   UNL A   1      42.164  26.773  27.521  1.00  0.00    -0.014 A 
BRANCH  14  15
ATOM     15  C   UNL A   1      41.903  27.973  28.316  1.00  0.00     0.031 A 
ATOM     16  C   UNL A   1      42.893  29.085  28.170  1.00  0.00     0.074 A 
ATOM     17  C   UNL A   1      40.781  28.201  29.023  1.00  0.00     0.049 A 
ATOM     18  N   UNL A   1      43.603  29.665  29.086  1.00  0.00    -0.248 NA
ATOM     19  C   UNL A   1      43.139  29.591  26.811  1.00  0.00     0.031 C 
ATOM     20  C   UNL A   1      39.538  27.431  29.029  1.00  0.00     0.029 A 
ATOM     21  N   UNL A   1      40.496  29.266  29.828  1.00  0.00    -0.354 N 
ATOM     22  C   UNL A   1      44.285  30.702  28.448  1.00  0.00     0.074 A 
ATOM     23  C   UNL A   1      44.025  30.561  27.039  1.00  0.00     0.031 C 
ATOM     24  C   UNL A   1      38.572  28.160  29.633  1.00  0.00     0.029 A 
ATOM     25  C   UNL A   1      39.158  29.380  30.165  1.00  0.00     0.049 A 
ATOM     26  H   UNL A   1      41.182  29.900  30.141  1.00  0.00     0.167 HD
ATOM     27  C   UNL A   1      44.915  31.704  29.124  1.00  0.00     0.037 A 
ATOM     28  C   UNL A   1      38.570  30.434  30.778  1.00  0.00     0.037 A 
ATOM     29  C   UNL A   1      45.137  31.383  30.503  1.00  0.00     0.049 A 
ATOM     30  C   UNL A   1      39.625  31.234  31.445  1.00  0.00     0.074 A 
ATOM     31  C   UNL A   1      45.852  30.414  31.179  1.00  0.00     0.029 A 
ATOM     32  N   UNL A   1      44.339  31.975  31.447  1.00  0.00    -0.354 N 
ATOM     33  N   UNL A   1      40.289  30.860  32.501  1.00  0.00    -0.248 NA
ATOM     34  C   UNL A   1      40.188  32.365  30.723  1.00  0.00     0.031 C 
ATOM     35  C   UNL A   1      45.098  30.152  32.359  1.00  0.00     0.029 A 
ATOM     36  C   UNL A   1      43.980  30.987  32.325  1.00  0.00     0.049 A 
ATOM     37  H   UNL A   1      44.075  32.923  31.486  1.00  0.00     0.167 HD
ATOM     38  C   UNL A   1      41.544  31.430  32.352  1.00  0.00     0.074 A 
ATOM     39  C   UNL A   1      41.381  32.442  31.315  1.00  0.00     0.031 C 
ATOM     40  C   UNL A   1      42.656  30.845  32.884  1.00  0.00     0.037 A 
BRANCH  27  41
ATOM     41  C   UNL A   1      45.110  33.096  28.589  1.00  0.00     0.057 A 
ATOM     42  C   UNL A   1      46.321  33.539  28.023  1.00  0.00     0.134 A 
ATOM     43  C   UNL A   1      44.003  33.940  28.383  1.00  0.00     0.134 A 
ATOM     44  F   UNL A   1      47.425  32.780  28.042  1.00  0.00    -0.206 F 
ATOM     45  C   UNL A   1      46.433  34.745  27.326  1.00  0.00     0.040 A 
ATOM     46  C   UNL A   1      44.093  35.127  27.644  1.00  0.00     0.040 A 
ATOM     47  F   UNL A   1      42.787  33.603  28.837  1.00  0.00    -0.206 F 
ATOM     48  C   UNL A   1      45.312  35.534  27.114  1.00  0.00     0.006 A 
ENDBRANCH  27  41
BRANCH  28  49
ATOM     49  C   UNL A   1      37.189  30.945  30.627  1.00  0.00     0.057 A 
ATOM     50  C   UNL A   1      36.708  31.420  29.395  1.00  0.00     0.134 A 
ATOM     51  C   UNL A   1      36.399  31.233  31.750  1.00  0.00     0.134 A 
ATOM     52  F   UNL A   1      37.418  31.269  28.268  1.00  0.00    -0.206 F 
ATOM     53  C   UNL A   1      35.520  32.149  29.286  1.00  0.00     0.040 A 
ATOM     54  C   UNL A   1      35.215  31.973  31.657  1.00  0.00     0.040 A 
ATOM     55  F   UNL A   1      36.792  30.857  32.975  1.00  0.00    -0.206 F 
ATOM     56  C   UNL A   1      34.778  32.443  30.422  1.00  0.00     0.006 A 
ENDBRANCH  28  49
BRANCH  40  57
ATOM     57  C   UNL A   1      42.466  29.753  33.897  1.00  0.00     0.057 A 
ATOM     58  C   UNL A   1      42.220  28.451  33.446  1.00  0.00     0.134 A 
ATOM     59  C   UNL A   1      42.359  29.980  35.276  1.00  0.00     0.134 A 
ATOM     60  F   UNL A   1      42.243  28.172  32.133  1.00  0.00    -0.206 F 
ATOM     61  C   UNL A   1      41.892  27.416  34.325  1.00  0.00     0.040 A 
ATOM     62  C   UNL A   1      42.068  28.944  36.170  1.00  0.00     0.040 A 
ATOM     63  F   UNL A   1      42.471  31.212  35.788  1.00  0.00    -0.206 F 
ATOM     64  C   UNL A   1      41.825  27.659  35.695  1.00  0.00     0.006 A 
ENDBRANCH  40  57
ENDBRANCH  14  15
ENDBRANCH   7   9
ENDBRANCH   4   5
ENDBRANCH   3   4
ENDBRANCH   2   3
ENDBRANCH   1   2
BRANCH   1  65
ATOM     65  C   UNL A   1      36.817  22.746  24.181  1.00  0.00     0.021 C 
BRANCH  65  66
ATOM     66  C   UNL A   1      35.597  23.652  24.065  1.00  0.00     0.116 C 
BRANCH  66  67
ATOM     67  N   UNL A   1      34.565  23.060  23.236  1.00  0.00    -0.356 N 
ATOM     68  C   UNL A   1      33.256  22.756  23.358  1.00  0.00     0.224 C 
ATOM     69  H   UNL A   1      34.912  22.815  22.348  1.00  0.00     0.163 HD
ATOM     70  O   UNL A   1      32.728  22.427  22.282  1.00  0.00    -0.275 OA
BRANCH  68  71
ATOM     71  C   UNL A   1      32.389  22.761  24.630  1.00  0.00     0.095 C 
ATOM     72  C   UNL A   1      32.151  21.291  25.045  1.00  0.00     0.041 C 
ATOM     73  C   UNL A   1      32.785  23.619  25.829  1.00  0.00     0.095 C 
ATOM     74  C   UNL A   1      33.237  20.743  25.923  1.00  0.00    -0.030 C 
ATOM     75  C   UNL A   1      33.898  23.017  26.713  1.00  0.00     0.041 C 
ATOM     76  C   UNL A   1      34.032  21.526  26.661  1.00  0.00    -0.030 C 
BRANCH  73  77
ATOM     77  C   UNL A   1      31.595  23.979  26.726  1.00  0.00     0.229 C 
ATOM     78  O   UNL A   1      31.128  23.180  27.543  1.00  0.00    -0.274 OA
ATOM     79  N   UNL A   1      31.169  25.280  26.769  1.00  0.00    -0.308 N 
ATOM     80  H   UNL A   1      30.765  25.572  27.618  1.00  0.00     0.171 HD
BRANCH  79  81
ATOM     81  C   UNL A   1      31.234  26.233  25.775  1.00  0.00     0.168 A 
ATOM     82  N   UNL A   1      30.896  26.009  24.500  1.00  0.00    -0.153 NA
ATOM     83  C   UNL A   1      31.578  27.590  25.958  1.00  0.00     0.080 A 
ATOM     84  N   UNL A   1      30.961  27.221  23.904  1.00  0.00    -0.265 N 
ATOM     85  C   UNL A   1      31.441  28.196  24.736  1.00  0.00     0.127 A 
ATOM     86  Br  UNL A   1      32.143  28.382  27.555  1.00  0.00    -0.045 Br
BRANCH  84  87
ATOM     87  C   UNL A   1      30.345  27.449  22.598  1.00  0.00     0.182 C 
BRANCH  87  88
ATOM     88  C   UNL A   1      29.466  28.666  22.535  1.00  0.00     0.009 A 
ATOM     89  C   UNL A   1      29.929  29.881  22.009  1.00  0.00     0.008 A 
ATOM     90  C   UNL A   1      28.167  28.615  23.051  1.00  0.00     0.128 A 
ATOM     91  C   UNL A   1      29.105  31.011  22.013  1.00  0.00     0.001 A 
ATOM     92  C   UNL A   1      27.342  29.735  23.053  1.00  0.00     0.039 A 
ATOM     93  F   UNL A   1      27.705  27.474  23.581  1.00  0.00    -0.207 F 
ATOM     94  C   UNL A   1      27.811  30.939  22.533  1.00  0.00     0.003 A 
ENDBRANCH  87  88
ENDBRANCH  84  87
ENDBRANCH  79  81
ENDBRANCH  73  77
ENDBRANCH  68  71
ENDBRANCH  66  67
ENDBRANCH  65  66
ENDBRANCH   1  65
TORSDOF 17
ENDMDL
MODEL 3
REMARK VINA RESULT:     -12.6      2.845      7.738
REMARK SMILES O=C(NCCCCCCNC(=O)[C@H]1CC=CC[C@@H]1C(=O)Nc1nn(Cc2ccccc2F)cc1Br)c1ccc(-c2c3nc(c(-c4c(F)cccc4F)c4ccc([nH]4)c(-c4c(F)cccc4F)c4nc(c(-c5c(F)cccc5F)c5ccc2[nH]5)C=C4)C=C3)cc1
REMARK SMILES IDX 7 1 6 2 5 3 4 4 3 5 1 6 2 7 36 9 37 10 89 11 38 12 88 13
REMARK SMILES IDX 39 14 40 15 41 16 82 17 42 18 87 19 81 20 83 21 43 22 86 23
REMARK SMILES IDX 80 24 79 25 44 27 70 28 53 29 69 30 54 31 57 32 68 33 84 34
REMARK SMILES IDX 55 35 56 36 67 38 85 39 58 40 45 41 46 42 51 43 47 44 48 45
REMARK SMILES IDX 50 46 52 47 49 48 71 49 72 50 77 51 73 52 74 53 76 54 78 55
REMARK SMILES IDX 75 56 59 57 60 58 65 59 61 60 62 61 64 62 66 63 63 64 8 65
REMARK SMILES IDX 9 66 10 67 11 68 12 70 13 71 14 72 18 73 15 74 17 75 16 76
REMARK SMILES IDX 19 77 20 78 21 79 22 81 23 82 34 83 24 84 33 85 35 86 25 87
REMARK SMILES IDX 26 88 27 89 31 90 28 91 30 92 32 93 29 94
REMARK H PARENT 3 8 83 26 57 37 10 69 21 80
REMARK Flexibility Score: inf
ROOT
ATOM      1  C   UNL A   1      39.758  22.229  26.538  1.00  0.00     0.002 C 
ENDROOT
BRANCH   1   2
ATOM      2  C   UNL A   1      40.635  21.088  27.074  1.00  0.00     0.002 C 
BRANCH   2   3
ATOM      3  C   UNL A   1      40.943  19.962  26.083  1.00  0.00     0.021 C 
BRANCH   3   4
ATOM      4  C   UNL A   1      42.282  19.262  26.313  1.00  0.00     0.116 C 
BRANCH   4   5
ATOM      5  N   UNL A   1      43.265  19.500  25.276  1.00  0.00    -0.352 N 
ATOM      6  O   UNL A   1      44.743  20.438  23.914  1.00  0.00    -0.269 OA
ATOM      7  C   UNL A   1      43.966  20.597  24.859  1.00  0.00     0.251 C 
ATOM      8  H   UNL A   1      43.478  18.690  24.757  1.00  0.00     0.163 HD
BRANCH   7   9
ATOM      9  C   UNL A   1      43.817  21.959  25.436  1.00  0.00     0.039 A 
ATOM     10  C   UNL A   1      42.973  22.949  24.935  1.00  0.00     0.014 A 
ATOM     11  C   UNL A   1      44.550  22.228  26.607  1.00  0.00     0.014 A 
ATOM     12  C   UNL A   1      42.903  24.196  25.551  1.00  0.00     0.010 A 
ATOM     13  C   UNL A   1      44.458  23.461  27.248  1.00  0.00     0.010 A 
ATOM     14  C   UNL A   1      43.640  24.453  26.711  1.00  0.00    -0.014 A 
BRANCH  14  15
ATOM     15  C   UNL A   1      43.386  25.718  27.402  1.00  0.00     0.031 A 
ATOM     16  C   UNL A   1      44.365  26.817  27.140  1.00  0.00     0.074 A 
ATOM     17  C   UNL A   1      42.276  26.000  28.109  1.00  0.00     0.049 A 
ATOM     18  N   UNL A   1      45.089  27.480  27.986  1.00  0.00    -0.248 NA
ATOM     19  C   UNL A   1      44.581  27.203  25.736  1.00  0.00     0.031 C 
ATOM     20  C   UNL A   1      41.039  25.227  28.206  1.00  0.00     0.029 A 
ATOM     21  N   UNL A   1      42.000  27.131  28.822  1.00  0.00    -0.354 N 
ATOM     22  C   UNL A   1      45.751  28.460  27.247  1.00  0.00     0.074 A 
ATOM     23  C   UNL A   1      45.465  28.194  25.860  1.00  0.00     0.031 C 
ATOM     24  C   UNL A   1      40.079  26.002  28.764  1.00  0.00     0.029 A 
ATOM     25  C   UNL A   1      40.667  27.267  29.175  1.00  0.00     0.049 A 
ATOM     26  H   UNL A   1      42.687  27.793  29.064  1.00  0.00     0.167 HD
ATOM     27  C   UNL A   1      46.386  29.521  27.819  1.00  0.00     0.037 A 
ATOM     28  C   UNL A   1      40.084  28.367  29.704  1.00  0.00     0.037 A 
ATOM     29  C   UNL A   1      46.638  29.324  29.216  1.00  0.00     0.049 A 
ATOM     30  C   UNL A   1      41.146  29.229  30.277  1.00  0.00     0.074 A 
ATOM     31  C   UNL A   1      47.372  28.422  29.960  1.00  0.00     0.029 A 
ATOM     32  N   UNL A   1      45.853  29.992  30.120  1.00  0.00    -0.354 N 
ATOM     33  N   UNL A   1      41.833  28.952  31.348  1.00  0.00    -0.248 NA
ATOM     34  C   UNL A   1      41.686  30.295  29.447  1.00  0.00     0.031 C 
ATOM     35  C   UNL A   1      46.643  28.261  31.174  1.00  0.00     0.029 A 
ATOM     36  C   UNL A   1      45.519  29.084  31.089  1.00  0.00     0.049 A 
ATOM     37  H   UNL A   1      45.583  30.939  30.081  1.00  0.00     0.167 HD
ATOM     38  C   UNL A   1      43.080  29.514  31.125  1.00  0.00     0.074 A 
ATOM     39  C   UNL A   1      42.890  30.430  30.007  1.00  0.00     0.031 C 
ATOM     40  C   UNL A   1      44.206  28.984  31.684  1.00  0.00     0.037 A 
BRANCH  27  41
ATOM     41  C   UNL A   1      46.562  30.862  27.160  1.00  0.00     0.057 A 
ATOM     42  C   UNL A   1      45.484  31.715  26.856  1.00  0.00     0.134 A 
ATOM     43  C   UNL A   1      47.839  31.444  27.063  1.00  0.00     0.134 A 
ATOM     44  F   UNL A   1      44.212  31.328  27.020  1.00  0.00    -0.206 F 
ATOM     45  C   UNL A   1      45.661  33.043  26.458  1.00  0.00     0.040 A 
ATOM     46  C   UNL A   1      48.025  32.787  26.713  1.00  0.00     0.040 A 
ATOM     47  F   UNL A   1      48.940  30.742  27.371  1.00  0.00    -0.206 F 
ATOM     48  C   UNL A   1      46.934  33.591  26.406  1.00  0.00     0.006 A 
ENDBRANCH  27  41
BRANCH  28  49
ATOM     49  C   UNL A   1      38.696  28.855  29.536  1.00  0.00     0.057 A 
ATOM     50  C   UNL A   1      38.279  29.504  28.361  1.00  0.00     0.134 A 
ATOM     51  C   UNL A   1      37.824  28.941  30.631  1.00  0.00     0.134 A 
ATOM     52  F   UNL A   1      39.066  29.552  27.277  1.00  0.00    -0.206 F 
ATOM     53  C   UNL A   1      37.073  30.206  28.283  1.00  0.00     0.040 A 
ATOM     54  C   UNL A   1      36.620  29.653  30.570  1.00  0.00     0.040 A 
ATOM     55  F   UNL A   1      38.151  28.389  31.808  1.00  0.00    -0.206 F 
ATOM     56  C   UNL A   1      36.247  30.298  29.395  1.00  0.00     0.006 A 
ENDBRANCH  28  49
BRANCH  40  57
ATOM     57  C   UNL A   1      44.044  27.984  32.792  1.00  0.00     0.057 A 
ATOM     58  C   UNL A   1      44.193  28.415  34.116  1.00  0.00     0.134 A 
ATOM     59  C   UNL A   1      43.909  26.605  32.584  1.00  0.00     0.134 A 
ATOM     60  F   UNL A   1      44.390  29.716  34.388  1.00  0.00    -0.206 F 
ATOM     61  C   UNL A   1      44.199  27.519  35.187  1.00  0.00     0.040 A 
ATOM     62  C   UNL A   1      43.875  25.700  33.650  1.00  0.00     0.040 A 
ATOM     63  F   UNL A   1      43.867  26.090  31.349  1.00  0.00    -0.206 F 
ATOM     64  C   UNL A   1      44.029  26.156  34.957  1.00  0.00     0.006 A 
ENDBRANCH  40  57
ENDBRANCH  14  15
ENDBRANCH   7   9
ENDBRANCH   4   5
ENDBRANCH   3   4
ENDBRANCH   2   3
ENDBRANCH   1   2
BRANCH   1  65
ATOM     65  C   UNL A   1      38.476  21.794  25.821  1.00  0.00     0.021 C 
BRANCH  65  66
ATOM     66  C   UNL A   1      37.453  22.913  25.665  1.00  0.00     0.116 C 
BRANCH  66  67
ATOM     67  N   UNL A   1      36.278  22.684  26.484  1.00  0.00    -0.356 N 
ATOM     68  C   UNL A   1      35.037  22.186  26.310  1.00  0.00     0.224 C 
ATOM     69  H   UNL A   1      36.427  22.969  27.415  1.00  0.00     0.163 HD
ATOM     70  O   UNL A   1      34.427  22.006  27.379  1.00  0.00    -0.275 OA
BRANCH  68  71
ATOM     71  C   UNL A   1      34.321  21.843  24.991  1.00  0.00     0.095 C 
ATOM     72  C   UNL A   1      35.115  20.707  24.304  1.00  0.00     0.041 C 
ATOM     73  C   UNL A   1      32.821  21.557  24.980  1.00  0.00     0.095 C 
ATOM     74  C   UNL A   1      34.696  19.340  24.756  1.00  0.00    -0.030 C 
ATOM     75  C   UNL A   1      32.433  20.137  25.442  1.00  0.00     0.041 C 
ATOM     76  C   UNL A   1      33.492  19.090  25.282  1.00  0.00    -0.030 C 
BRANCH  73  77
ATOM     77  C   UNL A   1      32.173  21.818  23.616  1.00  0.00     0.229 C 
ATOM     78  O   UNL A   1      32.158  20.964  22.726  1.00  0.00    -0.274 OA
ATOM     79  N   UNL A   1      31.415  22.946  23.449  1.00  0.00    -0.308 N 
ATOM     80  H   UNL A   1      30.679  22.878  22.798  1.00  0.00     0.171 HD
BRANCH  79  81
ATOM     81  C   UNL A   1      31.550  24.167  24.077  1.00  0.00     0.168 A 
ATOM     82  N   UNL A   1      32.096  25.246  23.506  1.00  0.00    -0.153 NA
ATOM     83  C   UNL A   1      31.066  24.487  25.365  1.00  0.00     0.080 A 
ATOM     84  N   UNL A   1      31.898  26.247  24.394  1.00  0.00    -0.265 N 
ATOM     85  C   UNL A   1      31.340  25.814  25.567  1.00  0.00     0.127 A 
ATOM     86  Br  UNL A   1      30.245  23.308  26.562  1.00  0.00    -0.045 Br
BRANCH  84  87
ATOM     87  C   UNL A   1      32.054  27.645  23.995  1.00  0.00     0.182 C 
BRANCH  87  88
ATOM     88  C   UNL A   1      32.470  28.562  25.109  1.00  0.00     0.009 A 
ATOM     89  C   UNL A   1      33.587  28.286  25.910  1.00  0.00     0.008 A 
ATOM     90  C   UNL A   1      31.708  29.700  25.396  1.00  0.00     0.128 A 
ATOM     91  C   UNL A   1      33.918  29.131  26.975  1.00  0.00     0.001 A 
ATOM     92  C   UNL A   1      32.036  30.546  26.451  1.00  0.00     0.039 A 
ATOM     93  F   UNL A   1      30.622  29.977  24.662  1.00  0.00    -0.207 F 
ATOM     94  C   UNL A   1      33.144  30.262  27.245  1.00  0.00     0.003 A 
ENDBRANCH  87  88
ENDBRANCH  84  87
ENDBRANCH  79  81
ENDBRANCH  73  77
ENDBRANCH  68  71
ENDBRANCH  66  67
ENDBRANCH  65  66
ENDBRANCH   1  65
TORSDOF 17
ENDMDL
