MODEL 1
REMARK VINA RESULT:     -10.0      0.000      0.000
REMARK SMILES COc1cccc(C2=NN3[C@@H](c4ccc(OC)c(OC)c4C(=O)NCCCCCCNC(=O)c4ccc(-c5c6nc(c(-c7c(F)cccc7F)c7ccc([nH]7)c(-c7c(F)cccc7F)c7nc(c(-c8c(F)cccc8F)c8ccc5[nH]8)C=C7)C=C6)cc4)Oc4c(OC)cccc4[C@@H]3C2)c1
REMARK SMILES IDX 27 1 26 2 25 3 24 4 22 5 23 6 21 8 12 9 13 10 14 11 18 12
REMARK SMILES IDX 15 13 11 14 8 15 9 16 98 17 10 18 97 19 96 20 88 21 89 22
REMARK SMILES IDX 95 23 90 24 94 25 93 26 7 27 3 28 4 29 99 30 5 31 6 32 2 33
REMARK SMILES IDX 1 34 91 35 92 36 19 37 20 38 16 39 17 40 28 41 29 42 30 43
REMARK SMILES IDX 31 44 32 45 33 47 34 48 35 49 87 50 36 51 86 52 37 53 38 54
REMARK SMILES IDX 39 55 80 56 40 57 85 58 79 59 81 60 41 61 84 62 78 63 77 64
REMARK SMILES IDX 42 66 68 67 51 68 67 69 52 70 55 71 66 72 82 73 53 74 54 75
REMARK SMILES IDX 65 77 83 78 56 79 43 80 44 81 49 82 45 83 46 84 48 85 50 86
REMARK SMILES IDX 47 87 69 88 70 89 75 90 71 91 72 92 74 93 76 94 73 95 57 96
REMARK SMILES IDX 58 97 63 98 59 99 60 100 62 101 64 102 61 103
REMARK H PARENT 24 7 31 46 81 65 55 76
REMARK Flexibility Score: inf
ROOT
ATOM      1  C   UNL A   1      39.918  27.917  28.644  1.00  0.00     0.002 C 
ENDROOT
BRANCH   1   2
ATOM      2  C   UNL A   1      38.638  27.611  29.431  1.00  0.00     0.021 C 
BRANCH   2   3
ATOM      3  C   UNL A   1      38.747  27.693  30.964  1.00  0.00     0.116 C 
BRANCH   3   4
ATOM      4  N   UNL A   1      40.031  28.308  31.348  1.00  0.00    -0.352 N 
ATOM      5  C   UNL A   1      40.113  29.500  32.051  1.00  0.00     0.255 C 
ATOM      6  O   UNL A   1      39.630  29.614  33.168  1.00  0.00    -0.269 OA
ATOM      7  H   UNL A   1      40.866  27.853  31.093  1.00  0.00     0.163 HD
BRANCH   5   8
ATOM      8  C   UNL A   1      40.938  30.600  31.426  1.00  0.00     0.094 A 
ATOM      9  C   UNL A   1      40.304  31.692  30.766  1.00  0.00     0.032 A 
ATOM     10  C   UNL A   1      41.084  32.790  30.366  1.00  0.00     0.014 A 
ATOM     11  C   UNL A   1      42.445  32.836  30.650  1.00  0.00     0.051 A 
ATOM     12  C   UNL A   1      42.339  30.643  31.670  1.00  0.00     0.173 A 
ATOM     13  C   UNL A   1      43.084  31.784  31.316  1.00  0.00     0.161 A 
BRANCH   9  14
ATOM     14  C   UNL A   1      38.800  31.849  30.797  1.00  0.00     0.321 C 
ATOM     15  C   UNL A   1      36.355  31.469  28.372  1.00  0.00     0.070 C 
ATOM     16  N   UNL A   1      37.405  30.960  28.954  1.00  0.00    -0.178 NA
ATOM     17  C   UNL A   1      36.362  32.979  28.358  1.00  0.00     0.090 C 
ATOM     18  N   UNL A   1      38.106  32.047  29.489  1.00  0.00    -0.246 NA
ATOM     19  C   UNL A   1      37.205  33.220  29.589  1.00  0.00     0.146 C 
ATOM     20  C   UNL A   1      36.473  33.212  30.919  1.00  0.00     0.023 A 
ATOM     21  O   UNL A   1      38.644  32.930  31.747  1.00  0.00    -0.460 OA
ATOM     22  C   UNL A   1      37.322  33.106  32.027  1.00  0.00     0.169 A 
ATOM     23  C   UNL A   1      35.097  33.253  31.140  1.00  0.00     0.010 A 
ATOM     24  C   UNL A   1      36.852  33.108  33.337  1.00  0.00     0.161 A 
ATOM     25  C   UNL A   1      34.603  33.181  32.447  1.00  0.00     0.004 A 
ATOM     26  C   UNL A   1      35.476  33.107  33.538  1.00  0.00     0.050 A 
BRANCH  15  27
ATOM     27  C   UNL A   1      35.239  30.702  27.752  1.00  0.00     0.001 A 
ATOM     28  C   UNL A   1      32.942  30.473  27.006  1.00  0.00     0.119 A 
ATOM     29  C   UNL A   1      33.171  29.129  26.713  1.00  0.00     0.046 A 
ATOM     30  C   UNL A   1      33.970  31.267  27.537  1.00  0.00     0.056 A 
ATOM     31  C   UNL A   1      34.428  28.576  26.909  1.00  0.00     0.005 A 
ATOM     32  C   UNL A   1      35.461  29.366  27.394  1.00  0.00     0.010 A 
BRANCH  28  33
ATOM     33  O   UNL A   1      31.643  30.860  26.823  1.00  0.00    -0.497 OA
ATOM     34  C   UNL A   1      31.425  32.256  26.692  1.00  0.00     0.278 C 
ENDBRANCH  28  33
ENDBRANCH  15  27
BRANCH  24  35
ATOM     35  O   UNL A   1      37.622  32.997  34.461  1.00  0.00    -0.493 OA
ATOM     36  C   UNL A   1      38.148  34.231  34.947  1.00  0.00     0.278 C 
ENDBRANCH  24  35
ENDBRANCH   9  14
BRANCH  12  37
ATOM     37  O   UNL A   1      42.965  29.634  32.358  1.00  0.00    -0.492 OA
ATOM     38  C   UNL A   1      43.525  28.637  31.506  1.00  0.00     0.278 C 
ENDBRANCH  12  37
BRANCH  13  39
ATOM     39  O   UNL A   1      44.404  32.073  31.542  1.00  0.00    -0.493 OA
ATOM     40  C   UNL A   1      45.403  31.532  30.695  1.00  0.00     0.278 C 
ENDBRANCH  13  39
ENDBRANCH   5   8
ENDBRANCH   3   4
ENDBRANCH   2   3
ENDBRANCH   1   2
BRANCH   1  41
ATOM     41  C   UNL A   1      40.243  26.990  27.470  1.00  0.00     0.002 C 
BRANCH  41  42
ATOM     42  C   UNL A   1      39.878  25.511  27.659  1.00  0.00     0.021 C 
BRANCH  42  43
ATOM     43  C   UNL A   1      39.773  24.672  26.379  1.00  0.00     0.116 C 
BRANCH  43  44
ATOM     44  N   UNL A   1      40.662  23.515  26.391  1.00  0.00    -0.352 N 
ATOM     45  C   UNL A   1      42.029  23.415  26.269  1.00  0.00     0.251 C 
ATOM     46  H   UNL A   1      40.201  22.652  26.505  1.00  0.00     0.163 HD
ATOM     47  O   UNL A   1      42.540  22.308  26.118  1.00  0.00    -0.269 OA
BRANCH  45  48
ATOM     48  C   UNL A   1      42.907  24.609  26.315  1.00  0.00     0.039 A 
ATOM     49  C   UNL A   1      43.461  25.015  27.534  1.00  0.00     0.014 A 
ATOM     50  C   UNL A   1      43.126  25.393  25.187  1.00  0.00     0.014 A 
ATOM     51  C   UNL A   1      44.301  26.141  27.598  1.00  0.00     0.010 A 
ATOM     52  C   UNL A   1      44.012  26.475  25.249  1.00  0.00     0.010 A 
ATOM     53  C   UNL A   1      44.648  26.857  26.439  1.00  0.00    -0.014 A 
BRANCH  53  54
ATOM     54  C   UNL A   1      45.685  27.949  26.446  1.00  0.00     0.031 A 
ATOM     55  C   UNL A   1      47.172  27.655  26.357  1.00  0.00     0.074 A 
ATOM     56  C   UNL A   1      45.313  29.235  26.643  1.00  0.00     0.049 A 
ATOM     57  N   UNL A   1      48.187  28.483  26.455  1.00  0.00    -0.248 NA
ATOM     58  C   UNL A   1      47.575  26.250  26.199  1.00  0.00     0.031 C 
ATOM     59  C   UNL A   1      43.945  29.704  26.873  1.00  0.00     0.029 A 
ATOM     60  N   UNL A   1      46.060  30.393  26.680  1.00  0.00    -0.354 N 
ATOM     61  C   UNL A   1      49.335  27.697  26.414  1.00  0.00     0.074 A 
ATOM     62  C   UNL A   1      48.889  26.321  26.362  1.00  0.00     0.031 C 
ATOM     63  C   UNL A   1      43.941  31.044  26.952  1.00  0.00     0.029 A 
ATOM     64  C   UNL A   1      45.308  31.536  26.826  1.00  0.00     0.049 A 
ATOM     65  H   UNL A   1      47.042  30.401  26.609  1.00  0.00     0.167 HD
ATOM     66  C   UNL A   1      50.640  28.070  26.374  1.00  0.00     0.037 A 
ATOM     67  C   UNL A   1      45.661  32.837  26.847  1.00  0.00     0.037 A 
ATOM     68  C   UNL A   1      51.110  29.432  26.324  1.00  0.00     0.049 A 
ATOM     69  C   UNL A   1      47.107  33.232  26.711  1.00  0.00     0.074 A 
ATOM     70  C   UNL A   1      52.410  29.889  26.176  1.00  0.00     0.029 A 
ATOM     71  N   UNL A   1      50.302  30.553  26.394  1.00  0.00    -0.354 N 
ATOM     72  N   UNL A   1      48.164  32.471  26.584  1.00  0.00    -0.248 NA
ATOM     73  C   UNL A   1      47.404  34.674  26.714  1.00  0.00     0.031 C 
ATOM     74  C   UNL A   1      52.391  31.287  26.175  1.00  0.00     0.029 A 
ATOM     75  C   UNL A   1      51.075  31.699  26.287  1.00  0.00     0.049 A 
ATOM     76  H   UNL A   1      49.324  30.539  26.503  1.00  0.00     0.167 HD
ATOM     77  C   UNL A   1      49.241  33.338  26.450  1.00  0.00     0.074 A 
ATOM     78  C   UNL A   1      48.712  34.683  26.502  1.00  0.00     0.031 C 
ATOM     79  C   UNL A   1      50.553  33.040  26.300  1.00  0.00     0.037 A 
BRANCH  66  80
ATOM     80  C   UNL A   1      51.677  26.981  26.316  1.00  0.00     0.057 A 
ATOM     81  C   UNL A   1      52.024  26.362  25.108  1.00  0.00     0.134 A 
ATOM     82  C   UNL A   1      52.387  26.597  27.462  1.00  0.00     0.134 A 
ATOM     83  F   UNL A   1      51.383  26.683  23.973  1.00  0.00    -0.206 F 
ATOM     84  C   UNL A   1      53.010  25.378  25.045  1.00  0.00     0.040 A 
ATOM     85  C   UNL A   1      53.400  25.638  27.406  1.00  0.00     0.040 A 
ATOM     86  F   UNL A   1      52.124  27.164  28.649  1.00  0.00    -0.206 F 
ATOM     87  C   UNL A   1      53.709  25.019  26.196  1.00  0.00     0.006 A 
ENDBRANCH  66  80
BRANCH  67  88
ATOM     88  C   UNL A   1      44.621  33.894  26.941  1.00  0.00     0.057 A 
ATOM     89  C   UNL A   1      43.871  34.255  25.814  1.00  0.00     0.134 A 
ATOM     90  C   UNL A   1      44.382  34.593  28.128  1.00  0.00     0.134 A 
ATOM     91  F   UNL A   1      44.071  33.633  24.642  1.00  0.00    -0.206 F 
ATOM     92  C   UNL A   1      42.943  35.297  25.855  1.00  0.00     0.040 A 
ATOM     93  C   UNL A   1      43.439  35.620  28.190  1.00  0.00     0.040 A 
ATOM     94  F   UNL A   1      45.061  34.287  29.242  1.00  0.00    -0.206 F 
ATOM     95  C   UNL A   1      42.726  35.982  27.049  1.00  0.00     0.006 A 
ENDBRANCH  67  88
BRANCH  79  96
ATOM     96  C   UNL A   1      51.513  34.178  26.111  1.00  0.00     0.057 A 
ATOM     97  C   UNL A   1      52.007  34.922  27.188  1.00  0.00     0.134 A 
ATOM     98  C   UNL A   1      51.981  34.507  24.830  1.00  0.00     0.134 A 
ATOM     99  F   UNL A   1      51.590  34.668  28.438  1.00  0.00    -0.206 F 
ATOM    100  C   UNL A   1      52.916  35.965  26.999  1.00  0.00     0.040 A 
ATOM    101  C   UNL A   1      52.907  35.531  24.631  1.00  0.00     0.040 A 
ATOM    102  F   UNL A   1      51.553  33.830  23.755  1.00  0.00    -0.206 F 
ATOM    103  C   UNL A   1      53.375  36.267  25.719  1.00  0.00     0.006 A 
ENDBRANCH  79  96
ENDBRANCH  53  54
ENDBRANCH  45  48
ENDBRANCH  43  44
ENDBRANCH  42  43
ENDBRANCH  41  42
ENDBRANCH   1  41
TORSDOF 19
ENDMDL
MODEL 2
REMARK VINA RESULT:      -9.7      2.214      7.760
REMARK SMILES COc1cccc(C2=NN3[C@@H](c4ccc(OC)c(OC)c4C(=O)NCCCCCCNC(=O)c4ccc(-c5c6nc(c(-c7c(F)cccc7F)c7ccc([nH]7)c(-c7c(F)cccc7F)c7nc(c(-c8c(F)cccc8F)c8ccc5[nH]8)C=C7)C=C6)cc4)Oc4c(OC)cccc4[C@@H]3C2)c1
REMARK SMILES IDX 27 1 26 2 25 3 24 4 22 5 23 6 21 8 12 9 13 10 14 11 18 12
REMARK SMILES IDX 15 13 11 14 8 15 9 16 98 17 10 18 97 19 96 20 88 21 89 22
REMARK SMILES IDX 95 23 90 24 94 25 93 26 7 27 3 28 4 29 99 30 5 31 6 32 2 33
REMARK SMILES IDX 1 34 91 35 92 36 19 37 20 38 16 39 17 40 28 41 29 42 30 43
REMARK SMILES IDX 31 44 32 45 33 47 34 48 35 49 87 50 36 51 86 52 37 53 38 54
REMARK SMILES IDX 39 55 80 56 40 57 85 58 79 59 81 60 41 61 84 62 78 63 77 64
REMARK SMILES IDX 42 66 68 67 51 68 67 69 52 70 55 71 66 72 82 73 53 74 54 75
REMARK SMILES IDX 65 77 83 78 56 79 43 80 44 81 49 82 45 83 46 84 48 85 50 86
REMARK SMILES IDX 47 87 69 88 70 89 75 90 71 91 72 92 74 93 76 94 73 95 57 96
REMARK SMILES IDX 58 97 63 98 59 99 60 100 62 101 64 102 61 103
REMARK H PARENT 24 7 31 46 81 65 55 76
REMARK Flexibility Score: inf
ROOT
ATOM      1  C   UNL A   1      39.179  27.691  28.363  1.00  0.00     0.002 C 
ENDROOT
BRANCH   1   2
ATOM      2  C   UNL A   1      38.533  28.378  29.573  1.00  0.00     0.021 C 
BRANCH   2   3
ATOM      3  C   UNL A   1      37.453  29.430  29.261  1.00  0.00     0.116 C 
BRANCH   3   4
ATOM      4  N   UNL A   1      37.491  30.508  30.267  1.00  0.00    -0.352 N 
ATOM      5  C   UNL A   1      36.521  30.656  31.246  1.00  0.00     0.255 C 
ATOM      6  O   UNL A   1      36.311  29.781  32.072  1.00  0.00    -0.269 OA
ATOM      7  H   UNL A   1      38.237  31.149  30.241  1.00  0.00     0.163 HD
BRANCH   5   8
ATOM      8  C   UNL A   1      35.834  32.000  31.320  1.00  0.00     0.094 A 
ATOM      9  C   UNL A   1      36.181  32.933  32.339  1.00  0.00     0.032 A 
ATOM     10  C   UNL A   1      35.669  34.239  32.268  1.00  0.00     0.014 A 
ATOM     11  C   UNL A   1      34.874  34.632  31.196  1.00  0.00     0.051 A 
ATOM     12  C   UNL A   1      34.984  32.405  30.254  1.00  0.00     0.173 A 
ATOM     13  C   UNL A   1      34.538  33.738  30.174  1.00  0.00     0.161 A 
BRANCH   9  14
ATOM     14  C   UNL A   1      37.335  32.662  33.279  1.00  0.00     0.321 C 
ATOM     15  C   UNL A   1      37.881  33.453  36.607  1.00  0.00     0.070 C 
ATOM     16  N   UNL A   1      37.062  32.956  35.723  1.00  0.00    -0.178 NA
ATOM     17  C   UNL A   1      38.790  34.515  36.037  1.00  0.00     0.090 C 
ATOM     18  N   UNL A   1      37.440  33.518  34.498  1.00  0.00    -0.246 NA
ATOM     19  C   UNL A   1      38.820  34.051  34.600  1.00  0.00     0.146 C 
ATOM     20  C   UNL A   1      39.830  32.970  34.261  1.00  0.00     0.023 A 
ATOM     21  O   UNL A   1      38.464  32.733  32.375  1.00  0.00    -0.460 OA
ATOM     22  C   UNL A   1      39.597  32.350  33.028  1.00  0.00     0.169 A 
ATOM     23  C   UNL A   1      40.896  32.520  35.038  1.00  0.00     0.010 A 
ATOM     24  C   UNL A   1      40.424  31.351  32.520  1.00  0.00     0.161 A 
ATOM     25  C   UNL A   1      41.694  31.467  34.577  1.00  0.00     0.004 A 
ATOM     26  C   UNL A   1      41.456  30.886  33.326  1.00  0.00     0.050 A 
BRANCH  15  27
ATOM     27  C   UNL A   1      37.954  33.072  38.045  1.00  0.00     0.001 A 
ATOM     28  C   UNL A   1      37.110  31.930  40.012  1.00  0.00     0.119 A 
ATOM     29  C   UNL A   1      38.097  32.538  40.789  1.00  0.00     0.046 A 
ATOM     30  C   UNL A   1      37.025  32.200  38.638  1.00  0.00     0.056 A 
ATOM     31  C   UNL A   1      39.025  33.385  40.200  1.00  0.00     0.005 A 
ATOM     32  C   UNL A   1      38.972  33.624  38.834  1.00  0.00     0.010 A 
BRANCH  28  33
ATOM     33  O   UNL A   1      36.232  31.174  40.738  1.00  0.00    -0.497 OA
ATOM     34  C   UNL A   1      35.912  31.665  42.030  1.00  0.00     0.278 C 
ENDBRANCH  28  33
ENDBRANCH  15  27
BRANCH  24  35
ATOM     35  O   UNL A   1      40.248  30.698  31.333  1.00  0.00    -0.493 OA
ATOM     36  C   UNL A   1      41.431  30.104  30.799  1.00  0.00     0.278 C 
ENDBRANCH  24  35
ENDBRANCH   9  14
BRANCH  12  37
ATOM     37  O   UNL A   1      34.683  31.546  29.227  1.00  0.00    -0.492 OA
ATOM     38  C   UNL A   1      35.247  31.943  27.980  1.00  0.00     0.278 C 
ENDBRANCH  12  37
BRANCH  13  39
ATOM     39  O   UNL A   1      33.804  34.359  29.198  1.00  0.00    -0.493 OA
ATOM     40  C   UNL A   1      32.951  35.440  29.532  1.00  0.00     0.278 C 
ENDBRANCH  13  39
ENDBRANCH   5   8
ENDBRANCH   3   4
ENDBRANCH   2   3
ENDBRANCH   1   2
BRANCH   1  41
ATOM     41  C   UNL A   1      39.942  26.393  28.635  1.00  0.00     0.002 C 
BRANCH  41  42
ATOM     42  C   UNL A   1      39.277  25.104  28.132  1.00  0.00     0.021 C 
BRANCH  42  43
ATOM     43  C   UNL A   1      39.527  24.742  26.663  1.00  0.00     0.116 C 
BRANCH  43  44
ATOM     44  N   UNL A   1      40.368  23.559  26.510  1.00  0.00    -0.352 N 
ATOM     45  C   UNL A   1      41.715  23.423  26.260  1.00  0.00     0.251 C 
ATOM     46  H   UNL A   1      39.885  22.706  26.600  1.00  0.00     0.163 HD
ATOM     47  O   UNL A   1      42.166  22.316  25.983  1.00  0.00    -0.269 OA
BRANCH  45  48
ATOM     48  C   UNL A   1      42.640  24.581  26.315  1.00  0.00     0.039 A 
ATOM     49  C   UNL A   1      43.256  24.917  27.526  1.00  0.00     0.014 A 
ATOM     50  C   UNL A   1      42.845  25.400  25.211  1.00  0.00     0.014 A 
ATOM     51  C   UNL A   1      44.141  26.007  27.598  1.00  0.00     0.010 A 
ATOM     52  C   UNL A   1      43.774  26.445  25.278  1.00  0.00     0.010 A 
ATOM     53  C   UNL A   1      44.470  26.755  26.454  1.00  0.00    -0.014 A 
BRANCH  53  54
ATOM     54  C   UNL A   1      45.549  27.807  26.461  1.00  0.00     0.031 A 
ATOM     55  C   UNL A   1      45.242  29.281  26.655  1.00  0.00     0.074 A 
ATOM     56  C   UNL A   1      46.829  27.467  26.183  1.00  0.00     0.049 A 
ATOM     57  N   UNL A   1      46.052  30.313  26.583  1.00  0.00    -0.248 NA
ATOM     58  C   UNL A   1      43.841  29.653  26.903  1.00  0.00     0.031 C 
ATOM     59  C   UNL A   1      47.302  26.122  25.847  1.00  0.00     0.029 A 
ATOM     60  N   UNL A   1      47.975  28.231  26.139  1.00  0.00    -0.354 N 
ATOM     61  C   UNL A   1      45.256  31.444  26.731  1.00  0.00     0.074 A 
ATOM     62  C   UNL A   1      43.889  30.975  26.819  1.00  0.00     0.031 C 
ATOM     63  C   UNL A   1      48.637  26.142  25.707  1.00  0.00     0.029 A 
ATOM     64  C   UNL A   1      49.119  27.506  25.894  1.00  0.00     0.049 A 
ATOM     65  H   UNL A   1      47.975  29.207  26.271  1.00  0.00     0.167 HD
ATOM     66  C   UNL A   1      45.615  32.749  26.834  1.00  0.00     0.037 A 
ATOM     67  C   UNL A   1      50.413  27.879  25.836  1.00  0.00     0.037 A 
ATOM     68  C   UNL A   1      46.971  33.235  26.850  1.00  0.00     0.049 A 
ATOM     69  C   UNL A   1      50.796  29.320  26.043  1.00  0.00     0.074 A 
ATOM     70  C   UNL A   1      47.420  34.531  27.057  1.00  0.00     0.029 A 
ATOM     71  N   UNL A   1      48.098  32.450  26.679  1.00  0.00    -0.354 N 
ATOM     72  N   UNL A   1      50.030  30.355  26.269  1.00  0.00    -0.248 NA
ATOM     73  C   UNL A   1      52.233  29.637  25.991  1.00  0.00     0.031 C 
ATOM     74  C   UNL A   1      48.816  34.532  26.993  1.00  0.00     0.029 A 
ATOM     75  C   UNL A   1      49.238  33.231  26.781  1.00  0.00     0.049 A 
ATOM     76  H   UNL A   1      48.090  31.480  26.511  1.00  0.00     0.167 HD
ATOM     77  C   UNL A   1      50.890  31.435  26.430  1.00  0.00     0.074 A 
ATOM     78  C   UNL A   1      52.237  30.930  26.283  1.00  0.00     0.031 C 
ATOM     79  C   UNL A   1      50.583  32.731  26.674  1.00  0.00     0.037 A 
BRANCH  66  80
ATOM     80  C   UNL A   1      44.517  33.765  27.006  1.00  0.00     0.057 A 
ATOM     81  C   UNL A   1      43.904  34.375  25.904  1.00  0.00     0.134 A 
ATOM     82  C   UNL A   1      44.019  34.082  28.277  1.00  0.00     0.134 A 
ATOM     83  F   UNL A   1      44.333  34.114  24.659  1.00  0.00    -0.206 F 
ATOM     84  C   UNL A   1      42.862  35.289  26.059  1.00  0.00     0.040 A 
ATOM     85  C   UNL A   1      42.954  34.970  28.442  1.00  0.00     0.040 A 
ATOM     86  F   UNL A   1      44.542  33.519  29.376  1.00  0.00    -0.206 F 
ATOM     87  C   UNL A   1      42.377  35.583  27.332  1.00  0.00     0.006 A 
ENDBRANCH  66  80
BRANCH  67  88
ATOM     88  C   UNL A   1      51.476  26.862  25.629  1.00  0.00     0.057 A 
ATOM     89  C   UNL A   1      52.010  26.160  26.718  1.00  0.00     0.134 A 
ATOM     90  C   UNL A   1      52.013  26.600  24.365  1.00  0.00     0.134 A 
ATOM     91  F   UNL A   1      51.548  26.385  27.957  1.00  0.00    -0.206 F 
ATOM     92  C   UNL A   1      53.062  25.257  26.563  1.00  0.00     0.040 A 
ATOM     93  C   UNL A   1      53.048  25.680  24.191  1.00  0.00     0.040 A 
ATOM     94  F   UNL A   1      51.538  27.232  23.283  1.00  0.00    -0.206 F 
ATOM     95  C   UNL A   1      53.583  25.015  25.293  1.00  0.00     0.006 A 
ENDBRANCH  67  88
BRANCH  79  96
ATOM     96  C   UNL A   1      51.718  33.694  26.870  1.00  0.00     0.057 A 
ATOM     97  C   UNL A   1      52.249  34.443  25.814  1.00  0.00     0.134 A 
ATOM     98  C   UNL A   1      52.259  33.903  28.146  1.00  0.00     0.134 A 
ATOM     99  F   UNL A   1      51.785  34.281  24.565  1.00  0.00    -0.206 F 
ATOM    100  C   UNL A   1      53.290  35.351  26.015  1.00  0.00     0.040 A 
ATOM    101  C   UNL A   1      53.284  34.825  28.364  1.00  0.00     0.040 A 
ATOM    102  F   UNL A   1      51.792  33.222  29.204  1.00  0.00    -0.206 F 
ATOM    103  C   UNL A   1      53.806  35.550  27.294  1.00  0.00     0.006 A 
ENDBRANCH  79  96
ENDBRANCH  53  54
ENDBRANCH  45  48
ENDBRANCH  43  44
ENDBRANCH  42  43
ENDBRANCH  41  42
ENDBRANCH   1  41
TORSDOF 19
ENDMDL
MODEL 3
REMARK VINA RESULT:      -9.6      5.028     10.988
REMARK SMILES COc1cccc(C2=NN3[C@@H](c4ccc(OC)c(OC)c4C(=O)NCCCCCCNC(=O)c4ccc(-c5c6nc(c(-c7c(F)cccc7F)c7ccc([nH]7)c(-c7c(F)cccc7F)c7nc(c(-c8c(F)cccc8F)c8ccc5[nH]8)C=C7)C=C6)cc4)Oc4c(OC)cccc4[C@@H]3C2)c1
REMARK SMILES IDX 27 1 26 2 25 3 24 4 22 5 23 6 21 8 12 9 13 10 14 11 18 12
REMARK SMILES IDX 15 13 11 14 8 15 9 16 98 17 10 18 97 19 96 20 88 21 89 22
REMARK SMILES IDX 95 23 90 24 94 25 93 26 7 27 3 28 4 29 99 30 5 31 6 32 2 33
REMARK SMILES IDX 1 34 91 35 92 36 19 37 20 38 16 39 17 40 28 41 29 42 30 43
REMARK SMILES IDX 31 44 32 45 33 47 34 48 35 49 87 50 36 51 86 52 37 53 38 54
REMARK SMILES IDX 39 55 80 56 40 57 85 58 79 59 81 60 41 61 84 62 78 63 77 64
REMARK SMILES IDX 42 66 68 67 51 68 67 69 52 70 55 71 66 72 82 73 53 74 54 75
REMARK SMILES IDX 65 77 83 78 56 79 43 80 44 81 49 82 45 83 46 84 48 85 50 86
REMARK SMILES IDX 47 87 69 88 70 89 75 90 71 91 72 92 74 93 76 94 73 95 57 96
REMARK SMILES IDX 58 97 63 98 59 99 60 100 62 101 64 102 61 103
REMARK H PARENT 24 7 31 46 81 65 55 76
REMARK Flexibility Score: inf
ROOT
ATOM      1  C   UNL A   1      36.356  31.043  28.800  1.00  0.00     0.002 C 
ENDROOT
BRANCH   1   2
ATOM      2  C   UNL A   1      35.674  29.680  28.627  1.00  0.00     0.021 C 
BRANCH   2   3
ATOM      3  C   UNL A   1      35.822  29.017  27.246  1.00  0.00     0.116 C 
BRANCH   3   4
ATOM      4  N   UNL A   1      34.539  29.066  26.520  1.00  0.00    -0.352 N 
ATOM      5  C   UNL A   1      33.803  27.931  26.216  1.00  0.00     0.255 C 
ATOM      6  O   UNL A   1      33.374  27.198  27.093  1.00  0.00    -0.269 OA
ATOM      7  H   UNL A   1      34.190  29.944  26.240  1.00  0.00     0.163 HD
BRANCH   5   8
ATOM      8  C   UNL A   1      33.451  27.723  24.761  1.00  0.00     0.094 A 
ATOM      9  C   UNL A   1      33.624  26.446  24.153  1.00  0.00     0.032 A 
ATOM     10  C   UNL A   1      33.110  26.234  22.862  1.00  0.00     0.014 A 
ATOM     11  C   UNL A   1      32.403  27.235  22.206  1.00  0.00     0.051 A 
ATOM     12  C   UNL A   1      32.764  28.751  24.059  1.00  0.00     0.173 A 
ATOM     13  C   UNL A   1      32.204  28.489  22.794  1.00  0.00     0.161 A 
BRANCH   9  14
ATOM     14  C   UNL A   1      34.027  25.243  24.976  1.00  0.00     0.321 C 
ATOM     15  C   UNL A   1      36.979  23.444  25.204  1.00  0.00     0.070 C 
ATOM     16  N   UNL A   1      36.412  24.618  25.205  1.00  0.00    -0.178 NA
ATOM     17  C   UNL A   1      36.238  22.433  24.362  1.00  0.00     0.090 C 
ATOM     18  N   UNL A   1      35.209  24.459  24.507  1.00  0.00    -0.246 NA
ATOM     19  C   UNL A   1      34.850  23.021  24.455  1.00  0.00     0.146 C 
ATOM     20  C   UNL A   1      34.035  22.636  25.678  1.00  0.00     0.023 A 
ATOM     21  O   UNL A   1      32.782  24.506  25.034  1.00  0.00    -0.460 OA
ATOM     22  C   UNL A   1      32.915  23.450  25.886  1.00  0.00     0.169 A 
ATOM     23  C   UNL A   1      34.301  21.625  26.600  1.00  0.00     0.010 A 
ATOM     24  C   UNL A   1      32.024  23.248  26.935  1.00  0.00     0.161 A 
ATOM     25  C   UNL A   1      33.456  21.455  27.703  1.00  0.00     0.004 A 
ATOM     26  C   UNL A   1      32.326  22.263  27.869  1.00  0.00     0.050 A 
BRANCH  15  27
ATOM     27  C   UNL A   1      38.230  23.074  25.920  1.00  0.00     0.001 A 
ATOM     28  C   UNL A   1      40.008  21.521  26.482  1.00  0.00     0.119 A 
ATOM     29  C   UNL A   1      40.498  22.424  27.426  1.00  0.00     0.046 A 
ATOM     30  C   UNL A   1      38.866  21.835  25.729  1.00  0.00     0.056 A 
ATOM     31  C   UNL A   1      39.881  23.653  27.602  1.00  0.00     0.005 A 
ATOM     32  C   UNL A   1      38.776  23.988  26.832  1.00  0.00     0.010 A 
BRANCH  28  33
ATOM     33  O   UNL A   1      40.678  20.329  26.465  1.00  0.00    -0.497 OA
ATOM     34  C   UNL A   1      41.331  19.968  27.671  1.00  0.00     0.278 C 
ENDBRANCH  28  33
ENDBRANCH  15  27
BRANCH  24  35
ATOM     35  O   UNL A   1      30.921  24.009  27.202  1.00  0.00    -0.493 OA
ATOM     36  C   UNL A   1      29.681  23.303  27.144  1.00  0.00     0.278 C 
ENDBRANCH  24  35
ENDBRANCH   9  14
BRANCH  12  37
ATOM     37  O   UNL A   1      32.529  29.969  24.645  1.00  0.00    -0.492 OA
ATOM     38  C   UNL A   1      31.294  30.023  25.354  1.00  0.00     0.278 C 
ENDBRANCH  12  37
BRANCH  13  39
ATOM     39  O   UNL A   1      31.431  29.291  21.996  1.00  0.00    -0.493 OA
ATOM     40  C   UNL A   1      30.020  29.273  22.129  1.00  0.00     0.278 C 
ENDBRANCH  13  39
ENDBRANCH   5   8
ENDBRANCH   3   4
ENDBRANCH   2   3
ENDBRANCH   1   2
BRANCH   1  41
ATOM     41  C   UNL A   1      35.751  32.219  28.031  1.00  0.00     0.002 C 
BRANCH  41  42
ATOM     42  C   UNL A   1      34.440  32.787  28.591  1.00  0.00     0.021 C 
BRANCH  42  43
ATOM     43  C   UNL A   1      34.563  34.048  29.455  1.00  0.00     0.116 C 
BRANCH  43  44
ATOM     44  N   UNL A   1      33.963  33.888  30.775  1.00  0.00    -0.352 N 
ATOM     45  C   UNL A   1      34.425  33.273  31.917  1.00  0.00     0.251 C 
ATOM     46  H   UNL A   1      33.069  34.289  30.865  1.00  0.00     0.163 HD
ATOM     47  O   UNL A   1      33.656  33.100  32.859  1.00  0.00    -0.269 OA
BRANCH  45  48
ATOM     48  C   UNL A   1      35.829  32.813  32.044  1.00  0.00     0.039 A 
ATOM     49  C   UNL A   1      36.094  31.524  32.520  1.00  0.00     0.014 A 
ATOM     50  C   UNL A   1      36.898  33.663  31.785  1.00  0.00     0.014 A 
ATOM     51  C   UNL A   1      37.419  31.067  32.642  1.00  0.00     0.010 A 
ATOM     52  C   UNL A   1      38.209  33.179  31.851  1.00  0.00     0.010 A 
ATOM     53  C   UNL A   1      38.504  31.866  32.245  1.00  0.00    -0.014 A 
BRANCH  53  54
ATOM     54  C   UNL A   1      39.915  31.341  32.191  1.00  0.00     0.031 A 
ATOM     55  C   UNL A   1      40.920  31.601  33.299  1.00  0.00     0.074 A 
ATOM     56  C   UNL A   1      40.359  30.703  31.083  1.00  0.00     0.049 A 
ATOM     57  N   UNL A   1      42.198  31.301  33.345  1.00  0.00    -0.248 NA
ATOM     58  C   UNL A   1      40.449  32.343  34.478  1.00  0.00     0.031 C 
ATOM     59  C   UNL A   1      39.582  30.465  29.864  1.00  0.00     0.029 A 
ATOM     60  N   UNL A   1      41.581  30.131  30.801  1.00  0.00    -0.354 N 
ATOM     61  C   UNL A   1      42.684  31.853  34.527  1.00  0.00     0.074 A 
ATOM     62  C   UNL A   1      41.582  32.572  35.128  1.00  0.00     0.031 C 
ATOM     63  C   UNL A   1      40.313  29.740  29.004  1.00  0.00     0.029 A 
ATOM     64  C   UNL A   1      41.630  29.496  29.581  1.00  0.00     0.049 A 
ATOM     65  H   UNL A   1      42.348  30.174  31.416  1.00  0.00     0.167 HD
ATOM     66  C   UNL A   1      43.912  31.741  35.094  1.00  0.00     0.037 A 
ATOM     67  C   UNL A   1      42.610  28.786  28.987  1.00  0.00     0.037 A 
ATOM     68  C   UNL A   1      44.998  30.951  34.570  1.00  0.00     0.049 A 
ATOM     69  C   UNL A   1      43.935  28.600  29.676  1.00  0.00     0.074 A 
ATOM     70  C   UNL A   1      46.237  30.703  35.141  1.00  0.00     0.029 A 
ATOM     71  N   UNL A   1      44.969  30.262  33.370  1.00  0.00    -0.354 N 
ATOM     72  N   UNL A   1      44.338  29.058  30.833  1.00  0.00    -0.248 NA
ATOM     73  C   UNL A   1      44.940  27.786  28.971  1.00  0.00     0.031 C 
ATOM     74  C   UNL A   1      46.965  29.879  34.278  1.00  0.00     0.029 A 
ATOM     75  C   UNL A   1      46.166  29.586  33.187  1.00  0.00     0.049 A 
ATOM     76  H   UNL A   1      44.212  30.253  32.741  1.00  0.00     0.167 HD
ATOM     77  C   UNL A   1      45.621  28.556  31.014  1.00  0.00     0.074 A 
ATOM     78  C   UNL A   1      45.929  27.751  29.853  1.00  0.00     0.031 C 
ATOM     79  C   UNL A   1      46.466  28.751  32.054  1.00  0.00     0.037 A 
BRANCH  66  80
ATOM     80  C   UNL A   1      44.144  32.446  36.404  1.00  0.00     0.057 A 
ATOM     81  C   UNL A   1      44.597  33.771  36.453  1.00  0.00     0.134 A 
ATOM     82  C   UNL A   1      43.844  31.823  37.623  1.00  0.00     0.134 A 
ATOM     83  F   UNL A   1      44.902  34.426  35.322  1.00  0.00    -0.206 F 
ATOM     84  C   UNL A   1      44.777  34.439  37.665  1.00  0.00     0.040 A 
ATOM     85  C   UNL A   1      43.988  32.493  38.840  1.00  0.00     0.040 A 
ATOM     86  F   UNL A   1      43.384  30.564  37.651  1.00  0.00    -0.206 F 
ATOM     87  C   UNL A   1      44.464  33.802  38.864  1.00  0.00     0.006 A 
ENDBRANCH  66  80
BRANCH  67  88
ATOM     88  C   UNL A   1      42.369  28.129  27.676  1.00  0.00     0.057 A 
ATOM     89  C   UNL A   1      41.974  26.786  27.616  1.00  0.00     0.134 A 
ATOM     90  C   UNL A   1      42.567  28.799  26.465  1.00  0.00     0.134 A 
ATOM     91  F   UNL A   1      41.789  26.086  28.746  1.00  0.00    -0.206 F 
ATOM     92  C   UNL A   1      41.817  26.122  26.399  1.00  0.00     0.040 A 
ATOM     93  C   UNL A   1      42.388  28.155  25.240  1.00  0.00     0.040 A 
ATOM     94  F   UNL A   1      42.936  30.088  26.458  1.00  0.00    -0.206 F 
ATOM     95  C   UNL A   1      42.024  26.811  25.205  1.00  0.00     0.006 A 
ENDBRANCH  67  88
BRANCH  79  96
ATOM     96  C   UNL A   1      47.783  28.033  32.029  1.00  0.00     0.057 A 
ATOM     97  C   UNL A   1      47.938  26.743  32.550  1.00  0.00     0.134 A 
ATOM     98  C   UNL A   1      48.905  28.629  31.435  1.00  0.00     0.134 A 
ATOM     99  F   UNL A   1      46.908  26.122  33.144  1.00  0.00    -0.206 F 
ATOM    100  C   UNL A   1      49.166  26.079  32.501  1.00  0.00     0.040 A 
ATOM    101  C   UNL A   1      50.131  27.965  31.358  1.00  0.00     0.040 A 
ATOM    102  F   UNL A   1      48.825  29.860  30.910  1.00  0.00    -0.206 F 
ATOM    103  C   UNL A   1      50.264  26.686  31.896  1.00  0.00     0.006 A 
ENDBRANCH  79  96
ENDBRANCH  53  54
ENDBRANCH  45  48
ENDBRANCH  43  44
ENDBRANCH  42  43
ENDBRANCH  41  42
ENDBRANCH   1  41
TORSDOF 19
ENDMDL
