MODEL 1
REMARK VINA RESULT:     -11.0      0.000      0.000
REMARK SMILES CN1CC(=O)N(CC(=O)N2CCCC[C@H]2C(=O)NCCCCCCNC(=O)c2ccc(-c3c4nc(c(-c5c(F)cccc5F)c5ccc([nH]5)c(-c5c(F)cccc5F)c5nc(c(-c6c(F)cccc6F)c6ccc3[nH]6)C=C5)C=C4)cc2)C1=O
REMARK SMILES IDX 21 1 20 2 19 3 18 4 16 5 17 6 15 8 10 9 11 10 12 11 14 12
REMARK SMILES IDX 13 13 8 14 9 15 7 16 6 17 1 18 2 19 3 20 82 21 4 22 83 23
REMARK SMILES IDX 5 24 22 25 23 26 24 27 25 28 26 29 27 31 28 32 29 33 81 34
REMARK SMILES IDX 30 35 80 36 31 37 32 38 33 39 74 40 34 41 79 42 73 43 75 44
REMARK SMILES IDX 35 45 78 46 72 47 71 48 36 50 62 51 45 52 61 53 46 54 49 55
REMARK SMILES IDX 60 56 76 57 47 58 48 59 59 61 77 62 50 63 37 64 38 65 43 66
REMARK SMILES IDX 39 67 40 68 42 69 44 70 41 71 63 72 64 73 69 74 65 75 66 76
REMARK SMILES IDX 68 77 70 78 67 79 51 80 52 81 57 82 53 83 54 84 56 85 58 86
REMARK SMILES IDX 55 87
REMARK H PARENT 18 7 25 30 75 49 49 60
REMARK Flexibility Score: inf
ROOT
ATOM      1  C   UNL A   1      36.243  22.139  25.525  1.00  0.00     0.002 C 
ENDROOT
BRANCH   1   2
ATOM      2  C   UNL A   1      35.606  23.059  24.483  1.00  0.00     0.021 C 
BRANCH   2   3
ATOM      3  C   UNL A   1      35.347  24.486  24.945  1.00  0.00     0.116 C 
BRANCH   3   4
ATOM      4  N   UNL A   1      34.131  24.632  25.708  1.00  0.00    -0.354 N 
ATOM      5  C   UNL A   1      33.231  25.648  25.784  1.00  0.00     0.242 C 
ATOM      6  O   UNL A   1      32.179  25.388  26.383  1.00  0.00    -0.273 OA
ATOM      7  H   UNL A   1      33.914  23.858  26.276  1.00  0.00     0.163 HD
BRANCH   5   8
ATOM      8  C   UNL A   1      33.503  27.106  25.297  1.00  0.00     0.174 C 
ATOM      9  N   UNL A   1      32.510  27.846  24.500  1.00  0.00    -0.329 N 
ATOM     10  C   UNL A   1      31.392  28.424  25.265  1.00  0.00     0.120 C 
ATOM     11  C   UNL A   1      31.836  29.231  26.478  1.00  0.00     0.022 C 
ATOM     12  C   UNL A   1      33.981  27.972  26.483  1.00  0.00     0.035 C 
ATOM     13  C   UNL A   1      32.811  28.443  27.339  1.00  0.00     0.004 C 
BRANCH   9  14
ATOM     14  C   UNL A   1      32.466  27.946  23.107  1.00  0.00     0.243 C 
ATOM     15  O   UNL A   1      32.813  29.006  22.563  1.00  0.00    -0.273 OA
BRANCH  14  16
ATOM     16  C   UNL A   1      31.734  26.922  22.204  1.00  0.00     0.230 C 
BRANCH  16  17
ATOM     17  N   UNL A   1      31.578  25.554  22.625  1.00  0.00    -0.253 N 
ATOM     18  C   UNL A   1      32.556  22.086  22.772  1.00  0.00     0.149 C 
ATOM     19  N   UNL A   1      31.996  23.401  22.970  1.00  0.00    -0.318 N 
ATOM     20  C   UNL A   1      30.736  23.615  23.638  1.00  0.00     0.221 C 
ATOM     21  C   UNL A   1      32.499  24.565  22.418  1.00  0.00     0.327 C 
ATOM     22  C   UNL A   1      30.534  25.098  23.376  1.00  0.00     0.250 C 
ATOM     23  O   UNL A   1      33.548  24.678  21.816  1.00  0.00    -0.248 OA
ATOM     24  O   UNL A   1      29.583  25.756  23.771  1.00  0.00    -0.272 OA
ENDBRANCH  16  17
ENDBRANCH  14  16
ENDBRANCH   9  14
ENDBRANCH   5   8
ENDBRANCH   3   4
ENDBRANCH   2   3
ENDBRANCH   1   2
BRANCH   1  25
ATOM     25  C   UNL A   1      36.278  20.648  25.178  1.00  0.00     0.002 C 
BRANCH  25  26
ATOM     26  C   UNL A   1      37.649  20.064  24.826  1.00  0.00     0.021 C 
BRANCH  26  27
ATOM     27  C   UNL A   1      38.785  20.416  25.779  1.00  0.00     0.116 C 
BRANCH  27  28
ATOM     28  N   UNL A   1      39.856  19.437  25.768  1.00  0.00    -0.352 N 
ATOM     29  C   UNL A   1      41.183  19.591  26.081  1.00  0.00     0.251 C 
ATOM     30  H   UNL A   1      39.592  18.528  25.496  1.00  0.00     0.163 HD
ATOM     31  O   UNL A   1      41.971  18.669  25.891  1.00  0.00    -0.269 OA
BRANCH  29  32
ATOM     32  C   UNL A   1      41.676  20.877  26.619  1.00  0.00     0.039 A 
ATOM     33  C   UNL A   1      42.126  21.848  25.721  1.00  0.00     0.014 A 
ATOM     34  C   UNL A   1      41.705  21.126  27.994  1.00  0.00     0.014 A 
ATOM     35  C   UNL A   1      42.553  23.090  26.198  1.00  0.00     0.010 A 
ATOM     36  C   UNL A   1      42.062  22.388  28.463  1.00  0.00     0.010 A 
ATOM     37  C   UNL A   1      42.494  23.381  27.570  1.00  0.00    -0.014 A 
BRANCH  37  38
ATOM     38  C   UNL A   1      42.882  24.717  28.087  1.00  0.00     0.031 A 
ATOM     39  C   UNL A   1      41.837  25.774  28.310  1.00  0.00     0.074 A 
ATOM     40  C   UNL A   1      44.182  24.995  28.304  1.00  0.00     0.049 A 
ATOM     41  N   UNL A   1      41.984  27.015  28.699  1.00  0.00    -0.248 NA
ATOM     42  C   UNL A   1      40.442  25.392  28.036  1.00  0.00     0.031 C 
ATOM     43  C   UNL A   1      45.293  24.067  28.092  1.00  0.00     0.029 A 
ATOM     44  N   UNL A   1      44.788  26.144  28.748  1.00  0.00    -0.354 N 
ATOM     45  C   UNL A   1      40.709  27.563  28.708  1.00  0.00     0.074 A 
ATOM     46  C   UNL A   1      39.805  26.538  28.231  1.00  0.00     0.031 C 
ATOM     47  C   UNL A   1      46.443  24.673  28.429  1.00  0.00     0.029 A 
ATOM     48  C   UNL A   1      46.154  26.043  28.845  1.00  0.00     0.049 A 
ATOM     49  H   UNL A   1      44.291  26.962  28.975  1.00  0.00     0.167 HD
ATOM     50  C   UNL A   1      40.320  28.799  29.100  1.00  0.00     0.037 A 
ATOM     51  C   UNL A   1      47.071  26.954  29.221  1.00  0.00     0.037 A 
ATOM     52  C   UNL A   1      41.219  29.812  29.587  1.00  0.00     0.049 A 
ATOM     53  C   UNL A   1      46.617  28.329  29.625  1.00  0.00     0.074 A 
ATOM     54  C   UNL A   1      40.918  31.082  30.052  1.00  0.00     0.029 A 
ATOM     55  N   UNL A   1      42.596  29.673  29.670  1.00  0.00    -0.354 N 
ATOM     56  N   UNL A   1      45.401  28.815  29.685  1.00  0.00    -0.248 NA
ATOM     57  C   UNL A   1      47.665  29.281  30.018  1.00  0.00     0.031 C 
ATOM     58  C   UNL A   1      42.119  31.724  30.376  1.00  0.00     0.029 A 
ATOM     59  C   UNL A   1      43.162  30.839  30.158  1.00  0.00     0.049 A 
ATOM     60  H   UNL A   1      43.097  28.863  29.419  1.00  0.00     0.167 HD
ATOM     61  C   UNL A   1      45.534  30.116  30.150  1.00  0.00     0.074 A 
ATOM     62  C   UNL A   1      46.948  30.340  30.367  1.00  0.00     0.031 C 
ATOM     63  C   UNL A   1      44.571  31.043  30.378  1.00  0.00     0.037 A 
BRANCH  50  64
ATOM     64  C   UNL A   1      38.855  29.121  29.015  1.00  0.00     0.057 A 
ATOM     65  C   UNL A   1      38.256  29.519  27.812  1.00  0.00     0.134 A 
ATOM     66  C   UNL A   1      38.030  29.013  30.141  1.00  0.00     0.134 A 
ATOM     67  F   UNL A   1      38.992  29.655  26.697  1.00  0.00    -0.206 F 
ATOM     68  C   UNL A   1      36.897  29.830  27.740  1.00  0.00     0.040 A 
ATOM     69  C   UNL A   1      36.664  29.293  30.075  1.00  0.00     0.040 A 
ATOM     70  F   UNL A   1      38.535  28.630  31.323  1.00  0.00    -0.206 F 
ATOM     71  C   UNL A   1      36.095  29.711  28.873  1.00  0.00     0.006 A 
ENDBRANCH  50  64
BRANCH  51  72
ATOM     72  C   UNL A   1      48.510  26.588  29.260  1.00  0.00     0.057 A 
ATOM     73  C   UNL A   1      49.061  25.963  30.385  1.00  0.00     0.134 A 
ATOM     74  C   UNL A   1      49.366  26.856  28.186  1.00  0.00     0.134 A 
ATOM     75  F   UNL A   1      48.295  25.699  31.453  1.00  0.00    -0.206 F 
ATOM     76  C   UNL A   1      50.415  25.634  30.448  1.00  0.00     0.040 A 
ATOM     77  C   UNL A   1      50.717  26.509  28.226  1.00  0.00     0.040 A 
ATOM     78  F   UNL A   1      48.897  27.446  27.077  1.00  0.00    -0.206 F 
ATOM     79  C   UNL A   1      51.248  25.903  29.363  1.00  0.00     0.006 A 
ENDBRANCH  51  72
BRANCH  63  80
ATOM     80  C   UNL A   1      45.011  32.369  30.926  1.00  0.00     0.057 A 
ATOM     81  C   UNL A   1      45.327  33.448  30.092  1.00  0.00     0.134 A 
ATOM     82  C   UNL A   1      45.082  32.578  32.310  1.00  0.00     0.134 A 
ATOM     83  F   UNL A   1      45.292  33.308  28.758  1.00  0.00    -0.206 F 
ATOM     84  C   UNL A   1      45.721  34.682  30.612  1.00  0.00     0.040 A 
ATOM     85  C   UNL A   1      45.448  33.814  32.843  1.00  0.00     0.040 A 
ATOM     86  F   UNL A   1      44.785  31.588  33.165  1.00  0.00    -0.206 F 
ATOM     87  C   UNL A   1      45.775  34.869  31.993  1.00  0.00     0.006 A 
ENDBRANCH  63  80
ENDBRANCH  37  38
ENDBRANCH  29  32
ENDBRANCH  27  28
ENDBRANCH  26  27
ENDBRANCH  25  26
ENDBRANCH   1  25
TORSDOF 16
ENDMDL
MODEL 2
REMARK VINA RESULT:     -10.9      0.321      1.600
REMARK SMILES CN1CC(=O)N(CC(=O)N2CCCC[C@H]2C(=O)NCCCCCCNC(=O)c2ccc(-c3c4nc(c(-c5c(F)cccc5F)c5ccc([nH]5)c(-c5c(F)cccc5F)c5nc(c(-c6c(F)cccc6F)c6ccc3[nH]6)C=C5)C=C4)cc2)C1=O
REMARK SMILES IDX 21 1 20 2 19 3 18 4 16 5 17 6 15 8 10 9 11 10 12 11 14 12
REMARK SMILES IDX 13 13 8 14 9 15 7 16 6 17 1 18 2 19 3 20 82 21 4 22 83 23
REMARK SMILES IDX 5 24 22 25 23 26 24 27 25 28 26 29 27 31 28 32 29 33 81 34
REMARK SMILES IDX 30 35 80 36 31 37 32 38 33 39 74 40 34 41 79 42 73 43 75 44
REMARK SMILES IDX 35 45 78 46 72 47 71 48 36 50 62 51 45 52 61 53 46 54 49 55
REMARK SMILES IDX 60 56 76 57 47 58 48 59 59 61 77 62 50 63 37 64 38 65 43 66
REMARK SMILES IDX 39 67 40 68 42 69 44 70 41 71 63 72 64 73 69 74 65 75 66 76
REMARK SMILES IDX 68 77 70 78 67 79 51 80 52 81 57 82 53 83 54 84 56 85 58 86
REMARK SMILES IDX 55 87
REMARK H PARENT 18 7 25 30 75 49 49 60
REMARK Flexibility Score: inf
ROOT
ATOM      1  C   UNL A   1      36.459  22.141  25.249  1.00  0.00     0.002 C 
ENDROOT
BRANCH   1   2
ATOM      2  C   UNL A   1      35.131  22.859  25.005  1.00  0.00     0.021 C 
BRANCH   2   3
ATOM      3  C   UNL A   1      35.057  24.287  25.526  1.00  0.00     0.116 C 
BRANCH   3   4
ATOM      4  N   UNL A   1      33.784  24.616  26.123  1.00  0.00    -0.354 N 
ATOM      5  C   UNL A   1      32.999  25.720  26.019  1.00  0.00     0.242 C 
ATOM      6  O   UNL A   1      31.863  25.616  26.501  1.00  0.00    -0.273 OA
ATOM      7  H   UNL A   1      33.421  23.915  26.710  1.00  0.00     0.163 HD
BRANCH   5   8
ATOM      8  C   UNL A   1      33.484  27.099  25.472  1.00  0.00     0.174 C 
ATOM      9  N   UNL A   1      32.663  27.883  24.533  1.00  0.00    -0.329 N 
ATOM     10  C   UNL A   1      31.552  28.635  25.142  1.00  0.00     0.120 C 
ATOM     11  C   UNL A   1      31.972  29.476  26.341  1.00  0.00     0.022 C 
ATOM     12  C   UNL A   1      33.945  27.994  26.644  1.00  0.00     0.035 C 
ATOM     13  C   UNL A   1      32.762  28.651  27.345  1.00  0.00     0.004 C 
BRANCH   9  14
ATOM     14  C   UNL A   1      32.761  27.885  23.139  1.00  0.00     0.243 C 
ATOM     15  O   UNL A   1      33.344  28.823  22.573  1.00  0.00    -0.273 OA
BRANCH  14  16
ATOM     16  C   UNL A   1      31.938  26.942  22.228  1.00  0.00     0.230 C 
BRANCH  16  17
ATOM     17  N   UNL A   1      31.703  25.574  22.610  1.00  0.00    -0.253 N 
ATOM     18  C   UNL A   1      32.495  22.055  22.679  1.00  0.00     0.149 C 
ATOM     19  N   UNL A   1      32.002  23.393  22.904  1.00  0.00    -0.318 N 
ATOM     20  C   UNL A   1      30.746  23.656  23.560  1.00  0.00     0.221 C 
ATOM     21  C   UNL A   1      32.574  24.542  22.390  1.00  0.00     0.327 C 
ATOM     22  C   UNL A   1      30.626  25.154  23.335  1.00  0.00     0.250 C 
ATOM     23  O   UNL A   1      33.637  24.616  21.805  1.00  0.00    -0.248 OA
ATOM     24  O   UNL A   1      29.705  25.851  23.734  1.00  0.00    -0.272 OA
ENDBRANCH  16  17
ENDBRANCH  14  16
ENDBRANCH   9  14
ENDBRANCH   5   8
ENDBRANCH   3   4
ENDBRANCH   2   3
ENDBRANCH   1   2
BRANCH   1  25
ATOM     25  C   UNL A   1      36.459  20.627  25.023  1.00  0.00     0.002 C 
BRANCH  25  26
ATOM     26  C   UNL A   1      37.822  19.979  24.765  1.00  0.00     0.021 C 
BRANCH  26  27
ATOM     27  C   UNL A   1      38.925  20.334  25.755  1.00  0.00     0.116 C 
BRANCH  27  28
ATOM     28  N   UNL A   1      39.986  19.346  25.798  1.00  0.00    -0.352 N 
ATOM     29  C   UNL A   1      41.309  19.499  26.130  1.00  0.00     0.251 C 
ATOM     30  H   UNL A   1      39.719  18.430  25.554  1.00  0.00     0.163 HD
ATOM     31  O   UNL A   1      42.091  18.563  25.988  1.00  0.00    -0.269 OA
BRANCH  29  32
ATOM     32  C   UNL A   1      41.805  20.799  26.631  1.00  0.00     0.039 A 
ATOM     33  C   UNL A   1      42.266  21.739  25.706  1.00  0.00     0.014 A 
ATOM     34  C   UNL A   1      41.826  21.091  27.998  1.00  0.00     0.014 A 
ATOM     35  C   UNL A   1      42.696  22.993  26.146  1.00  0.00     0.010 A 
ATOM     36  C   UNL A   1      42.186  22.366  28.429  1.00  0.00     0.010 A 
ATOM     37  C   UNL A   1      42.629  23.327  27.508  1.00  0.00    -0.014 A 
BRANCH  37  38
ATOM     38  C   UNL A   1      43.021  24.677  27.985  1.00  0.00     0.031 A 
ATOM     39  C   UNL A   1      41.972  25.725  28.233  1.00  0.00     0.074 A 
ATOM     40  C   UNL A   1      44.324  24.975  28.144  1.00  0.00     0.049 A 
ATOM     41  N   UNL A   1      42.119  26.975  28.594  1.00  0.00    -0.248 NA
ATOM     42  C   UNL A   1      40.572  25.321  28.023  1.00  0.00     0.031 C 
ATOM     43  C   UNL A   1      45.438  24.058  27.903  1.00  0.00     0.029 A 
ATOM     44  N   UNL A   1      44.933  26.139  28.542  1.00  0.00    -0.354 N 
ATOM     45  C   UNL A   1      40.837  27.507  28.645  1.00  0.00     0.074 A 
ATOM     46  C   UNL A   1      39.929  26.462  28.223  1.00  0.00     0.031 C 
ATOM     47  C   UNL A   1      46.592  24.684  28.182  1.00  0.00     0.029 A 
ATOM     48  C   UNL A   1      46.303  26.057  28.585  1.00  0.00     0.049 A 
ATOM     49  H   UNL A   1      44.435  26.955  28.775  1.00  0.00     0.167 HD
ATOM     50  C   UNL A   1      40.449  28.745  29.031  1.00  0.00     0.037 A 
ATOM     51  C   UNL A   1      47.223  26.986  28.907  1.00  0.00     0.037 A 
ATOM     52  C   UNL A   1      41.353  29.778  29.464  1.00  0.00     0.049 A 
ATOM     53  C   UNL A   1      46.768  28.362  29.306  1.00  0.00     0.074 A 
ATOM     54  C   UNL A   1      41.056  31.052  29.918  1.00  0.00     0.029 A 
ATOM     55  N   UNL A   1      42.734  29.657  29.493  1.00  0.00    -0.354 N 
ATOM     56  N   UNL A   1      45.549  28.834  29.407  1.00  0.00    -0.248 NA
ATOM     57  C   UNL A   1      47.819  29.334  29.638  1.00  0.00     0.031 C 
ATOM     58  C   UNL A   1      42.260  31.714  30.181  1.00  0.00     0.029 A 
ATOM     59  C   UNL A   1      43.305  30.838  29.937  1.00  0.00     0.049 A 
ATOM     60  H   UNL A   1      43.236  28.848  29.235  1.00  0.00     0.167 HD
ATOM     61  C   UNL A   1      45.684  30.145  29.844  1.00  0.00     0.074 A 
ATOM     62  C   UNL A   1      47.103  30.390  29.999  1.00  0.00     0.031 C 
ATOM     63  C   UNL A   1      44.719  31.063  30.095  1.00  0.00     0.037 A 
BRANCH  50  64
ATOM     64  C   UNL A   1      38.978  29.047  29.001  1.00  0.00     0.057 A 
ATOM     65  C   UNL A   1      38.175  28.917  30.144  1.00  0.00     0.134 A 
ATOM     66  C   UNL A   1      38.358  29.490  27.827  1.00  0.00     0.134 A 
ATOM     67  F   UNL A   1      38.703  28.485  31.300  1.00  0.00    -0.206 F 
ATOM     68  C   UNL A   1      36.806  29.184  30.110  1.00  0.00     0.040 A 
ATOM     69  C   UNL A   1      36.996  29.789  27.787  1.00  0.00     0.040 A 
ATOM     70  F   UNL A   1      39.068  29.644  26.698  1.00  0.00    -0.206 F 
ATOM     71  C   UNL A   1      36.213  29.629  28.930  1.00  0.00     0.006 A 
ENDBRANCH  50  64
BRANCH  51  72
ATOM     72  C   UNL A   1      48.666  26.639  28.894  1.00  0.00     0.057 A 
ATOM     73  C   UNL A   1      49.426  26.772  27.725  1.00  0.00     0.134 A 
ATOM     74  C   UNL A   1      49.319  26.164  30.037  1.00  0.00     0.134 A 
ATOM     75  F   UNL A   1      48.852  27.205  26.593  1.00  0.00    -0.206 F 
ATOM     76  C   UNL A   1      50.778  26.429  27.690  1.00  0.00     0.040 A 
ATOM     77  C   UNL A   1      50.676  25.841  30.022  1.00  0.00     0.040 A 
ATOM     78  F   UNL A   1      48.648  26.020  31.189  1.00  0.00    -0.206 F 
ATOM     79  C   UNL A   1      51.409  25.966  28.843  1.00  0.00     0.006 A 
ENDBRANCH  51  72
BRANCH  63  80
ATOM     80  C   UNL A   1      45.163  32.404  30.601  1.00  0.00     0.057 A 
ATOM     81  C   UNL A   1      45.345  32.659  31.965  1.00  0.00     0.134 A 
ATOM     82  C   UNL A   1      45.450  33.443  29.705  1.00  0.00     0.134 A 
ATOM     83  F   UNL A   1      45.074  31.711  32.876  1.00  0.00    -0.206 F 
ATOM     84  C   UNL A   1      45.773  33.906  32.424  1.00  0.00     0.040 A 
ATOM     85  C   UNL A   1      45.904  34.685  30.148  1.00  0.00     0.040 A 
ATOM     86  F   UNL A   1      45.304  33.263  28.383  1.00  0.00    -0.206 F 
ATOM     87  C   UNL A   1      46.060  34.921  31.513  1.00  0.00     0.006 A 
ENDBRANCH  63  80
ENDBRANCH  37  38
ENDBRANCH  29  32
ENDBRANCH  27  28
ENDBRANCH  26  27
ENDBRANCH  25  26
ENDBRANCH   1  25
TORSDOF 16
ENDMDL
MODEL 3
REMARK VINA RESULT:     -10.8      3.952      8.625
REMARK SMILES CN1CC(=O)N(CC(=O)N2CCCC[C@H]2C(=O)NCCCCCCNC(=O)c2ccc(-c3c4nc(c(-c5c(F)cccc5F)c5ccc([nH]5)c(-c5c(F)cccc5F)c5nc(c(-c6c(F)cccc6F)c6ccc3[nH]6)C=C5)C=C4)cc2)C1=O
REMARK SMILES IDX 21 1 20 2 19 3 18 4 16 5 17 6 15 8 10 9 11 10 12 11 14 12
REMARK SMILES IDX 13 13 8 14 9 15 7 16 6 17 1 18 2 19 3 20 82 21 4 22 83 23
REMARK SMILES IDX 5 24 22 25 23 26 24 27 25 28 26 29 27 31 28 32 29 33 81 34
REMARK SMILES IDX 30 35 80 36 31 37 32 38 33 39 74 40 34 41 79 42 73 43 75 44
REMARK SMILES IDX 35 45 78 46 72 47 71 48 36 50 62 51 45 52 61 53 46 54 49 55
REMARK SMILES IDX 60 56 76 57 47 58 48 59 59 61 77 62 50 63 37 64 38 65 43 66
REMARK SMILES IDX 39 67 40 68 42 69 44 70 41 71 63 72 64 73 69 74 65 75 66 76
REMARK SMILES IDX 68 77 70 78 67 79 51 80 52 81 57 82 53 83 54 84 56 85 58 86
REMARK SMILES IDX 55 87
REMARK H PARENT 18 7 25 30 75 49 49 60
REMARK Flexibility Score: inf
ROOT
ATOM      1  C   UNL A   1      32.382  29.328  26.616  1.00  0.00     0.002 C 
ENDROOT
BRANCH   1   2
ATOM      2  C   UNL A   1      32.278  27.913  26.045  1.00  0.00     0.021 C 
BRANCH   2   3
ATOM      3  C   UNL A   1      33.563  27.098  26.085  1.00  0.00     0.116 C 
BRANCH   3   4
ATOM      4  N   UNL A   1      33.881  26.464  24.828  1.00  0.00    -0.354 N 
ATOM      5  C   UNL A   1      34.245  25.189  24.528  1.00  0.00     0.242 C 
ATOM      6  O   UNL A   1      34.256  24.906  23.323  1.00  0.00    -0.273 OA
ATOM      7  H   UNL A   1      33.825  27.062  24.049  1.00  0.00     0.163 HD
BRANCH   5   8
ATOM      8  C   UNL A   1      34.762  24.151  25.573  1.00  0.00     0.174 C 
ATOM      9  N   UNL A   1      34.261  22.765  25.588  1.00  0.00    -0.329 N 
ATOM     10  C   UNL A   1      34.844  21.873  24.571  1.00  0.00     0.120 C 
ATOM     11  C   UNL A   1      36.367  21.909  24.531  1.00  0.00     0.022 C 
ATOM     12  C   UNL A   1      36.306  24.155  25.594  1.00  0.00     0.035 C 
ATOM     13  C   UNL A   1      36.884  23.337  24.446  1.00  0.00     0.004 C 
BRANCH   9  14
ATOM     14  C   UNL A   1      33.225  22.261  26.378  1.00  0.00     0.243 C 
ATOM     15  O   UNL A   1      33.500  21.621  27.405  1.00  0.00    -0.273 OA
BRANCH  14  16
ATOM     16  C   UNL A   1      31.751  22.195  25.906  1.00  0.00     0.230 C 
BRANCH  16  17
ATOM     17  N   UNL A   1      31.203  23.231  25.069  1.00  0.00    -0.253 N 
ATOM     18  C   UNL A   1      29.475  26.344  24.493  1.00  0.00     0.149 C 
ATOM     19  N   UNL A   1      30.272  25.143  24.429  1.00  0.00    -0.318 N 
ATOM     20  C   UNL A   1      30.578  24.480  23.186  1.00  0.00     0.221 C 
ATOM     21  C   UNL A   1      30.689  24.413  25.527  1.00  0.00     0.327 C 
ATOM     22  C   UNL A   1      31.224  23.206  23.705  1.00  0.00     0.250 C 
ATOM     23  O   UNL A   1      30.576  24.739  26.692  1.00  0.00    -0.248 OA
ATOM     24  O   UNL A   1      31.671  22.312  23.003  1.00  0.00    -0.272 OA
ENDBRANCH  16  17
ENDBRANCH  14  16
ENDBRANCH   9  14
ENDBRANCH   5   8
ENDBRANCH   3   4
ENDBRANCH   2   3
ENDBRANCH   1   2
BRANCH   1  25
ATOM     25  C   UNL A   1      31.562  30.406  25.902  1.00  0.00     0.002 C 
BRANCH  25  26
ATOM     26  C   UNL A   1      31.413  31.742  26.634  1.00  0.00     0.021 C 
BRANCH  26  27
ATOM     27  C   UNL A   1      32.707  32.500  26.903  1.00  0.00     0.116 C 
BRANCH  27  28
ATOM     28  N   UNL A   1      32.484  33.823  27.455  1.00  0.00    -0.352 N 
ATOM     29  C   UNL A   1      33.137  34.465  28.476  1.00  0.00     0.251 C 
ATOM     30  H   UNL A   1      31.755  34.336  27.036  1.00  0.00     0.163 HD
ATOM     31  O   UNL A   1      32.723  35.544  28.890  1.00  0.00    -0.269 OA
BRANCH  29  32
ATOM     32  C   UNL A   1      34.326  33.848  29.103  1.00  0.00     0.039 A 
ATOM     33  C   UNL A   1      34.133  32.897  30.109  1.00  0.00     0.014 A 
ATOM     34  C   UNL A   1      35.621  34.203  28.714  1.00  0.00     0.014 A 
ATOM     35  C   UNL A   1      35.235  32.263  30.686  1.00  0.00     0.010 A 
ATOM     36  C   UNL A   1      36.715  33.519  29.238  1.00  0.00     0.010 A 
ATOM     37  C   UNL A   1      36.533  32.546  30.232  1.00  0.00    -0.014 A 
BRANCH  37  38
ATOM     38  C   UNL A   1      37.711  31.834  30.789  1.00  0.00     0.031 A 
ATOM     39  C   UNL A   1      38.266  32.226  32.129  1.00  0.00     0.074 A 
ATOM     40  C   UNL A   1      38.312  30.872  30.064  1.00  0.00     0.049 A 
ATOM     41  N   UNL A   1      39.319  31.766  32.757  1.00  0.00    -0.248 NA
ATOM     42  C   UNL A   1      37.558  33.296  32.851  1.00  0.00     0.031 C 
ATOM     43  C   UNL A   1      37.892  30.425  28.736  1.00  0.00     0.029 A 
ATOM     44  N   UNL A   1      39.412  30.099  30.342  1.00  0.00    -0.354 N 
ATOM     45  C   UNL A   1      39.404  32.492  33.937  1.00  0.00     0.074 A 
ATOM     46  C   UNL A   1      38.331  33.464  33.914  1.00  0.00     0.031 C 
ATOM     47  C   UNL A   1      38.705  29.440  28.325  1.00  0.00     0.029 A 
ATOM     48  C   UNL A   1      39.727  29.211  29.342  1.00  0.00     0.049 A 
ATOM     49  H   UNL A   1      39.925  30.173  31.178  1.00  0.00     0.167 HD
ATOM     50  C   UNL A   1      40.280  32.349  34.959  1.00  0.00     0.037 A 
ATOM     51  C   UNL A   1      40.731  28.319  29.254  1.00  0.00     0.037 A 
ATOM     52  C   UNL A   1      41.338  31.373  34.986  1.00  0.00     0.049 A 
ATOM     53  C   UNL A   1      41.708  28.198  30.390  1.00  0.00     0.074 A 
ATOM     54  C   UNL A   1      42.251  31.117  35.995  1.00  0.00     0.029 A 
ATOM     55  N   UNL A   1      41.626  30.492  33.955  1.00  0.00    -0.354 N 
ATOM     56  N   UNL A   1      41.742  28.851  31.526  1.00  0.00    -0.248 NA
ATOM     57  C   UNL A   1      42.786  27.211  30.231  1.00  0.00     0.031 C 
ATOM     58  C   UNL A   1      43.118  30.111  35.555  1.00  0.00     0.029 A 
ATOM     59  C   UNL A   1      42.715  29.706  34.292  1.00  0.00     0.049 A 
ATOM     60  H   UNL A   1      41.129  30.435  33.106  1.00  0.00     0.167 HD
ATOM     61  C   UNL A   1      42.822  28.335  32.230  1.00  0.00     0.074 A 
ATOM     62  C   UNL A   1      43.411  27.306  31.397  1.00  0.00     0.031 C 
ATOM     63  C   UNL A   1      43.284  28.680  33.456  1.00  0.00     0.037 A 
BRANCH  50  64
ATOM     64  C   UNL A   1      40.128  33.274  36.133  1.00  0.00     0.057 A 
ATOM     65  C   UNL A   1      39.271  32.974  37.201  1.00  0.00     0.134 A 
ATOM     66  C   UNL A   1      40.857  34.467  36.207  1.00  0.00     0.134 A 
ATOM     67  F   UNL A   1      38.533  31.853  37.188  1.00  0.00    -0.206 F 
ATOM     68  C   UNL A   1      39.122  33.842  38.284  1.00  0.00     0.040 A 
ATOM     69  C   UNL A   1      40.739  35.329  37.298  1.00  0.00     0.040 A 
ATOM     70  F   UNL A   1      41.702  34.813  35.223  1.00  0.00    -0.206 F 
ATOM     71  C   UNL A   1      39.862  35.021  38.338  1.00  0.00     0.006 A 
ENDBRANCH  50  64
BRANCH  51  72
ATOM     72  C   UNL A   1      40.848  27.448  28.057  1.00  0.00     0.057 A 
ATOM     73  C   UNL A   1      41.598  27.851  26.946  1.00  0.00     0.134 A 
ATOM     74  C   UNL A   1      40.215  26.201  27.991  1.00  0.00     0.134 A 
ATOM     75  F   UNL A   1      42.211  29.043  26.943  1.00  0.00    -0.206 F 
ATOM     76  C   UNL A   1      41.700  27.055  25.804  1.00  0.00     0.040 A 
ATOM     77  C   UNL A   1      40.329  25.384  26.865  1.00  0.00     0.040 A 
ATOM     78  F   UNL A   1      39.489  25.754  29.025  1.00  0.00    -0.206 F 
ATOM     79  C   UNL A   1      41.067  25.814  25.764  1.00  0.00     0.006 A 
ENDBRANCH  51  72
BRANCH  63  80
ATOM     80  C   UNL A   1      44.459  27.914  33.987  1.00  0.00     0.057 A 
ATOM     81  C   UNL A   1      45.774  28.366  33.824  1.00  0.00     0.134 A 
ATOM     82  C   UNL A   1      44.268  26.726  34.705  1.00  0.00     0.134 A 
ATOM     83  F   UNL A   1      46.026  29.489  33.133  1.00  0.00    -0.206 F 
ATOM     84  C   UNL A   1      46.860  27.652  34.335  1.00  0.00     0.040 A 
ATOM     85  C   UNL A   1      45.342  26.018  35.244  1.00  0.00     0.040 A 
ATOM     86  F   UNL A   1      43.033  26.241  34.905  1.00  0.00    -0.206 F 
ATOM     87  C   UNL A   1      46.644  26.478  35.054  1.00  0.00     0.006 A 
ENDBRANCH  63  80
ENDBRANCH  37  38
ENDBRANCH  29  32
ENDBRANCH  27  28
ENDBRANCH  26  27
ENDBRANCH  25  26
ENDBRANCH   1  25
TORSDOF 16
ENDMDL
