MODEL 1
REMARK VINA RESULT:     -11.0      0.000      0.000
REMARK SMILES COCC(=O)N1[C@@H](C(=O)NCCCCCCNC(=O)c2ccc(-c3c4nc(c(-c5c(F)cccc5F)c5ccc([nH]5)c(-c5c(F)cccc5F)c5nc(c(-c6c(F)cccc6F)c6ccc3[nH]6)C=C5)C=C4)cc2)CC[C@@H]2CCCC[C@H]21
REMARK SMILES IDX 13 1 12 2 11 3 10 4 8 5 9 6 7 8 6 9 81 10 74 11 76 12 80 13
REMARK SMILES IDX 75 14 77 15 79 16 78 17 4 18 5 19 3 20 2 21 1 22 14 23 15 24
REMARK SMILES IDX 16 25 17 26 18 27 19 29 20 30 21 31 73 32 22 33 72 34 23 35
REMARK SMILES IDX 24 36 25 37 66 38 26 39 71 40 65 41 67 42 27 43 70 44 64 45
REMARK SMILES IDX 63 46 28 48 54 49 37 50 53 51 38 52 41 53 52 54 68 55 39 56
REMARK SMILES IDX 40 57 51 59 69 60 42 61 29 62 30 63 35 64 31 65 32 66 34 67
REMARK SMILES IDX 36 68 33 69 55 70 56 71 61 72 57 73 58 74 60 75 62 76 59 77
REMARK SMILES IDX 43 78 44 79 49 80 45 81 46 82 48 83 50 84 47 85
REMARK H PARENT 10 7 17 28 67 47 41 58
REMARK Flexibility Score: inf
ROOT
ATOM      1  C   UNL A   1      36.849  22.501  24.361  1.00  0.00     0.002 C 
ENDROOT
BRANCH   1   2
ATOM      2  C   UNL A   1      35.955  22.986  23.212  1.00  0.00     0.021 C 
BRANCH   2   3
ATOM      3  C   UNL A   1      34.464  22.908  23.520  1.00  0.00     0.116 C 
BRANCH   3   4
ATOM      4  N   UNL A   1      33.704  23.627  22.515  1.00  0.00    -0.354 N 
ATOM      5  C   UNL A   1      33.223  24.901  22.518  1.00  0.00     0.242 C 
ATOM      6  O   UNL A   1      32.452  25.222  21.607  1.00  0.00    -0.273 OA
ATOM      7  H   UNL A   1      33.504  23.112  21.700  1.00  0.00     0.163 HD
BRANCH   5   8
ATOM      8  C   UNL A   1      33.442  25.840  23.719  1.00  0.00     0.174 C 
ATOM      9  N   UNL A   1      32.299  26.083  24.635  1.00  0.00    -0.325 N 
ATOM     10  C   UNL A   1      32.498  27.210  25.583  1.00  0.00     0.089 C 
ATOM     11  C   UNL A   1      33.934  27.151  23.047  1.00  0.00     0.036 C 
ATOM     12  C   UNL A   1      32.742  28.520  24.811  1.00  0.00     0.012 C 
ATOM     13  C   UNL A   1      31.444  27.385  26.693  1.00  0.00     0.025 C 
ATOM     14  C   UNL A   1      33.999  28.369  23.948  1.00  0.00     0.008 C 
ATOM     15  C   UNL A   1      32.918  29.745  25.723  1.00  0.00     0.006 C 
ATOM     16  C   UNL A   1      31.769  28.564  27.605  1.00  0.00     0.002 C 
ATOM     17  C   UNL A   1      31.848  29.851  26.798  1.00  0.00     0.000 C 
BRANCH   9  18
ATOM     18  C   UNL A   1      31.369  25.091  24.963  1.00  0.00     0.249 C 
ATOM     19  O   UNL A   1      30.226  25.103  24.496  1.00  0.00    -0.272 OA
BRANCH  18  20
ATOM     20  C   UNL A   1      31.752  23.989  25.974  1.00  0.00     0.259 C 
BRANCH  20  21
ATOM     21  O   UNL A   1      31.003  23.881  27.166  1.00  0.00    -0.375 OA
ATOM     22  C   UNL A   1      29.944  22.940  27.088  1.00  0.00     0.195 C 
ENDBRANCH  20  21
ENDBRANCH  18  20
ENDBRANCH   9  18
ENDBRANCH   5   8
ENDBRANCH   3   4
ENDBRANCH   2   3
ENDBRANCH   1   2
BRANCH   1  23
ATOM     23  C   UNL A   1      36.493  21.119  24.915  1.00  0.00     0.002 C 
BRANCH  23  24
ATOM     24  C   UNL A   1      37.638  20.108  24.903  1.00  0.00     0.021 C 
BRANCH  24  25
ATOM     25  C   UNL A   1      38.868  20.547  25.686  1.00  0.00     0.116 C 
BRANCH  25  26
ATOM     26  N   UNL A   1      39.881  19.505  25.752  1.00  0.00    -0.352 N 
ATOM     27  C   UNL A   1      41.203  19.614  26.095  1.00  0.00     0.251 C 
ATOM     28  H   UNL A   1      39.575  18.600  25.518  1.00  0.00     0.163 HD
ATOM     29  O   UNL A   1      41.968  18.666  25.936  1.00  0.00    -0.269 OA
BRANCH  27  30
ATOM     30  C   UNL A   1      41.709  20.891  26.633  1.00  0.00     0.039 A 
ATOM     31  C   UNL A   1      42.214  21.843  25.746  1.00  0.00     0.014 A 
ATOM     32  C   UNL A   1      41.662  21.156  28.005  1.00  0.00     0.014 A 
ATOM     33  C   UNL A   1      42.624  23.084  26.231  1.00  0.00     0.010 A 
ATOM     34  C   UNL A   1      41.993  22.423  28.475  1.00  0.00     0.010 A 
ATOM     35  C   UNL A   1      42.484  23.397  27.594  1.00  0.00    -0.014 A 
BRANCH  35  36
ATOM     36  C   UNL A   1      42.851  24.740  28.108  1.00  0.00     0.031 A 
ATOM     37  C   UNL A   1      41.796  25.793  28.304  1.00  0.00     0.074 A 
ATOM     38  C   UNL A   1      44.145  25.023  28.356  1.00  0.00     0.049 A 
ATOM     39  N   UNL A   1      41.926  27.027  28.720  1.00  0.00    -0.248 NA
ATOM     40  C   UNL A   1      40.413  25.419  27.961  1.00  0.00     0.031 C 
ATOM     41  C   UNL A   1      45.268  24.105  28.151  1.00  0.00     0.029 A 
ATOM     42  N   UNL A   1      44.735  26.167  28.831  1.00  0.00    -0.354 N 
ATOM     43  C   UNL A   1      40.652  27.575  28.683  1.00  0.00     0.074 A 
ATOM     44  C   UNL A   1      39.769  26.563  28.145  1.00  0.00     0.031 C 
ATOM     45  C   UNL A   1      46.405  24.709  28.529  1.00  0.00     0.029 A 
ATOM     46  C   UNL A   1      46.100  26.068  28.965  1.00  0.00     0.049 A 
ATOM     47  H   UNL A   1      44.230  26.982  29.056  1.00  0.00     0.167 HD
ATOM     48  C   UNL A   1      40.247  28.803  29.086  1.00  0.00     0.037 A 
ATOM     49  C   UNL A   1      47.003  26.974  29.385  1.00  0.00     0.037 A 
ATOM     50  C   UNL A   1      41.125  29.800  29.639  1.00  0.00     0.049 A 
ATOM     51  C   UNL A   1      46.527  28.333  29.819  1.00  0.00     0.074 A 
ATOM     52  C   UNL A   1      40.805  31.053  30.131  1.00  0.00     0.029 A 
ATOM     53  N   UNL A   1      42.500  29.659  29.768  1.00  0.00    -0.354 N 
ATOM     54  N   UNL A   1      45.307  28.811  29.853  1.00  0.00    -0.248 NA
ATOM     55  C   UNL A   1      47.554  29.276  30.282  1.00  0.00     0.031 C 
ATOM     56  C   UNL A   1      41.990  31.691  30.509  1.00  0.00     0.029 A 
ATOM     57  C   UNL A   1      43.043  30.813  30.309  1.00  0.00     0.049 A 
ATOM     58  H   UNL A   1      43.012  28.858  29.514  1.00  0.00     0.167 HD
ATOM     59  C   UNL A   1      45.416  30.096  30.370  1.00  0.00     0.074 A 
ATOM     60  C   UNL A   1      46.819  30.314  30.651  1.00  0.00     0.031 C 
ATOM     61  C   UNL A   1      44.442  31.013  30.591  1.00  0.00     0.037 A 
BRANCH  48  62
ATOM     62  C   UNL A   1      38.790  29.137  28.947  1.00  0.00     0.057 A 
ATOM     63  C   UNL A   1      38.234  29.531  27.722  1.00  0.00     0.134 A 
ATOM     64  C   UNL A   1      37.921  29.019  30.041  1.00  0.00     0.134 A 
ATOM     65  F   UNL A   1      39.010  29.675  26.638  1.00  0.00    -0.206 F 
ATOM     66  C   UNL A   1      36.873  29.817  27.595  1.00  0.00     0.040 A 
ATOM     67  C   UNL A   1      36.555  29.273  29.918  1.00  0.00     0.040 A 
ATOM     68  F   UNL A   1      38.385  28.641  31.242  1.00  0.00    -0.206 F 
ATOM     69  C   UNL A   1      36.028  29.679  28.694  1.00  0.00     0.006 A 
ENDBRANCH  48  62
BRANCH  49  70
ATOM     70  C   UNL A   1      48.446  26.623  29.436  1.00  0.00     0.057 A 
ATOM     71  C   UNL A   1      49.012  26.042  30.576  1.00  0.00     0.134 A 
ATOM     72  C   UNL A   1      49.299  26.881  28.355  1.00  0.00     0.134 A 
ATOM     73  F   UNL A   1      48.251  25.786  31.651  1.00  0.00    -0.206 F 
ATOM     74  C   UNL A   1      50.376  25.756  30.653  1.00  0.00     0.040 A 
ATOM     75  C   UNL A   1      50.659  26.573  28.407  1.00  0.00     0.040 A 
ATOM     76  F   UNL A   1      48.819  27.428  27.229  1.00  0.00    -0.206 F 
ATOM     77  C   UNL A   1      51.203  26.018  29.563  1.00  0.00     0.006 A 
ENDBRANCH  49  70
BRANCH  61  78
ATOM     78  C   UNL A   1      44.855  32.319  31.204  1.00  0.00     0.057 A 
ATOM     79  C   UNL A   1      45.202  33.430  30.424  1.00  0.00     0.134 A 
ATOM     80  C   UNL A   1      44.874  32.477  32.596  1.00  0.00     0.134 A 
ATOM     81  F   UNL A   1      45.215  33.344  29.085  1.00  0.00    -0.206 F 
ATOM     82  C   UNL A   1      45.583  34.641  31.007  1.00  0.00     0.040 A 
ATOM     83  C   UNL A   1      45.222  33.691  33.190  1.00  0.00     0.040 A 
ATOM     84  F   UNL A   1      44.543  31.457  33.403  1.00  0.00    -0.206 F 
ATOM     85  C   UNL A   1      45.585  34.775  32.393  1.00  0.00     0.006 A 
ENDBRANCH  61  78
ENDBRANCH  35  36
ENDBRANCH  27  30
ENDBRANCH  25  26
ENDBRANCH  24  25
ENDBRANCH  23  24
ENDBRANCH   1  23
TORSDOF 16
ENDMDL
MODEL 2
REMARK VINA RESULT:     -10.9      4.096      9.169
REMARK SMILES COCC(=O)N1[C@@H](C(=O)NCCCCCCNC(=O)c2ccc(-c3c4nc(c(-c5c(F)cccc5F)c5ccc([nH]5)c(-c5c(F)cccc5F)c5nc(c(-c6c(F)cccc6F)c6ccc3[nH]6)C=C5)C=C4)cc2)CC[C@@H]2CCCC[C@H]21
REMARK SMILES IDX 13 1 12 2 11 3 10 4 8 5 9 6 7 8 6 9 81 10 74 11 76 12 80 13
REMARK SMILES IDX 75 14 77 15 79 16 78 17 4 18 5 19 3 20 2 21 1 22 14 23 15 24
REMARK SMILES IDX 16 25 17 26 18 27 19 29 20 30 21 31 73 32 22 33 72 34 23 35
REMARK SMILES IDX 24 36 25 37 66 38 26 39 71 40 65 41 67 42 27 43 70 44 64 45
REMARK SMILES IDX 63 46 28 48 54 49 37 50 53 51 38 52 41 53 52 54 68 55 39 56
REMARK SMILES IDX 40 57 51 59 69 60 42 61 29 62 30 63 35 64 31 65 32 66 34 67
REMARK SMILES IDX 36 68 33 69 55 70 56 71 61 72 57 73 58 74 60 75 62 76 59 77
REMARK SMILES IDX 43 78 44 79 49 80 45 81 46 82 48 83 50 84 47 85
REMARK H PARENT 10 7 17 28 67 47 41 58
REMARK Flexibility Score: inf
ROOT
ATOM      1  C   UNL A   1      32.182  29.876  27.236  1.00  0.00     0.002 C 
ENDROOT
BRANCH   1   2
ATOM      2  C   UNL A   1      31.422  28.576  27.529  1.00  0.00     0.021 C 
BRANCH   2   3
ATOM      3  C   UNL A   1      32.197  27.316  27.160  1.00  0.00     0.116 C 
BRANCH   3   4
ATOM      4  N   UNL A   1      31.293  26.295  26.664  1.00  0.00    -0.354 N 
ATOM      5  C   UNL A   1      31.534  25.006  26.300  1.00  0.00     0.242 C 
ATOM      6  O   UNL A   1      30.620  24.390  25.742  1.00  0.00    -0.273 OA
ATOM      7  H   UNL A   1      30.355  26.581  26.577  1.00  0.00     0.163 HD
BRANCH   5   8
ATOM      8  C   UNL A   1      32.950  24.402  26.370  1.00  0.00     0.174 C 
ATOM      9  N   UNL A   1      33.716  24.267  25.105  1.00  0.00    -0.325 N 
ATOM     10  C   UNL A   1      34.933  23.421  25.209  1.00  0.00     0.089 C 
ATOM     11  C   UNL A   1      32.705  23.027  27.048  1.00  0.00     0.036 C 
ATOM     12  C   UNL A   1      34.555  21.997  25.661  1.00  0.00     0.012 C 
ATOM     13  C   UNL A   1      35.881  23.406  23.996  1.00  0.00     0.025 C 
ATOM     14  C   UNL A   1      33.880  22.068  27.035  1.00  0.00     0.008 C 
ATOM     15  C   UNL A   1      35.759  21.045  25.756  1.00  0.00     0.006 C 
ATOM     16  C   UNL A   1      37.096  22.513  24.234  1.00  0.00     0.002 C 
ATOM     17  C   UNL A   1      36.655  21.087  24.527  1.00  0.00     0.000 C 
BRANCH   9  18
ATOM     18  C   UNL A   1      33.645  25.210  24.073  1.00  0.00     0.249 C 
ATOM     19  O   UNL A   1      34.008  26.377  24.246  1.00  0.00    -0.272 OA
BRANCH  18  20
ATOM     20  C   UNL A   1      33.047  24.806  22.709  1.00  0.00     0.259 C 
BRANCH  20  21
ATOM     21  O   UNL A   1      33.511  25.465  21.551  1.00  0.00    -0.375 OA
ATOM     22  C   UNL A   1      32.526  25.595  20.537  1.00  0.00     0.195 C 
ENDBRANCH  20  21
ENDBRANCH  18  20
ENDBRANCH   9  18
ENDBRANCH   5   8
ENDBRANCH   3   4
ENDBRANCH   2   3
ENDBRANCH   1   2
BRANCH   1  23
ATOM     23  C   UNL A   1      31.567  30.747  26.137  1.00  0.00     0.002 C 
BRANCH  23  24
ATOM     24  C   UNL A   1      31.394  32.219  26.506  1.00  0.00     0.021 C 
BRANCH  24  25
ATOM     25  C   UNL A   1      32.591  32.829  27.224  1.00  0.00     0.116 C 
BRANCH  25  26
ATOM     26  N   UNL A   1      32.348  34.203  27.633  1.00  0.00    -0.352 N 
ATOM     27  C   UNL A   1      32.978  34.934  28.606  1.00  0.00     0.251 C 
ATOM     28  H   UNL A   1      31.633  34.672  27.145  1.00  0.00     0.163 HD
ATOM     29  O   UNL A   1      32.539  36.030  28.945  1.00  0.00    -0.269 OA
BRANCH  27  30
ATOM     30  C   UNL A   1      34.178  34.380  29.264  1.00  0.00     0.039 A 
ATOM     31  C   UNL A   1      34.025  33.671  30.456  1.00  0.00     0.014 A 
ATOM     32  C   UNL A   1      35.444  34.542  28.694  1.00  0.00     0.014 A 
ATOM     33  C   UNL A   1      35.137  33.076  31.049  1.00  0.00     0.010 A 
ATOM     34  C   UNL A   1      36.537  33.879  29.241  1.00  0.00     0.010 A 
ATOM     35  C   UNL A   1      36.397  33.145  30.428  1.00  0.00    -0.014 A 
BRANCH  35  36
ATOM     36  C   UNL A   1      37.573  32.456  31.014  1.00  0.00     0.031 A 
ATOM     37  C   UNL A   1      38.203  32.973  32.278  1.00  0.00     0.074 A 
ATOM     38  C   UNL A   1      38.099  31.390  30.382  1.00  0.00     0.049 A 
ATOM     39  N   UNL A   1      39.246  32.520  32.926  1.00  0.00    -0.248 NA
ATOM     40  C   UNL A   1      37.599  34.173  32.880  1.00  0.00     0.031 C 
ATOM     41  C   UNL A   1      37.612  30.828  29.119  1.00  0.00     0.029 A 
ATOM     42  N   UNL A   1      39.163  30.588  30.712  1.00  0.00    -0.354 N 
ATOM     43  C   UNL A   1      39.425  33.379  34.002  1.00  0.00     0.074 A 
ATOM     44  C   UNL A   1      38.425  34.417  33.887  1.00  0.00     0.031 C 
ATOM     45  C   UNL A   1      38.353  29.756  28.799  1.00  0.00     0.029 A 
ATOM     46  C   UNL A   1      39.391  29.576  29.810  1.00  0.00     0.049 A 
ATOM     47  H   UNL A   1      39.710  30.724  31.519  1.00  0.00     0.167 HD
ATOM     48  C   UNL A   1      40.326  33.297  35.009  1.00  0.00     0.037 A 
ATOM     49  C   UNL A   1      40.334  28.616  29.797  1.00  0.00     0.037 A 
ATOM     50  C   UNL A   1      41.308  32.251  35.130  1.00  0.00     0.049 A 
ATOM     51  C   UNL A   1      41.327  28.552  30.925  1.00  0.00     0.074 A 
ATOM     52  C   UNL A   1      42.226  32.045  36.144  1.00  0.00     0.029 A 
ATOM     53  N   UNL A   1      41.501  31.237  34.202  1.00  0.00    -0.354 N 
ATOM     54  N   UNL A   1      41.435  29.325  31.977  1.00  0.00    -0.248 NA
ATOM     55  C   UNL A   1      42.325  27.475  30.866  1.00  0.00     0.031 C 
ATOM     56  C   UNL A   1      43.011  30.938  35.804  1.00  0.00     0.029 A 
ATOM     57  C   UNL A   1      42.542  30.419  34.609  1.00  0.00     0.049 A 
ATOM     58  H   UNL A   1      40.976  31.118  33.378  1.00  0.00     0.167 HD
ATOM     59  C   UNL A   1      42.490  28.811  32.722  1.00  0.00     0.074 A 
ATOM     60  C   UNL A   1      42.975  27.649  32.008  1.00  0.00     0.031 C 
ATOM     61  C   UNL A   1      43.009  29.260  33.891  1.00  0.00     0.037 A 
BRANCH  48  62
ATOM     62  C   UNL A   1      40.291  34.364  36.065  1.00  0.00     0.057 A 
ATOM     63  C   UNL A   1      39.456  34.268  37.187  1.00  0.00     0.134 A 
ATOM     64  C   UNL A   1      41.136  35.479  35.985  1.00  0.00     0.134 A 
ATOM     65  F   UNL A   1      38.614  33.232  37.321  1.00  0.00    -0.206 F 
ATOM     66  C   UNL A   1      39.446  35.251  38.178  1.00  0.00     0.040 A 
ATOM     67  C   UNL A   1      41.156  36.453  36.983  1.00  0.00     0.040 A 
ATOM     68  F   UNL A   1      41.965  35.632  34.941  1.00  0.00    -0.206 F 
ATOM     69  C   UNL A   1      40.305  36.344  38.081  1.00  0.00     0.006 A 
ENDBRANCH  48  62
BRANCH  49  70
ATOM     70  C   UNL A   1      40.377  27.624  28.691  1.00  0.00     0.057 A 
ATOM     71  C   UNL A   1      41.128  27.860  27.534  1.00  0.00     0.134 A 
ATOM     72  C   UNL A   1      39.653  26.428  28.755  1.00  0.00     0.134 A 
ATOM     73  F   UNL A   1      41.830  28.995  27.405  1.00  0.00    -0.206 F 
ATOM     74  C   UNL A   1      41.135  26.957  26.468  1.00  0.00     0.040 A 
ATOM     75  C   UNL A   1      39.674  25.502  27.711  1.00  0.00     0.040 A 
ATOM     76  F   UNL A   1      38.921  26.137  29.841  1.00  0.00    -0.206 F 
ATOM     77  C   UNL A   1      40.408  25.772  26.558  1.00  0.00     0.006 A 
ENDBRANCH  49  70
BRANCH  61  78
ATOM     78  C   UNL A   1      44.135  28.468  34.491  1.00  0.00     0.057 A 
ATOM     79  C   UNL A   1      45.478  28.776  34.239  1.00  0.00     0.134 A 
ATOM     80  C   UNL A   1      43.869  27.402  35.361  1.00  0.00     0.134 A 
ATOM     81  F   UNL A   1      45.801  29.777  33.406  1.00  0.00    -0.206 F 
ATOM     82  C   UNL A   1      46.515  28.033  34.805  1.00  0.00     0.040 A 
ATOM     83  C   UNL A   1      44.898  26.672  35.959  1.00  0.00     0.040 A 
ATOM     84  F   UNL A   1      42.605  27.061  35.655  1.00  0.00    -0.206 F 
ATOM     85  C   UNL A   1      46.225  26.983  35.673  1.00  0.00     0.006 A 
ENDBRANCH  61  78
ENDBRANCH  35  36
ENDBRANCH  27  30
ENDBRANCH  25  26
ENDBRANCH  24  25
ENDBRANCH  23  24
ENDBRANCH   1  23
TORSDOF 16
ENDMDL
MODEL 3
REMARK VINA RESULT:     -10.9      0.586      6.295
REMARK SMILES COCC(=O)N1[C@@H](C(=O)NCCCCCCNC(=O)c2ccc(-c3c4nc(c(-c5c(F)cccc5F)c5ccc([nH]5)c(-c5c(F)cccc5F)c5nc(c(-c6c(F)cccc6F)c6ccc3[nH]6)C=C5)C=C4)cc2)CC[C@@H]2CCCC[C@H]21
REMARK SMILES IDX 13 1 12 2 11 3 10 4 8 5 9 6 7 8 6 9 81 10 74 11 76 12 80 13
REMARK SMILES IDX 75 14 77 15 79 16 78 17 4 18 5 19 3 20 2 21 1 22 14 23 15 24
REMARK SMILES IDX 16 25 17 26 18 27 19 29 20 30 21 31 73 32 22 33 72 34 23 35
REMARK SMILES IDX 24 36 25 37 66 38 26 39 71 40 65 41 67 42 27 43 70 44 64 45
REMARK SMILES IDX 63 46 28 48 54 49 37 50 53 51 38 52 41 53 52 54 68 55 39 56
REMARK SMILES IDX 40 57 51 59 69 60 42 61 29 62 30 63 35 64 31 65 32 66 34 67
REMARK SMILES IDX 36 68 33 69 55 70 56 71 61 72 57 73 58 74 60 75 62 76 59 77
REMARK SMILES IDX 43 78 44 79 49 80 45 81 46 82 48 83 50 84 47 85
REMARK H PARENT 10 7 17 28 67 47 41 58
REMARK Flexibility Score: inf
ROOT
ATOM      1  C   UNL A   1      36.743  22.280  24.675  1.00  0.00     0.002 C 
ENDROOT
BRANCH   1   2
ATOM      2  C   UNL A   1      35.956  22.808  23.469  1.00  0.00     0.021 C 
BRANCH   2   3
ATOM      3  C   UNL A   1      34.445  22.802  23.671  1.00  0.00     0.116 C 
BRANCH   3   4
ATOM      4  N   UNL A   1      33.788  23.492  22.577  1.00  0.00    -0.354 N 
ATOM      5  C   UNL A   1      33.400  24.792  22.461  1.00  0.00     0.242 C 
ATOM      6  O   UNL A   1      32.698  25.094  21.490  1.00  0.00    -0.273 OA
ATOM      7  H   UNL A   1      33.591  22.931  21.793  1.00  0.00     0.163 HD
BRANCH   5   8
ATOM      8  C   UNL A   1      33.628  25.803  23.601  1.00  0.00     0.174 C 
ATOM      9  N   UNL A   1      32.563  25.953  24.626  1.00  0.00    -0.325 N 
ATOM     10  C   UNL A   1      32.723  27.137  25.510  1.00  0.00     0.089 C 
ATOM     11  C   UNL A   1      33.887  27.131  22.837  1.00  0.00     0.036 C 
ATOM     12  C   UNL A   1      32.727  28.431  24.674  1.00  0.00     0.012 C 
ATOM     13  C   UNL A   1      31.776  27.239  26.721  1.00  0.00     0.025 C 
ATOM     14  C   UNL A   1      33.898  28.387  23.686  1.00  0.00     0.008 C 
ATOM     15  C   UNL A   1      32.849  29.708  25.521  1.00  0.00     0.006 C 
ATOM     16  C   UNL A   1      32.049  28.488  27.554  1.00  0.00     0.002 C 
ATOM     17  C   UNL A   1      31.890  29.738  26.702  1.00  0.00     0.000 C 
BRANCH   9  18
ATOM     18  C   UNL A   1      31.798  24.876  25.085  1.00  0.00     0.249 C 
ATOM     19  O   UNL A   1      32.185  24.166  26.019  1.00  0.00    -0.272 OA
BRANCH  18  20
ATOM     20  C   UNL A   1      30.472  24.524  24.377  1.00  0.00     0.259 C 
BRANCH  20  21
ATOM     21  O   UNL A   1      29.922  25.462  23.477  1.00  0.00    -0.375 OA
ATOM     22  C   UNL A   1      29.115  26.446  24.104  1.00  0.00     0.195 C 
ENDBRANCH  20  21
ENDBRANCH  18  20
ENDBRANCH   9  18
ENDBRANCH   5   8
ENDBRANCH   3   4
ENDBRANCH   2   3
ENDBRANCH   1   2
BRANCH   1  23
ATOM     23  C   UNL A   1      36.580  20.781  24.944  1.00  0.00     0.002 C 
BRANCH  23  24
ATOM     24  C   UNL A   1      37.857  19.958  24.787  1.00  0.00     0.021 C 
BRANCH  24  25
ATOM     25  C   UNL A   1      38.924  20.254  25.833  1.00  0.00     0.116 C 
BRANCH  25  26
ATOM     26  N   UNL A   1      40.032  19.313  25.774  1.00  0.00    -0.352 N 
ATOM     27  C   UNL A   1      41.361  19.534  26.022  1.00  0.00     0.251 C 
ATOM     28  H   UNL A   1      39.793  18.392  25.521  1.00  0.00     0.163 HD
ATOM     29  O   UNL A   1      42.195  18.671  25.762  1.00  0.00    -0.269 OA
BRANCH  27  30
ATOM     30  C   UNL A   1      41.786  20.832  26.581  1.00  0.00     0.039 A 
ATOM     31  C   UNL A   1      42.238  21.824  25.710  1.00  0.00     0.014 A 
ATOM     32  C   UNL A   1      41.718  21.074  27.956  1.00  0.00     0.014 A 
ATOM     33  C   UNL A   1      42.571  23.081  26.214  1.00  0.00     0.010 A 
ATOM     34  C   UNL A   1      41.970  22.352  28.446  1.00  0.00     0.010 A 
ATOM     35  C   UNL A   1      42.406  23.366  27.581  1.00  0.00    -0.014 A 
BRANCH  35  36
ATOM     36  C   UNL A   1      42.690  24.721  28.115  1.00  0.00     0.031 A 
ATOM     37  C   UNL A   1      44.085  25.095  28.532  1.00  0.00     0.074 A 
ATOM     38  C   UNL A   1      41.679  25.599  28.265  1.00  0.00     0.049 A 
ATOM     39  N   UNL A   1      44.522  26.219  29.041  1.00  0.00    -0.248 NA
ATOM     40  C   UNL A   1      45.124  24.062  28.384  1.00  0.00     0.031 C 
ATOM     41  C   UNL A   1      40.274  25.334  27.950  1.00  0.00     0.029 A 
ATOM     42  N   UNL A   1      41.678  26.892  28.724  1.00  0.00    -0.354 N 
ATOM     43  C   UNL A   1      45.876  26.026  29.278  1.00  0.00     0.074 A 
ATOM     44  C   UNL A   1      46.179  24.659  28.918  1.00  0.00     0.031 C 
ATOM     45  C   UNL A   1      39.552  26.440  28.194  1.00  0.00     0.029 A 
ATOM     46  C   UNL A   1      40.434  27.477  28.718  1.00  0.00     0.049 A 
ATOM     47  H   UNL A   1      42.490  27.357  29.028  1.00  0.00     0.167 HD
ATOM     48  C   UNL A   1      46.791  26.916  29.731  1.00  0.00     0.037 A 
ATOM     49  C   UNL A   1      40.048  28.709  29.100  1.00  0.00     0.037 A 
ATOM     50  C   UNL A   1      46.488  28.282  30.069  1.00  0.00     0.049 A 
ATOM     51  C   UNL A   1      41.084  29.675  29.606  1.00  0.00     0.074 A 
ATOM     52  C   UNL A   1      47.355  29.279  30.481  1.00  0.00     0.029 A 
ATOM     53  N   UNL A   1      45.219  28.841  30.040  1.00  0.00    -0.354 N 
ATOM     54  N   UNL A   1      42.375  29.504  29.750  1.00  0.00    -0.248 NA
ATOM     55  C   UNL A   1      40.609  31.010  29.994  1.00  0.00     0.031 C 
ATOM     56  C   UNL A   1      46.603  30.426  30.752  1.00  0.00     0.029 A 
ATOM     57  C   UNL A   1      45.276  30.162  30.452  1.00  0.00     0.049 A 
ATOM     58  H   UNL A   1      44.400  28.369  29.768  1.00  0.00     0.167 HD
ATOM     59  C   UNL A   1      42.871  30.716  30.215  1.00  0.00     0.074 A 
ATOM     60  C   UNL A   1      41.743  31.618  30.310  1.00  0.00     0.031 C 
ATOM     61  C   UNL A   1      44.145  31.052  30.533  1.00  0.00     0.037 A 
BRANCH  48  62
ATOM     62  C   UNL A   1      48.208  26.443  29.883  1.00  0.00     0.057 A 
ATOM     63  C   UNL A   1      49.148  26.580  28.853  1.00  0.00     0.134 A 
ATOM     64  C   UNL A   1      48.651  25.885  31.090  1.00  0.00     0.134 A 
ATOM     65  F   UNL A   1      48.789  27.094  27.667  1.00  0.00    -0.206 F 
ATOM     66  C   UNL A   1      50.471  26.160  29.009  1.00  0.00     0.040 A 
ATOM     67  C   UNL A   1      49.977  25.490  31.268  1.00  0.00     0.040 A 
ATOM     68  F   UNL A   1      47.805  25.730  32.120  1.00  0.00    -0.206 F 
ATOM     69  C   UNL A   1      50.890  25.621  30.223  1.00  0.00     0.006 A 
ENDBRANCH  48  62
BRANCH  49  70
ATOM     70  C   UNL A   1      38.621  29.110  29.001  1.00  0.00     0.057 A 
ATOM     71  C   UNL A   1      38.082  29.583  27.799  1.00  0.00     0.134 A 
ATOM     72  C   UNL A   1      37.768  29.052  30.110  1.00  0.00     0.134 A 
ATOM     73  F   UNL A   1      38.852  29.678  26.706  1.00  0.00    -0.206 F 
ATOM     74  C   UNL A   1      36.755  30.010  27.709  1.00  0.00     0.040 A 
ATOM     75  C   UNL A   1      36.432  29.448  30.027  1.00  0.00     0.040 A 
ATOM     76  F   UNL A   1      38.219  28.601  31.289  1.00  0.00    -0.206 F 
ATOM     77  C   UNL A   1      35.925  29.939  28.826  1.00  0.00     0.006 A 
ENDBRANCH  49  70
BRANCH  61  78
ATOM     78  C   UNL A   1      44.393  32.465  30.975  1.00  0.00     0.057 A 
ATOM     79  C   UNL A   1      44.356  32.840  32.325  1.00  0.00     0.134 A 
ATOM     80  C   UNL A   1      44.706  33.458  30.038  1.00  0.00     0.134 A 
ATOM     81  F   UNL A   1      44.052  31.940  33.273  1.00  0.00    -0.206 F 
ATOM     82  C   UNL A   1      44.591  34.157  32.722  1.00  0.00     0.040 A 
ATOM     83  C   UNL A   1      44.973  34.771  30.426  1.00  0.00     0.040 A 
ATOM     84  F   UNL A   1      44.768  33.165  28.730  1.00  0.00    -0.206 F 
ATOM     85  C   UNL A   1      44.907  35.125  31.772  1.00  0.00     0.006 A 
ENDBRANCH  61  78
ENDBRANCH  35  36
ENDBRANCH  27  30
ENDBRANCH  25  26
ENDBRANCH  24  25
ENDBRANCH  23  24
ENDBRANCH   1  23
TORSDOF 16
ENDMDL
