MODEL 1
REMARK VINA RESULT:     -10.9      0.000      0.000
REMARK SMILES C[C@](C(=O)NCCCCCCNC(=O)c1ccc(-c2c3nc(c(-c4c(F)cccc4F)c4ccc([nH]4)c(-c4c(F)cccc4F)c4nc(c(-c5c(F)cccc5F)c5ccc2[nH]5)C=C4)C=C3)cc1)(c1cc(F)cc(F)c1)[NH+]1CCCC1
REMARK SMILES IDX 9 1 8 2 7 3 6 4 5 5 3 6 4 7 2 9 1 10 69 11 70 12 76 13 71 14
REMARK SMILES IDX 74 15 72 16 73 17 75 18 77 19 78 20 81 21 79 23 80 24 10 25
REMARK SMILES IDX 11 26 12 27 13 28 14 30 15 31 16 32 68 33 17 34 67 35 18 36
REMARK SMILES IDX 19 37 20 38 61 39 21 40 66 41 60 42 62 43 22 44 65 45 59 46
REMARK SMILES IDX 58 47 23 49 49 50 32 51 48 52 33 53 36 54 47 55 63 56 34 57
REMARK SMILES IDX 35 58 46 60 64 61 37 62 24 63 25 64 30 65 26 66 27 67 29 68
REMARK SMILES IDX 31 69 28 70 50 71 51 72 56 73 52 74 53 75 55 76 57 77 54 78
REMARK SMILES IDX 38 79 39 80 44 81 40 82 41 83 43 84 45 85 42 86
REMARK H PARENT 5 8 77 22 12 29 62 48 36 59
REMARK Flexibility Score: inf
ROOT
ATOM      1  C   UNL A   1      36.563  19.229  24.887  1.00  0.00     0.002 C 
ENDROOT
BRANCH   1   2
ATOM      2  C   UNL A   1      35.386  20.141  25.252  1.00  0.00     0.002 C 
BRANCH   2   3
ATOM      3  C   UNL A   1      34.037  19.743  24.639  1.00  0.00     0.021 C 
BRANCH   3   4
ATOM      4  C   UNL A   1      32.829  20.311  25.382  1.00  0.00     0.116 C 
BRANCH   4   5
ATOM      5  N   UNL A   1      32.091  21.231  24.543  1.00  0.00    -0.350 N 
ATOM      6  C   UNL A   1      32.064  22.595  24.468  1.00  0.00     0.286 C 
ATOM      7  O   UNL A   1      31.342  23.031  23.559  1.00  0.00    -0.267 OA
ATOM      8  H   UNL A   1      31.491  20.786  23.899  1.00  0.00     0.163 HD
BRANCH   6   9
ATOM      9  C   UNL A   1      32.934  23.550  25.418  1.00  0.00     0.200 C 
ATOM     10  C   UNL A   1      32.685  23.149  26.893  1.00  0.00     0.096 C 
BRANCH   9  11
ATOM     11  C   UNL A   1      34.452  23.457  25.108  1.00  0.00     0.028 A 
ATOM     12  C   UNL A   1      35.401  23.719  26.116  1.00  0.00     0.050 A 
ATOM     13  C   UNL A   1      34.950  23.180  23.820  1.00  0.00     0.050 A 
ATOM     14  C   UNL A   1      36.768  23.712  25.835  1.00  0.00     0.126 A 
ATOM     15  C   UNL A   1      36.322  23.149  23.569  1.00  0.00     0.126 A 
ATOM     16  F   UNL A   1      37.638  24.006  26.810  1.00  0.00    -0.207 F 
ATOM     17  C   UNL A   1      37.241  23.422  24.567  1.00  0.00     0.078 A 
ATOM     18  F   UNL A   1      36.756  22.859  22.335  1.00  0.00    -0.207 F 
ENDBRANCH   9  11
BRANCH   9  19
ATOM     19  N   UNL A   1      32.417  24.920  25.174  1.00  0.00    -0.319 N 
ATOM     20  C   UNL A   1      33.274  25.930  24.572  1.00  0.00     0.263 C 
ATOM     21  C   UNL A   1      31.403  25.592  25.952  1.00  0.00     0.263 C 
ATOM     22  H   UNL A   1      31.877  24.372  24.505  1.00  0.00     0.349 HD
ATOM     23  C   UNL A   1      33.332  27.027  25.628  1.00  0.00     0.067 C 
ATOM     24  C   UNL A   1      32.107  26.816  26.513  1.00  0.00     0.067 C 
ENDBRANCH   9  19
ENDBRANCH   6   9
ENDBRANCH   4   5
ENDBRANCH   3   4
ENDBRANCH   2   3
ENDBRANCH   1   2
BRANCH   1  25
ATOM     25  C   UNL A   1      37.876  19.953  24.579  1.00  0.00     0.021 C 
BRANCH  25  26
ATOM     26  C   UNL A   1      38.781  20.177  25.786  1.00  0.00     0.116 C 
BRANCH  26  27
ATOM     27  N   UNL A   1      39.918  19.271  25.797  1.00  0.00    -0.352 N 
ATOM     28  C   UNL A   1      41.237  19.534  26.069  1.00  0.00     0.251 C 
ATOM     29  H   UNL A   1      39.711  18.334  25.577  1.00  0.00     0.163 HD
ATOM     30  O   UNL A   1      42.092  18.681  25.856  1.00  0.00    -0.269 OA
BRANCH  28  31
ATOM     31  C   UNL A   1      41.632  20.856  26.601  1.00  0.00     0.039 A 
ATOM     32  C   UNL A   1      42.071  21.836  25.708  1.00  0.00     0.014 A 
ATOM     33  C   UNL A   1      41.588  21.123  27.973  1.00  0.00     0.014 A 
ATOM     34  C   UNL A   1      42.415  23.102  26.185  1.00  0.00     0.010 A 
ATOM     35  C   UNL A   1      41.869  22.405  28.439  1.00  0.00     0.010 A 
ATOM     36  C   UNL A   1      42.289  23.405  27.550  1.00  0.00    -0.014 A 
BRANCH  36  37
ATOM     37  C   UNL A   1      42.603  24.763  28.064  1.00  0.00     0.031 A 
ATOM     38  C   UNL A   1      44.011  25.117  28.455  1.00  0.00     0.074 A 
ATOM     39  C   UNL A   1      41.611  25.660  28.226  1.00  0.00     0.049 A 
ATOM     40  N   UNL A   1      44.469  26.225  28.978  1.00  0.00    -0.248 NA
ATOM     41  C   UNL A   1      45.034  24.078  28.256  1.00  0.00     0.031 C 
ATOM     42  C   UNL A   1      40.197  25.423  27.925  1.00  0.00     0.029 A 
ATOM     43  N   UNL A   1      41.639  26.949  28.694  1.00  0.00    -0.354 N 
ATOM     44  C   UNL A   1      45.829  26.018  29.171  1.00  0.00     0.074 A 
ATOM     45  C   UNL A   1      46.111  24.657  28.766  1.00  0.00     0.031 C 
ATOM     46  C   UNL A   1      39.498  26.537  28.196  1.00  0.00     0.029 A 
ATOM     47  C   UNL A   1      40.405  27.553  28.722  1.00  0.00     0.049 A 
ATOM     48  H   UNL A   1      42.466  27.400  28.982  1.00  0.00     0.167 HD
ATOM     49  C   UNL A   1      46.764  26.888  29.621  1.00  0.00     0.037 A 
ATOM     50  C   UNL A   1      40.046  28.784  29.129  1.00  0.00     0.037 A 
ATOM     51  C   UNL A   1      46.487  28.246  30.008  1.00  0.00     0.049 A 
ATOM     52  C   UNL A   1      41.102  29.728  29.635  1.00  0.00     0.074 A 
ATOM     53  C   UNL A   1      47.371  29.217  30.445  1.00  0.00     0.029 A 
ATOM     54  N   UNL A   1      45.227  28.827  30.003  1.00  0.00    -0.354 N 
ATOM     55  N   UNL A   1      42.392  29.535  29.762  1.00  0.00    -0.248 NA
ATOM     56  C   UNL A   1      40.652  31.066  30.046  1.00  0.00     0.031 C 
ATOM     57  C   UNL A   1      46.642  30.376  30.735  1.00  0.00     0.029 A 
ATOM     58  C   UNL A   1      45.310  30.139  30.440  1.00  0.00     0.049 A 
ATOM     59  H   UNL A   1      44.398  28.373  29.729  1.00  0.00     0.167 HD
ATOM     60  C   UNL A   1      42.911  30.732  30.238  1.00  0.00     0.074 A 
ATOM     61  C   UNL A   1      41.798  31.650  30.364  1.00  0.00     0.031 C 
ATOM     62  C   UNL A   1      44.193  31.042  30.547  1.00  0.00     0.037 A 
BRANCH  49  63
ATOM     63  C   UNL A   1      48.180  26.398  29.706  1.00  0.00     0.057 A 
ATOM     64  C   UNL A   1      49.073  26.547  28.637  1.00  0.00     0.134 A 
ATOM     65  C   UNL A   1      48.667  25.800  30.875  1.00  0.00     0.134 A 
ATOM     66  F   UNL A   1      48.666  27.101  27.483  1.00  0.00    -0.206 F 
ATOM     67  C   UNL A   1      50.392  26.098  28.718  1.00  0.00     0.040 A 
ATOM     68  C   UNL A   1      49.991  25.371  30.977  1.00  0.00     0.040 A 
ATOM     69  F   UNL A   1      47.867  25.631  31.938  1.00  0.00    -0.206 F 
ATOM     70  C   UNL A   1      50.857  25.514  29.894  1.00  0.00     0.006 A 
ENDBRANCH  49  63
BRANCH  50  71
ATOM     71  C   UNL A   1      38.625  29.208  29.059  1.00  0.00     0.057 A 
ATOM     72  C   UNL A   1      37.798  29.146  30.187  1.00  0.00     0.134 A 
ATOM     73  C   UNL A   1      38.054  29.662  27.865  1.00  0.00     0.134 A 
ATOM     74  F   UNL A   1      38.283  28.701  31.355  1.00  0.00    -0.206 F 
ATOM     75  C   UNL A   1      36.449  29.498  30.125  1.00  0.00     0.040 A 
ATOM     76  C   UNL A   1      36.712  30.041  27.794  1.00  0.00     0.040 A 
ATOM     77  F   UNL A   1      38.795  29.752  26.751  1.00  0.00    -0.206 F 
ATOM     78  C   UNL A   1      35.904  29.951  28.925  1.00  0.00     0.006 A 
ENDBRANCH  50  71
BRANCH  62  79
ATOM     79  C   UNL A   1      44.465  32.443  31.012  1.00  0.00     0.057 A 
ATOM     80  C   UNL A   1      44.444  32.788  32.368  1.00  0.00     0.134 A 
ATOM     81  C   UNL A   1      44.780  33.450  30.090  1.00  0.00     0.134 A 
ATOM     82  F   UNL A   1      44.134  31.872  33.299  1.00  0.00    -0.206 F 
ATOM     83  C   UNL A   1      44.702  34.094  32.791  1.00  0.00     0.040 A 
ATOM     84  C   UNL A   1      45.066  34.751  30.503  1.00  0.00     0.040 A 
ATOM     85  F   UNL A   1      44.824  33.182  28.776  1.00  0.00    -0.206 F 
ATOM     86  C   UNL A   1      45.021  35.077  31.857  1.00  0.00     0.006 A 
ENDBRANCH  62  79
ENDBRANCH  36  37
ENDBRANCH  28  31
ENDBRANCH  26  27
ENDBRANCH  25  26
ENDBRANCH   1  25
TORSDOF 15
ENDMDL
MODEL 2
REMARK VINA RESULT:     -10.8      4.397      9.260
REMARK SMILES C[C@](C(=O)NCCCCCCNC(=O)c1ccc(-c2c3nc(c(-c4c(F)cccc4F)c4ccc([nH]4)c(-c4c(F)cccc4F)c4nc(c(-c5c(F)cccc5F)c5ccc2[nH]5)C=C4)C=C3)cc1)(c1cc(F)cc(F)c1)[NH+]1CCCC1
REMARK SMILES IDX 9 1 8 2 7 3 6 4 5 5 3 6 4 7 2 9 1 10 69 11 70 12 76 13 71 14
REMARK SMILES IDX 74 15 72 16 73 17 75 18 77 19 78 20 81 21 79 23 80 24 10 25
REMARK SMILES IDX 11 26 12 27 13 28 14 30 15 31 16 32 68 33 17 34 67 35 18 36
REMARK SMILES IDX 19 37 20 38 61 39 21 40 66 41 60 42 62 43 22 44 65 45 59 46
REMARK SMILES IDX 58 47 23 49 49 50 32 51 48 52 33 53 36 54 47 55 63 56 34 57
REMARK SMILES IDX 35 58 46 60 64 61 37 62 24 63 25 64 30 65 26 66 27 67 29 68
REMARK SMILES IDX 31 69 28 70 50 71 51 72 56 73 52 74 53 75 55 76 57 77 54 78
REMARK SMILES IDX 38 79 39 80 44 81 40 82 41 83 43 84 45 85 42 86
REMARK H PARENT 5 8 77 22 12 29 62 48 36 59
REMARK Flexibility Score: inf
ROOT
ATOM      1  C   UNL A   1      30.942  30.926  25.294  1.00  0.00     0.002 C 
ENDROOT
BRANCH   1   2
ATOM      2  C   UNL A   1      29.865  31.149  24.227  1.00  0.00     0.002 C 
BRANCH   2   3
ATOM      3  C   UNL A   1      29.524  29.918  23.376  1.00  0.00     0.021 C 
BRANCH   3   4
ATOM      4  C   UNL A   1      30.737  29.062  23.015  1.00  0.00     0.116 C 
BRANCH   4   5
ATOM      5  N   UNL A   1      30.405  27.654  23.048  1.00  0.00    -0.350 N 
ATOM      6  C   UNL A   1      31.119  26.544  23.404  1.00  0.00     0.286 C 
ATOM      7  O   UNL A   1      30.461  25.494  23.364  1.00  0.00    -0.267 OA
ATOM      8  H   UNL A   1      29.484  27.457  22.758  1.00  0.00     0.163 HD
BRANCH   6   9
ATOM      9  C   UNL A   1      32.645  26.594  23.894  1.00  0.00     0.200 C 
ATOM     10  C   UNL A   1      33.504  27.256  22.787  1.00  0.00     0.096 C 
BRANCH   9  11
ATOM     11  C   UNL A   1      32.808  27.389  25.217  1.00  0.00     0.028 A 
ATOM     12  C   UNL A   1      31.763  27.424  26.160  1.00  0.00     0.050 A 
ATOM     13  C   UNL A   1      33.956  28.154  25.508  1.00  0.00     0.050 A 
ATOM     14  C   UNL A   1      31.866  28.193  27.320  1.00  0.00     0.126 A 
ATOM     15  C   UNL A   1      34.049  28.892  26.688  1.00  0.00     0.126 A 
ATOM     16  F   UNL A   1      30.835  28.233  28.173  1.00  0.00    -0.207 F 
ATOM     17  C   UNL A   1      33.007  28.926  27.598  1.00  0.00     0.078 A 
ATOM     18  F   UNL A   1      35.166  29.588  26.938  1.00  0.00    -0.207 F 
ENDBRANCH   9  11
BRANCH   9  19
ATOM     19  N   UNL A   1      33.048  25.176  24.064  1.00  0.00    -0.319 N 
ATOM     20  C   UNL A   1      33.105  24.584  25.391  1.00  0.00     0.263 C 
ATOM     21  C   UNL A   1      33.947  24.443  23.203  1.00  0.00     0.263 C 
ATOM     22  H   UNL A   1      32.146  25.080  23.598  1.00  0.00     0.349 HD
ATOM     23  C   UNL A   1      34.561  24.157  25.532  1.00  0.00     0.067 C 
ATOM     24  C   UNL A   1      35.101  24.051  24.109  1.00  0.00     0.067 C 
ENDBRANCH   9  19
ENDBRANCH   6   9
ENDBRANCH   4   5
ENDBRANCH   3   4
ENDBRANCH   2   3
ENDBRANCH   1   2
BRANCH   1  25
ATOM     25  C   UNL A   1      30.983  31.977  26.407  1.00  0.00     0.021 C 
BRANCH  25  26
ATOM     26  C   UNL A   1      32.381  32.451  26.787  1.00  0.00     0.116 C 
BRANCH  26  27
ATOM     27  N   UNL A   1      32.378  33.805  27.316  1.00  0.00    -0.352 N 
ATOM     28  C   UNL A   1      33.165  34.359  28.294  1.00  0.00     0.251 C 
ATOM     29  H   UNL A   1      31.716  34.412  26.913  1.00  0.00     0.163 HD
ATOM     30  O   UNL A   1      32.903  35.472  28.739  1.00  0.00    -0.269 OA
BRANCH  28  31
ATOM     31  C   UNL A   1      34.319  33.605  28.828  1.00  0.00     0.039 A 
ATOM     32  C   UNL A   1      35.598  34.152  28.698  1.00  0.00     0.014 A 
ATOM     33  C   UNL A   1      34.146  32.359  29.438  1.00  0.00     0.014 A 
ATOM     34  C   UNL A   1      36.698  33.474  29.226  1.00  0.00     0.010 A 
ATOM     35  C   UNL A   1      35.235  31.716  30.022  1.00  0.00     0.010 A 
ATOM     36  C   UNL A   1      36.521  32.265  29.918  1.00  0.00    -0.014 A 
BRANCH  36  37
ATOM     37  C   UNL A   1      37.675  31.559  30.530  1.00  0.00     0.031 A 
ATOM     38  C   UNL A   1      38.086  31.863  31.944  1.00  0.00     0.074 A 
ATOM     39  C   UNL A   1      38.385  30.680  29.795  1.00  0.00     0.049 A 
ATOM     40  N   UNL A   1      39.097  31.396  32.630  1.00  0.00    -0.248 NA
ATOM     41  C   UNL A   1      37.264  32.841  32.674  1.00  0.00     0.031 C 
ATOM     42  C   UNL A   1      38.114  30.331  28.399  1.00  0.00     0.029 A 
ATOM     43  N   UNL A   1      39.485  29.927  30.119  1.00  0.00    -0.354 N 
ATOM     44  C   UNL A   1      39.036  32.023  33.868  1.00  0.00     0.074 A 
ATOM     45  C   UNL A   1      37.924  32.948  33.819  1.00  0.00     0.031 C 
ATOM     46  C   UNL A   1      39.011  29.417  27.993  1.00  0.00     0.029 A 
ATOM     47  C   UNL A   1      39.939  29.142  29.086  1.00  0.00     0.049 A 
ATOM     48  H   UNL A   1      39.909  29.946  31.007  1.00  0.00     0.167 HD
ATOM     49  C   UNL A   1      39.818  31.828  34.956  1.00  0.00     0.037 A 
ATOM     50  C   UNL A   1      40.987  28.300  29.028  1.00  0.00     0.037 A 
ATOM     51  C   UNL A   1      40.913  30.896  35.010  1.00  0.00     0.049 A 
ATOM     52  C   UNL A   1      41.847  28.110  30.246  1.00  0.00     0.074 A 
ATOM     53  C   UNL A   1      41.744  30.602  36.078  1.00  0.00     0.029 A 
ATOM     54  N   UNL A   1      41.329  30.105  33.950  1.00  0.00    -0.354 N 
ATOM     55  N   UNL A   1      41.744  28.671  31.426  1.00  0.00    -0.248 NA
ATOM     56  C   UNL A   1      42.965  27.163  30.127  1.00  0.00     0.031 C 
ATOM     57  C   UNL A   1      42.684  29.656  35.654  1.00  0.00     0.029 A 
ATOM     58  C   UNL A   1      42.412  29.331  34.335  1.00  0.00     0.049 A 
ATOM     59  H   UNL A   1      40.915  30.095  33.057  1.00  0.00     0.167 HD
ATOM     60  C   UNL A   1      42.762  28.124  32.197  1.00  0.00     0.074 A 
ATOM     61  C   UNL A   1      43.462  27.177  31.355  1.00  0.00     0.031 C 
ATOM     62  C   UNL A   1      43.089  28.384  33.486  1.00  0.00     0.037 A 
BRANCH  49  63
ATOM     63  C   UNL A   1      39.505  32.633  36.184  1.00  0.00     0.057 A 
ATOM     64  C   UNL A   1      40.140  33.855  36.442  1.00  0.00     0.134 A 
ATOM     65  C   UNL A   1      38.539  32.201  37.101  1.00  0.00     0.134 A 
ATOM     66  F   UNL A   1      41.084  34.320  35.609  1.00  0.00    -0.206 F 
ATOM     67  C   UNL A   1      39.843  34.606  37.579  1.00  0.00     0.040 A 
ATOM     68  C   UNL A   1      38.215  32.956  38.229  1.00  0.00     0.040 A 
ATOM     69  F   UNL A   1      37.889  31.043  36.912  1.00  0.00    -0.206 F 
ATOM     70  C   UNL A   1      38.872  34.161  38.474  1.00  0.00     0.006 A 
ENDBRANCH  49  63
BRANCH  50  71
ATOM     71  C   UNL A   1      41.276  27.555  27.776  1.00  0.00     0.057 A 
ATOM     72  C   UNL A   1      42.057  28.123  26.763  1.00  0.00     0.134 A 
ATOM     73  C   UNL A   1      40.763  26.272  27.553  1.00  0.00     0.134 A 
ATOM     74  F   UNL A   1      42.561  29.357  26.910  1.00  0.00    -0.206 F 
ATOM     75  C   UNL A   1      42.298  27.452  25.563  1.00  0.00     0.040 A 
ATOM     76  C   UNL A   1      41.017  25.580  26.368  1.00  0.00     0.040 A 
ATOM     77  F   UNL A   1      40.014  25.670  28.489  1.00  0.00    -0.206 F 
ATOM     78  C   UNL A   1      41.780  26.174  25.365  1.00  0.00     0.006 A 
ENDBRANCH  50  71
BRANCH  62  79
ATOM     79  C   UNL A   1      44.230  27.606  34.073  1.00  0.00     0.057 A 
ATOM     80  C   UNL A   1      44.040  26.354  34.671  1.00  0.00     0.134 A 
ATOM     81  C   UNL A   1      45.537  28.104  34.011  1.00  0.00     0.134 A 
ATOM     82  F   UNL A   1      42.809  25.829  34.775  1.00  0.00    -0.206 F 
ATOM     83  C   UNL A   1      45.109  25.636  35.211  1.00  0.00     0.040 A 
ATOM     84  C   UNL A   1      46.616  27.383  34.523  1.00  0.00     0.040 A 
ATOM     85  F   UNL A   1      45.787  29.294  33.444  1.00  0.00    -0.206 F 
ATOM     86  C   UNL A   1      46.402  26.148  35.131  1.00  0.00     0.006 A 
ENDBRANCH  62  79
ENDBRANCH  36  37
ENDBRANCH  28  31
ENDBRANCH  26  27
ENDBRANCH  25  26
ENDBRANCH   1  25
TORSDOF 15
ENDMDL
MODEL 3
REMARK VINA RESULT:     -10.8      0.784      6.266
REMARK SMILES C[C@](C(=O)NCCCCCCNC(=O)c1ccc(-c2c3nc(c(-c4c(F)cccc4F)c4ccc([nH]4)c(-c4c(F)cccc4F)c4nc(c(-c5c(F)cccc5F)c5ccc2[nH]5)C=C4)C=C3)cc1)(c1cc(F)cc(F)c1)[NH+]1CCCC1
REMARK SMILES IDX 9 1 8 2 7 3 6 4 5 5 3 6 4 7 2 9 1 10 69 11 70 12 76 13 71 14
REMARK SMILES IDX 74 15 72 16 73 17 75 18 77 19 78 20 81 21 79 23 80 24 10 25
REMARK SMILES IDX 11 26 12 27 13 28 14 30 15 31 16 32 68 33 17 34 67 35 18 36
REMARK SMILES IDX 19 37 20 38 61 39 21 40 66 41 60 42 62 43 22 44 65 45 59 46
REMARK SMILES IDX 58 47 23 49 49 50 32 51 48 52 33 53 36 54 47 55 63 56 34 57
REMARK SMILES IDX 35 58 46 60 64 61 37 62 24 63 25 64 30 65 26 66 27 67 29 68
REMARK SMILES IDX 31 69 28 70 50 71 51 72 56 73 52 74 53 75 55 76 57 77 54 78
REMARK SMILES IDX 38 79 39 80 44 81 40 82 41 83 43 84 45 85 42 86
REMARK H PARENT 5 8 77 22 12 29 62 48 36 59
REMARK Flexibility Score: inf
ROOT
ATOM      1  C   UNL A   1      36.485  19.021  24.896  1.00  0.00     0.002 C 
ENDROOT
BRANCH   1   2
ATOM      2  C   UNL A   1      35.329  19.995  25.149  1.00  0.00     0.002 C 
BRANCH   2   3
ATOM      3  C   UNL A   1      33.959  19.529  24.639  1.00  0.00     0.021 C 
BRANCH   3   4
ATOM      4  C   UNL A   1      32.778  20.180  25.357  1.00  0.00     0.116 C 
BRANCH   4   5
ATOM      5  N   UNL A   1      32.087  21.104  24.484  1.00  0.00    -0.350 N 
ATOM      6  C   UNL A   1      32.083  22.468  24.400  1.00  0.00     0.286 C 
ATOM      7  O   UNL A   1      31.404  22.908  23.460  1.00  0.00    -0.267 OA
ATOM      8  H   UNL A   1      31.507  20.664  23.820  1.00  0.00     0.163 HD
BRANCH   6   9
ATOM      9  C   UNL A   1      32.928  23.416  25.378  1.00  0.00     0.200 C 
ATOM     10  C   UNL A   1      32.672  22.980  26.842  1.00  0.00     0.096 C 
BRANCH   9  11
ATOM     11  C   UNL A   1      34.450  23.356  25.081  1.00  0.00     0.028 A 
ATOM     12  C   UNL A   1      35.385  23.671  26.086  1.00  0.00     0.050 A 
ATOM     13  C   UNL A   1      34.964  23.056  23.803  1.00  0.00     0.050 A 
ATOM     14  C   UNL A   1      36.753  23.693  25.814  1.00  0.00     0.126 A 
ATOM     15  C   UNL A   1      36.339  23.056  23.562  1.00  0.00     0.126 A 
ATOM     16  F   UNL A   1      37.608  24.037  26.786  1.00  0.00    -0.207 F 
ATOM     17  C   UNL A   1      37.243  23.380  24.557  1.00  0.00     0.078 A 
ATOM     18  F   UNL A   1      36.788  22.743  22.339  1.00  0.00    -0.207 F 
ENDBRANCH   9  11
BRANCH   9  19
ATOM     19  N   UNL A   1      32.391  24.783  25.158  1.00  0.00    -0.319 N 
ATOM     20  C   UNL A   1      33.242  25.826  24.608  1.00  0.00     0.263 C 
ATOM     21  C   UNL A   1      31.343  25.413  25.928  1.00  0.00     0.263 C 
ATOM     22  H   UNL A   1      31.879  24.244  24.460  1.00  0.00     0.349 HD
ATOM     23  C   UNL A   1      33.250  26.894  25.696  1.00  0.00     0.067 C 
ATOM     24  C   UNL A   1      32.008  26.634  26.541  1.00  0.00     0.067 C 
ENDBRANCH   9  19
ENDBRANCH   6   9
ENDBRANCH   4   5
ENDBRANCH   3   4
ENDBRANCH   2   3
ENDBRANCH   1   2
BRANCH   1  25
ATOM     25  C   UNL A   1      37.834  19.677  24.590  1.00  0.00     0.021 C 
BRANCH  25  26
ATOM     26  C   UNL A   1      38.706  19.947  25.812  1.00  0.00     0.116 C 
BRANCH  26  27
ATOM     27  N   UNL A   1      39.860  19.065  25.869  1.00  0.00    -0.352 N 
ATOM     28  C   UNL A   1      41.176  19.369  26.106  1.00  0.00     0.251 C 
ATOM     29  H   UNL A   1      39.668  18.111  25.716  1.00  0.00     0.163 HD
ATOM     30  O   UNL A   1      42.046  18.519  25.940  1.00  0.00    -0.269 OA
BRANCH  28  31
ATOM     31  C   UNL A   1      41.553  20.730  26.543  1.00  0.00     0.039 A 
ATOM     32  C   UNL A   1      41.656  20.993  27.911  1.00  0.00     0.014 A 
ATOM     33  C   UNL A   1      41.786  21.746  25.611  1.00  0.00     0.014 A 
ATOM     34  C   UNL A   1      42.044  22.263  28.344  1.00  0.00     0.010 A 
ATOM     35  C   UNL A   1      42.237  22.992  26.042  1.00  0.00     0.010 A 
ATOM     36  C   UNL A   1      42.366  23.263  27.413  1.00  0.00    -0.014 A 
BRANCH  36  37
ATOM     37  C   UNL A   1      42.830  24.602  27.858  1.00  0.00     0.031 A 
ATOM     38  C   UNL A   1      41.832  25.670  28.209  1.00  0.00     0.074 A 
ATOM     39  C   UNL A   1      44.150  24.870  27.898  1.00  0.00     0.049 A 
ATOM     40  N   UNL A   1      42.041  26.913  28.559  1.00  0.00    -0.248 NA
ATOM     41  C   UNL A   1      40.411  25.299  28.131  1.00  0.00     0.031 C 
ATOM     42  C   UNL A   1      45.216  23.932  27.540  1.00  0.00     0.029 A 
ATOM     43  N   UNL A   1      44.819  26.016  28.249  1.00  0.00    -0.354 N 
ATOM     44  C   UNL A   1      40.783  27.472  28.741  1.00  0.00     0.074 A 
ATOM     45  C   UNL A   1      39.814  26.450  28.404  1.00  0.00     0.031 C 
ATOM     46  C   UNL A   1      46.405  24.533  27.710  1.00  0.00     0.029 A 
ATOM     47  C   UNL A   1      46.185  25.907  28.154  1.00  0.00     0.049 A 
ATOM     48  H   UNL A   1      44.363  26.837  28.542  1.00  0.00     0.167 HD
ATOM     49  C   UNL A   1      40.461  28.714  29.173  1.00  0.00     0.037 A 
ATOM     50  C   UNL A   1      47.150  26.814  28.394  1.00  0.00     0.037 A 
ATOM     51  C   UNL A   1      41.423  29.724  29.524  1.00  0.00     0.049 A 
ATOM     52  C   UNL A   1      46.765  28.190  28.862  1.00  0.00     0.074 A 
ATOM     53  C   UNL A   1      41.197  31.003  30.005  1.00  0.00     0.029 A 
ATOM     54  N   UNL A   1      42.799  29.569  29.434  1.00  0.00    -0.354 N 
ATOM     55  N   UNL A   1      45.572  28.686  29.080  1.00  0.00    -0.248 NA
ATOM     56  C   UNL A   1      47.865  29.130  29.127  1.00  0.00     0.031 C 
ATOM     57  C   UNL A   1      42.435  31.633  30.175  1.00  0.00     0.029 A 
ATOM     58  C   UNL A   1      43.433  30.733  29.839  1.00  0.00     0.049 A 
ATOM     59  H   UNL A   1      43.255  28.753  29.127  1.00  0.00     0.167 HD
ATOM     60  C   UNL A   1      45.777  29.983  29.534  1.00  0.00     0.074 A 
ATOM     61  C   UNL A   1      47.209  30.191  29.574  1.00  0.00     0.031 C 
ATOM     62  C   UNL A   1      44.861  30.918  29.884  1.00  0.00     0.037 A 
BRANCH  49  63
ATOM     63  C   UNL A   1      39.002  29.043  29.303  1.00  0.00     0.057 A 
ATOM     64  C   UNL A   1      38.318  28.880  30.514  1.00  0.00     0.134 A 
ATOM     65  C   UNL A   1      38.281  29.559  28.218  1.00  0.00     0.134 A 
ATOM     66  F   UNL A   1      38.948  28.379  31.589  1.00  0.00    -0.206 F 
ATOM     67  C   UNL A   1      36.964  29.193  30.637  1.00  0.00     0.040 A 
ATOM     68  C   UNL A   1      36.933  29.901  28.336  1.00  0.00     0.040 A 
ATOM     69  F   UNL A   1      38.876  29.746  27.031  1.00  0.00    -0.206 F 
ATOM     70  C   UNL A   1      36.268  29.713  29.548  1.00  0.00     0.006 A 
ENDBRANCH  49  63
BRANCH  50  71
ATOM     71  C   UNL A   1      48.577  26.449  28.215  1.00  0.00     0.057 A 
ATOM     72  C   UNL A   1      49.202  26.570  26.968  1.00  0.00     0.134 A 
ATOM     73  C   UNL A   1      49.344  25.951  29.275  1.00  0.00     0.134 A 
ATOM     74  F   UNL A   1      48.514  27.023  25.910  1.00  0.00    -0.206 F 
ATOM     75  C   UNL A   1      50.530  26.187  26.775  1.00  0.00     0.040 A 
ATOM     76  C   UNL A   1      50.681  25.587  29.102  1.00  0.00     0.040 A 
ATOM     77  F   UNL A   1      48.807  25.818  30.496  1.00  0.00    -0.206 F 
ATOM     78  C   UNL A   1      51.275  25.697  27.846  1.00  0.00     0.006 A 
ENDBRANCH  50  71
BRANCH  62  79
ATOM     79  C   UNL A   1      45.382  32.236  30.377  1.00  0.00     0.057 A 
ATOM     80  C   UNL A   1      45.681  32.454  31.727  1.00  0.00     0.134 A 
ATOM     81  C   UNL A   1      45.614  33.289  29.482  1.00  0.00     0.134 A 
ATOM     82  F   UNL A   1      45.467  31.490  32.635  1.00  0.00    -0.206 F 
ATOM     83  C   UNL A   1      46.171  33.683  32.175  1.00  0.00     0.040 A 
ATOM     84  C   UNL A   1      46.127  34.511  29.914  1.00  0.00     0.040 A 
ATOM     85  F   UNL A   1      45.355  33.141  28.174  1.00  0.00    -0.206 F 
ATOM     86  C   UNL A   1      46.401  34.713  31.265  1.00  0.00     0.006 A 
ENDBRANCH  62  79
ENDBRANCH  36  37
ENDBRANCH  28  31
ENDBRANCH  26  27
ENDBRANCH  25  26
ENDBRANCH   1  25
TORSDOF 15
ENDMDL
