MODEL 1
REMARK VINA RESULT:     -10.5      0.000      0.000
REMARK SMILES CC(C)C[C@H](NC(=O)CNC(=O)[C@@H](NC(=O)OCc1ccccc1)C(C)C)C(=O)N[C@@H](C)C(=O)NCCCCCCNC(=O)c1ccc(-c2c3nc(c(-c4c(F)cccc4F)c4ccc([nH]4)c(-c4c(F)cccc4F)c4nc(c(-c5c(F)cccc5F)c5ccc2[nH]5)C=C4)C=C3)cc1
REMARK SMILES IDX 31 1 32 2 30 3 28 4 29 5 5 7 4 8 2 9 1 10 3 11 6 12 7 13
REMARK SMILES IDX 8 15 9 16 10 17 11 18 12 20 13 21 14 22 15 23 16 25 17 26
REMARK SMILES IDX 18 27 19 28 20 29 24 30 21 31 23 32 22 33 25 34 26 35 27 36
REMARK SMILES IDX 33 37 34 38 35 39 36 41 37 42 38 43 39 44 40 45 41 46 42 47
REMARK SMILES IDX 43 48 44 50 45 51 46 52 98 53 47 54 97 55 48 56 49 57 50 58
REMARK SMILES IDX 91 59 51 60 96 61 90 62 92 63 52 64 95 65 89 66 88 67 53 69
REMARK SMILES IDX 79 70 62 71 78 72 63 73 66 74 77 75 93 76 64 77 65 78 76 80
REMARK SMILES IDX 94 81 67 82 54 83 55 84 60 85 56 86 57 87 59 88 61 89 58 90
REMARK SMILES IDX 80 91 81 92 86 93 82 94 83 95 85 96 87 97 84 98 68 99 69 100
REMARK SMILES IDX 74 101 70 102 71 103 73 104 75 105 72 106
REMARK H PARENT 30 6 6 14 10 19 14 24 35 40 42 49 92 68 66 79
REMARK Flexibility Score: inf
ROOT
ATOM      1  C   UNL A   1      33.274  19.387  25.010  1.00  0.00     0.168 C 
ATOM      2  C   UNL A   1      32.533  18.288  25.754  1.00  0.00     0.041 C 
ENDROOT
BRANCH   1   3
ATOM      3  N   UNL A   1      32.532  19.795  23.809  1.00  0.00    -0.343 N 
ATOM      4  C   UNL A   1      32.182  21.043  23.382  1.00  0.00     0.243 C 
ATOM      5  O   UNL A   1      31.726  21.154  22.243  1.00  0.00    -0.273 OA
ATOM      6  H   UNL A   1      32.244  19.057  23.225  1.00  0.00     0.164 HD
BRANCH   4   7
ATOM      7  C   UNL A   1      32.423  22.265  24.286  1.00  0.00     0.171 C 
BRANCH   7   8
ATOM      8  C   UNL A   1      31.120  23.026  24.496  1.00  0.00     0.038 C 
BRANCH   8   9
ATOM      9  C   UNL A   1      30.723  23.483  25.910  1.00  0.00    -0.015 C 
ATOM     10  C   UNL A   1      30.082  22.365  26.733  1.00  0.00     0.007 C 
ATOM     11  C   UNL A   1      31.992  23.968  26.627  1.00  0.00     0.007 C 
ENDBRANCH   8   9
ENDBRANCH   7   8
BRANCH   7  12
ATOM     12  N   UNL A   1      33.534  23.013  23.653  1.00  0.00    -0.343 N 
ATOM     13  C   UNL A   1      33.919  24.281  23.406  1.00  0.00     0.240 C 
ATOM     14  H   UNL A   1      34.204  22.384  23.301  1.00  0.00     0.164 HD
ATOM     15  O   UNL A   1      35.054  24.384  22.913  1.00  0.00    -0.273 OA
BRANCH  13  16
ATOM     16  C   UNL A   1      33.176  25.569  23.779  1.00  0.00     0.216 C 
BRANCH  16  17
ATOM     17  N   UNL A   1      33.433  26.788  23.052  1.00  0.00    -0.345 N 
ATOM     18  C   UNL A   1      32.803  27.990  23.042  1.00  0.00     0.243 C 
ATOM     19  H   UNL A   1      34.212  26.740  22.452  1.00  0.00     0.164 HD
ATOM     20  O   UNL A   1      33.389  28.901  22.446  1.00  0.00    -0.273 OA
BRANCH  18  21
ATOM     21  C   UNL A   1      31.444  28.281  23.751  1.00  0.00     0.177 C 
BRANCH  21  22
ATOM     22  N   UNL A   1      31.347  29.633  24.327  1.00  0.00    -0.309 N 
ATOM     23  C   UNL A   1      31.782  30.183  25.489  1.00  0.00     0.408 C 
ATOM     24  H   UNL A   1      30.868  30.268  23.749  1.00  0.00     0.167 HD
ATOM     25  O   UNL A   1      31.316  31.236  25.884  1.00  0.00    -0.225 OA
BRANCH  23  26
ATOM     26  O   UNL A   1      32.777  29.488  26.079  1.00  0.00    -0.445 OA
BRANCH  26  27
ATOM     27  C   UNL A   1      33.090  29.879  27.422  1.00  0.00     0.270 C 
BRANCH  27  28
ATOM     28  C   UNL A   1      34.495  30.413  27.637  1.00  0.00    -0.011 A 
ATOM     29  C   UNL A   1      35.561  29.504  27.624  1.00  0.00     0.007 A 
ATOM     30  C   UNL A   1      34.780  31.764  27.896  1.00  0.00     0.007 A 
ATOM     31  C   UNL A   1      36.864  29.927  27.893  1.00  0.00     0.000 A 
ATOM     32  C   UNL A   1      36.079  32.185  28.181  1.00  0.00     0.000 A 
ATOM     33  C   UNL A   1      37.120  31.266  28.183  1.00  0.00     0.000 A 
ENDBRANCH  27  28
ENDBRANCH  26  27
ENDBRANCH  23  26
ENDBRANCH  21  22
BRANCH  21  34
ATOM     34  C   UNL A   1      30.236  27.758  22.948  1.00  0.00     0.015 C 
ATOM     35  C   UNL A   1      29.467  26.677  23.721  1.00  0.00     0.010 C 
ATOM     36  C   UNL A   1      29.245  28.888  22.637  1.00  0.00     0.010 C 
ENDBRANCH  21  34
ENDBRANCH  18  21
ENDBRANCH  16  17
ENDBRANCH  13  16
ENDBRANCH   7  12
ENDBRANCH   4   7
ENDBRANCH   1   3
BRANCH   1  37
ATOM     37  C   UNL A   1      34.743  18.994  24.760  1.00  0.00     0.242 C 
ATOM     38  O   UNL A   1      35.020  17.932  24.193  1.00  0.00    -0.273 OA
ATOM     39  N   UNL A   1      35.770  19.836  25.035  1.00  0.00    -0.354 N 
ATOM     40  H   UNL A   1      36.668  19.462  24.879  1.00  0.00     0.163 HD
BRANCH  39  41
ATOM     41  C   UNL A   1      35.754  21.195  25.522  1.00  0.00     0.116 C 
BRANCH  41  42
ATOM     42  C   UNL A   1      37.166  21.735  25.706  1.00  0.00     0.021 C 
BRANCH  42  43
ATOM     43  C   UNL A   1      37.375  23.126  25.099  1.00  0.00     0.002 C 
BRANCH  43  44
ATOM     44  C   UNL A   1      37.529  24.258  26.122  1.00  0.00     0.002 C 
BRANCH  44  45
ATOM     45  C   UNL A   1      38.636  24.045  27.157  1.00  0.00     0.021 C 
BRANCH  45  46
ATOM     46  C   UNL A   1      40.033  24.387  26.655  1.00  0.00     0.116 C 
BRANCH  46  47
ATOM     47  N   UNL A   1      40.864  23.202  26.541  1.00  0.00    -0.352 N 
ATOM     48  C   UNL A   1      42.201  23.107  26.253  1.00  0.00     0.251 C 
ATOM     49  H   UNL A   1      40.403  22.346  26.691  1.00  0.00     0.163 HD
ATOM     50  O   UNL A   1      42.696  22.023  25.960  1.00  0.00    -0.269 OA
BRANCH  48  51
ATOM     51  C   UNL A   1      43.042  24.322  26.277  1.00  0.00     0.039 A 
ATOM     52  C   UNL A   1      43.627  24.711  27.482  1.00  0.00     0.014 A 
ATOM     53  C   UNL A   1      43.251  25.072  25.115  1.00  0.00     0.014 A 
ATOM     54  C   UNL A   1      44.474  25.820  27.510  1.00  0.00     0.010 A 
ATOM     55  C   UNL A   1      44.154  26.131  25.129  1.00  0.00     0.010 A 
ATOM     56  C   UNL A   1      44.775  26.514  26.327  1.00  0.00    -0.014 A 
BRANCH  56  57
ATOM     57  C   UNL A   1      45.760  27.627  26.326  1.00  0.00     0.031 A 
ATOM     58  C   UNL A   1      47.233  27.341  26.220  1.00  0.00     0.074 A 
ATOM     59  C   UNL A   1      45.323  28.893  26.478  1.00  0.00     0.049 A 
ATOM     60  N   UNL A   1      48.238  28.178  26.255  1.00  0.00    -0.248 NA
ATOM     61  C   UNL A   1      47.632  25.931  26.082  1.00  0.00     0.031 C 
ATOM     62  C   UNL A   1      43.924  29.292  26.642  1.00  0.00     0.029 A 
ATOM     63  N   UNL A   1      46.013  30.078  26.534  1.00  0.00    -0.354 N 
ATOM     64  C   UNL A   1      49.384  27.399  26.156  1.00  0.00     0.074 A 
ATOM     65  C   UNL A   1      48.955  26.019  26.102  1.00  0.00     0.031 C 
ATOM     66  C   UNL A   1      43.857  30.627  26.762  1.00  0.00     0.029 A 
ATOM     67  C   UNL A   1      45.208  31.176  26.727  1.00  0.00     0.049 A 
ATOM     68  H   UNL A   1      46.991  30.137  26.444  1.00  0.00     0.167 HD
ATOM     69  C   UNL A   1      50.675  27.802  26.095  1.00  0.00     0.037 A 
ATOM     70  C   UNL A   1      45.524  32.476  26.877  1.00  0.00     0.037 A 
ATOM     71  C   UNL A   1      51.097  29.179  26.120  1.00  0.00     0.049 A 
ATOM     72  C   UNL A   1      46.970  32.889  26.814  1.00  0.00     0.074 A 
ATOM     73  C   UNL A   1      52.376  29.688  25.984  1.00  0.00     0.029 A 
ATOM     74  N   UNL A   1      50.250  30.262  26.299  1.00  0.00    -0.354 N 
ATOM     75  N   UNL A   1      48.035  32.148  26.627  1.00  0.00    -0.248 NA
ATOM     76  C   UNL A   1      47.258  34.321  26.976  1.00  0.00     0.031 C 
ATOM     77  C   UNL A   1      52.313  31.075  26.142  1.00  0.00     0.029 A 
ATOM     78  C   UNL A   1      50.987  31.435  26.313  1.00  0.00     0.049 A 
ATOM     79  H   UNL A   1      49.273  30.207  26.401  1.00  0.00     0.167 HD
ATOM     80  C   UNL A   1      49.112  33.024  26.621  1.00  0.00     0.074 A 
ATOM     81  C   UNL A   1      48.570  34.355  26.800  1.00  0.00     0.031 C 
ATOM     82  C   UNL A   1      50.433  32.753  26.484  1.00  0.00     0.037 A 
BRANCH  69  83
ATOM     83  C   UNL A   1      51.739  26.748  25.993  1.00  0.00     0.057 A 
ATOM     84  C   UNL A   1      52.144  26.222  24.759  1.00  0.00     0.134 A 
ATOM     85  C   UNL A   1      52.430  26.323  27.135  1.00  0.00     0.134 A 
ATOM     86  F   UNL A   1      51.518  26.581  23.628  1.00  0.00    -0.206 F 
ATOM     87  C   UNL A   1      53.190  25.303  24.667  1.00  0.00     0.040 A 
ATOM     88  C   UNL A   1      53.495  25.424  27.052  1.00  0.00     0.040 A 
ATOM     89  F   UNL A   1      52.098  26.792  28.346  1.00  0.00    -0.206 F 
ATOM     90  C   UNL A   1      53.878  24.912  25.814  1.00  0.00     0.006 A 
ENDBRANCH  69  83
BRANCH  70  91
ATOM     91  C   UNL A   1      44.462  33.488  27.113  1.00  0.00     0.057 A 
ATOM     92  C   UNL A   1      43.877  34.190  26.053  1.00  0.00     0.134 A 
ATOM     93  C   UNL A   1      44.039  33.812  28.409  1.00  0.00     0.134 A 
ATOM     94  F   UNL A   1      44.252  33.939  24.789  1.00  0.00    -0.206 F 
ATOM     95  C   UNL A   1      42.940  35.202  26.272  1.00  0.00     0.040 A 
ATOM     96  C   UNL A   1      43.080  34.798  28.641  1.00  0.00     0.040 A 
ATOM     97  F   UNL A   1      44.552  33.170  29.470  1.00  0.00    -0.206 F 
ATOM     98  C   UNL A   1      42.539  35.507  27.571  1.00  0.00     0.006 A 
ENDBRANCH  70  91
BRANCH  82  99
ATOM     99  C   UNL A   1      51.379  33.919  26.488  1.00  0.00     0.057 A 
ATOM    100  C   UNL A   1      51.934  34.420  27.672  1.00  0.00     0.134 A 
ATOM    101  C   UNL A   1      51.766  34.526  25.286  1.00  0.00     0.134 A 
ATOM    102  F   UNL A   1      51.595  33.892  28.858  1.00  0.00    -0.206 F 
ATOM    103  C   UNL A   1      52.819  35.499  27.663  1.00  0.00     0.040 A 
ATOM    104  C   UNL A   1      52.673  35.585  25.262  1.00  0.00     0.040 A 
ATOM    105  F   UNL A   1      51.280  34.090  24.113  1.00  0.00    -0.206 F 
ATOM    106  C   UNL A   1      53.197  36.080  26.455  1.00  0.00     0.006 A 
ENDBRANCH  82  99
ENDBRANCH  56  57
ENDBRANCH  48  51
ENDBRANCH  46  47
ENDBRANCH  45  46
ENDBRANCH  44  45
ENDBRANCH  43  44
ENDBRANCH  42  43
ENDBRANCH  41  42
ENDBRANCH  39  41
ENDBRANCH   1  37
TORSDOF 26
ENDMDL
MODEL 2
REMARK VINA RESULT:     -10.3      6.419      8.305
REMARK SMILES CC(C)C[C@H](NC(=O)CNC(=O)[C@@H](NC(=O)OCc1ccccc1)C(C)C)C(=O)N[C@@H](C)C(=O)NCCCCCCNC(=O)c1ccc(-c2c3nc(c(-c4c(F)cccc4F)c4ccc([nH]4)c(-c4c(F)cccc4F)c4nc(c(-c5c(F)cccc5F)c5ccc2[nH]5)C=C4)C=C3)cc1
REMARK SMILES IDX 31 1 32 2 30 3 28 4 29 5 5 7 4 8 2 9 1 10 3 11 6 12 7 13
REMARK SMILES IDX 8 15 9 16 10 17 11 18 12 20 13 21 14 22 15 23 16 25 17 26
REMARK SMILES IDX 18 27 19 28 20 29 24 30 21 31 23 32 22 33 25 34 26 35 27 36
REMARK SMILES IDX 33 37 34 38 35 39 36 41 37 42 38 43 39 44 40 45 41 46 42 47
REMARK SMILES IDX 43 48 44 50 45 51 46 52 98 53 47 54 97 55 48 56 49 57 50 58
REMARK SMILES IDX 91 59 51 60 96 61 90 62 92 63 52 64 95 65 89 66 88 67 53 69
REMARK SMILES IDX 79 70 62 71 78 72 63 73 66 74 77 75 93 76 64 77 65 78 76 80
REMARK SMILES IDX 94 81 67 82 54 83 55 84 60 85 56 86 57 87 59 88 61 89 58 90
REMARK SMILES IDX 80 91 81 92 86 93 82 94 83 95 85 96 87 97 84 98 68 99 69 100
REMARK SMILES IDX 74 101 70 102 71 103 73 104 75 105 72 106
REMARK H PARENT 30 6 6 14 10 19 14 24 35 40 42 49 92 68 66 79
REMARK Flexibility Score: inf
ROOT
ATOM      1  C   UNL A   1      33.411  18.650  24.986  1.00  0.00     0.168 C 
ATOM      2  C   UNL A   1      32.564  17.617  25.712  1.00  0.00     0.041 C 
ENDROOT
BRANCH   1   3
ATOM      3  N   UNL A   1      32.656  19.261  23.883  1.00  0.00    -0.343 N 
ATOM      4  C   UNL A   1      32.510  20.576  23.550  1.00  0.00     0.243 C 
ATOM      5  O   UNL A   1      31.984  20.840  22.467  1.00  0.00    -0.273 OA
ATOM      6  H   UNL A   1      32.185  18.626  23.296  1.00  0.00     0.164 HD
BRANCH   4   7
ATOM      7  C   UNL A   1      33.053  21.674  24.480  1.00  0.00     0.171 C 
BRANCH   7   8
ATOM      8  C   UNL A   1      31.930  22.619  24.888  1.00  0.00     0.038 C 
BRANCH   8   9
ATOM      9  C   UNL A   1      31.879  23.171  26.323  1.00  0.00    -0.015 C 
ATOM     10  C   UNL A   1      32.359  24.620  26.414  1.00  0.00     0.007 C 
ATOM     11  C   UNL A   1      30.425  23.093  26.812  1.00  0.00     0.007 C 
ENDBRANCH   8   9
ENDBRANCH   7   8
BRANCH   7  12
ATOM     12  N   UNL A   1      34.197  22.277  23.757  1.00  0.00    -0.343 N 
ATOM     13  C   UNL A   1      34.555  23.436  23.168  1.00  0.00     0.240 C 
ATOM     14  H   UNL A   1      34.929  21.623  23.684  1.00  0.00     0.164 HD
ATOM     15  O   UNL A   1      35.733  23.468  22.780  1.00  0.00    -0.273 OA
BRANCH  13  16
ATOM     16  C   UNL A   1      33.720  24.715  23.049  1.00  0.00     0.216 C 
BRANCH  16  17
ATOM     17  N   UNL A   1      32.948  24.967  21.857  1.00  0.00    -0.345 N 
ATOM     18  C   UNL A   1      31.946  25.843  21.591  1.00  0.00     0.243 C 
ATOM     19  H   UNL A   1      33.195  24.397  21.093  1.00  0.00     0.164 HD
ATOM     20  O   UNL A   1      31.618  25.942  20.402  1.00  0.00    -0.273 OA
BRANCH  18  21
ATOM     21  C   UNL A   1      31.239  26.728  22.664  1.00  0.00     0.177 C 
BRANCH  21  22
ATOM     22  N   UNL A   1      30.672  27.977  22.128  1.00  0.00    -0.309 N 
ATOM     23  C   UNL A   1      30.666  29.260  22.568  1.00  0.00     0.408 C 
ATOM     24  H   UNL A   1      30.200  27.855  21.274  1.00  0.00     0.167 HD
ATOM     25  O   UNL A   1      29.870  30.064  22.116  1.00  0.00    -0.225 OA
BRANCH  23  26
ATOM     26  O   UNL A   1      31.634  29.529  23.470  1.00  0.00    -0.445 OA
BRANCH  26  27
ATOM     27  C   UNL A   1      31.285  29.289  24.839  1.00  0.00     0.270 C 
BRANCH  27  28
ATOM     28  C   UNL A   1      32.429  29.384  25.832  1.00  0.00    -0.011 A 
ATOM     29  C   UNL A   1      32.630  30.599  26.501  1.00  0.00     0.007 A 
ATOM     30  C   UNL A   1      33.327  28.334  26.084  1.00  0.00     0.007 A 
ATOM     31  C   UNL A   1      33.712  30.767  27.368  1.00  0.00     0.000 A 
ATOM     32  C   UNL A   1      34.418  28.506  26.936  1.00  0.00     0.000 A 
ATOM     33  C   UNL A   1      34.611  29.724  27.576  1.00  0.00     0.000 A 
ENDBRANCH  27  28
ENDBRANCH  26  27
ENDBRANCH  23  26
ENDBRANCH  21  22
BRANCH  21  34
ATOM     34  C   UNL A   1      30.363  25.900  23.625  1.00  0.00     0.015 C 
ATOM     35  C   UNL A   1      28.998  26.564  23.862  1.00  0.00     0.010 C 
ATOM     36  C   UNL A   1      30.096  24.497  23.065  1.00  0.00     0.010 C 
ENDBRANCH  21  34
ENDBRANCH  18  21
ENDBRANCH  16  17
ENDBRANCH  13  16
ENDBRANCH   7  12
ENDBRANCH   4   7
ENDBRANCH   1   3
BRANCH   1  37
ATOM     37  C   UNL A   1      34.779  18.062  24.586  1.00  0.00     0.242 C 
ATOM     38  O   UNL A   1      34.851  16.956  24.042  1.00  0.00    -0.273 OA
ATOM     39  N   UNL A   1      35.929  18.774  24.700  1.00  0.00    -0.354 N 
ATOM     40  H   UNL A   1      36.747  18.281  24.458  1.00  0.00     0.163 HD
BRANCH  39  41
ATOM     41  C   UNL A   1      36.141  20.138  25.120  1.00  0.00     0.116 C 
BRANCH  41  42
ATOM     42  C   UNL A   1      37.593  20.556  24.936  1.00  0.00     0.021 C 
BRANCH  42  43
ATOM     43  C   UNL A   1      37.813  22.070  25.027  1.00  0.00     0.002 C 
BRANCH  43  44
ATOM     44  C   UNL A   1      38.671  22.525  26.213  1.00  0.00     0.002 C 
BRANCH  44  45
ATOM     45  C   UNL A   1      40.072  21.910  26.268  1.00  0.00     0.021 C 
BRANCH  45  46
ATOM     46  C   UNL A   1      41.128  22.820  26.881  1.00  0.00     0.116 C 
BRANCH  46  47
ATOM     47  N   UNL A   1      41.874  23.536  25.861  1.00  0.00    -0.352 N 
ATOM     48  C   UNL A   1      42.093  24.883  25.736  1.00  0.00     0.251 C 
ATOM     49  H   UNL A   1      42.278  22.975  25.161  1.00  0.00     0.163 HD
ATOM     50  O   UNL A   1      42.542  25.342  24.690  1.00  0.00    -0.269 OA
BRANCH  48  51
ATOM     51  C   UNL A   1      41.769  25.784  26.860  1.00  0.00     0.039 A 
ATOM     52  C   UNL A   1      42.418  25.597  28.082  1.00  0.00     0.014 A 
ATOM     53  C   UNL A   1      40.830  26.810  26.710  1.00  0.00     0.014 A 
ATOM     54  C   UNL A   1      42.170  26.478  29.135  1.00  0.00     0.010 A 
ATOM     55  C   UNL A   1      40.640  27.731  27.736  1.00  0.00     0.010 A 
ATOM     56  C   UNL A   1      41.310  27.574  28.959  1.00  0.00    -0.014 A 
BRANCH  56  57
ATOM     57  C   UNL A   1      41.123  28.579  30.037  1.00  0.00     0.031 A 
ATOM     58  C   UNL A   1      42.006  28.563  31.254  1.00  0.00     0.074 A 
ATOM     59  C   UNL A   1      40.117  29.469  29.940  1.00  0.00     0.049 A 
ATOM     60  N   UNL A   1      41.957  29.326  32.316  1.00  0.00    -0.248 NA
ATOM     61  C   UNL A   1      43.067  27.543  31.298  1.00  0.00     0.031 C 
ATOM     62  C   UNL A   1      39.161  29.551  28.833  1.00  0.00     0.029 A 
ATOM     63  N   UNL A   1      39.719  30.470  30.793  1.00  0.00    -0.354 N 
ATOM     64  C   UNL A   1      42.967  28.873  33.156  1.00  0.00     0.074 A 
ATOM     65  C   UNL A   1      43.587  27.742  32.501  1.00  0.00     0.031 C 
ATOM     66  C   UNL A   1      38.302  30.556  29.065  1.00  0.00     0.029 A 
ATOM     67  C   UNL A   1      38.616  31.162  30.353  1.00  0.00     0.049 A 
ATOM     68  H   UNL A   1      40.181  30.672  31.638  1.00  0.00     0.167 HD
ATOM     69  C   UNL A   1      43.354  29.370  34.354  1.00  0.00     0.037 A 
ATOM     70  C   UNL A   1      37.923  32.161  30.933  1.00  0.00     0.037 A 
ATOM     71  C   UNL A   1      42.754  30.514  34.989  1.00  0.00     0.049 A 
ATOM     72  C   UNL A   1      38.374  32.684  32.270  1.00  0.00     0.074 A 
ATOM     73  C   UNL A   1      43.129  31.140  36.165  1.00  0.00     0.029 A 
ATOM     74  N   UNL A   1      41.649  31.198  34.505  1.00  0.00    -0.354 N 
ATOM     75  N   UNL A   1      39.389  32.303  33.008  1.00  0.00    -0.248 NA
ATOM     76  C   UNL A   1      37.587  33.779  32.853  1.00  0.00     0.031 C 
ATOM     77  C   UNL A   1      42.215  32.164  36.426  1.00  0.00     0.029 A 
ATOM     78  C   UNL A   1      41.309  32.218  35.380  1.00  0.00     0.049 A 
ATOM     79  H   UNL A   1      41.178  30.992  33.667  1.00  0.00     0.167 HD
ATOM     80  C   UNL A   1      39.378  33.129  34.124  1.00  0.00     0.074 A 
ATOM     81  C   UNL A   1      38.270  34.046  33.956  1.00  0.00     0.031 C 
ATOM     82  C   UNL A   1      40.208  33.127  35.195  1.00  0.00     0.037 A 
BRANCH  69  83
ATOM     83  C   UNL A   1      44.484  28.688  35.070  1.00  0.00     0.057 A 
ATOM     84  C   UNL A   1      44.263  27.639  35.972  1.00  0.00     0.134 A 
ATOM     85  C   UNL A   1      45.813  29.025  34.783  1.00  0.00     0.134 A 
ATOM     86  F   UNL A   1      43.014  27.272  36.296  1.00  0.00    -0.206 F 
ATOM     87  C   UNL A   1      45.323  26.956  36.570  1.00  0.00     0.040 A 
ATOM     88  C   UNL A   1      46.881  28.332  35.355  1.00  0.00     0.040 A 
ATOM     89  F   UNL A   1      46.094  30.015  33.923  1.00  0.00    -0.206 F 
ATOM     90  C   UNL A   1      46.637  27.294  36.252  1.00  0.00     0.006 A 
ENDBRANCH  69  83
BRANCH  70  91
ATOM     91  C   UNL A   1      36.723  32.732  30.267  1.00  0.00     0.057 A 
ATOM     92  C   UNL A   1      36.841  33.699  29.262  1.00  0.00     0.134 A 
ATOM     93  C   UNL A   1      35.429  32.359  30.652  1.00  0.00     0.134 A 
ATOM     94  F   UNL A   1      38.052  34.112  28.860  1.00  0.00    -0.206 F 
ATOM     95  C   UNL A   1      35.718  34.302  28.692  1.00  0.00     0.040 A 
ATOM     96  C   UNL A   1      34.298  32.930  30.068  1.00  0.00     0.040 A 
ATOM     97  F   UNL A   1      35.246  31.430  31.603  1.00  0.00    -0.206 F 
ATOM     98  C   UNL A   1      34.442  33.916  29.094  1.00  0.00     0.006 A 
ENDBRANCH  70  91
BRANCH  82  99
ATOM     99  C   UNL A   1      39.971  34.169  36.251  1.00  0.00     0.057 A 
ATOM    100  C   UNL A   1      39.182  33.914  37.380  1.00  0.00     0.134 A 
ATOM    101  C   UNL A   1      40.570  35.432  36.153  1.00  0.00     0.134 A 
ATOM    102  F   UNL A   1      38.570  32.729  37.528  1.00  0.00    -0.206 F 
ATOM    103  C   UNL A   1      38.975  34.886  38.359  1.00  0.00     0.040 A 
ATOM    104  C   UNL A   1      40.395  36.401  37.141  1.00  0.00     0.040 A 
ATOM    105  F   UNL A   1      41.347  35.739  35.103  1.00  0.00    -0.206 F 
ATOM    106  C   UNL A   1      39.588  36.131  38.245  1.00  0.00     0.006 A 
ENDBRANCH  82  99
ENDBRANCH  56  57
ENDBRANCH  48  51
ENDBRANCH  46  47
ENDBRANCH  45  46
ENDBRANCH  44  45
ENDBRANCH  43  44
ENDBRANCH  42  43
ENDBRANCH  41  42
ENDBRANCH  39  41
ENDBRANCH   1  37
TORSDOF 26
ENDMDL
MODEL 3
REMARK VINA RESULT:     -10.3      6.444      8.595
REMARK SMILES CC(C)C[C@H](NC(=O)CNC(=O)[C@@H](NC(=O)OCc1ccccc1)C(C)C)C(=O)N[C@@H](C)C(=O)NCCCCCCNC(=O)c1ccc(-c2c3nc(c(-c4c(F)cccc4F)c4ccc([nH]4)c(-c4c(F)cccc4F)c4nc(c(-c5c(F)cccc5F)c5ccc2[nH]5)C=C4)C=C3)cc1
REMARK SMILES IDX 31 1 32 2 30 3 28 4 29 5 5 7 4 8 2 9 1 10 3 11 6 12 7 13
REMARK SMILES IDX 8 15 9 16 10 17 11 18 12 20 13 21 14 22 15 23 16 25 17 26
REMARK SMILES IDX 18 27 19 28 20 29 24 30 21 31 23 32 22 33 25 34 26 35 27 36
REMARK SMILES IDX 33 37 34 38 35 39 36 41 37 42 38 43 39 44 40 45 41 46 42 47
REMARK SMILES IDX 43 48 44 50 45 51 46 52 98 53 47 54 97 55 48 56 49 57 50 58
REMARK SMILES IDX 91 59 51 60 96 61 90 62 92 63 52 64 95 65 89 66 88 67 53 69
REMARK SMILES IDX 79 70 62 71 78 72 63 73 66 74 77 75 93 76 64 77 65 78 76 80
REMARK SMILES IDX 94 81 67 82 54 83 55 84 60 85 56 86 57 87 59 88 61 89 58 90
REMARK SMILES IDX 80 91 81 92 86 93 82 94 83 95 85 96 87 97 84 98 68 99 69 100
REMARK SMILES IDX 74 101 70 102 71 103 73 104 75 105 72 106
REMARK H PARENT 30 6 6 14 10 19 14 24 35 40 42 49 92 68 66 79
REMARK Flexibility Score: inf
ROOT
ATOM      1  C   UNL A   1      33.133  17.984  24.894  1.00  0.00     0.168 C 
ATOM      2  C   UNL A   1      32.142  17.008  25.508  1.00  0.00     0.041 C 
ENDROOT
BRANCH   1   3
ATOM      3  N   UNL A   1      32.508  18.746  23.805  1.00  0.00    -0.343 N 
ATOM      4  C   UNL A   1      32.405  20.096  23.631  1.00  0.00     0.243 C 
ATOM      5  O   UNL A   1      32.004  20.506  22.541  1.00  0.00    -0.273 OA
ATOM      6  H   UNL A   1      32.103  18.201  23.092  1.00  0.00     0.164 HD
BRANCH   4   7
ATOM      7  C   UNL A   1      32.846  21.054  24.751  1.00  0.00     0.171 C 
BRANCH   7   8
ATOM      8  C   UNL A   1      31.687  21.958  25.153  1.00  0.00     0.038 C 
BRANCH   8   9
ATOM      9  C   UNL A   1      31.569  22.447  26.606  1.00  0.00    -0.015 C 
ATOM     10  C   UNL A   1      32.473  23.645  26.900  1.00  0.00     0.007 C 
ATOM     11  C   UNL A   1      30.108  22.850  26.856  1.00  0.00     0.007 C 
ENDBRANCH   8   9
ENDBRANCH   7   8
BRANCH   7  12
ATOM     12  N   UNL A   1      34.065  21.724  24.243  1.00  0.00    -0.343 N 
ATOM     13  C   UNL A   1      34.472  22.927  23.790  1.00  0.00     0.240 C 
ATOM     14  H   UNL A   1      34.817  21.090  24.232  1.00  0.00     0.164 HD
ATOM     15  O   UNL A   1      35.693  23.007  23.578  1.00  0.00    -0.273 OA
BRANCH  13  16
ATOM     16  C   UNL A   1      33.629  24.198  23.638  1.00  0.00     0.216 C 
BRANCH  16  17
ATOM     17  N   UNL A   1      33.653  24.937  22.399  1.00  0.00    -0.345 N 
ATOM     18  C   UNL A   1      33.200  26.174  22.070  1.00  0.00     0.243 C 
ATOM     19  H   UNL A   1      34.078  24.455  21.653  1.00  0.00     0.164 HD
ATOM     20  O   UNL A   1      33.546  26.596  20.959  1.00  0.00    -0.273 OA
BRANCH  18  21
ATOM     21  C   UNL A   1      32.329  27.072  23.001  1.00  0.00     0.177 C 
BRANCH  21  22
ATOM     22  N   UNL A   1      31.049  26.460  23.394  1.00  0.00    -0.309 N 
ATOM     23  C   UNL A   1      29.787  26.942  23.522  1.00  0.00     0.408 C 
ATOM     24  H   UNL A   1      31.125  25.503  23.609  1.00  0.00     0.167 HD
ATOM     25  O   UNL A   1      28.952  26.325  24.158  1.00  0.00    -0.225 OA
BRANCH  23  26
ATOM     26  O   UNL A   1      29.574  28.089  22.843  1.00  0.00    -0.445 OA
BRANCH  26  27
ATOM     27  C   UNL A   1      29.393  29.259  23.652  1.00  0.00     0.270 C 
BRANCH  27  28
ATOM     28  C   UNL A   1      28.870  30.484  22.923  1.00  0.00    -0.011 A 
ATOM     29  C   UNL A   1      28.473  30.344  21.586  1.00  0.00     0.007 A 
ATOM     30  C   UNL A   1      28.805  31.762  23.502  1.00  0.00     0.007 A 
ATOM     31  C   UNL A   1      28.056  31.452  20.845  1.00  0.00     0.000 A 
ATOM     32  C   UNL A   1      28.405  32.872  22.758  1.00  0.00     0.000 A 
ATOM     33  C   UNL A   1      28.034  32.717  21.428  1.00  0.00     0.000 A 
ENDBRANCH  27  28
ENDBRANCH  26  27
ENDBRANCH  23  26
ENDBRANCH  21  22
BRANCH  21  34
ATOM     34  C   UNL A   1      33.161  27.760  24.102  1.00  0.00     0.015 C 
ATOM     35  C   UNL A   1      32.987  29.286  24.073  1.00  0.00     0.010 C 
ATOM     36  C   UNL A   1      32.739  27.281  25.498  1.00  0.00     0.010 C 
ENDBRANCH  21  34
ENDBRANCH  18  21
ENDBRANCH  16  17
ENDBRANCH  13  16
ENDBRANCH   7  12
ENDBRANCH   4   7
ENDBRANCH   1   3
BRANCH   1  37
ATOM     37  C   UNL A   1      34.448  17.273  24.516  1.00  0.00     0.242 C 
ATOM     38  O   UNL A   1      34.428  16.147  24.008  1.00  0.00    -0.273 OA
ATOM     39  N   UNL A   1      35.652  17.891  24.608  1.00  0.00    -0.354 N 
ATOM     40  H   UNL A   1      36.427  17.325  24.384  1.00  0.00     0.163 HD
BRANCH  39  41
ATOM     41  C   UNL A   1      35.976  19.246  24.984  1.00  0.00     0.116 C 
BRANCH  41  42
ATOM     42  C   UNL A   1      37.477  19.496  24.919  1.00  0.00     0.021 C 
BRANCH  42  43
ATOM     43  C   UNL A   1      37.844  20.942  24.568  1.00  0.00     0.002 C 
BRANCH  43  44
ATOM     44  C   UNL A   1      38.231  21.816  25.767  1.00  0.00     0.002 C 
BRANCH  44  45
ATOM     45  C   UNL A   1      39.716  21.779  26.138  1.00  0.00     0.021 C 
BRANCH  45  46
ATOM     46  C   UNL A   1      40.264  23.104  26.651  1.00  0.00     0.116 C 
BRANCH  46  47
ATOM     47  N   UNL A   1      41.414  23.541  25.880  1.00  0.00    -0.352 N 
ATOM     48  C   UNL A   1      42.029  24.766  25.862  1.00  0.00     0.251 C 
ATOM     49  H   UNL A   1      41.808  22.862  25.287  1.00  0.00     0.163 HD
ATOM     50  O   UNL A   1      42.839  25.039  24.981  1.00  0.00    -0.269 OA
BRANCH  48  51
ATOM     51  C   UNL A   1      41.698  25.765  26.897  1.00  0.00     0.039 A 
ATOM     52  C   UNL A   1      41.496  25.334  28.209  1.00  0.00     0.014 A 
ATOM     53  C   UNL A   1      41.588  27.122  26.576  1.00  0.00     0.014 A 
ATOM     54  C   UNL A   1      41.244  26.271  29.211  1.00  0.00     0.010 A 
ATOM     55  C   UNL A   1      41.412  28.061  27.588  1.00  0.00     0.010 A 
ATOM     56  C   UNL A   1      41.239  27.644  28.917  1.00  0.00    -0.014 A 
BRANCH  56  57
ATOM     57  C   UNL A   1      41.081  28.655  29.993  1.00  0.00     0.031 A 
ATOM     58  C   UNL A   1      41.991  28.641  31.191  1.00  0.00     0.074 A 
ATOM     59  C   UNL A   1      40.077  29.550  29.914  1.00  0.00     0.049 A 
ATOM     60  N   UNL A   1      41.969  29.411  32.250  1.00  0.00    -0.248 NA
ATOM     61  C   UNL A   1      43.048  27.617  31.216  1.00  0.00     0.031 C 
ATOM     62  C   UNL A   1      39.097  29.631  28.827  1.00  0.00     0.029 A 
ATOM     63  N   UNL A   1      39.703  30.557  30.770  1.00  0.00    -0.354 N 
ATOM     64  C   UNL A   1      42.995  28.957  33.069  1.00  0.00     0.074 A 
ATOM     65  C   UNL A   1      43.595  27.819  32.407  1.00  0.00     0.031 C 
ATOM     66  C   UNL A   1      38.248  30.640  29.074  1.00  0.00     0.029 A 
ATOM     67  C   UNL A   1      38.593  31.252  30.352  1.00  0.00     0.049 A 
ATOM     68  H   UNL A   1      40.184  30.761  31.603  1.00  0.00     0.167 HD
ATOM     69  C   UNL A   1      43.410  29.458  34.256  1.00  0.00     0.037 A 
ATOM     70  C   UNL A   1      37.918  32.257  30.941  1.00  0.00     0.037 A 
ATOM     71  C   UNL A   1      42.829  30.609  34.898  1.00  0.00     0.049 A 
ATOM     72  C   UNL A   1      38.401  32.785  32.265  1.00  0.00     0.074 A 
ATOM     73  C   UNL A   1      43.233  31.238  36.063  1.00  0.00     0.029 A 
ATOM     74  N   UNL A   1      41.718  31.296  34.435  1.00  0.00    -0.354 N 
ATOM     75  N   UNL A   1      39.430  32.403  32.982  1.00  0.00    -0.248 NA
ATOM     76  C   UNL A   1      37.631  33.886  32.860  1.00  0.00     0.031 C 
ATOM     77  C   UNL A   1      42.330  32.269  36.338  1.00  0.00     0.029 A 
ATOM     78  C   UNL A   1      41.401  32.321  35.312  1.00  0.00     0.049 A 
ATOM     79  H   UNL A   1      41.227  31.087  33.608  1.00  0.00     0.167 HD
ATOM     80  C   UNL A   1      39.448  33.235  34.094  1.00  0.00     0.074 A 
ATOM     81  C   UNL A   1      38.341  34.156  33.946  1.00  0.00     0.031 C 
ATOM     82  C   UNL A   1      40.301  33.235  35.147  1.00  0.00     0.037 A 
BRANCH  69  83
ATOM     83  C   UNL A   1      44.552  28.774  34.950  1.00  0.00     0.057 A 
ATOM     84  C   UNL A   1      45.883  29.156  34.738  1.00  0.00     0.134 A 
ATOM     85  C   UNL A   1      44.309  27.784  35.911  1.00  0.00     0.134 A 
ATOM     86  F   UNL A   1      46.185  30.093  33.826  1.00  0.00    -0.206 F 
ATOM     87  C   UNL A   1      46.932  28.571  35.448  1.00  0.00     0.040 A 
ATOM     88  C   UNL A   1      45.348  27.210  36.646  1.00  0.00     0.040 A 
ATOM     89  F   UNL A   1      43.058  27.377  36.168  1.00  0.00    -0.206 F 
ATOM     90  C   UNL A   1      46.664  27.604  36.415  1.00  0.00     0.006 A 
ENDBRANCH  69  83
BRANCH  70  91
ATOM     91  C   UNL A   1      36.706  32.830  30.298  1.00  0.00     0.057 A 
ATOM     92  C   UNL A   1      36.806  33.793  29.288  1.00  0.00     0.134 A 
ATOM     93  C   UNL A   1      35.419  32.464  30.713  1.00  0.00     0.134 A 
ATOM     94  F   UNL A   1      38.010  34.200  28.859  1.00  0.00    -0.206 F 
ATOM     95  C   UNL A   1      35.674  34.399  28.739  1.00  0.00     0.040 A 
ATOM     96  C   UNL A   1      34.279  33.037  30.151  1.00  0.00     0.040 A 
ATOM     97  F   UNL A   1      35.253  31.539  31.671  1.00  0.00    -0.206 F 
ATOM     98  C   UNL A   1      34.405  34.019  29.171  1.00  0.00     0.006 A 
ENDBRANCH  70  91
BRANCH  82  99
ATOM     99  C   UNL A   1      40.092  34.283  36.202  1.00  0.00     0.057 A 
ATOM    100  C   UNL A   1      39.356  34.026  37.365  1.00  0.00     0.134 A 
ATOM    101  C   UNL A   1      40.666  35.554  36.067  1.00  0.00     0.134 A 
ATOM    102  F   UNL A   1      38.770  32.834  37.551  1.00  0.00    -0.206 F 
ATOM    103  C   UNL A   1      39.175  35.005  38.344  1.00  0.00     0.040 A 
ATOM    104  C   UNL A   1      40.517  36.530  37.053  1.00  0.00     0.040 A 
ATOM    105  F   UNL A   1      41.392  35.863  34.982  1.00  0.00    -0.206 F 
ATOM    106  C   UNL A   1      39.763  36.258  38.192  1.00  0.00     0.006 A 
ENDBRANCH  82  99
ENDBRANCH  56  57
ENDBRANCH  48  51
ENDBRANCH  46  47
ENDBRANCH  45  46
ENDBRANCH  44  45
ENDBRANCH  43  44
ENDBRANCH  42  43
ENDBRANCH  41  42
ENDBRANCH  39  41
ENDBRANCH   1  37
TORSDOF 26
ENDMDL
