MODEL 1
REMARK VINA RESULT:     -11.6      0.000      0.000
REMARK SMILES CC[C@](O)(C(=O)NCCCCCCNC(=O)c1ccc(-c2c3nc(c(-c4c(F)cccc4F)c4ccc([nH]4)c(-c4c(F)cccc4F)c4nc(c(-c5c(F)cccc5F)c5ccc2[nH]5)C=C4)C=C3)cc1)[C@@H](C)c1ccc2c(c1)OCCO2
REMARK SMILES IDX 10 1 9 2 8 3 7 4 5 5 6 6 3 8 2 9 1 10 71 11 72 12 73 13
REMARK SMILES IDX 74 14 78 15 75 16 77 17 76 18 79 19 82 20 80 21 81 22 4 23
REMARK SMILES IDX 11 25 12 26 13 27 14 28 15 29 16 31 17 32 18 33 70 34 19 35
REMARK SMILES IDX 69 36 20 37 21 38 22 39 63 40 23 41 68 42 62 43 64 44 24 45
REMARK SMILES IDX 67 46 61 47 60 48 25 50 51 51 34 52 50 53 35 54 38 55 49 56
REMARK SMILES IDX 65 57 36 58 37 59 48 61 66 62 39 63 26 64 27 65 32 66 28 67
REMARK SMILES IDX 29 68 31 69 33 70 30 71 52 72 53 73 58 74 54 75 55 76 57 77
REMARK SMILES IDX 59 78 56 79 40 80 41 81 46 82 42 83 43 84 45 85 47 86 44 87
REMARK H PARENT 7 7 4 24 14 30 64 49 38 60
REMARK Flexibility Score: inf
ROOT
ATOM      1  C   UNL A   1      37.217  22.118  24.460  1.00  0.00     0.002 C 
ENDROOT
BRANCH   1   2
ATOM      2  C   UNL A   1      36.208  22.968  23.689  1.00  0.00     0.021 C 
BRANCH   2   3
ATOM      3  C   UNL A   1      35.351  23.839  24.600  1.00  0.00     0.116 C 
BRANCH   3   4
ATOM      4  N   UNL A   1      34.103  24.250  23.957  1.00  0.00    -0.354 N 
ATOM      5  C   UNL A   1      32.804  24.010  24.361  1.00  0.00     0.252 C 
ATOM      6  O   UNL A   1      31.880  24.507  23.720  1.00  0.00    -0.272 OA
ATOM      7  H   UNL A   1      34.202  24.767  23.124  1.00  0.00     0.163 HD
BRANCH   5   8
ATOM      8  C   UNL A   1      32.596  23.148  25.637  1.00  0.00     0.149 C 
BRANCH   8   9
ATOM      9  C   UNL A   1      31.061  22.786  25.611  1.00  0.00     0.043 C 
ATOM     10  C   UNL A   1      30.196  22.981  26.853  1.00  0.00     0.007 C 
ENDBRANCH   8   9
BRANCH   8  11
ATOM     11  C   UNL A   1      33.487  21.846  25.729  1.00  0.00     0.058 C 
ATOM     12  C   UNL A   1      33.692  21.378  27.192  1.00  0.00     0.016 C 
BRANCH  11  13
ATOM     13  C   UNL A   1      32.898  20.634  24.976  1.00  0.00    -0.038 A 
ATOM     14  C   UNL A   1      32.550  20.692  23.615  1.00  0.00     0.008 A 
ATOM     15  C   UNL A   1      32.864  19.376  25.583  1.00  0.00     0.054 A 
ATOM     16  C   UNL A   1      32.379  19.508  22.873  1.00  0.00     0.051 A 
ATOM     17  C   UNL A   1      32.654  18.219  24.880  1.00  0.00     0.161 A 
ATOM     18  C   UNL A   1      32.541  18.279  23.507  1.00  0.00     0.161 A 
ATOM     19  O   UNL A   1      32.782  17.059  25.584  1.00  0.00    -0.486 OA
ATOM     20  O   UNL A   1      32.826  17.142  22.786  1.00  0.00    -0.486 OA
ATOM     21  C   UNL A   1      33.615  16.131  24.889  1.00  0.00     0.271 C 
ATOM     22  C   UNL A   1      33.962  16.551  23.458  1.00  0.00     0.271 C 
ENDBRANCH  11  13
ENDBRANCH   8  11
BRANCH   8  23
ATOM     23  O   UNL A   1      33.000  24.052  26.691  1.00  0.00    -0.379 OA
ATOM     24  H   UNL A   1      32.630  24.933  26.522  1.00  0.00     0.212 HD
ENDBRANCH   8  23
ENDBRANCH   5   8
ENDBRANCH   3   4
ENDBRANCH   2   3
ENDBRANCH   1   2
BRANCH   1  25
ATOM     25  C   UNL A   1      36.715  20.713  24.811  1.00  0.00     0.002 C 
BRANCH  25  26
ATOM     26  C   UNL A   1      37.818  19.663  24.985  1.00  0.00     0.021 C 
BRANCH  26  27
ATOM     27  C   UNL A   1      39.049  20.173  25.722  1.00  0.00     0.116 C 
BRANCH  27  28
ATOM     28  N   UNL A   1      40.062  19.136  25.857  1.00  0.00    -0.352 N 
ATOM     29  C   UNL A   1      41.406  19.261  26.076  1.00  0.00     0.251 C 
ATOM     30  H   UNL A   1      39.731  18.212  25.780  1.00  0.00     0.163 HD
ATOM     31  O   UNL A   1      42.149  18.288  25.939  1.00  0.00    -0.269 OA
BRANCH  29  32
ATOM     32  C   UNL A   1      41.967  20.568  26.465  1.00  0.00     0.039 A 
ATOM     33  C   UNL A   1      42.419  21.434  25.467  1.00  0.00     0.014 A 
ATOM     34  C   UNL A   1      42.048  20.936  27.810  1.00  0.00     0.014 A 
ATOM     35  C   UNL A   1      42.902  22.694  25.817  1.00  0.00     0.010 A 
ATOM     36  C   UNL A   1      42.456  22.222  28.151  1.00  0.00     0.010 A 
ATOM     37  C   UNL A   1      42.892  23.112  27.158  1.00  0.00    -0.014 A 
BRANCH  37  38
ATOM     38  C   UNL A   1      43.330  24.477  27.539  1.00  0.00     0.031 A 
ATOM     39  C   UNL A   1      42.316  25.518  27.926  1.00  0.00     0.074 A 
ATOM     40  C   UNL A   1      44.638  24.794  27.480  1.00  0.00     0.049 A 
ATOM     41  N   UNL A   1      42.502  26.776  28.236  1.00  0.00    -0.248 NA
ATOM     42  C   UNL A   1      40.907  25.097  27.940  1.00  0.00     0.031 C 
ATOM     43  C   UNL A   1      45.712  23.886  27.074  1.00  0.00     0.029 A 
ATOM     44  N   UNL A   1      45.286  25.973  27.753  1.00  0.00    -0.354 N 
ATOM     45  C   UNL A   1      41.236  27.297  28.472  1.00  0.00     0.074 A 
ATOM     46  C   UNL A   1      40.287  26.236  28.213  1.00  0.00     0.031 C 
ATOM     47  C   UNL A   1      46.886  24.531  27.152  1.00  0.00     0.029 A 
ATOM     48  C   UNL A   1      46.646  25.909  27.568  1.00  0.00     0.049 A 
ATOM     49  H   UNL A   1      44.820  26.787  28.054  1.00  0.00     0.167 HD
ATOM     50  C   UNL A   1      40.897  28.539  28.892  1.00  0.00     0.037 A 
ATOM     51  C   UNL A   1      47.591  26.857  27.709  1.00  0.00     0.037 A 
ATOM     52  C   UNL A   1      41.846  29.587  29.162  1.00  0.00     0.049 A 
ATOM     53  C   UNL A   1      47.186  28.235  28.154  1.00  0.00     0.074 A 
ATOM     54  C   UNL A   1      41.608  30.863  29.643  1.00  0.00     0.029 A 
ATOM     55  N   UNL A   1      43.215  29.482  28.969  1.00  0.00    -0.354 N 
ATOM     56  N   UNL A   1      45.992  28.694  28.444  1.00  0.00    -0.248 NA
ATOM     57  C   UNL A   1      48.260  29.227  28.297  1.00  0.00     0.031 C 
ATOM     58  C   UNL A   1      42.825  31.547  29.687  1.00  0.00     0.029 A 
ATOM     59  C   UNL A   1      43.831  30.680  29.294  1.00  0.00     0.049 A 
ATOM     60  H   UNL A   1      43.681  28.676  28.648  1.00  0.00     0.167 HD
ATOM     61  C   UNL A   1      46.175  30.014  28.833  1.00  0.00     0.074 A 
ATOM     62  C   UNL A   1      47.598  30.278  28.757  1.00  0.00     0.031 C 
ATOM     63  C   UNL A   1      45.249  30.926  29.220  1.00  0.00     0.037 A 
BRANCH  50  64
ATOM     64  C   UNL A   1      39.436  28.833  29.081  1.00  0.00     0.057 A 
ATOM     65  C   UNL A   1      38.800  28.665  30.319  1.00  0.00     0.134 A 
ATOM     66  C   UNL A   1      38.662  29.327  28.022  1.00  0.00     0.134 A 
ATOM     67  F   UNL A   1      39.480  28.186  31.373  1.00  0.00    -0.206 F 
ATOM     68  C   UNL A   1      37.444  28.949  30.490  1.00  0.00     0.040 A 
ATOM     69  C   UNL A   1      37.313  29.644  28.189  1.00  0.00     0.040 A 
ATOM     70  F   UNL A   1      39.206  29.519  26.811  1.00  0.00    -0.206 F 
ATOM     71  C   UNL A   1      36.698  29.447  29.424  1.00  0.00     0.006 A 
ENDBRANCH  50  64
BRANCH  51  72
ATOM     72  C   UNL A   1      49.015  26.534  27.442  1.00  0.00     0.057 A 
ATOM     73  C   UNL A   1      49.581  26.750  26.179  1.00  0.00     0.134 A 
ATOM     74  C   UNL A   1      49.842  25.992  28.433  1.00  0.00     0.134 A 
ATOM     75  F   UNL A   1      48.837  27.251  25.183  1.00  0.00    -0.206 F 
ATOM     76  C   UNL A   1      50.909  26.416  25.904  1.00  0.00     0.040 A 
ATOM     77  C   UNL A   1      51.179  25.680  28.181  1.00  0.00     0.040 A 
ATOM     78  F   UNL A   1      49.364  25.769  29.666  1.00  0.00    -0.206 F 
ATOM     79  C   UNL A   1      51.713  25.883  26.910  1.00  0.00     0.006 A 
ENDBRANCH  51  72
BRANCH  63  80
ATOM     80  C   UNL A   1      45.749  32.282  29.631  1.00  0.00     0.057 A 
ATOM     81  C   UNL A   1      46.086  32.581  30.957  1.00  0.00     0.134 A 
ATOM     82  C   UNL A   1      45.930  33.291  28.676  1.00  0.00     0.134 A 
ATOM     83  F   UNL A   1      45.924  31.663  31.924  1.00  0.00    -0.206 F 
ATOM     84  C   UNL A   1      46.560  33.842  31.322  1.00  0.00     0.040 A 
ATOM     85  C   UNL A   1      46.434  34.545  29.024  1.00  0.00     0.040 A 
ATOM     86  F   UNL A   1      45.636  33.069  27.386  1.00  0.00    -0.206 F 
ATOM     87  C   UNL A   1      46.743  34.825  30.353  1.00  0.00     0.006 A 
ENDBRANCH  63  80
ENDBRANCH  37  38
ENDBRANCH  29  32
ENDBRANCH  27  28
ENDBRANCH  26  27
ENDBRANCH  25  26
ENDBRANCH   1  25
TORSDOF 17
ENDMDL
MODEL 2
REMARK VINA RESULT:     -11.6      0.314      6.135
REMARK SMILES CC[C@](O)(C(=O)NCCCCCCNC(=O)c1ccc(-c2c3nc(c(-c4c(F)cccc4F)c4ccc([nH]4)c(-c4c(F)cccc4F)c4nc(c(-c5c(F)cccc5F)c5ccc2[nH]5)C=C4)C=C3)cc1)[C@@H](C)c1ccc2c(c1)OCCO2
REMARK SMILES IDX 10 1 9 2 8 3 7 4 5 5 6 6 3 8 2 9 1 10 71 11 72 12 73 13
REMARK SMILES IDX 74 14 78 15 75 16 77 17 76 18 79 19 82 20 80 21 81 22 4 23
REMARK SMILES IDX 11 25 12 26 13 27 14 28 15 29 16 31 17 32 18 33 70 34 19 35
REMARK SMILES IDX 69 36 20 37 21 38 22 39 63 40 23 41 68 42 62 43 64 44 24 45
REMARK SMILES IDX 67 46 61 47 60 48 25 50 51 51 34 52 50 53 35 54 38 55 49 56
REMARK SMILES IDX 65 57 36 58 37 59 48 61 66 62 39 63 26 64 27 65 32 66 28 67
REMARK SMILES IDX 29 68 31 69 33 70 30 71 52 72 53 73 58 74 54 75 55 76 57 77
REMARK SMILES IDX 59 78 56 79 40 80 41 81 46 82 42 83 43 84 45 85 47 86 44 87
REMARK H PARENT 7 7 4 24 14 30 64 49 38 60
REMARK Flexibility Score: inf
ROOT
ATOM      1  C   UNL A   1      37.192  21.874  24.410  1.00  0.00     0.002 C 
ENDROOT
BRANCH   1   2
ATOM      2  C   UNL A   1      36.227  22.709  23.570  1.00  0.00     0.021 C 
BRANCH   2   3
ATOM      3  C   UNL A   1      35.456  23.732  24.397  1.00  0.00     0.116 C 
BRANCH   3   4
ATOM      4  N   UNL A   1      34.214  24.146  23.744  1.00  0.00    -0.354 N 
ATOM      5  C   UNL A   1      32.914  23.988  24.182  1.00  0.00     0.252 C 
ATOM      6  O   UNL A   1      31.999  24.477  23.521  1.00  0.00    -0.272 OA
ATOM      7  H   UNL A   1      34.319  24.599  22.876  1.00  0.00     0.163 HD
BRANCH   5   8
ATOM      8  C   UNL A   1      32.693  23.227  25.518  1.00  0.00     0.149 C 
BRANCH   8   9
ATOM      9  C   UNL A   1      31.146  22.917  25.534  1.00  0.00     0.043 C 
ATOM     10  C   UNL A   1      30.360  22.953  26.842  1.00  0.00     0.007 C 
ENDBRANCH   8   9
BRANCH   8  11
ATOM     11  C   UNL A   1      33.541  21.905  25.695  1.00  0.00     0.058 C 
ATOM     12  C   UNL A   1      33.656  21.475  27.178  1.00  0.00     0.016 C 
BRANCH  11  13
ATOM     13  C   UNL A   1      32.959  20.688  24.946  1.00  0.00    -0.038 A 
ATOM     14  C   UNL A   1      32.638  20.730  23.577  1.00  0.00     0.008 A 
ATOM     15  C   UNL A   1      32.904  19.438  25.568  1.00  0.00     0.054 A 
ATOM     16  C   UNL A   1      32.474  19.537  22.847  1.00  0.00     0.051 A 
ATOM     17  C   UNL A   1      32.699  18.273  24.876  1.00  0.00     0.161 A 
ATOM     18  C   UNL A   1      32.613  18.316  23.500  1.00  0.00     0.161 A 
ATOM     19  O   UNL A   1      32.805  17.121  25.596  1.00  0.00    -0.486 OA
ATOM     20  O   UNL A   1      32.905  17.168  22.800  1.00  0.00    -0.486 OA
ATOM     21  C   UNL A   1      33.645  16.179  24.931  1.00  0.00     0.271 C 
ATOM     22  C   UNL A   1      34.023  16.578  23.501  1.00  0.00     0.271 C 
ENDBRANCH  11  13
ENDBRANCH   8  11
BRANCH   8  23
ATOM     23  O   UNL A   1      33.141  24.190  26.501  1.00  0.00    -0.379 OA
ATOM     24  H   UNL A   1      34.060  23.999  26.745  1.00  0.00     0.212 HD
ENDBRANCH   8  23
ENDBRANCH   5   8
ENDBRANCH   3   4
ENDBRANCH   2   3
ENDBRANCH   1   2
BRANCH   1  25
ATOM     25  C   UNL A   1      36.688  20.462  24.727  1.00  0.00     0.002 C 
BRANCH  25  26
ATOM     26  C   UNL A   1      37.791  19.434  25.000  1.00  0.00     0.021 C 
BRANCH  26  27
ATOM     27  C   UNL A   1      38.991  19.996  25.751  1.00  0.00     0.116 C 
BRANCH  27  28
ATOM     28  N   UNL A   1      40.055  19.011  25.878  1.00  0.00    -0.352 N 
ATOM     29  C   UNL A   1      41.397  19.204  26.057  1.00  0.00     0.251 C 
ATOM     30  H   UNL A   1      39.766  18.071  25.828  1.00  0.00     0.163 HD
ATOM     31  O   UNL A   1      42.182  18.264  25.918  1.00  0.00    -0.269 OA
BRANCH  29  32
ATOM     32  C   UNL A   1      41.906  20.543  26.404  1.00  0.00     0.039 A 
ATOM     33  C   UNL A   1      42.256  21.421  25.376  1.00  0.00     0.014 A 
ATOM     34  C   UNL A   1      42.038  20.931  27.740  1.00  0.00     0.014 A 
ATOM     35  C   UNL A   1      42.688  22.709  25.690  1.00  0.00     0.010 A 
ATOM     36  C   UNL A   1      42.392  22.240  28.048  1.00  0.00     0.010 A 
ATOM     37  C   UNL A   1      42.726  23.141  27.026  1.00  0.00    -0.014 A 
BRANCH  37  38
ATOM     38  C   UNL A   1      43.108  24.532  27.371  1.00  0.00     0.031 A 
ATOM     39  C   UNL A   1      44.549  24.957  27.322  1.00  0.00     0.074 A 
ATOM     40  C   UNL A   1      42.161  25.396  27.785  1.00  0.00     0.049 A 
ATOM     41  N   UNL A   1      45.081  26.110  27.640  1.00  0.00    -0.248 NA
ATOM     42  C   UNL A   1      45.524  23.946  26.885  1.00  0.00     0.031 C 
ATOM     43  C   UNL A   1      40.735  25.089  27.918  1.00  0.00     0.029 A 
ATOM     44  N   UNL A   1      42.256  26.708  28.176  1.00  0.00    -0.354 N 
ATOM     45  C   UNL A   1      46.449  25.960  27.450  1.00  0.00     0.074 A 
ATOM     46  C   UNL A   1      46.672  24.588  27.046  1.00  0.00     0.031 C 
ATOM     47  C   UNL A   1      40.086  26.188  28.335  1.00  0.00     0.029 A 
ATOM     48  C   UNL A   1      41.052  27.262  28.541  1.00  0.00     0.049 A 
ATOM     49  H   UNL A   1      43.106  27.204  28.195  1.00  0.00     0.167 HD
ATOM     50  C   UNL A   1      47.428  26.887  27.575  1.00  0.00     0.037 A 
ATOM     51  C   UNL A   1      40.763  28.495  28.997  1.00  0.00     0.037 A 
ATOM     52  C   UNL A   1      47.199  28.254  27.963  1.00  0.00     0.049 A 
ATOM     53  C   UNL A   1      41.870  29.500  29.149  1.00  0.00     0.074 A 
ATOM     54  C   UNL A   1      48.117  29.286  28.067  1.00  0.00     0.029 A 
ATOM     55  N   UNL A   1      45.966  28.780  28.317  1.00  0.00    -0.354 N 
ATOM     56  N   UNL A   1      43.150  29.365  28.897  1.00  0.00    -0.248 NA
ATOM     57  C   UNL A   1      41.494  30.831  29.645  1.00  0.00     0.031 C 
ATOM     58  C   UNL A   1      47.449  30.419  28.537  1.00  0.00     0.029 A 
ATOM     59  C   UNL A   1      46.104  30.114  28.667  1.00  0.00     0.049 A 
ATOM     60  H   UNL A   1      45.118  28.280  28.320  1.00  0.00     0.167 HD
ATOM     61  C   UNL A   1      43.725  30.599  29.172  1.00  0.00     0.074 A 
ATOM     62  C   UNL A   1      42.651  31.474  29.596  1.00  0.00     0.031 C 
ATOM     63  C   UNL A   1      45.024  30.975  29.080  1.00  0.00     0.037 A 
BRANCH  50  64
ATOM     64  C   UNL A   1      48.837  26.451  27.293  1.00  0.00     0.057 A 
ATOM     65  C   UNL A   1      49.377  26.480  26.000  1.00  0.00     0.134 A 
ATOM     66  C   UNL A   1      49.679  26.033  28.333  1.00  0.00     0.134 A 
ATOM     67  F   UNL A   1      48.623  26.859  24.957  1.00  0.00    -0.206 F 
ATOM     68  C   UNL A   1      50.691  26.081  25.747  1.00  0.00     0.040 A 
ATOM     69  C   UNL A   1      51.004  25.662  28.096  1.00  0.00     0.040 A 
ATOM     70  F   UNL A   1      49.232  25.988  29.597  1.00  0.00    -0.206 F 
ATOM     71  C   UNL A   1      51.511  25.678  26.799  1.00  0.00     0.006 A 
ENDBRANCH  50  64
BRANCH  51  72
ATOM     72  C   UNL A   1      39.360  28.855  29.329  1.00  0.00     0.057 A 
ATOM     73  C   UNL A   1      38.521  29.446  28.376  1.00  0.00     0.134 A 
ATOM     74  C   UNL A   1      38.828  28.631  30.604  1.00  0.00     0.134 A 
ATOM     75  F   UNL A   1      38.977  29.701  27.141  1.00  0.00    -0.206 F 
ATOM     76  C   UNL A   1      37.212  29.822  28.685  1.00  0.00     0.040 A 
ATOM     77  C   UNL A   1      37.513  28.976  30.919  1.00  0.00     0.040 A 
ATOM     78  F   UNL A   1      39.577  28.061  31.560  1.00  0.00    -0.206 F 
ATOM     79  C   UNL A   1      36.704  29.583  29.960  1.00  0.00     0.006 A 
ENDBRANCH  51  72
BRANCH  63  80
ATOM     80  C   UNL A   1      45.352  32.404  29.406  1.00  0.00     0.057 A 
ATOM     81  C   UNL A   1      45.779  32.798  30.680  1.00  0.00     0.134 A 
ATOM     82  C   UNL A   1      45.277  33.393  28.417  1.00  0.00     0.134 A 
ATOM     83  F   UNL A   1      45.861  31.902  31.677  1.00  0.00    -0.206 F 
ATOM     84  C   UNL A   1      46.092  34.128  30.966  1.00  0.00     0.040 A 
ATOM     85  C   UNL A   1      45.617  34.720  28.682  1.00  0.00     0.040 A 
ATOM     86  F   UNL A   1      44.885  33.084  27.172  1.00  0.00    -0.206 F 
ATOM     87  C   UNL A   1      46.020  35.091  29.963  1.00  0.00     0.006 A 
ENDBRANCH  63  80
ENDBRANCH  37  38
ENDBRANCH  29  32
ENDBRANCH  27  28
ENDBRANCH  26  27
ENDBRANCH  25  26
ENDBRANCH   1  25
TORSDOF 17
ENDMDL
MODEL 3
REMARK VINA RESULT:     -11.4      5.612     10.645
REMARK SMILES CC[C@](O)(C(=O)NCCCCCCNC(=O)c1ccc(-c2c3nc(c(-c4c(F)cccc4F)c4ccc([nH]4)c(-c4c(F)cccc4F)c4nc(c(-c5c(F)cccc5F)c5ccc2[nH]5)C=C4)C=C3)cc1)[C@@H](C)c1ccc2c(c1)OCCO2
REMARK SMILES IDX 10 1 9 2 8 3 7 4 5 5 6 6 3 8 2 9 1 10 71 11 72 12 73 13
REMARK SMILES IDX 74 14 78 15 75 16 77 17 76 18 79 19 82 20 80 21 81 22 4 23
REMARK SMILES IDX 11 25 12 26 13 27 14 28 15 29 16 31 17 32 18 33 70 34 19 35
REMARK SMILES IDX 69 36 20 37 21 38 22 39 63 40 23 41 68 42 62 43 64 44 24 45
REMARK SMILES IDX 67 46 61 47 60 48 25 50 51 51 34 52 50 53 35 54 38 55 49 56
REMARK SMILES IDX 65 57 36 58 37 59 48 61 66 62 39 63 26 64 27 65 32 66 28 67
REMARK SMILES IDX 29 68 31 69 33 70 30 71 52 72 53 73 58 74 54 75 55 76 57 77
REMARK SMILES IDX 59 78 56 79 40 80 41 81 46 82 42 83 43 84 45 85 47 86 44 87
REMARK H PARENT 7 7 4 24 14 30 64 49 38 60
REMARK Flexibility Score: inf
ROOT
ATOM      1  C   UNL A   1      32.291  29.517  27.041  1.00  0.00     0.002 C 
ENDROOT
BRANCH   1   2
ATOM      2  C   UNL A   1      31.761  28.085  27.082  1.00  0.00     0.021 C 
BRANCH   2   3
ATOM      3  C   UNL A   1      32.719  27.082  26.449  1.00  0.00     0.116 C 
BRANCH   3   4
ATOM      4  N   UNL A   1      32.034  25.871  26.000  1.00  0.00    -0.354 N 
ATOM      5  C   UNL A   1      31.889  25.387  24.714  1.00  0.00     0.252 C 
ATOM      6  O   UNL A   1      31.338  24.300  24.546  1.00  0.00    -0.272 OA
ATOM      7  H   UNL A   1      31.619  25.327  26.709  1.00  0.00     0.163 HD
BRANCH   5   8
ATOM      8  C   UNL A   1      32.474  26.239  23.555  1.00  0.00     0.149 C 
BRANCH   8   9
ATOM      9  C   UNL A   1      31.876  25.581  22.253  1.00  0.00     0.043 C 
ATOM     10  C   UNL A   1      32.625  25.664  20.926  1.00  0.00     0.007 C 
ENDBRANCH   8   9
BRANCH   8  11
ATOM     11  C   UNL A   1      32.146  27.784  23.616  1.00  0.00     0.058 C 
ATOM     12  C   UNL A   1      33.117  28.625  22.750  1.00  0.00     0.016 C 
BRANCH  11  13
ATOM     13  C   UNL A   1      30.727  28.138  23.124  1.00  0.00    -0.038 A 
ATOM     14  C   UNL A   1      29.584  27.447  23.564  1.00  0.00     0.008 A 
ATOM     15  C   UNL A   1      30.512  29.288  22.359  1.00  0.00     0.054 A 
ATOM     16  C   UNL A   1      28.304  28.013  23.406  1.00  0.00     0.051 A 
ATOM     17  C   UNL A   1      29.268  29.824  22.159  1.00  0.00     0.161 A 
ATOM     18  C   UNL A   1      28.182  29.256  22.791  1.00  0.00     0.161 A 
ATOM     19  O   UNL A   1      29.228  31.019  21.505  1.00  0.00    -0.486 OA
ATOM     20  O   UNL A   1      27.072  30.041  22.998  1.00  0.00    -0.486 OA
ATOM     21  C   UNL A   1      28.405  31.954  22.202  1.00  0.00     0.271 C 
ATOM     22  C   UNL A   1      27.597  31.342  23.351  1.00  0.00     0.271 C 
ENDBRANCH  11  13
ENDBRANCH   8  11
BRANCH   8  23
ATOM     23  O   UNL A   1      33.900  26.069  23.735  1.00  0.00    -0.379 OA
ATOM     24  H   UNL A   1      34.121  25.126  23.695  1.00  0.00     0.212 HD
ENDBRANCH   8  23
ENDBRANCH   5   8
ENDBRANCH   3   4
ENDBRANCH   2   3
ENDBRANCH   1   2
BRANCH   1  25
ATOM     25  C   UNL A   1      31.559  30.429  26.049  1.00  0.00     0.002 C 
BRANCH  25  26
ATOM     26  C   UNL A   1      31.418  31.886  26.502  1.00  0.00     0.021 C 
BRANCH  26  27
ATOM     27  C   UNL A   1      32.639  32.430  27.231  1.00  0.00     0.116 C 
BRANCH  27  28
ATOM     28  N   UNL A   1      32.496  33.847  27.535  1.00  0.00    -0.352 N 
ATOM     29  C   UNL A   1      33.131  34.597  28.485  1.00  0.00     0.251 C 
ATOM     30  H   UNL A   1      31.849  34.334  26.975  1.00  0.00     0.163 HD
ATOM     31  O   UNL A   1      32.726  35.730  28.753  1.00  0.00    -0.269 OA
BRANCH  29  32
ATOM     32  C   UNL A   1      34.296  34.043  29.199  1.00  0.00     0.039 A 
ATOM     33  C   UNL A   1      34.081  33.188  30.283  1.00  0.00     0.014 A 
ATOM     34  C   UNL A   1      35.596  34.368  28.802  1.00  0.00     0.014 A 
ATOM     35  C   UNL A   1      35.174  32.615  30.933  1.00  0.00     0.010 A 
ATOM     36  C   UNL A   1      36.680  33.735  29.401  1.00  0.00     0.010 A 
ATOM     37  C   UNL A   1      36.480  32.855  30.476  1.00  0.00    -0.014 A 
BRANCH  37  38
ATOM     38  C   UNL A   1      37.647  32.193  31.107  1.00  0.00     0.031 A 
ATOM     39  C   UNL A   1      38.379  31.095  30.384  1.00  0.00     0.074 A 
ATOM     40  C   UNL A   1      38.012  32.541  32.356  1.00  0.00     0.049 A 
ATOM     41  N   UNL A   1      39.383  30.364  30.794  1.00  0.00    -0.248 NA
ATOM     42  C   UNL A   1      37.901  30.758  29.035  1.00  0.00     0.031 C 
ATOM     43  C   UNL A   1      37.353  33.558  33.178  1.00  0.00     0.029 A 
ATOM     44  N   UNL A   1      39.023  32.072  33.157  1.00  0.00    -0.354 N 
ATOM     45  C   UNL A   1      39.651  29.477  29.760  1.00  0.00     0.074 A 
ATOM     46  C   UNL A   1      38.667  29.721  28.728  1.00  0.00     0.031 C 
ATOM     47  C   UNL A   1      37.992  33.655  34.354  1.00  0.00     0.029 A 
ATOM     48  C   UNL A   1      39.076  32.679  34.389  1.00  0.00     0.049 A 
ATOM     49  H   UNL A   1      39.650  31.367  32.875  1.00  0.00     0.167 HD
ATOM     50  C   UNL A   1      40.642  28.558  29.667  1.00  0.00     0.037 A 
ATOM     51  C   UNL A   1      39.901  32.465  35.431  1.00  0.00     0.037 A 
ATOM     52  C   UNL A   1      41.628  28.329  30.691  1.00  0.00     0.049 A 
ATOM     53  C   UNL A   1      40.979  31.425  35.312  1.00  0.00     0.074 A 
ATOM     54  C   UNL A   1      42.706  27.461  30.671  1.00  0.00     0.029 A 
ATOM     55  N   UNL A   1      41.654  28.968  31.922  1.00  0.00    -0.354 N 
ATOM     56  N   UNL A   1      41.266  30.642  34.299  1.00  0.00    -0.248 NA
ATOM     57  C   UNL A   1      41.853  31.241  36.478  1.00  0.00     0.031 C 
ATOM     58  C   UNL A   1      43.349  27.533  31.909  1.00  0.00     0.029 A 
ATOM     59  C   UNL A   1      42.711  28.492  32.679  1.00  0.00     0.049 A 
ATOM     60  H   UNL A   1      41.014  29.658  32.213  1.00  0.00     0.167 HD
ATOM     61  C   UNL A   1      42.370  29.897  34.693  1.00  0.00     0.074 A 
ATOM     62  C   UNL A   1      42.710  30.333  36.033  1.00  0.00     0.031 C 
ATOM     63  C   UNL A   1      43.042  28.940  34.008  1.00  0.00     0.037 A 
BRANCH  50  64
ATOM     64  C   UNL A   1      40.707  27.731  28.415  1.00  0.00     0.057 A 
ATOM     65  C   UNL A   1      40.029  26.510  28.298  1.00  0.00     0.134 A 
ATOM     66  C   UNL A   1      41.424  28.179  27.297  1.00  0.00     0.134 A 
ATOM     67  F   UNL A   1      39.333  26.016  29.334  1.00  0.00    -0.206 F 
ATOM     68  C   UNL A   1      40.087  25.751  27.128  1.00  0.00     0.040 A 
ATOM     69  C   UNL A   1      41.462  27.444  26.111  1.00  0.00     0.040 A 
ATOM     70  F   UNL A   1      42.089  29.343  27.336  1.00  0.00    -0.206 F 
ATOM     71  C   UNL A   1      40.799  26.222  26.027  1.00  0.00     0.006 A 
ENDBRANCH  50  64
BRANCH  51  72
ATOM     72  C   UNL A   1      39.750  33.264  36.674  1.00  0.00     0.057 A 
ATOM     73  C   UNL A   1      38.860  32.872  37.682  1.00  0.00     0.134 A 
ATOM     74  C   UNL A   1      40.480  34.441  36.883  1.00  0.00     0.134 A 
ATOM     75  F   UNL A   1      38.121  31.763  37.535  1.00  0.00    -0.206 F 
ATOM     76  C   UNL A   1      38.682  33.633  38.839  1.00  0.00     0.040 A 
ATOM     77  C   UNL A   1      40.334  35.196  38.047  1.00  0.00     0.040 A 
ATOM     78  F   UNL A   1      41.356  34.866  35.960  1.00  0.00    -0.206 F 
ATOM     79  C   UNL A   1      39.425  34.797  39.025  1.00  0.00     0.006 A 
ENDBRANCH  51  72
BRANCH  63  80
ATOM     80  C   UNL A   1      44.239  28.327  34.678  1.00  0.00     0.057 A 
ATOM     81  C   UNL A   1      45.515  28.896  34.588  1.00  0.00     0.134 A 
ATOM     82  C   UNL A   1      44.102  27.170  35.456  1.00  0.00     0.134 A 
ATOM     83  F   UNL A   1      45.718  29.998  33.848  1.00  0.00    -0.206 F 
ATOM     84  C   UNL A   1      46.616  28.322  35.226  1.00  0.00     0.040 A 
ATOM     85  C   UNL A   1      45.189  26.605  36.124  1.00  0.00     0.040 A 
ATOM     86  F   UNL A   1      42.905  26.578  35.593  1.00  0.00    -0.206 F 
ATOM     87  C   UNL A   1      46.452  27.178  36.003  1.00  0.00     0.006 A 
ENDBRANCH  63  80
ENDBRANCH  37  38
ENDBRANCH  29  32
ENDBRANCH  27  28
ENDBRANCH  26  27
ENDBRANCH  25  26
ENDBRANCH   1  25
TORSDOF 17
ENDMDL
