MODEL 1
REMARK VINA RESULT:     -11.5      0.000      0.000
REMARK SMILES CC(C)(CC(=O)NCCCCCCNC(=O)c1ccc(-c2c3nc(c(-c4c(F)cccc4F)c4ccc([nH]4)c(-c4c(F)cccc4F)c4nc(c(-c5c(F)cccc5F)c5ccc2[nH]5)C=C4)C=C3)cc1)Cc1nc([C@@]2(C)CCCO2)no1
REMARK SMILES IDX 9 1 8 2 7 3 5 4 6 5 4 7 2 8 1 9 3 10 71 11 72 12 73 13 82 14
REMARK SMILES IDX 74 15 81 16 75 17 76 18 77 19 80 20 78 21 79 22 10 23 11 24
REMARK SMILES IDX 12 25 13 26 14 27 15 28 16 30 17 31 18 32 70 33 19 34 69 35
REMARK SMILES IDX 20 36 21 37 22 38 63 39 23 40 68 41 62 42 64 43 24 44 67 45
REMARK SMILES IDX 61 46 60 47 25 49 51 50 34 51 50 52 35 53 38 54 49 55 65 56
REMARK SMILES IDX 36 57 37 58 48 60 66 61 39 62 26 63 27 64 32 65 28 66 29 67
REMARK SMILES IDX 31 68 33 69 30 70 52 71 53 72 58 73 54 74 55 75 57 76 59 77
REMARK SMILES IDX 56 78 40 79 41 80 46 81 42 82 43 83 45 84 47 85 44 86
REMARK H PARENT 7 6 14 29 64 48 38 59
REMARK Flexibility Score: inf
ROOT
ATOM      1  C   UNL A   1      32.965  28.758  26.958  1.00  0.00     0.021 C 
ENDROOT
BRANCH   1   2
ATOM      2  C   UNL A   1      32.050  27.814  27.736  1.00  0.00     0.116 C 
BRANCH   2   3
ATOM      3  N   UNL A   1      31.017  27.241  26.902  1.00  0.00    -0.356 N 
ATOM      4  C   UNL A   1      31.055  26.160  26.082  1.00  0.00     0.220 C 
ATOM      5  O   UNL A   1      30.042  25.858  25.447  1.00  0.00    -0.275 OA
ATOM      6  H   UNL A   1      30.152  27.708  26.934  1.00  0.00     0.163 HD
BRANCH   4   7
ATOM      7  C   UNL A   1      32.291  25.291  26.004  1.00  0.00     0.107 C 
BRANCH   7   8
ATOM      8  C   UNL A   1      33.276  25.416  24.810  1.00  0.00    -0.018 C 
ATOM      9  C   UNL A   1      34.679  24.844  25.085  1.00  0.00     0.012 C 
ATOM     10  C   UNL A   1      32.692  24.441  23.730  1.00  0.00     0.012 C 
BRANCH   8  11
ATOM     11  C   UNL A   1      33.352  26.814  24.137  1.00  0.00     0.107 C 
BRANCH  11  12
ATOM     12  C   UNL A   1      32.186  27.496  23.480  1.00  0.00     0.227 A 
ATOM     13  N   UNL A   1      31.423  28.539  23.752  1.00  0.00    -0.193 NA
ATOM     14  O   UNL A   1      31.776  26.844  22.346  1.00  0.00    -0.339 OA
ATOM     15  C   UNL A   1      30.410  28.437  22.802  1.00  0.00     0.203 A 
ATOM     16  N   UNL A   1      30.631  27.473  21.895  1.00  0.00    -0.059 NA
BRANCH  15  17
ATOM     17  C   UNL A   1      29.170  29.319  22.697  1.00  0.00     0.128 C 
ATOM     18  C   UNL A   1      27.836  28.599  22.966  1.00  0.00     0.051 C 
ATOM     19  C   UNL A   1      29.319  30.577  23.564  1.00  0.00     0.046 C 
ATOM     20  O   UNL A   1      29.012  29.864  21.350  1.00  0.00    -0.367 OA
ATOM     21  C   UNL A   1      28.394  31.570  22.902  1.00  0.00     0.032 C 
ATOM     22  C   UNL A   1      28.478  31.192  21.438  1.00  0.00     0.161 C 
ENDBRANCH  15  17
ENDBRANCH  11  12
ENDBRANCH   8  11
ENDBRANCH   7   8
ENDBRANCH   4   7
ENDBRANCH   2   3
ENDBRANCH   1   2
BRANCH   1  23
ATOM     23  C   UNL A   1      32.734  30.239  27.211  1.00  0.00     0.002 C 
BRANCH  23  24
ATOM     24  C   UNL A   1      31.554  30.854  26.476  1.00  0.00     0.002 C 
BRANCH  24  25
ATOM     25  C   UNL A   1      31.478  32.372  26.618  1.00  0.00     0.021 C 
BRANCH  25  26
ATOM     26  C   UNL A   1      32.680  32.984  27.328  1.00  0.00     0.116 C 
BRANCH  26  27
ATOM     27  N   UNL A   1      32.437  34.371  27.696  1.00  0.00    -0.352 N 
ATOM     28  C   UNL A   1      33.017  35.100  28.700  1.00  0.00     0.251 C 
ATOM     29  H   UNL A   1      31.769  34.847  27.152  1.00  0.00     0.163 HD
ATOM     30  O   UNL A   1      32.540  36.176  29.053  1.00  0.00    -0.269 OA
BRANCH  28  31
ATOM     31  C   UNL A   1      34.218  34.564  29.365  1.00  0.00     0.039 A 
ATOM     32  C   UNL A   1      34.076  33.862  30.561  1.00  0.00     0.014 A 
ATOM     33  C   UNL A   1      35.478  34.731  28.779  1.00  0.00     0.014 A 
ATOM     34  C   UNL A   1      35.199  33.278  31.146  1.00  0.00     0.010 A 
ATOM     35  C   UNL A   1      36.580  34.079  29.321  1.00  0.00     0.010 A 
ATOM     36  C   UNL A   1      36.452  33.352  30.513  1.00  0.00    -0.014 A 
BRANCH  36  37
ATOM     37  C   UNL A   1      37.631  32.658  31.084  1.00  0.00     0.031 A 
ATOM     38  C   UNL A   1      38.240  33.129  32.374  1.00  0.00     0.074 A 
ATOM     39  C   UNL A   1      38.176  31.624  30.414  1.00  0.00     0.049 A 
ATOM     40  N   UNL A   1      39.270  32.649  33.024  1.00  0.00    -0.248 NA
ATOM     41  C   UNL A   1      37.630  34.310  33.005  1.00  0.00     0.031 C 
ATOM     42  C   UNL A   1      37.708  31.113  29.124  1.00  0.00     0.029 A 
ATOM     43  N   UNL A   1      39.239  30.816  30.725  1.00  0.00    -0.354 N 
ATOM     44  C   UNL A   1      39.430  33.468  34.135  1.00  0.00     0.074 A 
ATOM     45  C   UNL A   1      38.435  34.512  34.038  1.00  0.00     0.031 C 
ATOM     46  C   UNL A   1      38.458  30.055  28.772  1.00  0.00     0.029 A 
ATOM     47  C   UNL A   1      39.480  29.839  29.790  1.00  0.00     0.049 A 
ATOM     48  H   UNL A   1      39.779  30.926  31.541  1.00  0.00     0.167 HD
ATOM     49  C   UNL A   1      40.310  33.343  35.156  1.00  0.00     0.037 A 
ATOM     50  C   UNL A   1      40.420  28.876  29.758  1.00  0.00     0.037 A 
ATOM     51  C   UNL A   1      41.292  32.295  35.252  1.00  0.00     0.049 A 
ATOM     52  C   UNL A   1      41.394  28.769  30.898  1.00  0.00     0.074 A 
ATOM     53  C   UNL A   1      42.193  32.047  36.273  1.00  0.00     0.029 A 
ATOM     54  N   UNL A   1      41.509  31.324  34.285  1.00  0.00    -0.354 N 
ATOM     55  N   UNL A   1      41.482  29.501  31.982  1.00  0.00    -0.248 NA
ATOM     56  C   UNL A   1      42.392  27.696  30.813  1.00  0.00     0.031 C 
ATOM     57  C   UNL A   1      42.992  30.961  35.898  1.00  0.00     0.029 A 
ATOM     58  C   UNL A   1      42.549  30.494  34.672  1.00  0.00     0.049 A 
ATOM     59  H   UNL A   1      40.998  31.237  33.447  1.00  0.00     0.167 HD
ATOM     60  C   UNL A   1      42.530  28.963  32.720  1.00  0.00     0.074 A 
ATOM     61  C   UNL A   1      43.026  27.827  31.970  1.00  0.00     0.031 C 
ATOM     62  C   UNL A   1      43.037  29.372  33.910  1.00  0.00     0.037 A 
BRANCH  49  63
ATOM     63  C   UNL A   1      40.248  34.369  36.253  1.00  0.00     0.057 A 
ATOM     64  C   UNL A   1      41.010  35.544  36.212  1.00  0.00     0.134 A 
ATOM     65  C   UNL A   1      39.391  34.195  37.347  1.00  0.00     0.134 A 
ATOM     66  F   UNL A   1      41.861  35.769  35.199  1.00  0.00    -0.206 F 
ATOM     67  C   UNL A   1      40.943  36.496  37.232  1.00  0.00     0.040 A 
ATOM     68  C   UNL A   1      39.292  35.154  38.358  1.00  0.00     0.040 A 
ATOM     69  F   UNL A   1      38.628  33.096  37.449  1.00  0.00    -0.206 F 
ATOM     70  C   UNL A   1      40.076  36.305  38.304  1.00  0.00     0.006 A 
ENDBRANCH  49  63
BRANCH  50  71
ATOM     71  C   UNL A   1      40.474  27.925  28.619  1.00  0.00     0.057 A 
ATOM     72  C   UNL A   1      41.208  28.220  27.464  1.00  0.00     0.134 A 
ATOM     73  C   UNL A   1      39.788  26.704  28.652  1.00  0.00     0.134 A 
ATOM     74  F   UNL A   1      41.873  29.380  27.365  1.00  0.00    -0.206 F 
ATOM     75  C   UNL A   1      41.236  27.349  26.373  1.00  0.00     0.040 A 
ATOM     76  C   UNL A   1      39.831  25.811  27.581  1.00  0.00     0.040 A 
ATOM     77  F   UNL A   1      39.075  26.357  29.734  1.00  0.00    -0.206 F 
ATOM     78  C   UNL A   1      40.550  26.137  26.432  1.00  0.00     0.006 A 
ENDBRANCH  50  71
BRANCH  62  79
ATOM     79  C   UNL A   1      44.174  28.571  34.477  1.00  0.00     0.057 A 
ATOM     80  C   UNL A   1      43.958  27.447  35.287  1.00  0.00     0.134 A 
ATOM     81  C   UNL A   1      45.502  28.920  34.198  1.00  0.00     0.134 A 
ATOM     82  F   UNL A   1      42.710  27.067  35.603  1.00  0.00    -0.206 F 
ATOM     83  C   UNL A   1      45.021  26.722  35.827  1.00  0.00     0.040 A 
ATOM     84  C   UNL A   1      46.572  28.183  34.706  1.00  0.00     0.040 A 
ATOM     85  F   UNL A   1      45.781  29.976  33.421  1.00  0.00    -0.206 F 
ATOM     86  C   UNL A   1      46.333  27.087  35.532  1.00  0.00     0.006 A 
ENDBRANCH  62  79
ENDBRANCH  36  37
ENDBRANCH  28  31
ENDBRANCH  26  27
ENDBRANCH  25  26
ENDBRANCH  24  25
ENDBRANCH  23  24
ENDBRANCH   1  23
TORSDOF 17
ENDMDL
MODEL 2
REMARK VINA RESULT:     -11.4      4.024      6.489
REMARK SMILES CC(C)(CC(=O)NCCCCCCNC(=O)c1ccc(-c2c3nc(c(-c4c(F)cccc4F)c4ccc([nH]4)c(-c4c(F)cccc4F)c4nc(c(-c5c(F)cccc5F)c5ccc2[nH]5)C=C4)C=C3)cc1)Cc1nc([C@@]2(C)CCCO2)no1
REMARK SMILES IDX 9 1 8 2 7 3 5 4 6 5 4 7 2 8 1 9 3 10 71 11 72 12 73 13 82 14
REMARK SMILES IDX 74 15 81 16 75 17 76 18 77 19 80 20 78 21 79 22 10 23 11 24
REMARK SMILES IDX 12 25 13 26 14 27 15 28 16 30 17 31 18 32 70 33 19 34 69 35
REMARK SMILES IDX 20 36 21 37 22 38 63 39 23 40 68 41 62 42 64 43 24 44 67 45
REMARK SMILES IDX 61 46 60 47 25 49 51 50 34 51 50 52 35 53 38 54 49 55 65 56
REMARK SMILES IDX 36 57 37 58 48 60 66 61 39 62 26 63 27 64 32 65 28 66 29 67
REMARK SMILES IDX 31 68 33 69 30 70 52 71 53 72 58 73 54 74 55 75 57 76 59 77
REMARK SMILES IDX 56 78 40 79 41 80 46 81 42 82 43 83 45 84 47 85 44 86
REMARK H PARENT 7 6 14 29 64 48 38 59
REMARK Flexibility Score: inf
ROOT
ATOM      1  C   UNL A   1      31.366  28.721  23.139  1.00  0.00     0.021 C 
ENDROOT
BRANCH   1   2
ATOM      2  C   UNL A   1      30.937  27.264  22.975  1.00  0.00     0.116 C 
BRANCH   2   3
ATOM      3  N   UNL A   1      31.656  26.597  21.914  1.00  0.00    -0.356 N 
ATOM      4  C   UNL A   1      32.885  26.019  21.918  1.00  0.00     0.220 C 
ATOM      5  O   UNL A   1      33.310  25.513  20.877  1.00  0.00    -0.275 OA
ATOM      6  H   UNL A   1      31.181  26.555  21.053  1.00  0.00     0.163 HD
BRANCH   4   7
ATOM      7  C   UNL A   1      33.690  25.926  23.195  1.00  0.00     0.107 C 
BRANCH   7   8
ATOM      8  C   UNL A   1      33.849  24.571  23.937  1.00  0.00    -0.018 C 
ATOM      9  C   UNL A   1      34.977  23.677  23.387  1.00  0.00     0.012 C 
ATOM     10  C   UNL A   1      34.369  24.974  25.360  1.00  0.00     0.012 C 
BRANCH   8  11
ATOM     11  C   UNL A   1      32.543  23.763  24.164  1.00  0.00     0.107 C 
BRANCH  11  12
ATOM     12  C   UNL A   1      32.411  22.288  23.913  1.00  0.00     0.227 A 
ATOM     13  N   UNL A   1      32.638  21.186  24.605  1.00  0.00    -0.193 NA
ATOM     14  O   UNL A   1      32.010  22.014  22.631  1.00  0.00    -0.339 OA
ATOM     15  C   UNL A   1      32.493  20.184  23.649  1.00  0.00     0.203 A 
ATOM     16  N   UNL A   1      32.044  20.641  22.469  1.00  0.00    -0.059 NA
BRANCH  15  17
ATOM     17  C   UNL A   1      32.746  18.694  23.847  1.00  0.00     0.128 C 
ATOM     18  C   UNL A   1      32.344  17.803  22.658  1.00  0.00     0.051 C 
ATOM     19  C   UNL A   1      34.196  18.438  24.280  1.00  0.00     0.046 C 
ATOM     20  O   UNL A   1      31.970  18.161  24.965  1.00  0.00    -0.367 OA
ATOM     21  C   UNL A   1      34.118  17.119  25.010  1.00  0.00     0.032 C 
ATOM     22  C   UNL A   1      32.742  17.159  25.641  1.00  0.00     0.161 C 
ENDBRANCH  15  17
ENDBRANCH  11  12
ENDBRANCH   8  11
ENDBRANCH   7   8
ENDBRANCH   4   7
ENDBRANCH   2   3
ENDBRANCH   1   2
BRANCH   1  23
ATOM     23  C   UNL A   1      31.127  29.316  24.518  1.00  0.00     0.002 C 
BRANCH  23  24
ATOM     24  C   UNL A   1      32.373  29.555  25.355  1.00  0.00     0.002 C 
BRANCH  24  25
ATOM     25  C   UNL A   1      32.910  28.288  26.016  1.00  0.00     0.021 C 
BRANCH  25  26
ATOM     26  C   UNL A   1      33.773  28.555  27.244  1.00  0.00     0.116 C 
BRANCH  26  27
ATOM     27  N   UNL A   1      33.719  29.952  27.646  1.00  0.00    -0.352 N 
ATOM     28  C   UNL A   1      34.656  30.679  28.330  1.00  0.00     0.251 C 
ATOM     29  H   UNL A   1      32.901  30.439  27.392  1.00  0.00     0.163 HD
ATOM     30  O   UNL A   1      34.374  31.772  28.815  1.00  0.00    -0.269 OA
BRANCH  28  31
ATOM     31  C   UNL A   1      36.011  30.121  28.489  1.00  0.00     0.039 A 
ATOM     32  C   UNL A   1      36.902  30.187  27.418  1.00  0.00     0.014 A 
ATOM     33  C   UNL A   1      36.402  29.565  29.711  1.00  0.00     0.014 A 
ATOM     34  C   UNL A   1      38.211  29.741  27.593  1.00  0.00     0.010 A 
ATOM     35  C   UNL A   1      37.729  29.197  29.907  1.00  0.00     0.010 A 
ATOM     36  C   UNL A   1      38.644  29.276  28.848  1.00  0.00    -0.014 A 
BRANCH  36  37
ATOM     37  C   UNL A   1      40.058  28.884  29.063  1.00  0.00     0.031 A 
ATOM     38  C   UNL A   1      41.014  29.825  29.739  1.00  0.00     0.074 A 
ATOM     39  C   UNL A   1      40.487  27.690  28.610  1.00  0.00     0.049 A 
ATOM     40  N   UNL A   1      42.282  29.656  30.013  1.00  0.00    -0.248 NA
ATOM     41  C   UNL A   1      40.483  31.139  30.138  1.00  0.00     0.031 C 
ATOM     42  C   UNL A   1      39.666  26.716  27.887  1.00  0.00     0.029 A 
ATOM     43  N   UNL A   1      41.718  27.091  28.691  1.00  0.00    -0.354 N 
ATOM     44  C   UNL A   1      42.700  30.839  30.612  1.00  0.00     0.074 A 
ATOM     45  C   UNL A   1      41.569  31.739  30.604  1.00  0.00     0.031 C 
ATOM     46  C   UNL A   1      40.406  25.627  27.624  1.00  0.00     0.029 A 
ATOM     47  C   UNL A   1      41.760  25.841  28.124  1.00  0.00     0.049 A 
ATOM     48  H   UNL A   1      42.497  27.517  29.117  1.00  0.00     0.167 HD
ATOM     49  C   UNL A   1      43.909  31.135  31.144  1.00  0.00     0.037 A 
ATOM     50  C   UNL A   1      42.777  24.966  28.020  1.00  0.00     0.037 A 
ATOM     51  C   UNL A   1      45.028  30.230  31.159  1.00  0.00     0.049 A 
ATOM     52  C   UNL A   1      44.113  25.325  28.607  1.00  0.00     0.074 A 
ATOM     53  C   UNL A   1      46.279  30.412  31.723  1.00  0.00     0.029 A 
ATOM     54  N   UNL A   1      45.036  28.972  30.572  1.00  0.00    -0.354 N 
ATOM     55  N   UNL A   1      44.471  26.415  29.243  1.00  0.00    -0.248 NA
ATOM     56  C   UNL A   1      45.183  24.329  28.470  1.00  0.00     0.031 C 
ATOM     57  C   UNL A   1      47.060  29.289  31.429  1.00  0.00     0.029 A 
ATOM     58  C   UNL A   1      46.278  28.381  30.735  1.00  0.00     0.049 A 
ATOM     59  H   UNL A   1      44.270  28.560  30.109  1.00  0.00     0.167 HD
ATOM     60  C   UNL A   1      45.800  26.226  29.602  1.00  0.00     0.074 A 
ATOM     61  C   UNL A   1      46.173  24.907  29.136  1.00  0.00     0.031 C 
ATOM     62  C   UNL A   1      46.637  27.069  30.257  1.00  0.00     0.037 A 
BRANCH  49  63
ATOM     63  C   UNL A   1      44.081  32.496  31.758  1.00  0.00     0.057 A 
ATOM     64  C   UNL A   1      43.813  32.737  33.112  1.00  0.00     0.134 A 
ATOM     65  C   UNL A   1      44.552  33.571  30.994  1.00  0.00     0.134 A 
ATOM     66  F   UNL A   1      43.347  31.755  33.899  1.00  0.00    -0.206 F 
ATOM     67  C   UNL A   1      43.981  34.003  33.677  1.00  0.00     0.040 A 
ATOM     68  C   UNL A   1      44.754  34.834  31.555  1.00  0.00     0.040 A 
ATOM     69  F   UNL A   1      44.835  33.411  29.692  1.00  0.00    -0.206 F 
ATOM     70  C   UNL A   1      44.460  35.053  32.898  1.00  0.00     0.006 A 
ENDBRANCH  49  63
BRANCH  50  71
ATOM     71  C   UNL A   1      42.568  23.656  27.350  1.00  0.00     0.057 A 
ATOM     72  C   UNL A   1      42.170  22.528  28.077  1.00  0.00     0.134 A 
ATOM     73  C   UNL A   1      42.769  23.498  25.973  1.00  0.00     0.134 A 
ATOM     74  F   UNL A   1      41.977  22.611  29.401  1.00  0.00    -0.206 F 
ATOM     75  C   UNL A   1      42.004  21.284  27.464  1.00  0.00     0.040 A 
ATOM     76  C   UNL A   1      42.579  22.268  25.343  1.00  0.00     0.040 A 
ATOM     77  F   UNL A   1      43.140  24.543  25.219  1.00  0.00    -0.206 F 
ATOM     78  C   UNL A   1      42.205  21.153  26.091  1.00  0.00     0.006 A 
ENDBRANCH  50  71
BRANCH  62  79
ATOM     79  C   UNL A   1      48.030  26.575  30.522  1.00  0.00     0.057 A 
ATOM     80  C   UNL A   1      49.091  26.840  29.645  1.00  0.00     0.134 A 
ATOM     81  C   UNL A   1      48.317  25.835  31.677  1.00  0.00     0.134 A 
ATOM     82  F   UNL A   1      48.881  27.531  28.514  1.00  0.00    -0.206 F 
ATOM     83  C   UNL A   1      50.377  26.357  29.889  1.00  0.00     0.040 A 
ATOM     84  C   UNL A   1      49.606  25.376  31.948  1.00  0.00     0.040 A 
ATOM     85  F   UNL A   1      47.352  25.555  32.565  1.00  0.00    -0.206 F 
ATOM     86  C   UNL A   1      50.639  25.627  31.047  1.00  0.00     0.006 A 
ENDBRANCH  62  79
ENDBRANCH  36  37
ENDBRANCH  28  31
ENDBRANCH  26  27
ENDBRANCH  25  26
ENDBRANCH  24  25
ENDBRANCH  23  24
ENDBRANCH   1  23
TORSDOF 17
ENDMDL
MODEL 3
REMARK VINA RESULT:     -11.4      0.418      6.214
REMARK SMILES CC(C)(CC(=O)NCCCCCCNC(=O)c1ccc(-c2c3nc(c(-c4c(F)cccc4F)c4ccc([nH]4)c(-c4c(F)cccc4F)c4nc(c(-c5c(F)cccc5F)c5ccc2[nH]5)C=C4)C=C3)cc1)Cc1nc([C@@]2(C)CCCO2)no1
REMARK SMILES IDX 9 1 8 2 7 3 5 4 6 5 4 7 2 8 1 9 3 10 71 11 72 12 73 13 82 14
REMARK SMILES IDX 74 15 81 16 75 17 76 18 77 19 80 20 78 21 79 22 10 23 11 24
REMARK SMILES IDX 12 25 13 26 14 27 15 28 16 30 17 31 18 32 70 33 19 34 69 35
REMARK SMILES IDX 20 36 21 37 22 38 63 39 23 40 68 41 62 42 64 43 24 44 67 45
REMARK SMILES IDX 61 46 60 47 25 49 51 50 34 51 50 52 35 53 38 54 49 55 65 56
REMARK SMILES IDX 36 57 37 58 48 60 66 61 39 62 26 63 27 64 32 65 28 66 29 67
REMARK SMILES IDX 31 68 33 69 30 70 52 71 53 72 58 73 54 74 55 75 57 76 59 77
REMARK SMILES IDX 56 78 40 79 41 80 46 81 42 82 43 83 45 84 47 85 44 86
REMARK H PARENT 7 6 14 29 64 48 38 59
REMARK Flexibility Score: inf
ROOT
ATOM      1  C   UNL A   1      32.992  28.735  26.905  1.00  0.00     0.021 C 
ENDROOT
BRANCH   1   2
ATOM      2  C   UNL A   1      32.179  27.765  27.761  1.00  0.00     0.116 C 
BRANCH   2   3
ATOM      3  N   UNL A   1      31.085  27.170  27.028  1.00  0.00    -0.356 N 
ATOM      4  C   UNL A   1      31.065  26.079  26.219  1.00  0.00     0.220 C 
ATOM      5  O   UNL A   1      30.005  25.759  25.677  1.00  0.00    -0.275 OA
ATOM      6  H   UNL A   1      30.220  27.627  27.130  1.00  0.00     0.163 HD
BRANCH   4   7
ATOM      7  C   UNL A   1      32.301  25.225  26.043  1.00  0.00     0.107 C 
BRANCH   7   8
ATOM      8  C   UNL A   1      33.165  25.333  24.758  1.00  0.00    -0.018 C 
ATOM      9  C   UNL A   1      34.547  24.660  24.866  1.00  0.00     0.012 C 
ATOM     10  C   UNL A   1      32.409  24.440  23.714  1.00  0.00     0.012 C 
BRANCH   8  11
ATOM     11  C   UNL A   1      33.268  26.747  24.126  1.00  0.00     0.107 C 
BRANCH  11  12
ATOM     12  C   UNL A   1      32.114  27.471  23.492  1.00  0.00     0.227 A 
ATOM     13  N   UNL A   1      31.249  28.393  23.876  1.00  0.00    -0.193 NA
ATOM     14  O   UNL A   1      31.859  27.027  22.220  1.00  0.00    -0.339 OA
ATOM     15  C   UNL A   1      30.335  28.416  22.825  1.00  0.00     0.203 A 
ATOM     16  N   UNL A   1      30.712  27.662  21.781  1.00  0.00    -0.059 NA
BRANCH  15  17
ATOM     17  C   UNL A   1      29.044  29.224  22.761  1.00  0.00     0.128 C 
ATOM     18  C   UNL A   1      27.772  28.449  23.151  1.00  0.00     0.051 C 
ATOM     19  C   UNL A   1      29.176  30.530  23.556  1.00  0.00     0.046 C 
ATOM     20  O   UNL A   1      28.770  29.691  21.403  1.00  0.00    -0.367 OA
ATOM     21  C   UNL A   1      28.157  31.438  22.910  1.00  0.00     0.032 C 
ATOM     22  C   UNL A   1      28.169  30.992  21.463  1.00  0.00     0.161 C 
ENDBRANCH  15  17
ENDBRANCH  11  12
ENDBRANCH   8  11
ENDBRANCH   7   8
ENDBRANCH   4   7
ENDBRANCH   2   3
ENDBRANCH   1   2
BRANCH   1  23
ATOM     23  C   UNL A   1      32.748  30.209  27.188  1.00  0.00     0.002 C 
BRANCH  23  24
ATOM     24  C   UNL A   1      31.507  30.804  26.542  1.00  0.00     0.002 C 
BRANCH  24  25
ATOM     25  C   UNL A   1      31.456  32.327  26.619  1.00  0.00     0.021 C 
BRANCH  25  26
ATOM     26  C   UNL A   1      32.620  32.943  27.387  1.00  0.00     0.116 C 
BRANCH  26  27
ATOM     27  N   UNL A   1      32.406  34.359  27.643  1.00  0.00    -0.352 N 
ATOM     28  C   UNL A   1      32.982  35.149  28.601  1.00  0.00     0.251 C 
ATOM     29  H   UNL A   1      31.763  34.809  27.047  1.00  0.00     0.163 HD
ATOM     30  O   UNL A   1      32.526  36.260  28.859  1.00  0.00    -0.269 OA
BRANCH  28  31
ATOM     31  C   UNL A   1      34.154  34.636  29.334  1.00  0.00     0.039 A 
ATOM     32  C   UNL A   1      33.975  34.091  30.605  1.00  0.00     0.014 A 
ATOM     33  C   UNL A   1      35.421  34.668  28.741  1.00  0.00     0.014 A 
ATOM     34  C   UNL A   1      35.066  33.525  31.263  1.00  0.00     0.010 A 
ATOM     35  C   UNL A   1      36.488  34.031  29.364  1.00  0.00     0.010 A 
ATOM     36  C   UNL A   1      36.322  33.459  30.634  1.00  0.00    -0.014 A 
BRANCH  36  37
ATOM     37  C   UNL A   1      37.464  32.780  31.293  1.00  0.00     0.031 A 
ATOM     38  C   UNL A   1      38.106  31.581  30.655  1.00  0.00     0.074 A 
ATOM     39  C   UNL A   1      37.893  33.224  32.490  1.00  0.00     0.049 A 
ATOM     40  N   UNL A   1      39.110  30.859  31.082  1.00  0.00    -0.248 NA
ATOM     41  C   UNL A   1      37.530  31.115  29.384  1.00  0.00     0.031 C 
ATOM     42  C   UNL A   1      37.311  34.343  33.235  1.00  0.00     0.029 A 
ATOM     43  N   UNL A   1      38.920  32.792  33.289  1.00  0.00    -0.354 N 
ATOM     44  C   UNL A   1      39.284  29.856  30.135  1.00  0.00     0.074 A 
ATOM     45  C   UNL A   1      38.243  30.023  29.147  1.00  0.00     0.031 C 
ATOM     46  C   UNL A   1      38.013  34.531  34.364  1.00  0.00     0.029 A 
ATOM     47  C   UNL A   1      39.067  33.525  34.441  1.00  0.00     0.049 A 
ATOM     48  H   UNL A   1      39.497  32.028  33.059  1.00  0.00     0.167 HD
ATOM     49  C   UNL A   1      40.242  28.900  30.083  1.00  0.00     0.037 A 
ATOM     50  C   UNL A   1      39.952  33.400  35.447  1.00  0.00     0.037 A 
ATOM     51  C   UNL A   1      41.283  28.746  31.066  1.00  0.00     0.049 A 
ATOM     52  C   UNL A   1      40.997  32.322  35.370  1.00  0.00     0.074 A 
ATOM     53  C   UNL A   1      42.333  27.845  31.075  1.00  0.00     0.029 A 
ATOM     54  N   UNL A   1      41.398  29.505  32.221  1.00  0.00    -0.354 N 
ATOM     55  N   UNL A   1      41.199  31.432  34.429  1.00  0.00    -0.248 NA
ATOM     56  C   UNL A   1      41.941  32.237  36.492  1.00  0.00     0.031 C 
ATOM     57  C   UNL A   1      43.051  28.023  32.263  1.00  0.00     0.029 A 
ATOM     58  C   UNL A   1      42.485  29.074  32.964  1.00  0.00     0.049 A 
ATOM     59  H   UNL A   1      40.797  30.243  32.475  1.00  0.00     0.167 HD
ATOM     60  C   UNL A   1      42.307  30.697  34.833  1.00  0.00     0.074 A 
ATOM     61  C   UNL A   1      42.746  31.265  36.091  1.00  0.00     0.031 C 
ATOM     62  C   UNL A   1      42.905  29.645  34.219  1.00  0.00     0.037 A 
BRANCH  49  63
ATOM     63  C   UNL A   1      40.207  27.948  28.921  1.00  0.00     0.057 A 
ATOM     64  C   UNL A   1      40.885  28.216  27.724  1.00  0.00     0.134 A 
ATOM     65  C   UNL A   1      39.515  26.734  29.011  1.00  0.00     0.134 A 
ATOM     66  F   UNL A   1      41.558  29.366  27.565  1.00  0.00    -0.206 F 
ATOM     67  C   UNL A   1      40.854  27.324  26.650  1.00  0.00     0.040 A 
ATOM     68  C   UNL A   1      39.502  25.820  27.955  1.00  0.00     0.040 A 
ATOM     69  F   UNL A   1      38.848  26.410  30.129  1.00  0.00    -0.206 F 
ATOM     70  C   UNL A   1      40.167  26.118  26.768  1.00  0.00     0.006 A 
ENDBRANCH  49  63
BRANCH  50  71
ATOM     71  C   UNL A   1      39.905  34.333  36.602  1.00  0.00     0.057 A 
ATOM     72  C   UNL A   1      39.175  34.020  37.755  1.00  0.00     0.134 A 
ATOM     73  C   UNL A   1      40.577  35.561  36.580  1.00  0.00     0.134 A 
ATOM     74  F   UNL A   1      38.495  32.866  37.831  1.00  0.00    -0.206 F 
ATOM     75  C   UNL A   1      39.094  34.904  38.832  1.00  0.00     0.040 A 
ATOM     76  C   UNL A   1      40.529  36.442  37.661  1.00  0.00     0.040 A 
ATOM     77  F   UNL A   1      41.303  35.916  35.509  1.00  0.00    -0.206 F 
ATOM     78  C   UNL A   1      39.777  36.118  38.789  1.00  0.00     0.006 A 
ENDBRANCH  50  71
BRANCH  62  79
ATOM     79  C   UNL A   1      44.112  29.059  34.896  1.00  0.00     0.057 A 
ATOM     80  C   UNL A   1      45.405  29.543  34.655  1.00  0.00     0.134 A 
ATOM     81  C   UNL A   1      43.976  28.006  35.810  1.00  0.00     0.134 A 
ATOM     82  F   UNL A   1      45.606  30.541  33.782  1.00  0.00    -0.206 F 
ATOM     83  C   UNL A   1      46.522  28.977  35.272  1.00  0.00     0.040 A 
ATOM     84  C   UNL A   1      45.082  27.454  36.458  1.00  0.00     0.040 A 
ATOM     85  F   UNL A   1      42.766  27.502  36.095  1.00  0.00    -0.206 F 
ATOM     86  C   UNL A   1      46.361  27.933  36.180  1.00  0.00     0.006 A 
ENDBRANCH  62  79
ENDBRANCH  36  37
ENDBRANCH  28  31
ENDBRANCH  26  27
ENDBRANCH  25  26
ENDBRANCH  24  25
ENDBRANCH  23  24
ENDBRANCH   1  23
TORSDOF 17
ENDMDL
