MODEL 1
REMARK VINA RESULT:     -12.2      0.000      0.000
REMARK SMILES Cc1ccnc(C(=O)c2[nH]c3ccc(OC(F)(F)F)cc3c2CC(=O)NCCCCCCNC(=O)c2ccc(-c3c4nc(c(-c5c(F)cccc5F)c5ccc([nH]5)c(-c5c(F)cccc5F)c5nc(c(-c6c(F)cccc6F)c6ccc3[nH]6)C=C5)C=C4)cc2)c1
REMARK SMILES IDX 29 1 28 2 27 3 26 4 24 5 25 6 23 8 22 9 9 10 10 11 11 12
REMARK SMILES IDX 21 14 12 15 20 16 13 17 14 18 7 19 8 20 6 21 1 22 2 23 3 24
REMARK SMILES IDX 90 25 4 26 5 27 15 28 16 29 17 30 18 31 19 32 30 33 31 34
REMARK SMILES IDX 32 35 33 36 34 37 35 39 36 40 37 41 89 42 38 43 88 44 39 45
REMARK SMILES IDX 40 46 41 47 82 48 42 49 87 50 81 51 83 52 43 53 86 54 80 55
REMARK SMILES IDX 79 56 44 58 70 59 53 60 69 61 54 62 57 63 68 64 84 65 55 66
REMARK SMILES IDX 56 67 67 69 85 70 58 71 45 72 46 73 51 74 47 75 48 76 50 77
REMARK SMILES IDX 52 78 49 79 71 80 72 81 77 82 73 83 74 84 76 85 78 86 75 87
REMARK SMILES IDX 59 88 60 89 65 90 61 91 62 92 64 93 66 94 63 95
REMARK H PARENT 26 7 10 13 33 38 83 57 57 68
REMARK Flexibility Score: inf
ROOT
ATOM      1  C   UNL A   1      40.440  21.674  27.014  1.00  0.00     0.002 C 
ENDROOT
BRANCH   1   2
ATOM      2  C   UNL A   1      39.471  21.556  25.832  1.00  0.00     0.021 C 
BRANCH   2   3
ATOM      3  C   UNL A   1      38.271  22.501  25.881  1.00  0.00     0.116 C 
BRANCH   3   4
ATOM      4  N   UNL A   1      37.581  22.601  24.611  1.00  0.00    -0.356 N 
ATOM      5  C   UNL A   1      36.452  23.300  24.292  1.00  0.00     0.224 C 
ATOM      6  O   UNL A   1      36.090  23.329  23.113  1.00  0.00    -0.275 OA
ATOM      7  H   UNL A   1      37.982  22.091  23.871  1.00  0.00     0.163 HD
BRANCH   5   8
ATOM      8  C   UNL A   1      35.720  24.111  25.347  1.00  0.00     0.138 C 
BRANCH   8   9
ATOM      9  C   UNL A   1      34.282  23.731  25.553  1.00  0.00    -0.002 A 
ATOM     10  C   UNL A   1      33.740  22.450  25.596  1.00  0.00     0.093 A 
ATOM     11  N   UNL A   1      32.393  22.576  25.848  1.00  0.00    -0.352 N 
ATOM     12  C   UNL A   1      32.028  23.898  25.887  1.00  0.00     0.046 A 
ATOM     13  H   UNL A   1      31.776  21.822  25.983  1.00  0.00     0.167 HD
ATOM     14  C   UNL A   1      33.185  24.649  25.699  1.00  0.00     0.008 A 
ATOM     15  C   UNL A   1      30.772  24.479  26.086  1.00  0.00     0.030 A 
ATOM     16  C   UNL A   1      33.071  26.055  25.703  1.00  0.00     0.057 A 
ATOM     17  C   UNL A   1      30.691  25.877  26.091  1.00  0.00     0.049 A 
ATOM     18  C   UNL A   1      31.823  26.666  25.903  1.00  0.00     0.130 A 
BRANCH  10  19
ATOM     19  C   UNL A   1      34.388  21.155  25.495  1.00  0.00     0.227 C 
ATOM     20  O   UNL A   1      35.388  20.899  26.156  1.00  0.00    -0.285 OA
BRANCH  19  21
ATOM     21  C   UNL A   1      33.739  20.104  24.624  1.00  0.00     0.113 A 
ATOM     22  C   UNL A   1      34.002  16.432  23.708  1.00  0.00     0.044 C 
ATOM     23  C   UNL A   1      33.570  17.867  23.749  1.00  0.00    -0.047 A 
ATOM     24  C   UNL A   1      32.529  18.312  22.934  1.00  0.00     0.023 A 
ATOM     25  C   UNL A   1      34.170  18.777  24.625  1.00  0.00     0.036 A 
ATOM     26  C   UNL A   1      32.153  19.642  23.004  1.00  0.00     0.112 A 
ATOM     27  N   UNL A   1      32.740  20.546  23.815  1.00  0.00    -0.253 NA
ENDBRANCH  19  21
ENDBRANCH  10  19
BRANCH  18  28
ATOM     28  O   UNL A   1      31.868  28.032  25.891  1.00  0.00    -0.406 OA
BRANCH  28  29
ATOM     29  C   UNL A   1      31.944  28.702  27.138  1.00  0.00     0.573 C 
ATOM     30  F   UNL A   1      31.785  30.034  26.985  1.00  0.00    -0.132 F 
ATOM     31  F   UNL A   1      31.018  28.231  28.000  1.00  0.00    -0.132 F 
ATOM     32  F   UNL A   1      33.166  28.483  27.672  1.00  0.00    -0.132 F 
ENDBRANCH  28  29
ENDBRANCH  18  28
ENDBRANCH   8   9
ENDBRANCH   5   8
ENDBRANCH   3   4
ENDBRANCH   2   3
ENDBRANCH   1   2
BRANCH   1  33
ATOM     33  C   UNL A   1      41.821  21.040  26.815  1.00  0.00     0.002 C 
BRANCH  33  34
ATOM     34  C   UNL A   1      41.863  19.772  25.953  1.00  0.00     0.021 C 
BRANCH  34  35
ATOM     35  C   UNL A   1      43.000  18.796  26.257  1.00  0.00     0.116 C 
BRANCH  35  36
ATOM     36  N   UNL A   1      43.787  18.468  25.082  1.00  0.00    -0.352 N 
ATOM     37  C   UNL A   1      44.531  19.294  24.278  1.00  0.00     0.251 C 
ATOM     38  H   UNL A   1      43.785  17.518  24.826  1.00  0.00     0.163 HD
ATOM     39  O   UNL A   1      45.040  18.856  23.251  1.00  0.00    -0.269 OA
BRANCH  37  40
ATOM     40  C   UNL A   1      44.714  20.723  24.623  1.00  0.00     0.039 A 
ATOM     41  C   UNL A   1      45.416  21.038  25.793  1.00  0.00     0.014 A 
ATOM     42  C   UNL A   1      44.146  21.742  23.852  1.00  0.00     0.014 A 
ATOM     43  C   UNL A   1      45.587  22.372  26.168  1.00  0.00     0.010 A 
ATOM     44  C   UNL A   1      44.327  23.078  24.221  1.00  0.00     0.010 A 
ATOM     45  C   UNL A   1      45.051  23.400  25.380  1.00  0.00    -0.014 A 
BRANCH  45  46
ATOM     46  C   UNL A   1      45.236  24.819  25.763  1.00  0.00     0.031 A 
ATOM     47  C   UNL A   1      46.565  25.487  25.583  1.00  0.00     0.074 A 
ATOM     48  C   UNL A   1      44.206  25.505  26.293  1.00  0.00     0.049 A 
ATOM     49  N   UNL A   1      46.949  26.675  25.978  1.00  0.00    -0.248 NA
ATOM     50  C   UNL A   1      47.599  24.719  24.874  1.00  0.00     0.031 C 
ATOM     51  C   UNL A   1      42.861  24.977  26.517  1.00  0.00     0.029 A 
ATOM     52  N   UNL A   1      44.141  26.798  26.743  1.00  0.00    -0.354 N 
ATOM     53  C   UNL A   1      48.278  26.785  25.598  1.00  0.00     0.074 A 
ATOM     54  C   UNL A   1      48.628  25.556  24.916  1.00  0.00     0.031 C 
ATOM     55  C   UNL A   1      42.099  25.941  27.060  1.00  0.00     0.029 A 
ATOM     56  C   UNL A   1      42.907  27.146  27.232  1.00  0.00     0.049 A 
ATOM     57  H   UNL A   1      44.906  27.418  26.718  1.00  0.00     0.167 HD
ATOM     58  C   UNL A   1      49.134  27.812  25.816  1.00  0.00     0.037 A 
ATOM     59  C   UNL A   1      42.479  28.304  27.767  1.00  0.00     0.037 A 
ATOM     60  C   UNL A   1      48.794  29.040  26.482  1.00  0.00     0.049 A 
ATOM     61  C   UNL A   1      43.422  29.461  27.905  1.00  0.00     0.074 A 
ATOM     62  C   UNL A   1      49.620  30.095  26.833  1.00  0.00     0.029 A 
ATOM     63  N   UNL A   1      47.512  29.388  26.872  1.00  0.00    -0.354 N 
ATOM     64  N   UNL A   1      44.700  29.517  27.625  1.00  0.00    -0.248 NA
ATOM     65  C   UNL A   1      42.863  30.713  28.434  1.00  0.00     0.031 C 
ATOM     66  C   UNL A   1      48.830  31.093  27.417  1.00  0.00     0.029 A 
ATOM     67  C   UNL A   1      47.516  30.657  27.428  1.00  0.00     0.049 A 
ATOM     68  H   UNL A   1      46.716  28.819  26.769  1.00  0.00     0.167 HD
ATOM     69  C   UNL A   1      45.104  30.802  27.961  1.00  0.00     0.074 A 
ATOM     70  C   UNL A   1      43.930  31.501  28.444  1.00  0.00     0.031 C 
ATOM     71  C   UNL A   1      46.342  31.344  27.891  1.00  0.00     0.037 A 
BRANCH  58  72
ATOM     72  C   UNL A   1      50.540  27.629  25.346  1.00  0.00     0.057 A 
ATOM     73  C   UNL A   1      50.894  27.848  24.011  1.00  0.00     0.134 A 
ATOM     74  C   UNL A   1      51.550  27.250  26.239  1.00  0.00     0.134 A 
ATOM     75  F   UNL A   1      49.964  28.201  23.111  1.00  0.00    -0.206 F 
ATOM     76  C   UNL A   1      52.209  27.691  23.576  1.00  0.00     0.040 A 
ATOM     77  C   UNL A   1      52.869  27.092  25.817  1.00  0.00     0.040 A 
ATOM     78  F   UNL A   1      51.265  27.020  27.529  1.00  0.00    -0.206 F 
ATOM     79  C   UNL A   1      53.203  27.314  24.481  1.00  0.00     0.006 A 
ENDBRANCH  58  72
BRANCH  59  80
ATOM     80  C   UNL A   1      41.078  28.423  28.220  1.00  0.00     0.057 A 
ATOM     81  C   UNL A   1      40.703  28.029  29.508  1.00  0.00     0.134 A 
ATOM     82  C   UNL A   1      40.090  28.937  27.376  1.00  0.00     0.134 A 
ATOM     83  F   UNL A   1      41.612  27.517  30.349  1.00  0.00    -0.206 F 
ATOM     84  C   UNL A   1      39.383  28.142  29.944  1.00  0.00     0.040 A 
ATOM     85  C   UNL A   1      38.768  29.060  27.801  1.00  0.00     0.040 A 
ATOM     86  F   UNL A   1      40.399  29.324  26.130  1.00  0.00    -0.206 F 
ATOM     87  C   UNL A   1      38.412  28.661  29.089  1.00  0.00     0.006 A 
ENDBRANCH  59  80
BRANCH  71  88
ATOM     88  C   UNL A   1      46.486  32.757  28.351  1.00  0.00     0.057 A 
ATOM     89  C   UNL A   1      46.758  33.055  29.692  1.00  0.00     0.134 A 
ATOM     90  C   UNL A   1      46.371  33.825  27.454  1.00  0.00     0.134 A 
ATOM     91  F   UNL A   1      46.870  32.072  30.596  1.00  0.00    -0.206 F 
ATOM     92  C   UNL A   1      46.908  34.372  30.126  1.00  0.00     0.040 A 
ATOM     93  C   UNL A   1      46.518  35.146  27.877  1.00  0.00     0.040 A 
ATOM     94  F   UNL A   1      46.099  33.598  26.160  1.00  0.00    -0.206 F 
ATOM     95  C   UNL A   1      46.789  35.422  29.216  1.00  0.00     0.006 A 
ENDBRANCH  71  88
ENDBRANCH  45  46
ENDBRANCH  37  40
ENDBRANCH  35  36
ENDBRANCH  34  35
ENDBRANCH  33  34
ENDBRANCH   1  33
TORSDOF 18
ENDMDL
MODEL 2
REMARK VINA RESULT:     -12.2      2.564      4.400
REMARK SMILES Cc1ccnc(C(=O)c2[nH]c3ccc(OC(F)(F)F)cc3c2CC(=O)NCCCCCCNC(=O)c2ccc(-c3c4nc(c(-c5c(F)cccc5F)c5ccc([nH]5)c(-c5c(F)cccc5F)c5nc(c(-c6c(F)cccc6F)c6ccc3[nH]6)C=C5)C=C4)cc2)c1
REMARK SMILES IDX 29 1 28 2 27 3 26 4 24 5 25 6 23 8 22 9 9 10 10 11 11 12
REMARK SMILES IDX 21 14 12 15 20 16 13 17 14 18 7 19 8 20 6 21 1 22 2 23 3 24
REMARK SMILES IDX 90 25 4 26 5 27 15 28 16 29 17 30 18 31 19 32 30 33 31 34
REMARK SMILES IDX 32 35 33 36 34 37 35 39 36 40 37 41 89 42 38 43 88 44 39 45
REMARK SMILES IDX 40 46 41 47 82 48 42 49 87 50 81 51 83 52 43 53 86 54 80 55
REMARK SMILES IDX 79 56 44 58 70 59 53 60 69 61 54 62 57 63 68 64 84 65 55 66
REMARK SMILES IDX 56 67 67 69 85 70 58 71 45 72 46 73 51 74 47 75 48 76 50 77
REMARK SMILES IDX 52 78 49 79 71 80 72 81 77 82 73 83 74 84 76 85 78 86 75 87
REMARK SMILES IDX 59 88 60 89 65 90 61 91 62 92 64 93 66 94 63 95
REMARK H PARENT 26 7 10 13 33 38 83 57 57 68
REMARK Flexibility Score: inf
ROOT
ATOM      1  C   UNL A   1      40.454  21.203  26.942  1.00  0.00     0.002 C 
ENDROOT
BRANCH   1   2
ATOM      2  C   UNL A   1      39.633  22.291  26.241  1.00  0.00     0.021 C 
BRANCH   2   3
ATOM      3  C   UNL A   1      38.284  21.831  25.690  1.00  0.00     0.116 C 
BRANCH   3   4
ATOM      4  N   UNL A   1      37.159  22.400  26.405  1.00  0.00    -0.356 N 
ATOM      5  C   UNL A   1      36.045  23.019  25.914  1.00  0.00     0.224 C 
ATOM      6  O   UNL A   1      35.154  23.340  26.704  1.00  0.00    -0.275 OA
ATOM      7  H   UNL A   1      37.205  22.332  27.385  1.00  0.00     0.163 HD
BRANCH   5   8
ATOM      8  C   UNL A   1      35.862  23.211  24.419  1.00  0.00     0.138 C 
BRANCH   8   9
ATOM      9  C   UNL A   1      34.524  22.786  23.885  1.00  0.00    -0.002 A 
ATOM     10  C   UNL A   1      33.560  23.584  23.276  1.00  0.00     0.093 A 
ATOM     11  N   UNL A   1      32.516  22.768  22.908  1.00  0.00    -0.352 N 
ATOM     12  C   UNL A   1      32.733  21.481  23.330  1.00  0.00     0.046 A 
ATOM     13  H   UNL A   1      31.722  23.066  22.408  1.00  0.00     0.167 HD
ATOM     14  C   UNL A   1      33.978  21.458  23.952  1.00  0.00     0.008 A 
ATOM     15  C   UNL A   1      31.932  20.343  23.197  1.00  0.00     0.030 A 
ATOM     16  C   UNL A   1      34.437  20.230  24.474  1.00  0.00     0.057 A 
ATOM     17  C   UNL A   1      32.415  19.137  23.719  1.00  0.00     0.049 A 
ATOM     18  C   UNL A   1      33.654  19.071  24.353  1.00  0.00     0.130 A 
BRANCH  10  19
ATOM     19  C   UNL A   1      33.580  25.001  22.961  1.00  0.00     0.227 C 
ATOM     20  O   UNL A   1      33.986  25.397  21.873  1.00  0.00    -0.285 OA
BRANCH  19  21
ATOM     21  C   UNL A   1      33.000  25.961  23.973  1.00  0.00     0.113 A 
ATOM     22  C   UNL A   1      34.039  28.425  26.664  1.00  0.00     0.044 C 
ATOM     23  C   UNL A   1      33.212  27.567  25.754  1.00  0.00    -0.047 A 
ATOM     24  C   UNL A   1      31.819  27.602  25.829  1.00  0.00     0.023 A 
ATOM     25  C   UNL A   1      33.811  26.746  24.794  1.00  0.00     0.036 A 
ATOM     26  C   UNL A   1      31.088  26.802  24.968  1.00  0.00     0.112 A 
ATOM     27  N   UNL A   1      31.644  25.976  24.059  1.00  0.00    -0.253 NA
ENDBRANCH  19  21
ENDBRANCH  10  19
BRANCH  18  28
ATOM     28  O   UNL A   1      34.230  17.955  24.895  1.00  0.00    -0.406 OA
BRANCH  28  29
ATOM     29  C   UNL A   1      34.236  16.770  24.119  1.00  0.00     0.573 C 
ATOM     30  F   UNL A   1      33.063  16.111  24.226  1.00  0.00    -0.132 F 
ATOM     31  F   UNL A   1      34.487  17.040  22.820  1.00  0.00    -0.132 F 
ATOM     32  F   UNL A   1      35.217  15.959  24.577  1.00  0.00    -0.132 F 
ENDBRANCH  28  29
ENDBRANCH  18  28
ENDBRANCH   8   9
ENDBRANCH   5   8
ENDBRANCH   3   4
ENDBRANCH   2   3
ENDBRANCH   1   2
BRANCH   1  33
ATOM     33  C   UNL A   1      41.788  20.840  26.282  1.00  0.00     0.002 C 
BRANCH  33  34
ATOM     34  C   UNL A   1      41.914  19.402  25.763  1.00  0.00     0.021 C 
BRANCH  34  35
ATOM     35  C   UNL A   1      43.234  18.695  26.069  1.00  0.00     0.116 C 
BRANCH  35  36
ATOM     36  N   UNL A   1      44.037  18.467  24.881  1.00  0.00    -0.352 N 
ATOM     37  C   UNL A   1      44.777  19.362  24.149  1.00  0.00     0.251 C 
ATOM     38  H   UNL A   1      44.054  17.539  24.555  1.00  0.00     0.163 HD
ATOM     39  O   UNL A   1      45.302  19.010  23.098  1.00  0.00    -0.269 OA
BRANCH  37  40
ATOM     40  C   UNL A   1      44.933  20.764  24.602  1.00  0.00     0.039 A 
ATOM     41  C   UNL A   1      44.492  21.787  23.753  1.00  0.00     0.014 A 
ATOM     42  C   UNL A   1      45.564  21.080  25.808  1.00  0.00     0.014 A 
ATOM     43  C   UNL A   1      44.644  23.123  24.131  1.00  0.00     0.010 A 
ATOM     44  C   UNL A   1      45.707  22.416  26.192  1.00  0.00     0.010 A 
ATOM     45  C   UNL A   1      45.245  23.445  25.356  1.00  0.00    -0.014 A 
BRANCH  45  46
ATOM     46  C   UNL A   1      45.402  24.858  25.771  1.00  0.00     0.031 A 
ATOM     47  C   UNL A   1      46.711  25.564  25.585  1.00  0.00     0.074 A 
ATOM     48  C   UNL A   1      44.365  25.505  26.335  1.00  0.00     0.049 A 
ATOM     49  N   UNL A   1      47.072  26.750  26.003  1.00  0.00    -0.248 NA
ATOM     50  C   UNL A   1      47.751  24.839  24.840  1.00  0.00     0.031 C 
ATOM     51  C   UNL A   1      43.037  24.938  26.569  1.00  0.00     0.029 A 
ATOM     52  N   UNL A   1      44.277  26.785  26.819  1.00  0.00    -0.354 N 
ATOM     53  C   UNL A   1      48.392  26.903  25.605  1.00  0.00     0.074 A 
ATOM     54  C   UNL A   1      48.760  25.700  24.886  1.00  0.00     0.031 C 
ATOM     55  C   UNL A   1      42.261  25.870  27.148  1.00  0.00     0.029 A 
ATOM     56  C   UNL A   1      43.043  27.090  27.337  1.00  0.00     0.049 A 
ATOM     57  H   UNL A   1      45.025  27.424  26.796  1.00  0.00     0.167 HD
ATOM     58  C   UNL A   1      49.226  27.945  25.833  1.00  0.00     0.037 A 
ATOM     59  C   UNL A   1      42.596  28.223  27.908  1.00  0.00     0.037 A 
ATOM     60  C   UNL A   1      48.868  29.147  26.536  1.00  0.00     0.049 A 
ATOM     61  C   UNL A   1      43.513  29.399  28.058  1.00  0.00     0.074 A 
ATOM     62  C   UNL A   1      49.673  30.213  26.899  1.00  0.00     0.029 A 
ATOM     63  N   UNL A   1      47.584  29.454  26.955  1.00  0.00    -0.354 N 
ATOM     64  N   UNL A   1      44.784  29.494  27.759  1.00  0.00    -0.248 NA
ATOM     65  C   UNL A   1      42.932  30.623  28.629  1.00  0.00     0.031 C 
ATOM     66  C   UNL A   1      48.870  31.177  27.521  1.00  0.00     0.029 A 
ATOM     67  C   UNL A   1      47.567  30.708  27.543  1.00  0.00     0.049 A 
ATOM     68  H   UNL A   1      46.801  28.868  26.852  1.00  0.00     0.167 HD
ATOM     69  C   UNL A   1      45.162  30.780  28.121  1.00  0.00     0.074 A 
ATOM     70  C   UNL A   1      43.981  31.437  28.641  1.00  0.00     0.031 C 
ATOM     71  C   UNL A   1      46.385  31.354  28.043  1.00  0.00     0.037 A 
BRANCH  58  72
ATOM     72  C   UNL A   1      50.628  27.809  25.336  1.00  0.00     0.057 A 
ATOM     73  C   UNL A   1      50.944  28.021  23.990  1.00  0.00     0.134 A 
ATOM     74  C   UNL A   1      51.670  27.481  26.211  1.00  0.00     0.134 A 
ATOM     75  F   UNL A   1      49.983  28.326  23.106  1.00  0.00    -0.206 F 
ATOM     76  C   UNL A   1      52.256  27.908  23.529  1.00  0.00     0.040 A 
ATOM     77  C   UNL A   1      52.985  27.368  25.763  1.00  0.00     0.040 A 
ATOM     78  F   UNL A   1      51.421  27.260  27.511  1.00  0.00    -0.206 F 
ATOM     79  C   UNL A   1      53.281  27.582  24.417  1.00  0.00     0.006 A 
ENDBRANCH  58  72
BRANCH  59  80
ATOM     80  C   UNL A   1      41.201  28.296  28.388  1.00  0.00     0.057 A 
ATOM     81  C   UNL A   1      40.175  28.744  27.550  1.00  0.00     0.134 A 
ATOM     82  C   UNL A   1      40.867  27.915  29.690  1.00  0.00     0.134 A 
ATOM     83  F   UNL A   1      40.448  29.134  26.298  1.00  0.00    -0.206 F 
ATOM     84  C   UNL A   1      38.855  28.811  27.996  1.00  0.00     0.040 A 
ATOM     85  C   UNL A   1      39.551  27.973  30.147  1.00  0.00     0.040 A 
ATOM     86  F   UNL A   1      41.816  27.483  30.533  1.00  0.00    -0.206 F 
ATOM     87  C   UNL A   1      38.540  28.423  29.297  1.00  0.00     0.006 A 
ENDBRANCH  59  80
BRANCH  71  88
ATOM     88  C   UNL A   1      46.502  32.759  28.536  1.00  0.00     0.057 A 
ATOM     89  C   UNL A   1      46.781  33.030  29.881  1.00  0.00     0.134 A 
ATOM     90  C   UNL A   1      46.355  33.845  27.666  1.00  0.00     0.134 A 
ATOM     91  F   UNL A   1      46.925  32.028  30.760  1.00  0.00    -0.206 F 
ATOM     92  C   UNL A   1      46.907  34.339  30.346  1.00  0.00     0.040 A 
ATOM     93  C   UNL A   1      46.478  35.159  28.120  1.00  0.00     0.040 A 
ATOM     94  F   UNL A   1      46.075  33.644  26.370  1.00  0.00    -0.206 F 
ATOM     95  C   UNL A   1      46.755  35.409  29.463  1.00  0.00     0.006 A 
ENDBRANCH  71  88
ENDBRANCH  45  46
ENDBRANCH  37  40
ENDBRANCH  35  36
ENDBRANCH  34  35
ENDBRANCH  33  34
ENDBRANCH   1  33
TORSDOF 18
ENDMDL
MODEL 3
REMARK VINA RESULT:     -12.1      6.456     11.612
REMARK SMILES Cc1ccnc(C(=O)c2[nH]c3ccc(OC(F)(F)F)cc3c2CC(=O)NCCCCCCNC(=O)c2ccc(-c3c4nc(c(-c5c(F)cccc5F)c5ccc([nH]5)c(-c5c(F)cccc5F)c5nc(c(-c6c(F)cccc6F)c6ccc3[nH]6)C=C5)C=C4)cc2)c1
REMARK SMILES IDX 29 1 28 2 27 3 26 4 24 5 25 6 23 8 22 9 9 10 10 11 11 12
REMARK SMILES IDX 21 14 12 15 20 16 13 17 14 18 7 19 8 20 6 21 1 22 2 23 3 24
REMARK SMILES IDX 90 25 4 26 5 27 15 28 16 29 17 30 18 31 19 32 30 33 31 34
REMARK SMILES IDX 32 35 33 36 34 37 35 39 36 40 37 41 89 42 38 43 88 44 39 45
REMARK SMILES IDX 40 46 41 47 82 48 42 49 87 50 81 51 83 52 43 53 86 54 80 55
REMARK SMILES IDX 79 56 44 58 70 59 53 60 69 61 54 62 57 63 68 64 84 65 55 66
REMARK SMILES IDX 56 67 67 69 85 70 58 71 45 72 46 73 51 74 47 75 48 76 50 77
REMARK SMILES IDX 52 78 49 79 71 80 72 81 77 82 73 83 74 84 76 85 78 86 75 87
REMARK SMILES IDX 59 88 60 89 65 90 61 91 62 92 64 93 66 94 63 95
REMARK H PARENT 26 7 10 13 33 38 83 57 57 68
REMARK Flexibility Score: inf
ROOT
ATOM      1  C   UNL A   1      34.479  32.038  28.396  1.00  0.00     0.002 C 
ENDROOT
BRANCH   1   2
ATOM      2  C   UNL A   1      35.023  30.729  27.812  1.00  0.00     0.021 C 
BRANCH   2   3
ATOM      3  C   UNL A   1      34.060  29.981  26.890  1.00  0.00     0.116 C 
BRANCH   3   4
ATOM      4  N   UNL A   1      32.971  29.349  27.606  1.00  0.00    -0.356 N 
ATOM      5  C   UNL A   1      32.218  28.265  27.254  1.00  0.00     0.224 C 
ATOM      6  O   UNL A   1      31.401  27.827  28.068  1.00  0.00    -0.275 OA
ATOM      7  H   UNL A   1      32.740  29.759  28.469  1.00  0.00     0.163 HD
BRANCH   5   8
ATOM      8  C   UNL A   1      32.456  27.553  25.934  1.00  0.00     0.138 C 
BRANCH   8   9
ATOM      9  C   UNL A   1      31.214  27.064  25.245  1.00  0.00    -0.002 A 
ATOM     10  C   UNL A   1      30.676  25.781  25.273  1.00  0.00     0.093 A 
ATOM     11  N   UNL A   1      29.513  25.801  24.538  1.00  0.00    -0.352 N 
ATOM     12  C   UNL A   1      29.322  27.032  23.965  1.00  0.00     0.046 A 
ATOM     13  H   UNL A   1      28.902  25.036  24.437  1.00  0.00     0.167 HD
ATOM     14  C   UNL A   1      30.372  27.846  24.381  1.00  0.00     0.008 A 
ATOM     15  C   UNL A   1      28.299  27.486  23.128  1.00  0.00     0.030 A 
ATOM     16  C   UNL A   1      30.398  29.181  23.925  1.00  0.00     0.057 A 
ATOM     17  C   UNL A   1      28.348  28.817  22.695  1.00  0.00     0.049 A 
ATOM     18  C   UNL A   1      29.383  29.664  23.085  1.00  0.00     0.130 A 
BRANCH  10  19
ATOM     19  C   UNL A   1      31.123  24.594  25.979  1.00  0.00     0.227 C 
ATOM     20  O   UNL A   1      31.045  24.522  27.201  1.00  0.00    -0.285 OA
BRANCH  19  21
ATOM     21  C   UNL A   1      31.596  23.418  25.157  1.00  0.00     0.113 A 
ATOM     22  C   UNL A   1      32.925  19.883  25.525  1.00  0.00     0.044 C 
ATOM     23  C   UNL A   1      32.481  21.189  24.937  1.00  0.00    -0.047 A 
ATOM     24  C   UNL A   1      32.516  21.386  23.557  1.00  0.00     0.023 A 
ATOM     25  C   UNL A   1      31.992  22.217  25.749  1.00  0.00     0.036 A 
ATOM     26  C   UNL A   1      32.092  22.602  23.050  1.00  0.00     0.112 A 
ATOM     27  N   UNL A   1      31.650  23.621  23.815  1.00  0.00    -0.253 NA
ENDBRANCH  19  21
ENDBRANCH  10  19
BRANCH  18  28
ATOM     28  O   UNL A   1      29.534  30.976  22.731  1.00  0.00    -0.406 OA
BRANCH  28  29
ATOM     29  C   UNL A   1      28.712  31.934  23.376  1.00  0.00     0.573 C 
ATOM     30  F   UNL A   1      27.871  31.343  24.251  1.00  0.00    -0.132 F 
ATOM     31  F   UNL A   1      29.455  32.861  24.016  1.00  0.00    -0.132 F 
ATOM     32  F   UNL A   1      27.969  32.565  22.439  1.00  0.00    -0.132 F 
ENDBRANCH  28  29
ENDBRANCH  18  28
ENDBRANCH   8   9
ENDBRANCH   5   8
ENDBRANCH   3   4
ENDBRANCH   2   3
ENDBRANCH   1   2
BRANCH   1  33
ATOM     33  C   UNL A   1      35.243  33.310  28.015  1.00  0.00     0.002 C 
BRANCH  33  34
ATOM     34  C   UNL A   1      34.427  34.608  28.001  1.00  0.00     0.021 C 
BRANCH  34  35
ATOM     35  C   UNL A   1      32.952  34.473  28.377  1.00  0.00     0.116 C 
BRANCH  35  36
ATOM     36  N   UNL A   1      32.519  35.484  29.324  1.00  0.00    -0.352 N 
ATOM     37  C   UNL A   1      32.918  35.685  30.622  1.00  0.00     0.251 C 
ATOM     38  H   UNL A   1      31.842  36.115  28.988  1.00  0.00     0.163 HD
ATOM     39  O   UNL A   1      32.353  36.524  31.315  1.00  0.00    -0.269 OA
BRANCH  37  40
ATOM     40  C   UNL A   1      34.015  34.881  31.209  1.00  0.00     0.039 A 
ATOM     41  C   UNL A   1      35.322  35.372  31.110  1.00  0.00     0.014 A 
ATOM     42  C   UNL A   1      33.780  33.630  31.787  1.00  0.00     0.014 A 
ATOM     43  C   UNL A   1      36.388  34.632  31.627  1.00  0.00     0.010 A 
ATOM     44  C   UNL A   1      34.845  32.894  32.315  1.00  0.00     0.010 A 
ATOM     45  C   UNL A   1      36.155  33.393  32.240  1.00  0.00    -0.014 A 
BRANCH  45  46
ATOM     46  C   UNL A   1      37.277  32.606  32.801  1.00  0.00     0.031 A 
ATOM     47  C   UNL A   1      37.800  32.901  34.174  1.00  0.00     0.074 A 
ATOM     48  C   UNL A   1      37.840  31.631  32.064  1.00  0.00     0.049 A 
ATOM     49  N   UNL A   1      38.852  32.408  34.777  1.00  0.00    -0.248 NA
ATOM     50  C   UNL A   1      37.049  33.884  34.969  1.00  0.00     0.031 C 
ATOM     51  C   UNL A   1      37.425  31.238  30.717  1.00  0.00     0.029 A 
ATOM     52  N   UNL A   1      38.891  30.798  32.350  1.00  0.00    -0.354 N 
ATOM     53  C   UNL A   1      38.912  33.044  36.008  1.00  0.00     0.074 A 
ATOM     54  C   UNL A   1      37.775  33.938  36.079  1.00  0.00     0.031 C 
ATOM     55  C   UNL A   1      38.211  30.234  30.294  1.00  0.00     0.029 A 
ATOM     56  C   UNL A   1      39.190  29.926  31.334  1.00  0.00     0.049 A 
ATOM     57  H   UNL A   1      39.383  30.822  33.202  1.00  0.00     0.167 HD
ATOM     58  C   UNL A   1      39.842  32.907  36.982  1.00  0.00     0.037 A 
ATOM     59  C   UNL A   1      40.152  28.989  31.248  1.00  0.00     0.037 A 
ATOM     60  C   UNL A   1      40.968  32.015  36.926  1.00  0.00     0.049 A 
ATOM     61  C   UNL A   1      41.108  28.789  32.384  1.00  0.00     0.074 A 
ATOM     62  C   UNL A   1      42.014  31.879  37.824  1.00  0.00     0.029 A 
ATOM     63  N   UNL A   1      41.176  31.082  35.925  1.00  0.00    -0.354 N 
ATOM     64  N   UNL A   1      41.208  29.462  33.503  1.00  0.00    -0.248 NA
ATOM     65  C   UNL A   1      42.087  27.701  32.244  1.00  0.00     0.031 C 
ATOM     66  C   UNL A   1      42.846  30.846  37.373  1.00  0.00     0.029 A 
ATOM     67  C   UNL A   1      42.315  30.342  36.198  1.00  0.00     0.049 A 
ATOM     68  H   UNL A   1      40.601  30.962  35.136  1.00  0.00     0.167 HD
ATOM     69  C   UNL A   1      42.269  28.893  34.193  1.00  0.00     0.074 A 
ATOM     70  C   UNL A   1      42.768  27.805  33.377  1.00  0.00     0.031 C 
ATOM     71  C   UNL A   1      42.792  29.256  35.387  1.00  0.00     0.037 A 
BRANCH  58  72
ATOM     72  C   UNL A   1      39.687  33.774  38.189  1.00  0.00     0.057 A 
ATOM     73  C   UNL A   1      38.878  33.387  39.262  1.00  0.00     0.134 A 
ATOM     74  C   UNL A   1      40.366  34.995  38.285  1.00  0.00     0.134 A 
ATOM     75  F   UNL A   1      38.196  32.233  39.218  1.00  0.00    -0.206 F 
ATOM     76  C   UNL A   1      38.745  34.190  40.395  1.00  0.00     0.040 A 
ATOM     77  C   UNL A   1      40.243  35.805  39.413  1.00  0.00     0.040 A 
ATOM     78  F   UNL A   1      41.149  35.417  37.282  1.00  0.00    -0.206 F 
ATOM     79  C   UNL A   1      39.431  35.403  40.473  1.00  0.00     0.006 A 
ENDBRANCH  58  72
BRANCH  59  80
ATOM     80  C   UNL A   1      40.260  28.166  30.025  1.00  0.00     0.057 A 
ATOM     81  C   UNL A   1      39.433  27.056  29.831  1.00  0.00     0.134 A 
ATOM     82  C   UNL A   1      41.188  28.478  29.028  1.00  0.00     0.134 A 
ATOM     83  F   UNL A   1      38.538  26.708  30.765  1.00  0.00    -0.206 F 
ATOM     84  C   UNL A   1      39.528  26.277  28.678  1.00  0.00     0.040 A 
ATOM     85  C   UNL A   1      41.290  27.710  27.869  1.00  0.00     0.040 A 
ATOM     86  F   UNL A   1      42.007  29.530  29.171  1.00  0.00    -0.206 F 
ATOM     87  C   UNL A   1      40.457  26.605  27.691  1.00  0.00     0.006 A 
ENDBRANCH  59  80
BRANCH  71  88
ATOM     88  C   UNL A   1      43.964  28.470  35.877  1.00  0.00     0.057 A 
ATOM     89  C   UNL A   1      45.272  28.863  35.572  1.00  0.00     0.134 A 
ATOM     90  C   UNL A   1      43.789  27.329  36.668  1.00  0.00     0.134 A 
ATOM     91  F   UNL A   1      45.498  29.943  34.812  1.00  0.00    -0.206 F 
ATOM     92  C   UNL A   1      46.372  28.142  36.039  1.00  0.00     0.040 A 
ATOM     93  C   UNL A   1      44.882  26.600  37.139  1.00  0.00     0.040 A 
ATOM     94  F   UNL A   1      42.557  26.901  36.980  1.00  0.00    -0.206 F 
ATOM     95  C   UNL A   1      46.178  27.007  36.825  1.00  0.00     0.006 A 
ENDBRANCH  71  88
ENDBRANCH  45  46
ENDBRANCH  37  40
ENDBRANCH  35  36
ENDBRANCH  34  35
ENDBRANCH  33  34
ENDBRANCH   1  33
TORSDOF 18
ENDMDL
