MODEL 1
REMARK VINA RESULT:      -9.6      0.000      0.000
REMARK SMILES C[C@H](C(=O)NCCCCCCNC(=O)c1ccc(-c2c3nc(c(-c4c(F)cccc4F)c4ccc([nH]4)c(-c4c(F)cccc4F)c4nc(c(-c5c(F)cccc5F)c5ccc2[nH]5)C=C4)C=C3)cc1)c1ccc2ncccc2c1
REMARK SMILES IDX 9 1 8 2 7 3 6 4 5 5 3 6 4 7 2 9 1 10 69 11 70 12 78 13 71 14
REMARK SMILES IDX 77 15 72 16 76 17 73 18 75 19 74 20 10 21 11 22 12 23 13 24
REMARK SMILES IDX 14 26 15 27 16 28 68 29 17 30 67 31 18 32 19 33 20 34 61 35
REMARK SMILES IDX 21 36 66 37 60 38 62 39 22 40 65 41 59 42 58 43 23 45 49 46
REMARK SMILES IDX 32 47 48 48 33 49 36 50 47 51 63 52 34 53 35 54 46 56 64 57
REMARK SMILES IDX 37 58 24 59 25 60 30 61 26 62 27 63 29 64 31 65 28 66 50 67
REMARK SMILES IDX 51 68 56 69 52 70 53 71 55 72 57 73 54 74 38 75 39 76 44 77
REMARK SMILES IDX 40 78 41 79 43 80 45 81 42 82
REMARK H PARENT 5 8 12 25 62 44 36 55
REMARK Flexibility Score: inf
ROOT
ATOM      1  C   UNL A   1      33.705  36.257  32.189  1.00  0.00     0.002 C 
ENDROOT
BRANCH   1   2
ATOM      2  C   UNL A   1      32.936  34.979  32.545  1.00  0.00     0.002 C 
BRANCH   2   3
ATOM      3  C   UNL A   1      33.787  33.900  33.216  1.00  0.00     0.021 C 
BRANCH   3   4
ATOM      4  C   UNL A   1      35.146  34.409  33.706  1.00  0.00     0.116 C 
BRANCH   4   5
ATOM      5  N   UNL A   1      35.287  34.157  35.126  1.00  0.00    -0.356 N 
ATOM      6  C   UNL A   1      36.370  33.716  35.836  1.00  0.00     0.227 C 
ATOM      7  O   UNL A   1      36.167  33.348  36.995  1.00  0.00    -0.274 OA
ATOM      8  H   UNL A   1      34.479  34.326  35.662  1.00  0.00     0.163 HD
BRANCH   6   9
ATOM      9  C   UNL A   1      37.783  33.744  35.223  1.00  0.00     0.105 C 
ATOM     10  C   UNL A   1      38.727  34.384  36.256  1.00  0.00     0.023 C 
BRANCH   9  11
ATOM     11  C   UNL A   1      38.253  32.378  34.723  1.00  0.00    -0.035 A 
ATOM     12  C   UNL A   1      39.464  31.852  35.191  1.00  0.00     0.007 A 
ATOM     13  C   UNL A   1      37.538  31.594  33.806  1.00  0.00     0.015 A 
ATOM     14  C   UNL A   1      40.001  30.669  34.678  1.00  0.00     0.029 A 
ATOM     15  C   UNL A   1      38.039  30.351  33.351  1.00  0.00     0.000 A 
ATOM     16  C   UNL A   1      39.313  29.906  33.757  1.00  0.00     0.070 A 
ATOM     17  C   UNL A   1      37.309  29.510  32.500  1.00  0.00     0.012 A 
ATOM     18  N   UNL A   1      39.868  28.764  33.318  1.00  0.00    -0.256 NA
ATOM     19  C   UNL A   1      37.862  28.309  32.066  1.00  0.00     0.021 A 
ATOM     20  C   UNL A   1      39.142  27.994  32.482  1.00  0.00     0.112 A 
ENDBRANCH   9  11
ENDBRANCH   6   9
ENDBRANCH   4   5
ENDBRANCH   3   4
ENDBRANCH   2   3
ENDBRANCH   1   2
BRANCH   1  21
ATOM     21  C   UNL A   1      33.160  37.038  30.988  1.00  0.00     0.021 C 
BRANCH  21  22
ATOM     22  C   UNL A   1      33.711  36.595  29.635  1.00  0.00     0.116 C 
BRANCH  22  23
ATOM     23  N   UNL A   1      32.881  35.567  29.028  1.00  0.00    -0.352 N 
ATOM     24  C   UNL A   1      33.230  34.323  28.564  1.00  0.00     0.251 C 
ATOM     25  H   UNL A   1      31.928  35.798  28.936  1.00  0.00     0.163 HD
ATOM     26  O   UNL A   1      32.457  33.690  27.854  1.00  0.00    -0.269 OA
BRANCH  24  27
ATOM     27  C   UNL A   1      34.545  33.747  28.915  1.00  0.00     0.039 A 
ATOM     28  C   UNL A   1      35.638  33.990  28.080  1.00  0.00     0.014 A 
ATOM     29  C   UNL A   1      34.690  32.937  30.045  1.00  0.00     0.014 A 
ATOM     30  C   UNL A   1      36.889  33.460  28.405  1.00  0.00     0.010 A 
ATOM     31  C   UNL A   1      35.950  32.469  30.405  1.00  0.00     0.010 A 
ATOM     32  C   UNL A   1      37.060  32.717  29.584  1.00  0.00    -0.014 A 
BRANCH  32  33
ATOM     33  C   UNL A   1      38.387  32.175  29.968  1.00  0.00     0.031 A 
ATOM     34  C   UNL A   1      38.828  30.831  29.458  1.00  0.00     0.074 A 
ATOM     35  C   UNL A   1      39.166  32.859  30.828  1.00  0.00     0.049 A 
ATOM     36  N   UNL A   1      39.908  30.150  29.745  1.00  0.00    -0.248 NA
ATOM     37  C   UNL A   1      37.920  30.150  28.520  1.00  0.00     0.031 C 
ATOM     38  C   UNL A   1      38.833  34.154  31.424  1.00  0.00     0.029 A 
ATOM     39  N   UNL A   1      40.392  32.552  31.361  1.00  0.00    -0.354 N 
ATOM     40  C   UNL A   1      39.800  28.956  29.041  1.00  0.00     0.074 A 
ATOM     41  C   UNL A   1      38.528  28.986  28.352  1.00  0.00     0.031 C 
ATOM     42  C   UNL A   1      39.838  34.538  32.227  1.00  0.00     0.029 A 
ATOM     43  C   UNL A   1      40.866  33.502  32.232  1.00  0.00     0.049 A 
ATOM     44  H   UNL A   1      40.885  31.730  31.139  1.00  0.00     0.167 HD
ATOM     45  C   UNL A   1      40.690  27.939  28.959  1.00  0.00     0.037 A 
ATOM     46  C   UNL A   1      41.999  33.530  32.960  1.00  0.00     0.037 A 
ATOM     47  C   UNL A   1      41.965  27.923  29.626  1.00  0.00     0.049 A 
ATOM     48  C   UNL A   1      42.969  32.386  32.856  1.00  0.00     0.074 A 
ATOM     49  C   UNL A   1      42.962  26.966  29.559  1.00  0.00     0.029 A 
ATOM     50  N   UNL A   1      42.418  28.914  30.484  1.00  0.00    -0.354 N 
ATOM     51  N   UNL A   1      42.883  31.293  32.138  1.00  0.00    -0.248 NA
ATOM     52  C   UNL A   1      44.196  32.483  33.659  1.00  0.00     0.031 C 
ATOM     53  C   UNL A   1      44.001  27.357  30.411  1.00  0.00     0.029 A 
ATOM     54  C   UNL A   1      43.672  28.581  30.969  1.00  0.00     0.049 A 
ATOM     55  H   UNL A   1      41.923  29.733  30.714  1.00  0.00     0.167 HD
ATOM     56  C   UNL A   1      44.054  30.586  32.379  1.00  0.00     0.074 A 
ATOM     57  C   UNL A   1      44.839  31.380  33.302  1.00  0.00     0.031 C 
ATOM     58  C   UNL A   1      44.445  29.388  31.880  1.00  0.00     0.037 A 
BRANCH  45  59
ATOM     59  C   UNL A   1      40.311  26.756  28.115  1.00  0.00     0.057 A 
ATOM     60  C   UNL A   1      40.820  26.578  26.821  1.00  0.00     0.134 A 
ATOM     61  C   UNL A   1      39.448  25.770  28.610  1.00  0.00     0.134 A 
ATOM     62  F   UNL A   1      41.642  27.491  26.282  1.00  0.00    -0.206 F 
ATOM     63  C   UNL A   1      40.460  25.477  26.040  1.00  0.00     0.040 A 
ATOM     64  C   UNL A   1      39.104  24.651  27.849  1.00  0.00     0.040 A 
ATOM     65  F   UNL A   1      38.929  25.874  29.842  1.00  0.00    -0.206 F 
ATOM     66  C   UNL A   1      39.604  24.507  26.556  1.00  0.00     0.006 A 
ENDBRANCH  45  59
BRANCH  46  67
ATOM     67  C   UNL A   1      42.289  34.694  33.835  1.00  0.00     0.057 A 
ATOM     68  C   UNL A   1      42.150  34.604  35.224  1.00  0.00     0.134 A 
ATOM     69  C   UNL A   1      42.709  35.920  33.306  1.00  0.00     0.134 A 
ATOM     70  F   UNL A   1      41.733  33.460  35.787  1.00  0.00    -0.206 F 
ATOM     71  C   UNL A   1      42.401  35.696  36.057  1.00  0.00     0.040 A 
ATOM     72  C   UNL A   1      42.988  37.014  34.129  1.00  0.00     0.040 A 
ATOM     73  F   UNL A   1      42.870  36.069  31.983  1.00  0.00    -0.206 F 
ATOM     74  C   UNL A   1      42.825  36.905  35.509  1.00  0.00     0.006 A 
ENDBRANCH  46  67
BRANCH  58  75
ATOM     75  C   UNL A   1      45.795  28.880  32.291  1.00  0.00     0.057 A 
ATOM     76  C   UNL A   1      46.955  29.191  31.571  1.00  0.00     0.134 A 
ATOM     77  C   UNL A   1      45.940  28.101  33.447  1.00  0.00     0.134 A 
ATOM     78  F   UNL A   1      46.882  29.921  30.448  1.00  0.00    -0.206 F 
ATOM     79  C   UNL A   1      48.209  28.729  31.974  1.00  0.00     0.040 A 
ATOM     80  C   UNL A   1      47.191  27.656  33.875  1.00  0.00     0.040 A 
ATOM     81  F   UNL A   1      44.869  27.773  34.187  1.00  0.00    -0.206 F 
ATOM     82  C   UNL A   1      48.330  27.965  33.134  1.00  0.00     0.006 A 
ENDBRANCH  58  75
ENDBRANCH  32  33
ENDBRANCH  24  27
ENDBRANCH  22  23
ENDBRANCH  21  22
ENDBRANCH   1  21
TORSDOF 14
ENDMDL
MODEL 2
REMARK VINA RESULT:      -9.3      0.405      6.299
REMARK SMILES C[C@H](C(=O)NCCCCCCNC(=O)c1ccc(-c2c3nc(c(-c4c(F)cccc4F)c4ccc([nH]4)c(-c4c(F)cccc4F)c4nc(c(-c5c(F)cccc5F)c5ccc2[nH]5)C=C4)C=C3)cc1)c1ccc2ncccc2c1
REMARK SMILES IDX 9 1 8 2 7 3 6 4 5 5 3 6 4 7 2 9 1 10 69 11 70 12 78 13 71 14
REMARK SMILES IDX 77 15 72 16 76 17 73 18 75 19 74 20 10 21 11 22 12 23 13 24
REMARK SMILES IDX 14 26 15 27 16 28 68 29 17 30 67 31 18 32 19 33 20 34 61 35
REMARK SMILES IDX 21 36 66 37 60 38 62 39 22 40 65 41 59 42 58 43 23 45 49 46
REMARK SMILES IDX 32 47 48 48 33 49 36 50 47 51 63 52 34 53 35 54 46 56 64 57
REMARK SMILES IDX 37 58 24 59 25 60 30 61 26 62 27 63 29 64 31 65 28 66 50 67
REMARK SMILES IDX 51 68 56 69 52 70 53 71 55 72 57 73 54 74 38 75 39 76 44 77
REMARK SMILES IDX 40 78 41 79 43 80 45 81 42 82
REMARK H PARENT 5 8 12 25 62 44 36 55
REMARK Flexibility Score: inf
ROOT
ATOM      1  C   UNL A   1      34.146  35.897  32.432  1.00  0.00     0.002 C 
ENDROOT
BRANCH   1   2
ATOM      2  C   UNL A   1      33.454  34.632  32.953  1.00  0.00     0.002 C 
BRANCH   2   3
ATOM      3  C   UNL A   1      34.393  33.640  33.640  1.00  0.00     0.021 C 
BRANCH   3   4
ATOM      4  C   UNL A   1      35.621  34.300  34.276  1.00  0.00     0.116 C 
BRANCH   4   5
ATOM      5  N   UNL A   1      35.693  33.961  35.682  1.00  0.00    -0.356 N 
ATOM      6  C   UNL A   1      36.734  33.454  36.411  1.00  0.00     0.227 C 
ATOM      7  O   UNL A   1      36.472  33.023  37.536  1.00  0.00    -0.274 OA
ATOM      8  H   UNL A   1      34.866  34.117  36.192  1.00  0.00     0.163 HD
BRANCH   6   9
ATOM      9  C   UNL A   1      38.173  33.484  35.863  1.00  0.00     0.105 C 
ATOM     10  C   UNL A   1      39.100  33.925  37.009  1.00  0.00     0.023 C 
BRANCH   9  11
ATOM     11  C   UNL A   1      38.596  32.174  35.198  1.00  0.00    -0.035 A 
ATOM     12  C   UNL A   1      39.855  31.632  35.484  1.00  0.00     0.007 A 
ATOM     13  C   UNL A   1      37.790  31.458  34.301  1.00  0.00     0.015 A 
ATOM     14  C   UNL A   1      40.342  30.506  34.815  1.00  0.00     0.029 A 
ATOM     15  C   UNL A   1      38.248  30.266  33.690  1.00  0.00     0.000 A 
ATOM     16  C   UNL A   1      39.562  29.811  33.914  1.00  0.00     0.070 A 
ATOM     17  C   UNL A   1      37.434  29.487  32.855  1.00  0.00     0.012 A 
ATOM     18  N   UNL A   1      40.075  28.720  33.320  1.00  0.00    -0.256 NA
ATOM     19  C   UNL A   1      37.946  28.337  32.261  1.00  0.00     0.021 A 
ATOM     20  C   UNL A   1      39.267  28.011  32.506  1.00  0.00     0.112 A 
ENDBRANCH   9  11
ENDBRANCH   6   9
ENDBRANCH   4   5
ENDBRANCH   3   4
ENDBRANCH   2   3
ENDBRANCH   1   2
BRANCH   1  21
ATOM     21  C   UNL A   1      33.314  36.752  31.470  1.00  0.00     0.021 C 
BRANCH  21  22
ATOM     22  C   UNL A   1      33.730  36.651  30.005  1.00  0.00     0.116 C 
BRANCH  22  23
ATOM     23  N   UNL A   1      32.883  35.727  29.268  1.00  0.00    -0.352 N 
ATOM     24  C   UNL A   1      33.196  34.518  28.699  1.00  0.00     0.251 C 
ATOM     25  H   UNL A   1      31.946  36.011  29.160  1.00  0.00     0.163 HD
ATOM     26  O   UNL A   1      32.428  33.993  27.902  1.00  0.00    -0.269 OA
BRANCH  24  27
ATOM     27  C   UNL A   1      34.467  33.847  29.046  1.00  0.00     0.039 A 
ATOM     28  C   UNL A   1      35.610  34.127  28.292  1.00  0.00     0.014 A 
ATOM     29  C   UNL A   1      34.522  32.916  30.087  1.00  0.00     0.014 A 
ATOM     30  C   UNL A   1      36.820  33.509  28.614  1.00  0.00     0.010 A 
ATOM     31  C   UNL A   1      35.742  32.354  30.451  1.00  0.00     0.010 A 
ATOM     32  C   UNL A   1      36.902  32.637  29.712  1.00  0.00    -0.014 A 
BRANCH  32  33
ATOM     33  C   UNL A   1      38.184  31.997  30.096  1.00  0.00     0.031 A 
ATOM     34  C   UNL A   1      39.143  32.717  31.003  1.00  0.00     0.074 A 
ATOM     35  C   UNL A   1      38.517  30.800  29.575  1.00  0.00     0.049 A 
ATOM     36  N   UNL A   1      40.345  32.364  31.384  1.00  0.00    -0.248 NA
ATOM     37  C   UNL A   1      38.702  34.018  31.531  1.00  0.00     0.031 C 
ATOM     38  C   UNL A   1      37.690  30.020  28.652  1.00  0.00     0.029 A 
ATOM     39  N   UNL A   1      39.645  30.037  29.738  1.00  0.00    -0.354 N 
ATOM     40  C   UNL A   1      40.810  33.407  32.178  1.00  0.00     0.074 A 
ATOM     41  C   UNL A   1      39.781  34.424  32.184  1.00  0.00     0.031 C 
ATOM     42  C   UNL A   1      38.333  28.881  28.344  1.00  0.00     0.029 A 
ATOM     43  C   UNL A   1      39.628  28.869  29.016  1.00  0.00     0.049 A 
ATOM     44  H   UNL A   1      40.395  30.302  30.317  1.00  0.00     0.167 HD
ATOM     45  C   UNL A   1      41.977  33.498  32.858  1.00  0.00     0.037 A 
ATOM     46  C   UNL A   1      40.558  27.902  28.901  1.00  0.00     0.037 A 
ATOM     47  C   UNL A   1      42.988  32.473  32.870  1.00  0.00     0.049 A 
ATOM     48  C   UNL A   1      41.848  28.027  29.661  1.00  0.00     0.074 A 
ATOM     49  C   UNL A   1      44.179  32.444  33.573  1.00  0.00     0.029 A 
ATOM     50  N   UNL A   1      42.924  31.295  32.141  1.00  0.00    -0.354 N 
ATOM     51  N   UNL A   1      42.249  28.988  30.457  1.00  0.00    -0.248 NA
ATOM     52  C   UNL A   1      42.815  26.930  29.511  1.00  0.00     0.031 C 
ATOM     53  C   UNL A   1      44.856  31.268  33.237  1.00  0.00     0.029 A 
ATOM     54  C   UNL A   1      44.065  30.540  32.363  1.00  0.00     0.049 A 
ATOM     55  H   UNL A   1      42.179  31.032  31.554  1.00  0.00     0.167 HD
ATOM     56  C   UNL A   1      43.497  28.601  30.926  1.00  0.00     0.074 A 
ATOM     57  C   UNL A   1      43.784  27.311  30.332  1.00  0.00     0.031 C 
ATOM     58  C   UNL A   1      44.331  29.253  31.771  1.00  0.00     0.037 A 
BRANCH  45  59
ATOM     59  C   UNL A   1      42.222  34.752  33.646  1.00  0.00     0.057 A 
ATOM     60  C   UNL A   1      42.652  35.937  33.034  1.00  0.00     0.134 A 
ATOM     61  C   UNL A   1      42.001  34.783  35.029  1.00  0.00     0.134 A 
ATOM     62  F   UNL A   1      42.893  35.972  31.715  1.00  0.00    -0.206 F 
ATOM     63  C   UNL A   1      42.882  37.099  33.774  1.00  0.00     0.040 A 
ATOM     64  C   UNL A   1      42.201  35.947  35.774  1.00  0.00     0.040 A 
ATOM     65  F   UNL A   1      41.583  33.687  35.678  1.00  0.00    -0.206 F 
ATOM     66  C   UNL A   1      42.651  37.107  35.147  1.00  0.00     0.006 A 
ENDBRANCH  45  59
BRANCH  46  67
ATOM     67  C   UNL A   1      40.291  26.715  28.049  1.00  0.00     0.057 A 
ATOM     68  C   UNL A   1      39.474  25.672  28.500  1.00  0.00     0.134 A 
ATOM     69  C   UNL A   1      40.846  26.592  26.770  1.00  0.00     0.134 A 
ATOM     70  F   UNL A   1      38.929  25.725  29.725  1.00  0.00    -0.206 F 
ATOM     71  C   UNL A   1      39.231  24.542  27.718  1.00  0.00     0.040 A 
ATOM     72  C   UNL A   1      40.592  25.479  25.967  1.00  0.00     0.040 A 
ATOM     73  F   UNL A   1      41.632  27.561  26.276  1.00  0.00    -0.206 F 
ATOM     74  C   UNL A   1      39.788  24.446  26.445  1.00  0.00     0.006 A 
ENDBRANCH  46  67
BRANCH  58  75
ATOM     75  C   UNL A   1      45.615  28.568  32.136  1.00  0.00     0.057 A 
ATOM     76  C   UNL A   1      45.702  27.684  33.218  1.00  0.00     0.134 A 
ATOM     77  C   UNL A   1      46.769  28.766  31.368  1.00  0.00     0.134 A 
ATOM     78  F   UNL A   1      44.635  27.462  34.002  1.00  0.00    -0.206 F 
ATOM     79  C   UNL A   1      46.897  27.036  33.537  1.00  0.00     0.040 A 
ATOM     80  C   UNL A   1      47.963  28.104  31.660  1.00  0.00     0.040 A 
ATOM     81  F   UNL A   1      46.752  29.594  30.312  1.00  0.00    -0.206 F 
ATOM     82  C   UNL A   1      48.030  27.240  32.751  1.00  0.00     0.006 A 
ENDBRANCH  58  75
ENDBRANCH  32  33
ENDBRANCH  24  27
ENDBRANCH  22  23
ENDBRANCH  21  22
ENDBRANCH   1  21
TORSDOF 14
ENDMDL
MODEL 3
REMARK VINA RESULT:      -8.9      4.505      7.205
REMARK SMILES C[C@H](C(=O)NCCCCCCNC(=O)c1ccc(-c2c3nc(c(-c4c(F)cccc4F)c4ccc([nH]4)c(-c4c(F)cccc4F)c4nc(c(-c5c(F)cccc5F)c5ccc2[nH]5)C=C4)C=C3)cc1)c1ccc2ncccc2c1
REMARK SMILES IDX 9 1 8 2 7 3 6 4 5 5 3 6 4 7 2 9 1 10 69 11 70 12 78 13 71 14
REMARK SMILES IDX 77 15 72 16 76 17 73 18 75 19 74 20 10 21 11 22 12 23 13 24
REMARK SMILES IDX 14 26 15 27 16 28 68 29 17 30 67 31 18 32 19 33 20 34 61 35
REMARK SMILES IDX 21 36 66 37 60 38 62 39 22 40 65 41 59 42 58 43 23 45 49 46
REMARK SMILES IDX 32 47 48 48 33 49 36 50 47 51 63 52 34 53 35 54 46 56 64 57
REMARK SMILES IDX 37 58 24 59 25 60 30 61 26 62 27 63 29 64 31 65 28 66 50 67
REMARK SMILES IDX 51 68 56 69 52 70 53 71 55 72 57 73 54 74 38 75 39 76 44 77
REMARK SMILES IDX 40 78 41 79 43 80 45 81 42 82
REMARK H PARENT 5 8 12 25 62 44 36 55
REMARK Flexibility Score: inf
ROOT
ATOM      1  C   UNL A   1      31.091  30.660  25.559  1.00  0.00     0.002 C 
ENDROOT
BRANCH   1   2
ATOM      2  C   UNL A   1      32.294  29.754  25.843  1.00  0.00     0.002 C 
BRANCH   2   3
ATOM      3  C   UNL A   1      32.034  28.671  26.890  1.00  0.00     0.021 C 
BRANCH   3   4
ATOM      4  C   UNL A   1      32.666  27.320  26.543  1.00  0.00     0.116 C 
BRANCH   4   5
ATOM      5  N   UNL A   1      31.764  26.244  26.901  1.00  0.00    -0.356 N 
ATOM      6  C   UNL A   1      31.021  25.419  26.103  1.00  0.00     0.227 C 
ATOM      7  O   UNL A   1      30.147  24.745  26.655  1.00  0.00    -0.274 OA
ATOM      8  H   UNL A   1      31.671  26.082  27.868  1.00  0.00     0.163 HD
BRANCH   6   9
ATOM      9  C   UNL A   1      31.313  25.300  24.596  1.00  0.00     0.105 C 
ATOM     10  C   UNL A   1      30.690  23.983  24.101  1.00  0.00     0.023 C 
BRANCH   9  11
ATOM     11  C   UNL A   1      30.876  26.527  23.795  1.00  0.00    -0.035 A 
ATOM     12  C   UNL A   1      31.804  27.180  22.975  1.00  0.00     0.007 A 
ATOM     13  C   UNL A   1      29.578  27.056  23.824  1.00  0.00     0.015 A 
ATOM     14  C   UNL A   1      31.495  28.374  22.317  1.00  0.00     0.029 A 
ATOM     15  C   UNL A   1      29.239  28.216  23.087  1.00  0.00     0.000 A 
ATOM     16  C   UNL A   1      30.225  28.912  22.361  1.00  0.00     0.070 A 
ATOM     17  C   UNL A   1      27.930  28.718  23.032  1.00  0.00     0.012 A 
ATOM     18  N   UNL A   1      29.980  30.049  21.689  1.00  0.00    -0.256 NA
ATOM     19  C   UNL A   1      27.660  29.876  22.311  1.00  0.00     0.021 A 
ATOM     20  C   UNL A   1      28.713  30.511  21.680  1.00  0.00     0.112 A 
ENDBRANCH   9  11
ENDBRANCH   6   9
ENDBRANCH   4   5
ENDBRANCH   3   4
ENDBRANCH   2   3
ENDBRANCH   1   2
BRANCH   1  21
ATOM     21  C   UNL A   1      31.037  31.956  26.376  1.00  0.00     0.021 C 
BRANCH  21  22
ATOM     22  C   UNL A   1      32.388  32.438  26.897  1.00  0.00     0.116 C 
BRANCH  22  23
ATOM     23  N   UNL A   1      32.336  33.829  27.320  1.00  0.00    -0.352 N 
ATOM     24  C   UNL A   1      33.031  34.466  28.316  1.00  0.00     0.251 C 
ATOM     25  H   UNL A   1      31.709  34.396  26.816  1.00  0.00     0.163 HD
ATOM     26  O   UNL A   1      32.680  35.576  28.701  1.00  0.00    -0.269 OA
BRANCH  24  27
ATOM     27  C   UNL A   1      34.204  33.812  28.933  1.00  0.00     0.039 A 
ATOM     28  C   UNL A   1      35.481  34.304  28.654  1.00  0.00     0.014 A 
ATOM     29  C   UNL A   1      34.047  32.691  29.753  1.00  0.00     0.014 A 
ATOM     30  C   UNL A   1      36.598  33.702  29.237  1.00  0.00     0.010 A 
ATOM     31  C   UNL A   1      35.153  32.135  30.388  1.00  0.00     0.010 A 
ATOM     32  C   UNL A   1      36.441  32.629  30.130  1.00  0.00    -0.014 A 
BRANCH  32  33
ATOM     33  C   UNL A   1      37.610  31.997  30.790  1.00  0.00     0.031 A 
ATOM     34  C   UNL A   1      38.401  30.940  30.069  1.00  0.00     0.074 A 
ATOM     35  C   UNL A   1      37.920  32.323  32.059  1.00  0.00     0.049 A 
ATOM     36  N   UNL A   1      39.398  30.212  30.503  1.00  0.00    -0.248 NA
ATOM     37  C   UNL A   1      37.999  30.644  28.684  1.00  0.00     0.031 C 
ATOM     38  C   UNL A   1      37.205  33.303  32.879  1.00  0.00     0.029 A 
ATOM     39  N   UNL A   1      38.908  31.854  32.886  1.00  0.00    -0.354 N 
ATOM     40  C   UNL A   1      39.729  29.361  29.455  1.00  0.00     0.074 A 
ATOM     41  C   UNL A   1      38.796  29.630  28.382  1.00  0.00     0.031 C 
ATOM     42  C   UNL A   1      37.789  33.374  34.086  1.00  0.00     0.029 A 
ATOM     43  C   UNL A   1      38.892  32.420  34.137  1.00  0.00     0.049 A 
ATOM     44  H   UNL A   1      39.565  31.176  32.610  1.00  0.00     0.167 HD
ATOM     45  C   UNL A   1      40.732  28.455  29.385  1.00  0.00     0.037 A 
ATOM     46  C   UNL A   1      39.674  32.188  35.209  1.00  0.00     0.037 A 
ATOM     47  C   UNL A   1      41.674  28.207  30.445  1.00  0.00     0.049 A 
ATOM     48  C   UNL A   1      40.778  31.174  35.109  1.00  0.00     0.074 A 
ATOM     49  C   UNL A   1      42.762  27.352  30.450  1.00  0.00     0.029 A 
ATOM     50  N   UNL A   1      41.637  28.816  31.690  1.00  0.00    -0.354 N 
ATOM     51  N   UNL A   1      41.119  30.421  34.092  1.00  0.00    -0.248 NA
ATOM     52  C   UNL A   1      41.610  30.979  36.305  1.00  0.00     0.031 C 
ATOM     53  C   UNL A   1      43.358  27.412  31.714  1.00  0.00     0.029 A 
ATOM     54  C   UNL A   1      42.672  28.340  32.479  1.00  0.00     0.049 A 
ATOM     55  H   UNL A   1      40.975  29.487  31.972  1.00  0.00     0.167 HD
ATOM     56  C   UNL A   1      42.220  29.687  34.512  1.00  0.00     0.074 A 
ATOM     57  C   UNL A   1      42.496  30.092  35.875  1.00  0.00     0.031 C 
ATOM     58  C   UNL A   1      42.939  28.761  33.831  1.00  0.00     0.037 A 
BRANCH  45  59
ATOM     59  C   UNL A   1      40.862  27.663  28.115  1.00  0.00     0.057 A 
ATOM     60  C   UNL A   1      41.637  28.115  27.038  1.00  0.00     0.134 A 
ATOM     61  C   UNL A   1      40.226  26.422  27.977  1.00  0.00     0.134 A 
ATOM     62  F   UNL A   1      42.263  29.300  27.101  1.00  0.00    -0.206 F 
ATOM     63  C   UNL A   1      41.749  27.375  25.859  1.00  0.00     0.040 A 
ATOM     64  C   UNL A   1      40.354  25.662  26.814  1.00  0.00     0.040 A 
ATOM     65  F   UNL A   1      39.474  25.927  28.971  1.00  0.00    -0.206 F 
ATOM     66  C   UNL A   1      41.111  26.142  25.747  1.00  0.00     0.006 A 
ENDBRANCH  45  59
BRANCH  46  67
ATOM     67  C   UNL A   1      39.455  32.950  36.465  1.00  0.00     0.057 A 
ATOM     68  C   UNL A   1      38.558  32.495  37.437  1.00  0.00     0.134 A 
ATOM     69  C   UNL A   1      40.133  34.147  36.722  1.00  0.00     0.134 A 
ATOM     70  F   UNL A   1      37.865  31.364  37.239  1.00  0.00    -0.206 F 
ATOM     71  C   UNL A   1      38.328  33.211  38.613  1.00  0.00     0.040 A 
ATOM     72  C   UNL A   1      39.931  34.862  37.905  1.00  0.00     0.040 A 
ATOM     73  F   UNL A   1      41.013  34.633  35.833  1.00  0.00    -0.206 F 
ATOM     74  C   UNL A   1      39.020  34.397  38.851  1.00  0.00     0.006 A 
ENDBRANCH  46  67
BRANCH  58  75
ATOM     75  C   UNL A   1      44.115  28.151  34.534  1.00  0.00     0.057 A 
ATOM     76  C   UNL A   1      45.384  28.742  34.507  1.00  0.00     0.134 A 
ATOM     77  C   UNL A   1      43.965  26.976  35.282  1.00  0.00     0.134 A 
ATOM     78  F   UNL A   1      45.597  29.861  33.798  1.00  0.00    -0.206 F 
ATOM     79  C   UNL A   1      46.467  28.176  35.182  1.00  0.00     0.040 A 
ATOM     80  C   UNL A   1      45.034  26.415  35.982  1.00  0.00     0.040 A 
ATOM     81  F   UNL A   1      42.774  26.362  35.356  1.00  0.00    -0.206 F 
ATOM     82  C   UNL A   1      46.291  27.012  35.928  1.00  0.00     0.006 A 
ENDBRANCH  58  75
ENDBRANCH  32  33
ENDBRANCH  24  27
ENDBRANCH  22  23
ENDBRANCH  21  22
ENDBRANCH   1  21
TORSDOF 14
ENDMDL
