MODEL 1
REMARK VINA RESULT:     -12.5      0.000      0.000
REMARK SMILES Cc1ccc([C@H](C)Nc2ccc(C(=O)NCCCCCCNC(=O)c3ccc(-c4c5nc(c(-c6c(F)cccc6F)c6ccc([nH]6)c(-c6c(F)cccc6F)c6nc(c(-c7c(F)cccc7F)c7ccc4[nH]7)C=C6)C=C5)cc3)cc2Cl)cc1F
REMARK SMILES IDX 18 1 17 2 16 3 15 4 13 5 14 6 12 8 9 9 10 10 80 11 11 12
REMARK SMILES IDX 79 13 81 14 8 15 6 17 7 18 5 19 1 20 2 21 3 22 83 23 4 24
REMARK SMILES IDX 82 25 84 26 19 27 20 28 21 29 22 30 23 31 24 33 25 34 26 35
REMARK SMILES IDX 78 36 27 37 77 38 28 39 29 40 30 41 71 42 31 43 76 44 70 45
REMARK SMILES IDX 72 46 32 47 75 48 69 49 68 50 33 52 59 53 42 54 58 55 43 56
REMARK SMILES IDX 46 57 57 58 73 59 44 60 45 61 56 63 74 64 47 65 34 66 35 67
REMARK SMILES IDX 40 68 36 69 37 70 39 71 41 72 38 73 60 74 61 75 66 76 62 77
REMARK SMILES IDX 63 78 65 79 67 80 64 81 48 82 49 83 54 84 50 85 51 86 53 87
REMARK SMILES IDX 55 88 52 89
REMARK H PARENT 15 7 8 16 22 32 72 51 46 62
REMARK Flexibility Score: inf
ROOT
ATOM      1  C   UNL A   1      32.649  29.175  25.111  1.00  0.00     0.002 C 
ENDROOT
BRANCH   1   2
ATOM      2  C   UNL A   1      33.813  28.580  24.308  1.00  0.00     0.021 C 
BRANCH   2   3
ATOM      3  C   UNL A   1      33.654  28.809  22.803  1.00  0.00     0.116 C 
BRANCH   3   4
ATOM      4  N   UNL A   1      32.264  28.684  22.426  1.00  0.00    -0.352 N 
ATOM      5  C   UNL A   1      31.424  27.611  22.291  1.00  0.00     0.251 C 
ATOM      6  O   UNL A   1      30.265  27.836  21.944  1.00  0.00    -0.269 OA
ATOM      7  H   UNL A   1      31.833  29.547  22.224  1.00  0.00     0.163 HD
BRANCH   5   8
ATOM      8  C   UNL A   1      31.828  26.216  22.615  1.00  0.00     0.041 A 
ATOM      9  C   UNL A   1      32.464  23.462  23.009  1.00  0.00     0.053 A 
ATOM     10  C   UNL A   1      32.965  24.194  21.914  1.00  0.00     0.028 A 
ATOM     11  C   UNL A   1      31.610  24.155  23.881  1.00  0.00     0.065 A 
ATOM     12  C   UNL A   1      32.618  25.532  21.692  1.00  0.00     0.016 A 
ATOM     13  C   UNL A   1      31.431  25.535  23.755  1.00  0.00     0.036 A 
ATOM     14  Cl  UNL A   1      30.679  23.454  25.161  1.00  0.00    -0.082 Cl
BRANCH   9  15
ATOM     15  N   UNL A   1      32.863  22.144  23.093  1.00  0.00    -0.377 N 
ATOM     16  H   UNL A   1      33.084  21.711  22.236  1.00  0.00     0.161 HD
BRANCH  15  17
ATOM     17  C   UNL A   1      33.002  21.308  24.278  1.00  0.00     0.106 C 
ATOM     18  C   UNL A   1      32.499  19.907  23.874  1.00  0.00     0.036 C 
BRANCH  17  19
ATOM     19  C   UNL A   1      34.426  21.410  24.826  1.00  0.00    -0.023 A 
ATOM     20  C   UNL A   1      38.696  21.584  25.626  1.00  0.00     0.047 C 
ATOM     21  C   UNL A   1      37.216  21.535  25.410  1.00  0.00    -0.015 A 
ATOM     22  C   UNL A   1      36.414  22.676  25.491  1.00  0.00     0.007 A 
ATOM     23  C   UNL A   1      36.608  20.331  25.080  1.00  0.00     0.126 A 
ATOM     24  C   UNL A   1      35.041  22.616  25.195  1.00  0.00     0.006 A 
ATOM     25  C   UNL A   1      35.243  20.263  24.832  1.00  0.00     0.045 A 
ATOM     26  F   UNL A   1      37.344  19.215  24.967  1.00  0.00    -0.207 F 
ENDBRANCH  17  19
ENDBRANCH  15  17
ENDBRANCH   9  15
ENDBRANCH   5   8
ENDBRANCH   3   4
ENDBRANCH   2   3
ENDBRANCH   1   2
BRANCH   1  27
ATOM     27  C   UNL A   1      32.788  29.063  26.645  1.00  0.00     0.002 C 
BRANCH  27  28
ATOM     28  C   UNL A   1      33.533  30.220  27.328  1.00  0.00     0.021 C 
BRANCH  28  29
ATOM     29  C   UNL A   1      34.939  29.812  27.673  1.00  0.00     0.116 C 
BRANCH  29  30
ATOM     30  N   UNL A   1      35.805  30.917  28.001  1.00  0.00    -0.352 N 
ATOM     31  C   UNL A   1      37.109  30.903  28.449  1.00  0.00     0.251 C 
ATOM     32  H   UNL A   1      35.408  31.812  27.891  1.00  0.00     0.163 HD
ATOM     33  O   UNL A   1      37.617  31.949  28.810  1.00  0.00    -0.269 OA
BRANCH  31  34
ATOM     34  C   UNL A   1      37.938  29.666  28.383  1.00  0.00     0.039 A 
ATOM     35  C   UNL A   1      37.944  28.810  29.500  1.00  0.00     0.014 A 
ATOM     36  C   UNL A   1      38.857  29.447  27.361  1.00  0.00     0.014 A 
ATOM     37  C   UNL A   1      38.982  27.898  29.668  1.00  0.00     0.010 A 
ATOM     38  C   UNL A   1      39.853  28.540  27.495  1.00  0.00     0.010 A 
ATOM     39  C   UNL A   1      39.966  27.857  28.689  1.00  0.00    -0.014 A 
BRANCH  39  40
ATOM     40  C   UNL A   1      41.210  27.139  28.741  1.00  0.00     0.031 A 
ATOM     41  C   UNL A   1      41.146  25.715  28.474  1.00  0.00     0.074 A 
ATOM     42  C   UNL A   1      42.328  27.893  28.747  1.00  0.00     0.049 A 
ATOM     43  N   UNL A   1      41.845  24.829  29.076  1.00  0.00    -0.248 NA
ATOM     44  C   UNL A   1      40.195  25.168  27.508  1.00  0.00     0.031 C 
ATOM     45  C   UNL A   1      43.713  27.543  28.509  1.00  0.00     0.029 A 
ATOM     46  N   UNL A   1      42.382  29.236  29.121  1.00  0.00    -0.354 N 
ATOM     47  C   UNL A   1      41.759  23.708  28.284  1.00  0.00     0.074 A 
ATOM     48  C   UNL A   1      40.562  23.885  27.496  1.00  0.00     0.031 C 
ATOM     49  C   UNL A   1      44.489  28.504  29.053  1.00  0.00     0.029 A 
ATOM     50  C   UNL A   1      43.622  29.453  29.740  1.00  0.00     0.049 A 
ATOM     51  H   UNL A   1      41.678  29.910  28.977  1.00  0.00     0.167 HD
ATOM     52  C   UNL A   1      42.861  22.914  28.158  1.00  0.00     0.037 A 
ATOM     53  C   UNL A   1      43.583  29.696  31.088  1.00  0.00     0.037 A 
ATOM     54  C   UNL A   1      44.002  23.522  28.869  1.00  0.00     0.049 A 
ATOM     55  C   UNL A   1      43.926  28.458  31.895  1.00  0.00     0.074 A 
ATOM     56  C   UNL A   1      45.121  24.232  28.461  1.00  0.00     0.029 A 
ATOM     57  N   UNL A   1      43.883  23.790  30.223  1.00  0.00    -0.354 N 
ATOM     58  N   UNL A   1      44.272  27.312  31.370  1.00  0.00    -0.248 NA
ATOM     59  C   UNL A   1      43.863  28.396  33.353  1.00  0.00     0.031 C 
ATOM     60  C   UNL A   1      45.645  24.942  29.589  1.00  0.00     0.029 A 
ATOM     61  C   UNL A   1      44.851  24.660  30.686  1.00  0.00     0.049 A 
ATOM     62  H   UNL A   1      43.183  23.402  30.795  1.00  0.00     0.167 HD
ATOM     63  C   UNL A   1      44.444  26.376  32.349  1.00  0.00     0.074 A 
ATOM     64  C   UNL A   1      44.165  27.104  33.578  1.00  0.00     0.031 C 
ATOM     65  C   UNL A   1      44.788  25.077  32.085  1.00  0.00     0.037 A 
BRANCH  52  66
ATOM     66  C   UNL A   1      42.986  21.806  27.136  1.00  0.00     0.057 A 
ATOM     67  C   UNL A   1      42.160  20.671  27.207  1.00  0.00     0.134 A 
ATOM     68  C   UNL A   1      43.881  21.797  26.047  1.00  0.00     0.134 A 
ATOM     69  F   UNL A   1      41.171  20.576  28.104  1.00  0.00    -0.206 F 
ATOM     70  C   UNL A   1      42.287  19.577  26.342  1.00  0.00     0.040 A 
ATOM     71  C   UNL A   1      44.060  20.687  25.207  1.00  0.00     0.040 A 
ATOM     72  F   UNL A   1      44.574  22.884  25.688  1.00  0.00    -0.206 F 
ATOM     73  C   UNL A   1      43.262  19.565  25.357  1.00  0.00     0.006 A 
ENDBRANCH  52  66
BRANCH  53  74
ATOM     74  C   UNL A   1      42.505  30.705  31.389  1.00  0.00     0.057 A 
ATOM     75  C   UNL A   1      42.741  32.017  30.919  1.00  0.00     0.134 A 
ATOM     76  C   UNL A   1      41.167  30.322  31.532  1.00  0.00     0.134 A 
ATOM     77  F   UNL A   1      43.999  32.474  30.811  1.00  0.00    -0.206 F 
ATOM     78  C   UNL A   1      41.720  32.798  30.370  1.00  0.00     0.040 A 
ATOM     79  C   UNL A   1      40.132  31.120  31.023  1.00  0.00     0.040 A 
ATOM     80  F   UNL A   1      40.849  29.112  32.014  1.00  0.00    -0.206 F 
ATOM     81  C   UNL A   1      40.416  32.321  30.371  1.00  0.00     0.006 A 
ENDBRANCH  53  74
BRANCH  65  82
ATOM     82  C   UNL A   1      45.069  24.067  33.168  1.00  0.00     0.057 A 
ATOM     83  C   UNL A   1      46.294  24.023  33.849  1.00  0.00     0.134 A 
ATOM     84  C   UNL A   1      44.168  23.030  33.495  1.00  0.00     0.134 A 
ATOM     85  F   UNL A   1      47.297  24.853  33.530  1.00  0.00    -0.206 F 
ATOM     86  C   UNL A   1      46.550  23.099  34.868  1.00  0.00     0.040 A 
ATOM     87  C   UNL A   1      44.438  22.065  34.465  1.00  0.00     0.040 A 
ATOM     88  F   UNL A   1      42.972  22.899  32.909  1.00  0.00    -0.206 F 
ATOM     89  C   UNL A   1      45.620  22.118  35.182  1.00  0.00     0.006 A 
ENDBRANCH  65  82
ENDBRANCH  39  40
ENDBRANCH  31  34
ENDBRANCH  29  30
ENDBRANCH  28  29
ENDBRANCH  27  28
ENDBRANCH   1  27
TORSDOF 16
ENDMDL
MODEL 2
REMARK VINA RESULT:     -12.2      1.756      2.236
REMARK SMILES Cc1ccc([C@H](C)Nc2ccc(C(=O)NCCCCCCNC(=O)c3ccc(-c4c5nc(c(-c6c(F)cccc6F)c6ccc([nH]6)c(-c6c(F)cccc6F)c6nc(c(-c7c(F)cccc7F)c7ccc4[nH]7)C=C6)C=C5)cc3)cc2Cl)cc1F
REMARK SMILES IDX 18 1 17 2 16 3 15 4 13 5 14 6 12 8 9 9 10 10 80 11 11 12
REMARK SMILES IDX 79 13 81 14 8 15 6 17 7 18 5 19 1 20 2 21 3 22 83 23 4 24
REMARK SMILES IDX 82 25 84 26 19 27 20 28 21 29 22 30 23 31 24 33 25 34 26 35
REMARK SMILES IDX 78 36 27 37 77 38 28 39 29 40 30 41 71 42 31 43 76 44 70 45
REMARK SMILES IDX 72 46 32 47 75 48 69 49 68 50 33 52 59 53 42 54 58 55 43 56
REMARK SMILES IDX 46 57 57 58 73 59 44 60 45 61 56 63 74 64 47 65 34 66 35 67
REMARK SMILES IDX 40 68 36 69 37 70 39 71 41 72 38 73 60 74 61 75 66 76 62 77
REMARK SMILES IDX 63 78 65 79 67 80 64 81 48 82 49 83 54 84 50 85 51 86 53 87
REMARK SMILES IDX 55 88 52 89
REMARK H PARENT 15 7 8 16 22 32 72 51 46 62
REMARK Flexibility Score: inf
ROOT
ATOM      1  C   UNL A   1      31.230  29.820  24.810  1.00  0.00     0.002 C 
ENDROOT
BRANCH   1   2
ATOM      2  C   UNL A   1      30.103  30.419  23.960  1.00  0.00     0.021 C 
BRANCH   2   3
ATOM      3  C   UNL A   1      29.745  29.533  22.764  1.00  0.00     0.116 C 
BRANCH   3   4
ATOM      4  N   UNL A   1      28.757  28.551  23.153  1.00  0.00    -0.352 N 
ATOM      5  C   UNL A   1      28.848  27.272  23.636  1.00  0.00     0.251 C 
ATOM      6  O   UNL A   1      27.797  26.680  23.876  1.00  0.00    -0.269 OA
ATOM      7  H   UNL A   1      27.830  28.865  23.048  1.00  0.00     0.163 HD
BRANCH   5   8
ATOM      8  C   UNL A   1      30.144  26.611  23.948  1.00  0.00     0.041 A 
ATOM      9  C   UNL A   1      32.570  25.163  24.344  1.00  0.00     0.053 A 
ATOM     10  C   UNL A   1      32.325  25.900  23.168  1.00  0.00     0.028 A 
ATOM     11  C   UNL A   1      31.543  25.156  25.299  1.00  0.00     0.065 A 
ATOM     12  C   UNL A   1      31.117  26.574  22.951  1.00  0.00     0.016 A 
ATOM     13  C   UNL A   1      30.429  25.988  25.153  1.00  0.00     0.036 A 
ATOM     14  Cl  UNL A   1      31.477  24.161  26.714  1.00  0.00    -0.082 Cl
BRANCH   9  15
ATOM     15  N   UNL A   1      33.791  24.524  24.416  1.00  0.00    -0.377 N 
ATOM     16  H   UNL A   1      34.566  25.104  24.599  1.00  0.00     0.161 HD
BRANCH  15  17
ATOM     17  C   UNL A   1      34.088  23.106  24.258  1.00  0.00     0.106 C 
ATOM     18  C   UNL A   1      33.964  22.809  22.750  1.00  0.00     0.036 C 
BRANCH  17  19
ATOM     19  C   UNL A   1      35.421  22.773  24.931  1.00  0.00    -0.023 A 
ATOM     20  C   UNL A   1      39.502  21.839  26.102  1.00  0.00     0.047 C 
ATOM     21  C   UNL A   1      38.081  22.160  25.758  1.00  0.00    -0.015 A 
ATOM     22  C   UNL A   1      37.506  23.399  26.052  1.00  0.00     0.007 A 
ATOM     23  C   UNL A   1      37.306  21.221  25.093  1.00  0.00     0.126 A 
ATOM     24  C   UNL A   1      36.199  23.704  25.636  1.00  0.00     0.006 A 
ATOM     25  C   UNL A   1      35.998  21.506  24.722  1.00  0.00     0.045 A 
ATOM     26  F   UNL A   1      37.825  20.027  24.769  1.00  0.00    -0.207 F 
ENDBRANCH  17  19
ENDBRANCH  15  17
ENDBRANCH   9  15
ENDBRANCH   5   8
ENDBRANCH   3   4
ENDBRANCH   2   3
ENDBRANCH   1   2
BRANCH   1  27
ATOM     27  C   UNL A   1      31.489  30.538  26.153  1.00  0.00     0.002 C 
BRANCH  27  28
ATOM     28  C   UNL A   1      32.377  29.779  27.149  1.00  0.00     0.021 C 
BRANCH  28  29
ATOM     29  C   UNL A   1      33.800  30.256  27.058  1.00  0.00     0.116 C 
BRANCH  29  30
ATOM     30  N   UNL A   1      34.168  31.201  28.084  1.00  0.00    -0.352 N 
ATOM     31  C   UNL A   1      35.189  31.134  29.008  1.00  0.00     0.251 C 
ATOM     32  H   UNL A   1      33.609  32.010  28.131  1.00  0.00     0.163 HD
ATOM     33  O   UNL A   1      35.239  31.974  29.887  1.00  0.00    -0.269 OA
BRANCH  31  34
ATOM     34  C   UNL A   1      36.289  30.137  28.878  1.00  0.00     0.039 A 
ATOM     35  C   UNL A   1      36.587  29.327  29.990  1.00  0.00     0.014 A 
ATOM     36  C   UNL A   1      37.156  30.133  27.789  1.00  0.00     0.014 A 
ATOM     37  C   UNL A   1      37.826  28.700  30.078  1.00  0.00     0.010 A 
ATOM     38  C   UNL A   1      38.352  29.500  27.847  1.00  0.00     0.010 A 
ATOM     39  C   UNL A   1      38.716  28.885  29.028  1.00  0.00    -0.014 A 
BRANCH  39  40
ATOM     40  C   UNL A   1      40.098  28.495  28.986  1.00  0.00     0.031 A 
ATOM     41  C   UNL A   1      40.371  27.123  28.606  1.00  0.00     0.074 A 
ATOM     42  C   UNL A   1      40.998  29.500  29.021  1.00  0.00     0.049 A 
ATOM     43  N   UNL A   1      41.293  26.396  29.113  1.00  0.00    -0.248 NA
ATOM     44  C   UNL A   1      39.537  26.428  27.626  1.00  0.00     0.031 C 
ATOM     45  C   UNL A   1      42.413  29.521  28.715  1.00  0.00     0.029 A 
ATOM     46  N   UNL A   1      40.740  30.785  29.501  1.00  0.00    -0.354 N 
ATOM     47  C   UNL A   1      41.445  25.348  28.235  1.00  0.00     0.074 A 
ATOM     48  C   UNL A   1      40.205  25.280  27.499  1.00  0.00     0.031 C 
ATOM     49  C   UNL A   1      42.957  30.602  29.313  1.00  0.00     0.029 A 
ATOM     50  C   UNL A   1      41.918  31.256  30.099  1.00  0.00     0.049 A 
ATOM     51  H   UNL A   1      39.887  31.271  29.432  1.00  0.00     0.167 HD
ATOM     52  C   UNL A   1      42.700  24.862  28.014  1.00  0.00     0.037 A 
ATOM     53  C   UNL A   1      41.886  31.384  31.463  1.00  0.00     0.037 A 
ATOM     54  C   UNL A   1      43.692  25.680  28.739  1.00  0.00     0.049 A 
ATOM     55  C   UNL A   1      42.559  30.214  32.157  1.00  0.00     0.074 A 
ATOM     56  C   UNL A   1      44.583  26.672  28.357  1.00  0.00     0.029 A 
ATOM     57  N   UNL A   1      43.576  25.814  30.113  1.00  0.00    -0.354 N 
ATOM     58  N   UNL A   1      43.149  29.230  31.531  1.00  0.00    -0.248 NA
ATOM     59  C   UNL A   1      42.583  30.035  33.606  1.00  0.00     0.031 C 
ATOM     60  C   UNL A   1      44.970  27.407  29.523  1.00  0.00     0.029 A 
ATOM     61  C   UNL A   1      44.324  26.860  30.616  1.00  0.00     0.049 A 
ATOM     62  H   UNL A   1      43.020  25.224  30.671  1.00  0.00     0.167 HD
ATOM     63  C   UNL A   1      43.591  28.298  32.424  1.00  0.00     0.074 A 
ATOM     64  C   UNL A   1      43.201  28.845  33.717  1.00  0.00     0.031 C 
ATOM     65  C   UNL A   1      44.228  27.147  32.046  1.00  0.00     0.037 A 
BRANCH  52  66
ATOM     66  C   UNL A   1      43.043  23.896  26.902  1.00  0.00     0.057 A 
ATOM     67  C   UNL A   1      43.013  22.508  27.126  1.00  0.00     0.134 A 
ATOM     68  C   UNL A   1      43.392  24.256  25.585  1.00  0.00     0.134 A 
ATOM     69  F   UNL A   1      42.581  21.992  28.283  1.00  0.00    -0.206 F 
ATOM     70  C   UNL A   1      43.402  21.569  26.162  1.00  0.00     0.040 A 
ATOM     71  C   UNL A   1      43.838  23.333  24.627  1.00  0.00     0.040 A 
ATOM     72  F   UNL A   1      43.249  25.507  25.129  1.00  0.00    -0.206 F 
ATOM     73  C   UNL A   1      43.849  21.980  24.917  1.00  0.00     0.006 A 
ENDBRANCH  52  66
BRANCH  53  74
ATOM     74  C   UNL A   1      40.610  32.072  31.876  1.00  0.00     0.057 A 
ATOM     75  C   UNL A   1      40.493  33.429  31.501  1.00  0.00     0.134 A 
ATOM     76  C   UNL A   1      39.416  31.359  32.033  1.00  0.00     0.134 A 
ATOM     77  F   UNL A   1      41.593  34.190  31.387  1.00  0.00    -0.206 F 
ATOM     78  C   UNL A   1      39.284  33.967  31.047  1.00  0.00     0.040 A 
ATOM     79  C   UNL A   1      38.192  31.908  31.621  1.00  0.00     0.040 A 
ATOM     80  F   UNL A   1      39.429  30.079  32.431  1.00  0.00    -0.206 F 
ATOM     81  C   UNL A   1      38.139  33.182  31.055  1.00  0.00     0.006 A 
ENDBRANCH  53  74
BRANCH  65  82
ATOM     82  C   UNL A   1      44.799  26.163  33.035  1.00  0.00     0.057 A 
ATOM     83  C   UNL A   1      46.156  25.811  33.040  1.00  0.00     0.134 A 
ATOM     84  C   UNL A   1      43.994  25.447  33.948  1.00  0.00     0.134 A 
ATOM     85  F   UNL A   1      47.005  26.301  32.126  1.00  0.00    -0.206 F 
ATOM     86  C   UNL A   1      46.692  24.912  33.969  1.00  0.00     0.040 A 
ATOM     87  C   UNL A   1      44.507  24.502  34.836  1.00  0.00     0.040 A 
ATOM     88  F   UNL A   1      42.672  25.628  34.044  1.00  0.00    -0.206 F 
ATOM     89  C   UNL A   1      45.868  24.256  34.874  1.00  0.00     0.006 A 
ENDBRANCH  65  82
ENDBRANCH  39  40
ENDBRANCH  31  34
ENDBRANCH  29  30
ENDBRANCH  28  29
ENDBRANCH  27  28
ENDBRANCH   1  27
TORSDOF 16
ENDMDL
MODEL 3
REMARK VINA RESULT:     -12.1      3.396      5.071
REMARK SMILES Cc1ccc([C@H](C)Nc2ccc(C(=O)NCCCCCCNC(=O)c3ccc(-c4c5nc(c(-c6c(F)cccc6F)c6ccc([nH]6)c(-c6c(F)cccc6F)c6nc(c(-c7c(F)cccc7F)c7ccc4[nH]7)C=C6)C=C5)cc3)cc2Cl)cc1F
REMARK SMILES IDX 18 1 17 2 16 3 15 4 13 5 14 6 12 8 9 9 10 10 80 11 11 12
REMARK SMILES IDX 79 13 81 14 8 15 6 17 7 18 5 19 1 20 2 21 3 22 83 23 4 24
REMARK SMILES IDX 82 25 84 26 19 27 20 28 21 29 22 30 23 31 24 33 25 34 26 35
REMARK SMILES IDX 78 36 27 37 77 38 28 39 29 40 30 41 71 42 31 43 76 44 70 45
REMARK SMILES IDX 72 46 32 47 75 48 69 49 68 50 33 52 59 53 42 54 58 55 43 56
REMARK SMILES IDX 46 57 57 58 73 59 44 60 45 61 56 63 74 64 47 65 34 66 35 67
REMARK SMILES IDX 40 68 36 69 37 70 39 71 41 72 38 73 60 74 61 75 66 76 62 77
REMARK SMILES IDX 63 78 65 79 67 80 64 81 48 82 49 83 54 84 50 85 51 86 53 87
REMARK SMILES IDX 55 88 52 89
REMARK H PARENT 15 7 8 16 22 32 72 51 46 62
REMARK Flexibility Score: inf
ROOT
ATOM      1  C   UNL A   1      34.427  32.828  28.630  1.00  0.00     0.002 C 
ENDROOT
BRANCH   1   2
ATOM      2  C   UNL A   1      35.453  31.826  28.085  1.00  0.00     0.021 C 
BRANCH   2   3
ATOM      3  C   UNL A   1      34.799  30.519  27.629  1.00  0.00     0.116 C 
BRANCH   3   4
ATOM      4  N   UNL A   1      33.506  30.791  27.040  1.00  0.00    -0.352 N 
ATOM      5  C   UNL A   1      32.694  30.078  26.198  1.00  0.00     0.251 C 
ATOM      6  O   UNL A   1      31.628  30.595  25.866  1.00  0.00    -0.269 OA
ATOM      7  H   UNL A   1      33.135  31.666  27.296  1.00  0.00     0.163 HD
BRANCH   5   8
ATOM      8  C   UNL A   1      33.009  28.699  25.737  1.00  0.00     0.041 A 
ATOM      9  C   UNL A   1      33.471  26.114  24.622  1.00  0.00     0.053 A 
ATOM     10  C   UNL A   1      34.027  27.279  24.059  1.00  0.00     0.028 A 
ATOM     11  C   UNL A   1      32.653  26.297  25.747  1.00  0.00     0.065 A 
ATOM     12  C   UNL A   1      33.765  28.554  24.575  1.00  0.00     0.016 A 
ATOM     13  C   UNL A   1      32.559  27.547  26.364  1.00  0.00     0.036 A 
ATOM     14  Cl  UNL A   1      31.667  25.086  26.495  1.00  0.00    -0.082 Cl
BRANCH   9  15
ATOM     15  N   UNL A   1      33.789  24.925  23.997  1.00  0.00    -0.377 N 
ATOM     16  H   UNL A   1      33.948  24.983  23.027  1.00  0.00     0.161 HD
BRANCH  15  17
ATOM     17  C   UNL A   1      33.919  23.596  24.580  1.00  0.00     0.106 C 
ATOM     18  C   UNL A   1      33.103  22.650  23.676  1.00  0.00     0.036 C 
BRANCH  17  19
ATOM     19  C   UNL A   1      35.397  23.261  24.791  1.00  0.00    -0.023 A 
ATOM     20  C   UNL A   1      39.370  22.108  26.126  1.00  0.00     0.047 C 
ATOM     21  C   UNL A   1      38.026  22.517  25.611  1.00  0.00    -0.015 A 
ATOM     22  C   UNL A   1      37.320  21.749  24.682  1.00  0.00     0.007 A 
ATOM     23  C   UNL A   1      37.429  23.675  26.090  1.00  0.00     0.126 A 
ATOM     24  C   UNL A   1      36.022  22.110  24.284  1.00  0.00     0.006 A 
ATOM     25  C   UNL A   1      36.164  24.057  25.662  1.00  0.00     0.045 A 
ATOM     26  F   UNL A   1      38.060  24.430  27.002  1.00  0.00    -0.207 F 
ENDBRANCH  17  19
ENDBRANCH  15  17
ENDBRANCH   9  15
ENDBRANCH   5   8
ENDBRANCH   3   4
ENDBRANCH   2   3
ENDBRANCH   1   2
BRANCH   1  27
ATOM     27  C   UNL A   1      34.516  34.247  28.026  1.00  0.00     0.002 C 
BRANCH  27  28
ATOM     28  C   UNL A   1      33.949  35.376  28.900  1.00  0.00     0.021 C 
BRANCH  28  29
ATOM     29  C   UNL A   1      33.433  34.827  30.202  1.00  0.00     0.116 C 
BRANCH  29  30
ATOM     30  N   UNL A   1      34.041  35.418  31.368  1.00  0.00    -0.352 N 
ATOM     31  C   UNL A   1      35.092  34.960  32.134  1.00  0.00     0.251 C 
ATOM     32  H   UNL A   1      33.649  36.273  31.661  1.00  0.00     0.163 HD
ATOM     33  O   UNL A   1      35.359  35.540  33.170  1.00  0.00    -0.269 OA
BRANCH  31  34
ATOM     34  C   UNL A   1      35.974  33.857  31.659  1.00  0.00     0.039 A 
ATOM     35  C   UNL A   1      35.895  32.614  32.315  1.00  0.00     0.014 A 
ATOM     36  C   UNL A   1      37.006  34.075  30.752  1.00  0.00     0.014 A 
ATOM     37  C   UNL A   1      36.945  31.707  32.209  1.00  0.00     0.010 A 
ATOM     38  C   UNL A   1      38.019  33.188  30.613  1.00  0.00     0.010 A 
ATOM     39  C   UNL A   1      38.030  32.069  31.422  1.00  0.00    -0.014 A 
BRANCH  39  40
ATOM     40  C   UNL A   1      39.290  31.386  31.317  1.00  0.00     0.031 A 
ATOM     41  C   UNL A   1      39.298  30.163  30.537  1.00  0.00     0.074 A 
ATOM     42  C   UNL A   1      40.376  32.085  31.702  1.00  0.00     0.049 A 
ATOM     43  N   UNL A   1      39.976  29.118  30.829  1.00  0.00    -0.248 NA
ATOM     44  C   UNL A   1      38.450  30.013  29.355  1.00  0.00     0.031 C 
ATOM     45  C   UNL A   1      41.788  31.851  31.477  1.00  0.00     0.029 A 
ATOM     46  N   UNL A   1      40.353  33.194  32.550  1.00  0.00    -0.354 N 
ATOM     47  C   UNL A   1      39.995  28.372  29.674  1.00  0.00     0.074 A 
ATOM     48  C   UNL A   1      38.862  28.827  28.903  1.00  0.00     0.031 C 
ATOM     49  C   UNL A   1      42.483  32.543  32.405  1.00  0.00     0.029 A 
ATOM     50  C   UNL A   1      41.528  33.167  33.313  1.00  0.00     0.049 A 
ATOM     51  H   UNL A   1      39.640  33.871  32.602  1.00  0.00     0.167 HD
ATOM     52  C   UNL A   1      41.130  27.683  29.363  1.00  0.00     0.037 A 
ATOM     53  C   UNL A   1      41.370  32.891  34.646  1.00  0.00     0.037 A 
ATOM     54  C   UNL A   1      42.187  27.985  30.348  1.00  0.00     0.049 A 
ATOM     55  C   UNL A   1      41.688  31.442  34.965  1.00  0.00     0.074 A 
ATOM     56  C   UNL A   1      43.311  28.798  30.333  1.00  0.00     0.029 A 
ATOM     57  N   UNL A   1      41.947  27.731  31.688  1.00  0.00    -0.354 N 
ATOM     58  N   UNL A   1      42.117  30.574  34.087  1.00  0.00    -0.248 NA
ATOM     59  C   UNL A   1      41.506  30.843  36.284  1.00  0.00     0.031 C 
ATOM     60  C   UNL A   1      43.714  29.039  31.686  1.00  0.00     0.029 A 
ATOM     61  C   UNL A   1      42.843  28.368  32.525  1.00  0.00     0.049 A 
ATOM     62  H   UNL A   1      41.216  27.156  32.010  1.00  0.00     0.167 HD
ATOM     63  C   UNL A   1      42.239  29.342  34.661  1.00  0.00     0.074 A 
ATOM     64  C   UNL A   1      41.834  29.561  36.042  1.00  0.00     0.031 C 
ATOM     65  C   UNL A   1      42.650  28.235  33.967  1.00  0.00     0.037 A 
BRANCH  52  66
ATOM     66  C   UNL A   1      41.379  27.035  28.018  1.00  0.00     0.057 A 
ATOM     67  C   UNL A   1      41.869  27.792  26.940  1.00  0.00     0.134 A 
ATOM     68  C   UNL A   1      41.178  25.673  27.718  1.00  0.00     0.134 A 
ATOM     69  F   UNL A   1      42.232  29.072  27.086  1.00  0.00    -0.206 F 
ATOM     70  C   UNL A   1      42.037  27.268  25.652  1.00  0.00     0.040 A 
ATOM     71  C   UNL A   1      41.287  25.146  26.423  1.00  0.00     0.040 A 
ATOM     72  F   UNL A   1      40.940  24.764  28.672  1.00  0.00    -0.206 F 
ATOM     73  C   UNL A   1      41.714  25.948  25.379  1.00  0.00     0.006 A 
ENDBRANCH  52  66
BRANCH  53  74
ATOM     74  C   UNL A   1      40.236  33.714  35.201  1.00  0.00     0.057 A 
ATOM     75  C   UNL A   1      39.060  33.001  35.527  1.00  0.00     0.134 A 
ATOM     76  C   UNL A   1      40.472  34.893  35.917  1.00  0.00     0.134 A 
ATOM     77  F   UNL A   1      38.738  31.891  34.843  1.00  0.00    -0.206 F 
ATOM     78  C   UNL A   1      38.313  33.295  36.671  1.00  0.00     0.040 A 
ATOM     79  C   UNL A   1      39.700  35.219  37.042  1.00  0.00     0.040 A 
ATOM     80  F   UNL A   1      41.540  35.657  35.644  1.00  0.00    -0.206 F 
ATOM     81  C   UNL A   1      38.670  34.377  37.465  1.00  0.00     0.006 A 
ENDBRANCH  53  74
BRANCH  65  82
ATOM     82  C   UNL A   1      42.875  26.895  34.620  1.00  0.00     0.057 A 
ATOM     83  C   UNL A   1      44.160  26.385  34.853  1.00  0.00     0.134 A 
ATOM     84  C   UNL A   1      41.817  26.016  34.941  1.00  0.00     0.134 A 
ATOM     85  F   UNL A   1      45.254  27.049  34.456  1.00  0.00    -0.206 F 
ATOM     86  C   UNL A   1      44.372  25.150  35.476  1.00  0.00     0.040 A 
ATOM     87  C   UNL A   1      42.019  24.757  35.505  1.00  0.00     0.040 A 
ATOM     88  F   UNL A   1      40.532  26.329  34.742  1.00  0.00    -0.206 F 
ATOM     89  C   UNL A   1      43.300  24.332  35.807  1.00  0.00     0.006 A 
ENDBRANCH  65  82
ENDBRANCH  39  40
ENDBRANCH  31  34
ENDBRANCH  29  30
ENDBRANCH  28  29
ENDBRANCH  27  28
ENDBRANCH   1  27
TORSDOF 16
ENDMDL
