MODEL 1
REMARK VINA RESULT:     -13.2      0.000      0.000
REMARK SMILES C[C@@H](C(=O)NCCCCCCNC(=O)c1ccc(-c2c3nc(c(-c4c(F)cccc4F)c4ccc([nH]4)c(-c4c(F)cccc4F)c4nc(c(-c5c(F)cccc5F)c5ccc2[nH]5)C=C4)C=C3)cc1)c1ccc2c3cc(Cl)ccc3n(C(=O)c3ccc(Cl)cc3)c2c1
REMARK SMILES IDX 8 1 7 2 6 3 5 4 3 5 4 6 2 8 1 9 69 10 70 11 91 12 71 13
REMARK SMILES IDX 90 14 72 15 80 16 73 17 79 18 74 19 78 20 75 21 77 22 76 23
REMARK SMILES IDX 81 24 82 25 83 26 84 27 89 28 85 29 88 30 86 31 87 32 9 33
REMARK SMILES IDX 10 34 11 35 12 36 13 37 14 39 15 40 16 41 68 42 17 43 67 44
REMARK SMILES IDX 18 45 19 46 20 47 61 48 21 49 66 50 60 51 62 52 22 53 65 54
REMARK SMILES IDX 59 55 58 56 23 58 49 59 32 60 48 61 33 62 36 63 47 64 63 65
REMARK SMILES IDX 34 66 35 67 46 69 64 70 37 71 24 72 25 73 30 74 26 75 27 76
REMARK SMILES IDX 29 77 31 78 28 79 50 80 51 81 56 82 52 83 53 84 55 85 57 86
REMARK SMILES IDX 54 87 38 88 39 89 44 90 40 91 41 92 43 93 45 94 42 95
REMARK H PARENT 5 7 12 38 62 57 36 68
REMARK Flexibility Score: inf
ROOT
ATOM      1  C   UNL A   1      32.399  30.022  27.027  1.00  0.00     0.002 C 
ENDROOT
BRANCH   1   2
ATOM      2  C   UNL A   1      31.776  28.754  27.626  1.00  0.00     0.021 C 
BRANCH   2   3
ATOM      3  C   UNL A   1      32.179  27.464  26.902  1.00  0.00     0.116 C 
BRANCH   3   4
ATOM      4  N   UNL A   1      31.011  26.637  26.703  1.00  0.00    -0.356 N 
ATOM      5  C   UNL A   1      30.671  25.972  25.559  1.00  0.00     0.227 C 
ATOM      6  O   UNL A   1      29.468  25.900  25.303  1.00  0.00    -0.274 OA
ATOM      7  H   UNL A   1      30.400  26.542  27.469  1.00  0.00     0.163 HD
BRANCH   5   8
ATOM      8  C   UNL A   1      31.792  25.390  24.689  1.00  0.00     0.105 C 
ATOM      9  C   UNL A   1      31.451  25.632  23.210  1.00  0.00     0.023 C 
BRANCH   8  10
ATOM     10  C   UNL A   1      32.116  23.910  24.909  1.00  0.00    -0.034 A 
ATOM     11  C   UNL A   1      31.171  22.960  25.296  1.00  0.00     0.005 A 
ATOM     12  C   UNL A   1      33.437  23.482  24.684  1.00  0.00     0.032 A 
ATOM     13  C   UNL A   1      31.465  21.596  25.271  1.00  0.00     0.011 A 
ATOM     14  C   UNL A   1      33.753  22.110  24.715  1.00  0.00     0.057 A 
ATOM     15  C   UNL A   1      32.758  21.167  24.925  1.00  0.00     0.008 A 
ATOM     16  N   UNL A   1      34.973  21.438  24.524  1.00  0.00    -0.276 N 
ATOM     17  C   UNL A   1      33.333  19.892  24.727  1.00  0.00     0.009 A 
ATOM     18  C   UNL A   1      34.721  20.060  24.592  1.00  0.00     0.057 A 
ATOM     19  C   UNL A   1      32.764  18.602  24.717  1.00  0.00     0.031 A 
ATOM     20  C   UNL A   1      35.561  18.930  24.626  1.00  0.00     0.029 A 
ATOM     21  C   UNL A   1      33.597  17.494  24.667  1.00  0.00     0.041 A 
ATOM     22  C   UNL A   1      34.977  17.652  24.659  1.00  0.00     0.023 A 
ATOM     23  Cl  UNL A   1      32.903  15.919  24.663  1.00  0.00    -0.084 Cl
BRANCH  16  24
ATOM     24  C   UNL A   1      36.205  22.134  24.359  1.00  0.00     0.262 C 
ATOM     25  O   UNL A   1      36.341  22.721  23.281  1.00  0.00    -0.268 OA
BRANCH  24  26
ATOM     26  C   UNL A   1      37.386  22.229  25.266  1.00  0.00     0.040 A 
ATOM     27  C   UNL A   1      37.561  23.457  25.944  1.00  0.00     0.015 A 
ATOM     28  C   UNL A   1      38.393  21.266  25.374  1.00  0.00     0.015 A 
ATOM     29  C   UNL A   1      38.692  23.713  26.720  1.00  0.00     0.021 A 
ATOM     30  C   UNL A   1      39.518  21.511  26.182  1.00  0.00     0.021 A 
ATOM     31  C   UNL A   1      39.666  22.732  26.842  1.00  0.00     0.041 A 
ATOM     32  Cl  UNL A   1      41.069  23.042  27.786  1.00  0.00    -0.084 Cl
ENDBRANCH  24  26
ENDBRANCH  16  24
ENDBRANCH   8  10
ENDBRANCH   5   8
ENDBRANCH   3   4
ENDBRANCH   2   3
ENDBRANCH   1   2
BRANCH   1  33
ATOM     33  C   UNL A   1      31.447  30.840  26.153  1.00  0.00     0.002 C 
BRANCH  33  34
ATOM     34  C   UNL A   1      31.401  32.328  26.502  1.00  0.00     0.021 C 
BRANCH  34  35
ATOM     35  C   UNL A   1      32.647  32.835  27.216  1.00  0.00     0.116 C 
BRANCH  35  36
ATOM     36  N   UNL A   1      32.481  34.201  27.684  1.00  0.00    -0.352 N 
ATOM     37  C   UNL A   1      33.096  34.837  28.731  1.00  0.00     0.251 C 
ATOM     38  H   UNL A   1      31.835  34.746  27.178  1.00  0.00     0.163 HD
ATOM     39  O   UNL A   1      32.677  35.916  29.133  1.00  0.00    -0.269 OA
BRANCH  37  40
ATOM     40  C   UNL A   1      34.259  34.203  29.387  1.00  0.00     0.039 A 
ATOM     41  C   UNL A   1      34.034  33.315  30.440  1.00  0.00     0.014 A 
ATOM     42  C   UNL A   1      35.562  34.484  28.965  1.00  0.00     0.014 A 
ATOM     43  C   UNL A   1      35.116  32.662  31.031  1.00  0.00     0.010 A 
ATOM     44  C   UNL A   1      36.632  33.775  29.503  1.00  0.00     0.010 A 
ATOM     45  C   UNL A   1      36.420  32.859  30.544  1.00  0.00    -0.014 A 
BRANCH  45  46
ATOM     46  C   UNL A   1      37.565  32.099  31.108  1.00  0.00     0.031 A 
ATOM     47  C   UNL A   1      37.996  32.316  32.532  1.00  0.00     0.074 A 
ATOM     48  C   UNL A   1      38.242  31.244  30.318  1.00  0.00     0.049 A 
ATOM     49  N   UNL A   1      38.987  31.766  33.185  1.00  0.00    -0.248 NA
ATOM     50  C   UNL A   1      37.228  33.293  33.319  1.00  0.00     0.031 C 
ATOM     51  C   UNL A   1      37.951  30.985  28.905  1.00  0.00     0.029 A 
ATOM     52  N   UNL A   1      39.317  30.435  30.588  1.00  0.00    -0.354 N 
ATOM     53  C   UNL A   1      38.963  32.330  34.454  1.00  0.00     0.074 A 
ATOM     54  C   UNL A   1      37.897  33.308  34.462  1.00  0.00     0.031 C 
ATOM     55  C   UNL A   1      38.807  30.060  28.442  1.00  0.00     0.029 A 
ATOM     56  C   UNL A   1      39.732  29.691  29.509  1.00  0.00     0.049 A 
ATOM     57  H   UNL A   1      39.751  30.393  31.470  1.00  0.00     0.167 HD
ATOM     58  C   UNL A   1      39.741  32.039  35.525  1.00  0.00     0.037 A 
ATOM     59  C   UNL A   1      40.748  28.816  29.392  1.00  0.00     0.037 A 
ATOM     60  C   UNL A   1      40.793  31.055  35.518  1.00  0.00     0.049 A 
ATOM     61  C   UNL A   1      41.609  28.530  30.591  1.00  0.00     0.074 A 
ATOM     62  C   UNL A   1      41.605  30.655  36.564  1.00  0.00     0.029 A 
ATOM     63  N   UNL A   1      41.180  30.319  34.408  1.00  0.00    -0.354 N 
ATOM     64  N   UNL A   1      41.528  29.018  31.805  1.00  0.00    -0.248 NA
ATOM     65  C   UNL A   1      42.701  27.563  30.405  1.00  0.00     0.031 C 
ATOM     66  C   UNL A   1      42.517  29.715  36.077  1.00  0.00     0.029 A 
ATOM     67  C   UNL A   1      42.236  29.486  34.740  1.00  0.00     0.049 A 
ATOM     68  H   UNL A   1      40.766  30.379  33.517  1.00  0.00     0.167 HD
ATOM     69  C   UNL A   1      42.536  28.400  32.533  1.00  0.00     0.074 A 
ATOM     70  C   UNL A   1      43.200  27.483  31.630  1.00  0.00     0.031 C 
ATOM     71  C   UNL A   1      42.885  28.576  33.830  1.00  0.00     0.037 A 
BRANCH  58  72
ATOM     72  C   UNL A   1      39.481  32.788  36.800  1.00  0.00     0.057 A 
ATOM     73  C   UNL A   1      40.179  33.960  37.122  1.00  0.00     0.134 A 
ATOM     74  C   UNL A   1      38.485  32.367  37.690  1.00  0.00     0.134 A 
ATOM     75  F   UNL A   1      41.155  34.413  36.319  1.00  0.00    -0.206 F 
ATOM     76  C   UNL A   1      39.908  34.675  38.289  1.00  0.00     0.040 A 
ATOM     77  C   UNL A   1      38.185  33.089  38.846  1.00  0.00     0.040 A 
ATOM     78  F   UNL A   1      37.774  31.257  37.441  1.00  0.00    -0.206 F 
ATOM     79  C   UNL A   1      38.902  34.245  39.151  1.00  0.00     0.006 A 
ENDBRANCH  58  72
BRANCH  59  80
ATOM     80  C   UNL A   1      41.007  28.136  28.096  1.00  0.00     0.057 A 
ATOM     81  C   UNL A   1      40.390  26.920  27.779  1.00  0.00     0.134 A 
ATOM     82  C   UNL A   1      41.902  28.666  27.159  1.00  0.00     0.134 A 
ATOM     83  F   UNL A   1      39.535  26.351  28.643  1.00  0.00    -0.206 F 
ATOM     84  C   UNL A   1      40.677  26.240  26.595  1.00  0.00     0.040 A 
ATOM     85  C   UNL A   1      42.175  28.012  25.957  1.00  0.00     0.040 A 
ATOM     86  F   UNL A   1      42.521  29.833  27.397  1.00  0.00    -0.206 F 
ATOM     87  C   UNL A   1      41.571  26.788  25.677  1.00  0.00     0.006 A 
ENDBRANCH  59  80
BRANCH  71  88
ATOM     88  C   UNL A   1      44.012  27.735  34.357  1.00  0.00     0.057 A 
ATOM     89  C   UNL A   1      45.337  28.189  34.359  1.00  0.00     0.134 A 
ATOM     90  C   UNL A   1      43.764  26.462  34.889  1.00  0.00     0.134 A 
ATOM     91  F   UNL A   1      45.645  29.392  33.851  1.00  0.00    -0.206 F 
ATOM     92  C   UNL A   1      46.379  27.394  34.840  1.00  0.00     0.040 A 
ATOM     93  C   UNL A   1      44.793  25.673  35.403  1.00  0.00     0.040 A 
ATOM     94  F   UNL A   1      42.516  25.970  34.928  1.00  0.00    -0.206 F 
ATOM     95  C   UNL A   1      46.106  26.135  35.370  1.00  0.00     0.006 A 
ENDBRANCH  71  88
ENDBRANCH  45  46
ENDBRANCH  37  40
ENDBRANCH  35  36
ENDBRANCH  34  35
ENDBRANCH  33  34
ENDBRANCH   1  33
TORSDOF 16
ENDMDL
MODEL 2
REMARK VINA RESULT:     -13.1      4.629     10.564
REMARK SMILES C[C@@H](C(=O)NCCCCCCNC(=O)c1ccc(-c2c3nc(c(-c4c(F)cccc4F)c4ccc([nH]4)c(-c4c(F)cccc4F)c4nc(c(-c5c(F)cccc5F)c5ccc2[nH]5)C=C4)C=C3)cc1)c1ccc2c3cc(Cl)ccc3n(C(=O)c3ccc(Cl)cc3)c2c1
REMARK SMILES IDX 8 1 7 2 6 3 5 4 3 5 4 6 2 8 1 9 69 10 70 11 91 12 71 13
REMARK SMILES IDX 90 14 72 15 80 16 73 17 79 18 74 19 78 20 75 21 77 22 76 23
REMARK SMILES IDX 81 24 82 25 83 26 84 27 89 28 85 29 88 30 86 31 87 32 9 33
REMARK SMILES IDX 10 34 11 35 12 36 13 37 14 39 15 40 16 41 68 42 17 43 67 44
REMARK SMILES IDX 18 45 19 46 20 47 61 48 21 49 66 50 60 51 62 52 22 53 65 54
REMARK SMILES IDX 59 55 58 56 23 58 49 59 32 60 48 61 33 62 36 63 47 64 63 65
REMARK SMILES IDX 34 66 35 67 46 69 64 70 37 71 24 72 25 73 30 74 26 75 27 76
REMARK SMILES IDX 29 77 31 78 28 79 50 80 51 81 56 82 52 83 53 84 55 85 57 86
REMARK SMILES IDX 54 87 38 88 39 89 44 90 40 91 41 92 43 93 45 94 42 95
REMARK H PARENT 5 7 12 38 62 57 36 68
REMARK Flexibility Score: inf
ROOT
ATOM      1  C   UNL A   1      37.226  22.008  24.685  1.00  0.00     0.002 C 
ENDROOT
BRANCH   1   2
ATOM      2  C   UNL A   1      36.682  22.771  23.469  1.00  0.00     0.021 C 
BRANCH   2   3
ATOM      3  C   UNL A   1      35.319  23.430  23.712  1.00  0.00     0.116 C 
BRANCH   3   4
ATOM      4  N   UNL A   1      34.271  22.566  23.217  1.00  0.00    -0.356 N 
ATOM      5  C   UNL A   1      33.154  22.172  23.897  1.00  0.00     0.227 C 
ATOM      6  O   UNL A   1      32.753  21.029  23.678  1.00  0.00    -0.274 OA
ATOM      7  H   UNL A   1      34.372  22.229  22.298  1.00  0.00     0.163 HD
BRANCH   5   8
ATOM      8  C   UNL A   1      32.503  23.161  24.873  1.00  0.00     0.105 C 
ATOM      9  C   UNL A   1      31.317  22.470  25.565  1.00  0.00     0.023 C 
BRANCH   8  10
ATOM     10  C   UNL A   1      32.046  24.495  24.276  1.00  0.00    -0.034 A 
ATOM     11  C   UNL A   1      31.657  24.656  22.947  1.00  0.00     0.005 A 
ATOM     12  C   UNL A   1      31.995  25.616  25.125  1.00  0.00     0.032 A 
ATOM     13  C   UNL A   1      31.046  25.831  22.509  1.00  0.00     0.011 A 
ATOM     14  C   UNL A   1      31.432  26.824  24.671  1.00  0.00     0.057 A 
ATOM     15  C   UNL A   1      30.885  26.907  23.399  1.00  0.00     0.008 A 
ATOM     16  N   UNL A   1      31.263  28.063  25.313  1.00  0.00    -0.276 N 
ATOM     17  C   UNL A   1      30.247  28.163  23.293  1.00  0.00     0.009 A 
ATOM     18  C   UNL A   1      30.578  28.914  24.432  1.00  0.00     0.057 A 
ATOM     19  C   UNL A   1      29.458  28.726  22.269  1.00  0.00     0.031 A 
ATOM     20  C   UNL A   1      30.274  30.289  24.467  1.00  0.00     0.029 A 
ATOM     21  C   UNL A   1      29.092  30.062  22.352  1.00  0.00     0.041 A 
ATOM     22  C   UNL A   1      29.523  30.843  23.416  1.00  0.00     0.023 A 
ATOM     23  Cl  UNL A   1      28.137  30.752  21.098  1.00  0.00    -0.084 Cl
BRANCH  16  24
ATOM     24  C   UNL A   1      31.788  28.324  26.610  1.00  0.00     0.262 C 
ATOM     25  O   UNL A   1      31.185  27.785  27.543  1.00  0.00    -0.268 OA
BRANCH  24  26
ATOM     26  C   UNL A   1      32.929  29.189  27.032  1.00  0.00     0.040 A 
ATOM     27  C   UNL A   1      32.633  30.552  27.258  1.00  0.00     0.015 A 
ATOM     28  C   UNL A   1      34.266  28.788  27.072  1.00  0.00     0.015 A 
ATOM     29  C   UNL A   1      33.634  31.485  27.534  1.00  0.00     0.021 A 
ATOM     30  C   UNL A   1      35.272  29.721  27.382  1.00  0.00     0.021 A 
ATOM     31  C   UNL A   1      34.953  31.062  27.603  1.00  0.00     0.041 A 
ATOM     32  Cl  UNL A   1      36.195  32.205  27.929  1.00  0.00    -0.084 Cl
ENDBRANCH  24  26
ENDBRANCH  16  24
ENDBRANCH   8  10
ENDBRANCH   5   8
ENDBRANCH   3   4
ENDBRANCH   2   3
ENDBRANCH   1   2
BRANCH   1  33
ATOM     33  C   UNL A   1      36.800  20.540  24.751  1.00  0.00     0.002 C 
BRANCH  33  34
ATOM     34  C   UNL A   1      37.955  19.562  24.970  1.00  0.00     0.021 C 
BRANCH  34  35
ATOM     35  C   UNL A   1      39.137  20.160  25.722  1.00  0.00     0.116 C 
BRANCH  35  36
ATOM     36  N   UNL A   1      40.198  19.187  25.917  1.00  0.00    -0.352 N 
ATOM     37  C   UNL A   1      41.538  19.397  26.124  1.00  0.00     0.251 C 
ATOM     38  H   UNL A   1      39.916  18.243  25.898  1.00  0.00     0.163 HD
ATOM     39  O   UNL A   1      42.330  18.467  26.042  1.00  0.00    -0.269 OA
BRANCH  37  40
ATOM     40  C   UNL A   1      42.023  20.759  26.427  1.00  0.00     0.039 A 
ATOM     41  C   UNL A   1      42.249  21.643  25.371  1.00  0.00     0.014 A 
ATOM     42  C   UNL A   1      42.252  21.162  27.747  1.00  0.00     0.014 A 
ATOM     43  C   UNL A   1      42.651  22.951  25.643  1.00  0.00     0.010 A 
ATOM     44  C   UNL A   1      42.576  22.488  28.020  1.00  0.00     0.010 A 
ATOM     45  C   UNL A   1      42.782  23.395  26.970  1.00  0.00    -0.014 A 
BRANCH  45  46
ATOM     46  C   UNL A   1      43.119  24.809  27.268  1.00  0.00     0.031 A 
ATOM     47  C   UNL A   1      44.468  25.365  26.901  1.00  0.00     0.074 A 
ATOM     48  C   UNL A   1      42.221  25.581  27.911  1.00  0.00     0.049 A 
ATOM     49  N   UNL A   1      44.949  26.565  27.108  1.00  0.00    -0.248 NA
ATOM     50  C   UNL A   1      45.407  24.450  26.234  1.00  0.00     0.031 C 
ATOM     51  C   UNL A   1      40.898  25.142  28.363  1.00  0.00     0.029 A 
ATOM     52  N   UNL A   1      42.284  26.896  28.297  1.00  0.00    -0.354 N 
ATOM     53  C   UNL A   1      46.241  26.546  26.600  1.00  0.00     0.074 A 
ATOM     54  C   UNL A   1      46.493  25.201  26.130  1.00  0.00     0.031 C 
ATOM     55  C   UNL A   1      40.266  26.176  28.940  1.00  0.00     0.029 A 
ATOM     56  C   UNL A   1      41.149  27.337  28.935  1.00  0.00     0.049 A 
ATOM     57  H   UNL A   1      43.068  27.469  28.135  1.00  0.00     0.167 HD
ATOM     58  C   UNL A   1      47.130  27.566  26.510  1.00  0.00     0.037 A 
ATOM     59  C   UNL A   1      40.857  28.541  29.464  1.00  0.00     0.037 A 
ATOM     60  C   UNL A   1      46.872  28.907  26.968  1.00  0.00     0.049 A 
ATOM     61  C   UNL A   1      41.872  29.647  29.369  1.00  0.00     0.074 A 
ATOM     62  C   UNL A   1      47.691  30.019  26.877  1.00  0.00     0.029 A 
ATOM     63  N   UNL A   1      45.711  29.316  27.605  1.00  0.00    -0.354 N 
ATOM     64  N   UNL A   1      43.063  29.634  28.821  1.00  0.00    -0.248 NA
ATOM     65  C   UNL A   1      41.498  30.939  29.960  1.00  0.00     0.031 C 
ATOM     66  C   UNL A   1      47.046  31.089  27.504  1.00  0.00     0.029 A 
ATOM     67  C   UNL A   1      45.802  30.658  27.935  1.00  0.00     0.049 A 
ATOM     68  H   UNL A   1      44.936  28.739  27.793  1.00  0.00     0.167 HD
ATOM     69  C   UNL A   1      43.568  30.918  28.976  1.00  0.00     0.074 A 
ATOM     70  C   UNL A   1      42.544  31.690  29.648  1.00  0.00     0.031 C 
ATOM     71  C   UNL A   1      44.771  31.415  28.601  1.00  0.00     0.037 A 
BRANCH  58  72
ATOM     72  C   UNL A   1      48.464  27.275  25.885  1.00  0.00     0.057 A 
ATOM     73  C   UNL A   1      49.570  26.889  26.655  1.00  0.00     0.134 A 
ATOM     74  C   UNL A   1      48.632  27.326  24.496  1.00  0.00     0.134 A 
ATOM     75  F   UNL A   1      49.481  26.831  27.993  1.00  0.00    -0.206 F 
ATOM     76  C   UNL A   1      50.798  26.582  26.067  1.00  0.00     0.040 A 
ATOM     77  C   UNL A   1      49.847  26.992  23.894  1.00  0.00     0.040 A 
ATOM     78  F   UNL A   1      47.614  27.681  23.698  1.00  0.00    -0.206 F 
ATOM     79  C   UNL A   1      50.937  26.624  24.682  1.00  0.00     0.006 A 
ENDBRANCH  58  72
BRANCH  59  80
ATOM     80  C   UNL A   1      39.546  28.773  30.124  1.00  0.00     0.057 A 
ATOM     81  C   UNL A   1      39.347  28.457  31.472  1.00  0.00     0.134 A 
ATOM     82  C   UNL A   1      38.452  29.282  29.414  1.00  0.00     0.134 A 
ATOM     83  F   UNL A   1      40.351  27.948  32.203  1.00  0.00    -0.206 F 
ATOM     84  C   UNL A   1      38.102  28.609  32.084  1.00  0.00     0.040 A 
ATOM     85  C   UNL A   1      37.209  29.469  30.021  1.00  0.00     0.040 A 
ATOM     86  F   UNL A   1      38.577  29.614  28.120  1.00  0.00    -0.206 F 
ATOM     87  C   UNL A   1      37.028  29.120  31.358  1.00  0.00     0.006 A 
ENDBRANCH  59  80
BRANCH  71  88
ATOM     88  C   UNL A   1      45.029  32.868  28.877  1.00  0.00     0.057 A 
ATOM     89  C   UNL A   1      45.665  33.298  30.048  1.00  0.00     0.134 A 
ATOM     90  C   UNL A   1      44.655  33.848  27.947  1.00  0.00     0.134 A 
ATOM     91  F   UNL A   1      46.037  32.413  30.985  1.00  0.00    -0.206 F 
ATOM     92  C   UNL A   1      45.890  34.653  30.301  1.00  0.00     0.040 A 
ATOM     93  C   UNL A   1      44.904  35.202  28.174  1.00  0.00     0.040 A 
ATOM     94  F   UNL A   1      44.051  33.504  26.799  1.00  0.00    -0.206 F 
ATOM     95  C   UNL A   1      45.514  35.608  29.358  1.00  0.00     0.006 A 
ENDBRANCH  71  88
ENDBRANCH  45  46
ENDBRANCH  37  40
ENDBRANCH  35  36
ENDBRANCH  34  35
ENDBRANCH  33  34
ENDBRANCH   1  33
TORSDOF 16
ENDMDL
MODEL 3
REMARK VINA RESULT:     -12.8      5.304     10.537
REMARK SMILES C[C@@H](C(=O)NCCCCCCNC(=O)c1ccc(-c2c3nc(c(-c4c(F)cccc4F)c4ccc([nH]4)c(-c4c(F)cccc4F)c4nc(c(-c5c(F)cccc5F)c5ccc2[nH]5)C=C4)C=C3)cc1)c1ccc2c3cc(Cl)ccc3n(C(=O)c3ccc(Cl)cc3)c2c1
REMARK SMILES IDX 8 1 7 2 6 3 5 4 3 5 4 6 2 8 1 9 69 10 70 11 91 12 71 13
REMARK SMILES IDX 90 14 72 15 80 16 73 17 79 18 74 19 78 20 75 21 77 22 76 23
REMARK SMILES IDX 81 24 82 25 83 26 84 27 89 28 85 29 88 30 86 31 87 32 9 33
REMARK SMILES IDX 10 34 11 35 12 36 13 37 14 39 15 40 16 41 68 42 17 43 67 44
REMARK SMILES IDX 18 45 19 46 20 47 61 48 21 49 66 50 60 51 62 52 22 53 65 54
REMARK SMILES IDX 59 55 58 56 23 58 49 59 32 60 48 61 33 62 36 63 47 64 63 65
REMARK SMILES IDX 34 66 35 67 46 69 64 70 37 71 24 72 25 73 30 74 26 75 27 76
REMARK SMILES IDX 29 77 31 78 28 79 50 80 51 81 56 82 52 83 53 84 55 85 57 86
REMARK SMILES IDX 54 87 38 88 39 89 44 90 40 91 41 92 43 93 45 94 42 95
REMARK H PARENT 5 7 12 38 62 57 36 68
REMARK Flexibility Score: inf
ROOT
ATOM      1  C   UNL A   1      41.702  18.877  26.493  1.00  0.00     0.002 C 
ENDROOT
BRANCH   1   2
ATOM      2  C   UNL A   1      43.050  18.221  26.163  1.00  0.00     0.021 C 
BRANCH   2   3
ATOM      3  C   UNL A   1      43.737  18.809  24.925  1.00  0.00     0.116 C 
BRANCH   3   4
ATOM      4  N   UNL A   1      45.046  19.303  25.289  1.00  0.00    -0.356 N 
ATOM      5  C   UNL A   1      45.574  20.521  24.969  1.00  0.00     0.227 C 
ATOM      6  O   UNL A   1      46.783  20.553  24.740  1.00  0.00    -0.274 OA
ATOM      7  H   UNL A   1      45.614  18.700  25.821  1.00  0.00     0.163 HD
BRANCH   5   8
ATOM      8  C   UNL A   1      44.634  21.733  24.906  1.00  0.00     0.105 C 
ATOM      9  C   UNL A   1      45.008  22.589  23.686  1.00  0.00     0.023 C 
BRANCH   8  10
ATOM     10  C   UNL A   1      44.584  22.611  26.159  1.00  0.00    -0.034 A 
ATOM     11  C   UNL A   1      43.468  22.714  26.989  1.00  0.00     0.005 A 
ATOM     12  C   UNL A   1      45.738  23.338  26.503  1.00  0.00     0.032 A 
ATOM     13  C   UNL A   1      43.545  23.351  28.228  1.00  0.00     0.011 A 
ATOM     14  C   UNL A   1      45.801  24.033  27.726  1.00  0.00     0.057 A 
ATOM     15  C   UNL A   1      44.743  23.971  28.620  1.00  0.00     0.008 A 
ATOM     16  N   UNL A   1      46.822  24.816  28.293  1.00  0.00    -0.276 N 
ATOM     17  C   UNL A   1      45.159  24.606  29.813  1.00  0.00     0.009 A 
ATOM     18  C   UNL A   1      46.396  25.222  29.567  1.00  0.00     0.057 A 
ATOM     19  C   UNL A   1      44.527  24.745  31.066  1.00  0.00     0.031 A 
ATOM     20  C   UNL A   1      46.920  26.126  30.511  1.00  0.00     0.029 A 
ATOM     21  C   UNL A   1      45.094  25.574  32.023  1.00  0.00     0.041 A 
ATOM     22  C   UNL A   1      46.254  26.283  31.739  1.00  0.00     0.023 A 
ATOM     23  Cl  UNL A   1      44.319  25.750  33.549  1.00  0.00    -0.084 Cl
BRANCH  16  24
ATOM     24  C   UNL A   1      48.017  25.132  27.586  1.00  0.00     0.262 C 
ATOM     25  O   UNL A   1      49.065  24.776  28.133  1.00  0.00    -0.268 OA
BRANCH  24  26
ATOM     26  C   UNL A   1      48.211  25.873  26.305  1.00  0.00     0.040 A 
ATOM     27  C   UNL A   1      47.047  26.404  25.704  1.00  0.00     0.015 A 
ATOM     28  C   UNL A   1      49.412  25.947  25.596  1.00  0.00     0.015 A 
ATOM     29  C   UNL A   1      47.080  27.007  24.446  1.00  0.00     0.021 A 
ATOM     30  C   UNL A   1      49.452  26.583  24.343  1.00  0.00     0.021 A 
ATOM     31  C   UNL A   1      48.289  27.101  23.772  1.00  0.00     0.041 A 
ATOM     32  Cl  UNL A   1      48.338  27.831  22.215  1.00  0.00    -0.084 Cl
ENDBRANCH  24  26
ENDBRANCH  16  24
ENDBRANCH   8  10
ENDBRANCH   5   8
ENDBRANCH   3   4
ENDBRANCH   2   3
ENDBRANCH   1   2
BRANCH   1  33
ATOM     33  C   UNL A   1      41.719  19.756  27.745  1.00  0.00     0.002 C 
BRANCH  33  34
ATOM     34  C   UNL A   1      40.786  20.965  27.673  1.00  0.00     0.021 C 
BRANCH  34  35
ATOM     35  C   UNL A   1      40.758  21.645  26.311  1.00  0.00     0.116 C 
BRANCH  35  36
ATOM     36  N   UNL A   1      39.400  21.923  25.875  1.00  0.00    -0.352 N 
ATOM     37  C   UNL A   1      38.626  23.031  26.106  1.00  0.00     0.251 C 
ATOM     38  H   UNL A   1      38.975  21.214  25.338  1.00  0.00     0.163 HD
ATOM     39  O   UNL A   1      37.426  23.010  25.862  1.00  0.00    -0.269 OA
BRANCH  37  40
ATOM     40  C   UNL A   1      39.247  24.247  26.671  1.00  0.00     0.039 A 
ATOM     41  C   UNL A   1      39.905  25.127  25.811  1.00  0.00     0.014 A 
ATOM     42  C   UNL A   1      39.178  24.518  28.041  1.00  0.00     0.014 A 
ATOM     43  C   UNL A   1      40.446  26.309  26.318  1.00  0.00     0.010 A 
ATOM     44  C   UNL A   1      39.649  25.732  28.532  1.00  0.00     0.010 A 
ATOM     45  C   UNL A   1      40.290  26.638  27.676  1.00  0.00    -0.014 A 
BRANCH  45  46
ATOM     46  C   UNL A   1      40.782  27.936  28.203  1.00  0.00     0.031 A 
ATOM     47  C   UNL A   1      39.814  28.974  28.700  1.00  0.00     0.074 A 
ATOM     48  C   UNL A   1      42.104  28.193  28.194  1.00  0.00     0.049 A 
ATOM     49  N   UNL A   1      40.058  30.172  29.167  1.00  0.00    -0.248 NA
ATOM     50  C   UNL A   1      38.384  28.632  28.644  1.00  0.00     0.031 C 
ATOM     51  C   UNL A   1      43.140  27.286  27.692  1.00  0.00     0.029 A 
ATOM     52  N   UNL A   1      42.806  29.294  28.616  1.00  0.00    -0.354 N 
ATOM     53  C   UNL A   1      38.817  30.724  29.458  1.00  0.00     0.074 A 
ATOM     54  C   UNL A   1      37.819  29.756  29.059  1.00  0.00     0.031 C 
ATOM     55  C   UNL A   1      44.343  27.856  27.861  1.00  0.00     0.029 A 
ATOM     56  C   UNL A   1      44.165  29.181  28.444  1.00  0.00     0.049 A 
ATOM     57  H   UNL A   1      42.376  30.090  29.005  1.00  0.00     0.167 HD
ATOM     58  C   UNL A   1      38.536  31.920  30.030  1.00  0.00     0.037 A 
ATOM     59  C   UNL A   1      45.155  30.052  28.719  1.00  0.00     0.037 A 
ATOM     60  C   UNL A   1      39.532  32.876  30.438  1.00  0.00     0.049 A 
ATOM     61  C   UNL A   1      44.811  31.380  29.334  1.00  0.00     0.074 A 
ATOM     62  C   UNL A   1      39.349  34.093  31.069  1.00  0.00     0.029 A 
ATOM     63  N   UNL A   1      40.898  32.725  30.251  1.00  0.00    -0.354 N 
ATOM     64  N   UNL A   1      43.637  31.859  29.669  1.00  0.00    -0.248 NA
ATOM     65  C   UNL A   1      45.932  32.289  29.615  1.00  0.00     0.031 C 
ATOM     66  C   UNL A   1      40.599  34.702  31.219  1.00  0.00     0.029 A 
ATOM     67  C   UNL A   1      41.567  33.838  30.733  1.00  0.00     0.049 A 
ATOM     68  H   UNL A   1      41.328  31.942  29.838  1.00  0.00     0.167 HD
ATOM     69  C   UNL A   1      43.880  33.108  30.225  1.00  0.00     0.074 A 
ATOM     70  C   UNL A   1      45.314  33.303  30.203  1.00  0.00     0.031 C 
ATOM     71  C   UNL A   1      42.997  34.015  30.708  1.00  0.00     0.037 A 
BRANCH  58  72
ATOM     72  C   UNL A   1      37.091  32.261  30.259  1.00  0.00     0.057 A 
ATOM     73  C   UNL A   1      36.447  31.967  31.468  1.00  0.00     0.134 A 
ATOM     74  C   UNL A   1      36.351  32.940  29.283  1.00  0.00     0.134 A 
ATOM     75  F   UNL A   1      37.095  31.308  32.442  1.00  0.00    -0.206 F 
ATOM     76  C   UNL A   1      35.116  32.320  31.692  1.00  0.00     0.040 A 
ATOM     77  C   UNL A   1      35.027  33.324  29.506  1.00  0.00     0.040 A 
ATOM     78  F   UNL A   1      36.907  33.258  28.104  1.00  0.00    -0.206 F 
ATOM     79  C   UNL A   1      34.404  33.009  30.712  1.00  0.00     0.006 A 
ENDBRANCH  58  72
BRANCH  59  80
ATOM     80  C   UNL A   1      46.568  29.698  28.426  1.00  0.00     0.057 A 
ATOM     81  C   UNL A   1      47.449  29.327  29.448  1.00  0.00     0.134 A 
ATOM     82  C   UNL A   1      47.081  29.756  27.125  1.00  0.00     0.134 A 
ATOM     83  F   UNL A   1      47.024  29.269  30.720  1.00  0.00    -0.206 F 
ATOM     84  C   UNL A   1      48.795  29.058  29.194  1.00  0.00     0.040 A 
ATOM     85  C   UNL A   1      48.417  29.459  26.851  1.00  0.00     0.040 A 
ATOM     86  F   UNL A   1      46.288  30.096  26.098  1.00  0.00    -0.206 F 
ATOM     87  C   UNL A   1      49.282  29.120  27.889  1.00  0.00     0.006 A 
ENDBRANCH  59  80
BRANCH  71  88
ATOM     88  C   UNL A   1      43.561  35.283  31.282  1.00  0.00     0.057 A 
ATOM     89  C   UNL A   1      43.914  35.392  32.632  1.00  0.00     0.134 A 
ATOM     90  C   UNL A   1      43.774  36.403  30.465  1.00  0.00     0.134 A 
ATOM     91  F   UNL A   1      43.724  34.363  33.471  1.00  0.00    -0.206 F 
ATOM     92  C   UNL A   1      44.428  36.580  33.158  1.00  0.00     0.040 A 
ATOM     93  C   UNL A   1      44.317  37.583  30.972  1.00  0.00     0.040 A 
ATOM     94  F   UNL A   1      43.467  36.363  29.159  1.00  0.00    -0.206 F 
ATOM     95  C   UNL A   1      44.636  37.677  32.325  1.00  0.00     0.006 A 
ENDBRANCH  71  88
ENDBRANCH  45  46
ENDBRANCH  37  40
ENDBRANCH  35  36
ENDBRANCH  34  35
ENDBRANCH  33  34
ENDBRANCH   1  33
TORSDOF 16
ENDMDL
