MODEL 1
REMARK VINA RESULT:     -10.3      0.000      0.000
REMARK SMILES O=C(C[C@H]1CN(S(=O)(=O)N2CCCCC2)CCO1)NCCCCCCNC(=O)c1ccc(-c2c3nc(c(-c4c(F)cccc4F)c4ccc([nH]4)c(-c4c(F)cccc4F)c4nc(c(-c5c(F)cccc5F)c5ccc2[nH]5)C=C4)C=C3)cc1
REMARK SMILES IDX 22 1 21 2 20 3 19 4 1 5 2 6 3 8 4 9 5 10 18 11 6 12 17 13
REMARK SMILES IDX 16 14 7 15 8 16 9 17 10 18 11 19 15 20 12 21 14 22 13 23
REMARK SMILES IDX 23 24 24 25 25 26 26 27 27 28 28 30 29 31 30 32 82 33 31 34
REMARK SMILES IDX 81 35 32 36 33 37 34 38 75 39 35 40 80 41 74 42 76 43 36 44
REMARK SMILES IDX 79 45 73 46 72 47 37 49 63 50 46 51 62 52 47 53 50 54 61 55
REMARK SMILES IDX 77 56 48 57 49 58 60 60 78 61 51 62 38 63 39 64 44 65 40 66
REMARK SMILES IDX 41 67 43 68 45 69 42 70 64 71 65 72 70 73 66 74 67 75 69 76
REMARK SMILES IDX 71 77 68 78 52 79 53 80 58 81 54 82 55 83 57 84 59 85 56 86
REMARK H PARENT 19 7 26 29 76 48 50 59
REMARK Flexibility Score: inf
ROOT
ATOM      1  C   UNL A   1      35.069  21.296  24.676  1.00  0.00     0.002 C 
ENDROOT
BRANCH   1   2
ATOM      2  C   UNL A   1      33.665  20.686  24.615  1.00  0.00     0.021 C 
BRANCH   2   3
ATOM      3  C   UNL A   1      32.806  20.907  25.851  1.00  0.00     0.116 C 
BRANCH   3   4
ATOM      4  N   UNL A   1      32.045  22.140  25.852  1.00  0.00    -0.356 N 
ATOM      5  O   UNL A   1      32.527  22.762  28.013  1.00  0.00    -0.275 OA
ATOM      6  C   UNL A   1      32.194  23.053  26.869  1.00  0.00     0.222 C 
ATOM      7  H   UNL A   1      31.416  22.326  25.117  1.00  0.00     0.163 HD
BRANCH   6   8
ATOM      8  C   UNL A   1      31.982  24.495  26.466  1.00  0.00     0.133 C 
BRANCH   8   9
ATOM      9  C   UNL A   1      31.612  24.682  24.982  1.00  0.00     0.142 C 
ATOM     10  C   UNL A   1      31.094  26.081  24.583  1.00  0.00     0.136 C 
ATOM     11  O   UNL A   1      32.619  24.184  24.074  1.00  0.00    -0.375 OA
ATOM     12  N   UNL A   1      32.225  27.006  24.372  1.00  0.00    -0.184 NA
ATOM     13  C   UNL A   1      33.666  25.113  23.776  1.00  0.00     0.177 C 
ATOM     14  C   UNL A   1      33.158  26.498  23.342  1.00  0.00     0.132 C 
BRANCH  12  15
ATOM     15  S   UNL A   1      32.035  28.660  24.581  1.00  0.00     0.282 S 
ATOM     16  O   UNL A   1      33.127  29.349  23.929  1.00  0.00    -0.195 OA
ATOM     17  O   UNL A   1      30.665  28.965  24.250  1.00  0.00    -0.195 OA
BRANCH  15  18
ATOM     18  N   UNL A   1      32.255  28.838  26.238  1.00  0.00    -0.189 NA
ATOM     19  C   UNL A   1      31.901  30.147  26.843  1.00  0.00     0.103 C 
ATOM     20  C   UNL A   1      33.424  28.162  26.862  1.00  0.00     0.103 C 
ATOM     21  C   UNL A   1      33.112  31.055  27.030  1.00  0.00     0.017 C 
ATOM     22  C   UNL A   1      34.613  29.091  27.076  1.00  0.00     0.017 C 
ATOM     23  C   UNL A   1      34.201  30.348  27.822  1.00  0.00     0.003 C 
ENDBRANCH  15  18
ENDBRANCH  12  15
ENDBRANCH   8   9
ENDBRANCH   6   8
ENDBRANCH   3   4
ENDBRANCH   2   3
ENDBRANCH   1   2
BRANCH   1  24
ATOM     24  C   UNL A   1      35.533  21.812  26.044  1.00  0.00     0.002 C 
BRANCH  24  25
ATOM     25  C   UNL A   1      35.867  23.304  26.138  1.00  0.00     0.021 C 
BRANCH  25  26
ATOM     26  C   UNL A   1      37.075  23.774  25.332  1.00  0.00     0.116 C 
BRANCH  26  27
ATOM     27  N   UNL A   1      38.223  22.888  25.435  1.00  0.00    -0.352 N 
ATOM     28  C   UNL A   1      39.415  23.065  26.088  1.00  0.00     0.251 C 
ATOM     29  H   UNL A   1      38.130  22.029  24.963  1.00  0.00     0.163 HD
ATOM     30  O   UNL A   1      40.290  22.207  26.000  1.00  0.00    -0.269 OA
BRANCH  28  31
ATOM     31  C   UNL A   1      39.672  24.290  26.875  1.00  0.00     0.039 A 
ATOM     32  C   UNL A   1      40.442  25.303  26.294  1.00  0.00     0.014 A 
ATOM     33  C   UNL A   1      39.204  24.432  28.184  1.00  0.00     0.014 A 
ATOM     34  C   UNL A   1      40.710  26.472  27.008  1.00  0.00     0.010 A 
ATOM     35  C   UNL A   1      39.418  25.623  28.873  1.00  0.00     0.010 A 
ATOM     36  C   UNL A   1      40.185  26.647  28.297  1.00  0.00    -0.014 A 
BRANCH  36  37
ATOM     37  C   UNL A   1      40.479  27.870  29.081  1.00  0.00     0.031 A 
ATOM     38  C   UNL A   1      41.797  27.997  29.794  1.00  0.00     0.074 A 
ATOM     39  C   UNL A   1      39.550  28.838  29.186  1.00  0.00     0.049 A 
ATOM     40  N   UNL A   1      42.220  28.945  30.591  1.00  0.00    -0.248 NA
ATOM     41  C   UNL A   1      42.756  26.897  29.608  1.00  0.00     0.031 C 
ATOM     42  C   UNL A   1      38.220  28.807  28.574  1.00  0.00     0.029 A 
ATOM     43  N   UNL A   1      39.581  30.035  29.855  1.00  0.00    -0.354 N 
ATOM     44  C   UNL A   1      43.484  28.549  31.009  1.00  0.00     0.074 A 
ATOM     45  C   UNL A   1      43.739  27.252  30.423  1.00  0.00     0.031 C 
ATOM     46  C   UNL A   1      37.566  29.939  28.887  1.00  0.00     0.029 A 
ATOM     47  C   UNL A   1      38.421  30.762  29.737  1.00  0.00     0.049 A 
ATOM     48  H   UNL A   1      40.360  30.345  30.371  1.00  0.00     0.167 HD
ATOM     49  C   UNL A   1      44.365  29.218  31.792  1.00  0.00     0.037 A 
ATOM     50  C   UNL A   1      38.089  31.958  30.258  1.00  0.00     0.037 A 
ATOM     51  C   UNL A   1      44.118  30.519  32.351  1.00  0.00     0.049 A 
ATOM     52  C   UNL A   1      39.101  32.697  31.090  1.00  0.00     0.074 A 
ATOM     53  C   UNL A   1      44.943  31.289  33.151  1.00  0.00     0.029 A 
ATOM     54  N   UNL A   1      42.956  31.251  32.150  1.00  0.00    -0.354 N 
ATOM     55  N   UNL A   1      40.304  32.324  31.453  1.00  0.00    -0.248 NA
ATOM     56  C   UNL A   1      38.715  34.032  31.570  1.00  0.00     0.031 C 
ATOM     57  C   UNL A   1      44.277  32.484  33.444  1.00  0.00     0.029 A 
ATOM     58  C   UNL A   1      43.049  32.470  32.799  1.00  0.00     0.049 A 
ATOM     59  H   UNL A   1      42.181  30.948  31.625  1.00  0.00     0.167 HD
ATOM     60  C   UNL A   1      40.831  33.387  32.174  1.00  0.00     0.074 A 
ATOM     61  C   UNL A   1      39.821  34.426  32.186  1.00  0.00     0.031 C 
ATOM     62  C   UNL A   1      42.041  33.496  32.772  1.00  0.00     0.037 A 
BRANCH  49  63
ATOM     63  C   UNL A   1      45.682  28.555  32.065  1.00  0.00     0.057 A 
ATOM     64  C   UNL A   1      45.858  27.705  33.165  1.00  0.00     0.134 A 
ATOM     65  C   UNL A   1      46.777  28.747  31.215  1.00  0.00     0.134 A 
ATOM     66  F   UNL A   1      44.852  27.492  34.027  1.00  0.00    -0.206 F 
ATOM     67  C   UNL A   1      47.084  27.090  33.424  1.00  0.00     0.040 A 
ATOM     68  C   UNL A   1      48.001  28.117  31.449  1.00  0.00     0.040 A 
ATOM     69  F   UNL A   1      46.676  29.545  30.141  1.00  0.00    -0.206 F 
ATOM     70  C   UNL A   1      48.158  27.290  32.560  1.00  0.00     0.006 A 
ENDBRANCH  49  63
BRANCH  50  71
ATOM     71  C   UNL A   1      36.757  32.551  29.981  1.00  0.00     0.057 A 
ATOM     72  C   UNL A   1      36.548  33.368  28.864  1.00  0.00     0.134 A 
ATOM     73  C   UNL A   1      35.669  32.333  30.832  1.00  0.00     0.134 A 
ATOM     74  F   UNL A   1      37.558  33.627  28.019  1.00  0.00    -0.206 F 
ATOM     75  C   UNL A   1      35.313  33.971  28.617  1.00  0.00     0.040 A 
ATOM     76  C   UNL A   1      34.422  32.910  30.586  1.00  0.00     0.040 A 
ATOM     77  F   UNL A   1      35.802  31.553  31.914  1.00  0.00    -0.206 F 
ATOM     78  C   UNL A   1      34.244  33.739  29.481  1.00  0.00     0.006 A 
ENDBRANCH  50  71
BRANCH  62  79
ATOM     79  C   UNL A   1      42.358  34.800  33.438  1.00  0.00     0.057 A 
ATOM     80  C   UNL A   1      41.989  35.062  34.764  1.00  0.00     0.134 A 
ATOM     81  C   UNL A   1      43.069  35.792  32.752  1.00  0.00     0.134 A 
ATOM     82  F   UNL A   1      41.296  34.156  35.469  1.00  0.00    -0.206 F 
ATOM     83  C   UNL A   1      42.298  36.277  35.376  1.00  0.00     0.040 A 
ATOM     84  C   UNL A   1      43.402  37.002  33.361  1.00  0.00     0.040 A 
ATOM     85  F   UNL A   1      43.456  35.598  31.482  1.00  0.00    -0.206 F 
ATOM     86  C   UNL A   1      43.011  37.249  34.676  1.00  0.00     0.006 A 
ENDBRANCH  62  79
ENDBRANCH  36  37
ENDBRANCH  28  31
ENDBRANCH  26  27
ENDBRANCH  25  26
ENDBRANCH  24  25
ENDBRANCH   1  24
TORSDOF 16
ENDMDL
MODEL 2
REMARK VINA RESULT:     -10.2      4.623      6.608
REMARK SMILES O=C(C[C@H]1CN(S(=O)(=O)N2CCCCC2)CCO1)NCCCCCCNC(=O)c1ccc(-c2c3nc(c(-c4c(F)cccc4F)c4ccc([nH]4)c(-c4c(F)cccc4F)c4nc(c(-c5c(F)cccc5F)c5ccc2[nH]5)C=C4)C=C3)cc1
REMARK SMILES IDX 22 1 21 2 20 3 19 4 1 5 2 6 3 8 4 9 5 10 18 11 6 12 17 13
REMARK SMILES IDX 16 14 7 15 8 16 9 17 10 18 11 19 15 20 12 21 14 22 13 23
REMARK SMILES IDX 23 24 24 25 25 26 26 27 27 28 28 30 29 31 30 32 82 33 31 34
REMARK SMILES IDX 81 35 32 36 33 37 34 38 75 39 35 40 80 41 74 42 76 43 36 44
REMARK SMILES IDX 79 45 73 46 72 47 37 49 63 50 46 51 62 52 47 53 50 54 61 55
REMARK SMILES IDX 77 56 48 57 49 58 60 60 78 61 51 62 38 63 39 64 44 65 40 66
REMARK SMILES IDX 41 67 43 68 45 69 42 70 64 71 65 72 70 73 66 74 67 75 69 76
REMARK SMILES IDX 71 77 68 78 52 79 53 80 58 81 54 82 55 83 57 84 59 85 56 86
REMARK H PARENT 19 7 26 29 76 48 50 59
REMARK Flexibility Score: inf
ROOT
ATOM      1  C   UNL A   1      41.483  21.794  26.158  1.00  0.00     0.002 C 
ENDROOT
BRANCH   1   2
ATOM      2  C   UNL A   1      40.123  22.419  26.484  1.00  0.00     0.021 C 
BRANCH   2   3
ATOM      3  C   UNL A   1      38.914  21.564  26.137  1.00  0.00     0.116 C 
BRANCH   3   4
ATOM      4  N   UNL A   1      38.177  21.996  24.967  1.00  0.00    -0.356 N 
ATOM      5  O   UNL A   1      36.595  20.327  25.002  1.00  0.00    -0.275 OA
ATOM      6  C   UNL A   1      36.946  21.455  24.675  1.00  0.00     0.222 C 
ATOM      7  H   UNL A   1      38.560  22.684  24.375  1.00  0.00     0.163 HD
BRANCH   6   8
ATOM      8  C   UNL A   1      35.993  22.389  23.964  1.00  0.00     0.133 C 
BRANCH   8   9
ATOM      9  C   UNL A   1      35.734  23.710  24.713  1.00  0.00     0.142 C 
ATOM     10  C   UNL A   1      34.592  24.591  24.162  1.00  0.00     0.136 C 
ATOM     11  O   UNL A   1      35.668  23.551  26.147  1.00  0.00    -0.375 OA
ATOM     12  N   UNL A   1      33.287  24.108  24.654  1.00  0.00    -0.184 NA
ATOM     13  C   UNL A   1      34.378  23.187  26.649  1.00  0.00     0.177 C 
ATOM     14  C   UNL A   1      33.239  24.082  26.133  1.00  0.00     0.132 C 
BRANCH  12  15
ATOM     15  S   UNL A   1      31.882  24.381  23.780  1.00  0.00     0.282 S 
ATOM     16  O   UNL A   1      32.220  24.584  22.388  1.00  0.00    -0.195 OA
ATOM     17  O   UNL A   1      30.945  23.357  24.171  1.00  0.00    -0.195 OA
BRANCH  15  18
ATOM     18  N   UNL A   1      31.365  25.861  24.387  1.00  0.00    -0.189 NA
ATOM     19  C   UNL A   1      29.980  25.943  24.913  1.00  0.00     0.103 C 
ATOM     20  C   UNL A   1      31.847  27.096  23.713  1.00  0.00     0.103 C 
ATOM     21  C   UNL A   1      28.997  26.516  23.898  1.00  0.00     0.017 C 
ATOM     22  C   UNL A   1      30.840  27.677  22.728  1.00  0.00     0.017 C 
ATOM     23  C   UNL A   1      29.479  27.860  23.377  1.00  0.00     0.003 C 
ENDBRANCH  15  18
ENDBRANCH  12  15
ENDBRANCH   8   9
ENDBRANCH   6   8
ENDBRANCH   3   4
ENDBRANCH   2   3
ENDBRANCH   1   2
BRANCH   1  24
ATOM     24  C   UNL A   1      41.800  20.454  26.832  1.00  0.00     0.002 C 
BRANCH  24  25
ATOM     25  C   UNL A   1      42.074  19.266  25.905  1.00  0.00     0.021 C 
BRANCH  25  26
ATOM     26  C   UNL A   1      43.444  18.606  26.045  1.00  0.00     0.116 C 
BRANCH  26  27
ATOM     27  N   UNL A   1      44.156  18.473  24.785  1.00  0.00    -0.352 N 
ATOM     28  C   UNL A   1      44.839  19.412  24.056  1.00  0.00     0.251 C 
ATOM     29  H   UNL A   1      44.146  17.569  24.395  1.00  0.00     0.163 HD
ATOM     30  O   UNL A   1      45.326  19.104  22.971  1.00  0.00    -0.269 OA
BRANCH  28  31
ATOM     31  C   UNL A   1      44.974  20.800  24.549  1.00  0.00     0.039 A 
ATOM     32  C   UNL A   1      44.487  21.838  23.748  1.00  0.00     0.014 A 
ATOM     33  C   UNL A   1      45.609  21.090  25.759  1.00  0.00     0.014 A 
ATOM     34  C   UNL A   1      44.600  23.161  24.176  1.00  0.00     0.010 A 
ATOM     35  C   UNL A   1      45.666  22.405  26.215  1.00  0.00     0.010 A 
ATOM     36  C   UNL A   1      45.175  23.452  25.421  1.00  0.00    -0.014 A 
BRANCH  36  37
ATOM     37  C   UNL A   1      45.327  24.853  25.883  1.00  0.00     0.031 A 
ATOM     38  C   UNL A   1      46.676  25.515  25.818  1.00  0.00     0.074 A 
ATOM     39  C   UNL A   1      44.271  25.508  26.396  1.00  0.00     0.049 A 
ATOM     40  N   UNL A   1      47.040  26.699  26.240  1.00  0.00    -0.248 NA
ATOM     41  C   UNL A   1      47.770  24.727  25.225  1.00  0.00     0.031 C 
ATOM     42  C   UNL A   1      42.923  24.955  26.550  1.00  0.00     0.029 A 
ATOM     43  N   UNL A   1      44.166  26.782  26.895  1.00  0.00    -0.354 N 
ATOM     44  C   UNL A   1      48.401  26.792  25.975  1.00  0.00     0.074 A 
ATOM     45  C   UNL A   1      48.811  25.527  25.407  1.00  0.00     0.031 C 
ATOM     46  C   UNL A   1      42.124  25.889  27.094  1.00  0.00     0.029 A 
ATOM     47  C   UNL A   1      42.907  27.094  27.347  1.00  0.00     0.049 A 
ATOM     48  H   UNL A   1      44.921  27.413  26.926  1.00  0.00     0.167 HD
ATOM     49  C   UNL A   1      49.230  27.846  26.165  1.00  0.00     0.037 A 
ATOM     50  C   UNL A   1      42.441  28.229  27.903  1.00  0.00     0.037 A 
ATOM     51  C   UNL A   1      48.812  29.111  26.705  1.00  0.00     0.049 A 
ATOM     52  C   UNL A   1      43.374  29.398  28.065  1.00  0.00     0.074 A 
ATOM     53  C   UNL A   1      49.568  30.248  26.933  1.00  0.00     0.029 A 
ATOM     54  N   UNL A   1      47.512  29.410  27.086  1.00  0.00    -0.354 N 
ATOM     55  N   UNL A   1      44.651  29.481  27.783  1.00  0.00    -0.248 NA
ATOM     56  C   UNL A   1      42.796  30.636  28.606  1.00  0.00     0.031 C 
ATOM     57  C   UNL A   1      48.727  31.232  27.462  1.00  0.00     0.029 A 
ATOM     58  C   UNL A   1      47.441  30.717  27.535  1.00  0.00     0.049 A 
ATOM     59  H   UNL A   1      46.753  28.785  27.045  1.00  0.00     0.167 HD
ATOM     60  C   UNL A   1      45.022  30.786  28.080  1.00  0.00     0.074 A 
ATOM     61  C   UNL A   1      43.831  31.462  28.552  1.00  0.00     0.031 C 
ATOM     62  C   UNL A   1      46.238  31.373  27.972  1.00  0.00     0.037 A 
BRANCH  49  63
ATOM     63  C   UNL A   1      50.664  27.673  25.763  1.00  0.00     0.057 A 
ATOM     64  C   UNL A   1      51.645  27.307  26.693  1.00  0.00     0.134 A 
ATOM     65  C   UNL A   1      51.068  27.852  24.434  1.00  0.00     0.134 A 
ATOM     66  F   UNL A   1      51.326  27.135  27.985  1.00  0.00    -0.206 F 
ATOM     67  C   UNL A   1      52.981  27.148  26.323  1.00  0.00     0.040 A 
ATOM     68  C   UNL A   1      52.397  27.671  24.046  1.00  0.00     0.040 A 
ATOM     69  F   UNL A   1      50.179  28.199  23.491  1.00  0.00    -0.206 F 
ATOM     70  C   UNL A   1      53.359  27.324  24.994  1.00  0.00     0.006 A 
ENDBRANCH  49  63
BRANCH  50  71
ATOM     71  C   UNL A   1      41.019  28.332  28.312  1.00  0.00     0.057 A 
ATOM     72  C   UNL A   1      40.051  28.845  27.441  1.00  0.00     0.134 A 
ATOM     73  C   UNL A   1      40.596  27.941  29.587  1.00  0.00     0.134 A 
ATOM     74  F   UNL A   1      40.399  29.252  26.211  1.00  0.00    -0.206 F 
ATOM     75  C   UNL A   1      38.719  28.992  27.831  1.00  0.00     0.040 A 
ATOM     76  C   UNL A   1      39.262  28.059  29.983  1.00  0.00     0.040 A 
ATOM     77  F   UNL A   1      41.472  27.433  30.465  1.00  0.00    -0.206 F 
ATOM     78  C   UNL A   1      38.321  28.595  29.106  1.00  0.00     0.006 A 
ENDBRANCH  50  71
BRANCH  62  79
ATOM     79  C   UNL A   1      46.325  32.829  28.317  1.00  0.00     0.057 A 
ATOM     80  C   UNL A   1      46.670  33.265  29.602  1.00  0.00     0.134 A 
ATOM     81  C   UNL A   1      46.092  33.804  27.339  1.00  0.00     0.134 A 
ATOM     82  F   UNL A   1      46.893  32.379  30.584  1.00  0.00    -0.206 F 
ATOM     83  C   UNL A   1      46.757  34.623  29.909  1.00  0.00     0.040 A 
ATOM     84  C   UNL A   1      46.197  35.164  27.628  1.00  0.00     0.040 A 
ATOM     85  F   UNL A   1      45.764  33.450  26.088  1.00  0.00    -0.206 F 
ATOM     86  C   UNL A   1      46.526  35.577  28.918  1.00  0.00     0.006 A 
ENDBRANCH  62  79
ENDBRANCH  36  37
ENDBRANCH  28  31
ENDBRANCH  26  27
ENDBRANCH  25  26
ENDBRANCH  24  25
ENDBRANCH   1  24
TORSDOF 16
ENDMDL
MODEL 3
REMARK VINA RESULT:     -10.2      3.500      8.560
REMARK SMILES O=C(C[C@H]1CN(S(=O)(=O)N2CCCCC2)CCO1)NCCCCCCNC(=O)c1ccc(-c2c3nc(c(-c4c(F)cccc4F)c4ccc([nH]4)c(-c4c(F)cccc4F)c4nc(c(-c5c(F)cccc5F)c5ccc2[nH]5)C=C4)C=C3)cc1
REMARK SMILES IDX 22 1 21 2 20 3 19 4 1 5 2 6 3 8 4 9 5 10 18 11 6 12 17 13
REMARK SMILES IDX 16 14 7 15 8 16 9 17 10 18 11 19 15 20 12 21 14 22 13 23
REMARK SMILES IDX 23 24 24 25 25 26 26 27 27 28 28 30 29 31 30 32 82 33 31 34
REMARK SMILES IDX 81 35 32 36 33 37 34 38 75 39 35 40 80 41 74 42 76 43 36 44
REMARK SMILES IDX 79 45 73 46 72 47 37 49 63 50 46 51 62 52 47 53 50 54 61 55
REMARK SMILES IDX 77 56 48 57 49 58 60 60 78 61 51 62 38 63 39 64 44 65 40 66
REMARK SMILES IDX 41 67 43 68 45 69 42 70 64 71 65 72 70 73 66 74 67 75 69 76
REMARK SMILES IDX 71 77 68 78 52 79 53 80 58 81 54 82 55 83 57 84 59 85 56 86
REMARK H PARENT 19 7 26 29 76 48 50 59
REMARK Flexibility Score: inf
ROOT
ATOM      1  C   UNL A   1      34.539  32.980  29.258  1.00  0.00     0.002 C 
ENDROOT
BRANCH   1   2
ATOM      2  C   UNL A   1      35.010  31.964  28.213  1.00  0.00     0.021 C 
BRANCH   2   3
ATOM      3  C   UNL A   1      33.956  30.972  27.748  1.00  0.00     0.116 C 
BRANCH   3   4
ATOM      4  N   UNL A   1      34.468  29.853  26.981  1.00  0.00    -0.356 N 
ATOM      5  O   UNL A   1      32.875  28.323  27.626  1.00  0.00    -0.275 OA
ATOM      6  C   UNL A   1      33.717  28.711  26.823  1.00  0.00     0.222 C 
ATOM      7  H   UNL A   1      35.361  29.911  26.570  1.00  0.00     0.163 HD
BRANCH   6   8
ATOM      8  C   UNL A   1      33.948  27.974  25.523  1.00  0.00     0.133 C 
BRANCH   8   9
ATOM      9  C   UNL A   1      33.622  28.803  24.266  1.00  0.00     0.142 C 
ATOM     10  C   UNL A   1      33.650  28.041  22.924  1.00  0.00     0.136 C 
ATOM     11  O   UNL A   1      32.445  29.626  24.412  1.00  0.00    -0.375 OA
ATOM     12  N   UNL A   1      32.381  27.316  22.718  1.00  0.00    -0.184 NA
ATOM     13  C   UNL A   1      31.212  28.963  24.110  1.00  0.00     0.177 C 
ATOM     14  C   UNL A   1      31.219  28.231  22.758  1.00  0.00     0.132 C 
BRANCH  12  15
ATOM     15  S   UNL A   1      32.322  25.935  21.767  1.00  0.00     0.282 S 
ATOM     16  O   UNL A   1      31.185  26.020  20.877  1.00  0.00    -0.195 OA
ATOM     17  O   UNL A   1      33.653  25.730  21.251  1.00  0.00    -0.195 OA
BRANCH  15  18
ATOM     18  N   UNL A   1      31.978  24.738  22.897  1.00  0.00    -0.189 NA
ATOM     19  C   UNL A   1      30.826  24.961  23.806  1.00  0.00     0.103 C 
ATOM     20  C   UNL A   1      33.120  24.010  23.511  1.00  0.00     0.103 C 
ATOM     21  C   UNL A   1      31.246  25.507  25.166  1.00  0.00     0.017 C 
ATOM     22  C   UNL A   1      33.506  24.544  24.885  1.00  0.00     0.017 C 
ATOM     23  C   UNL A   1      32.300  24.616  25.805  1.00  0.00     0.003 C 
ENDBRANCH  15  18
ENDBRANCH  12  15
ENDBRANCH   8   9
ENDBRANCH   6   8
ENDBRANCH   3   4
ENDBRANCH   2   3
ENDBRANCH   1   2
BRANCH   1  24
ATOM     24  C   UNL A   1      34.591  34.457  28.849  1.00  0.00     0.002 C 
BRANCH  24  25
ATOM     25  C   UNL A   1      33.277  35.239  28.926  1.00  0.00     0.021 C 
BRANCH  25  26
ATOM     26  C   UNL A   1      33.291  36.494  29.796  1.00  0.00     0.116 C 
BRANCH  26  27
ATOM     27  N   UNL A   1      32.338  36.452  30.892  1.00  0.00    -0.352 N 
ATOM     28  C   UNL A   1      32.417  35.812  32.102  1.00  0.00     0.251 C 
ATOM     29  H   UNL A   1      31.510  36.962  30.744  1.00  0.00     0.163 HD
ATOM     30  O   UNL A   1      31.463  35.854  32.876  1.00  0.00    -0.269 OA
BRANCH  28  31
ATOM     31  C   UNL A   1      33.626  35.048  32.477  1.00  0.00     0.039 A 
ATOM     32  C   UNL A   1      34.869  35.685  32.385  1.00  0.00     0.014 A 
ATOM     33  C   UNL A   1      33.555  33.710  32.872  1.00  0.00     0.014 A 
ATOM     34  C   UNL A   1      36.033  34.995  32.725  1.00  0.00     0.010 A 
ATOM     35  C   UNL A   1      34.710  33.041  33.271  1.00  0.00     0.010 A 
ATOM     36  C   UNL A   1      35.960  33.673  33.187  1.00  0.00    -0.014 A 
BRANCH  36  37
ATOM     37  C   UNL A   1      37.187  32.915  33.530  1.00  0.00     0.031 A 
ATOM     38  C   UNL A   1      37.891  33.190  34.830  1.00  0.00     0.074 A 
ATOM     39  C   UNL A   1      37.687  32.020  32.659  1.00  0.00     0.049 A 
ATOM     40  N   UNL A   1      39.015  32.696  35.284  1.00  0.00    -0.248 NA
ATOM     41  C   UNL A   1      37.262  34.174  35.726  1.00  0.00     0.031 C 
ATOM     42  C   UNL A   1      37.115  31.700  31.350  1.00  0.00     0.029 A 
ATOM     43  N   UNL A   1      38.798  31.220  32.741  1.00  0.00    -0.354 N 
ATOM     44  C   UNL A   1      39.231  33.318  36.508  1.00  0.00     0.074 A 
ATOM     45  C   UNL A   1      38.154  34.262  36.702  1.00  0.00     0.031 C 
ATOM     46  C   UNL A   1      37.873  30.762  30.756  1.00  0.00     0.029 A 
ATOM     47  C   UNL A   1      38.993  30.433  31.632  1.00  0.00     0.049 A 
ATOM     48  H   UNL A   1      39.399  31.209  33.521  1.00  0.00     0.167 HD
ATOM     49  C   UNL A   1      40.225  33.101  37.402  1.00  0.00     0.037 A 
ATOM     50  C   UNL A   1      39.968  29.546  31.357  1.00  0.00     0.037 A 
ATOM     51  C   UNL A   1      41.280  32.142  37.218  1.00  0.00     0.049 A 
ATOM     52  C   UNL A   1      41.038  29.297  32.385  1.00  0.00     0.074 A 
ATOM     53  C   UNL A   1      42.333  31.837  38.062  1.00  0.00     0.029 A 
ATOM     54  N   UNL A   1      41.402  31.315  36.110  1.00  0.00    -0.354 N 
ATOM     55  N   UNL A   1      41.213  29.869  33.551  1.00  0.00    -0.248 NA
ATOM     56  C   UNL A   1      42.034  28.264  32.067  1.00  0.00     0.031 C 
ATOM     57  C   UNL A   1      43.099  30.833  37.461  1.00  0.00     0.029 A 
ATOM     58  C   UNL A   1      42.504  30.491  36.256  1.00  0.00     0.049 A 
ATOM     59  H   UNL A   1      40.795  31.315  35.335  1.00  0.00     0.167 HD
ATOM     60  C   UNL A   1      42.316  29.246  34.119  1.00  0.00     0.074 A 
ATOM     61  C   UNL A   1      42.762  28.242  33.174  1.00  0.00     0.031 C 
ATOM     62  C   UNL A   1      42.909  29.482  35.314  1.00  0.00     0.037 A 
BRANCH  49  63
ATOM     63  C   UNL A   1      40.199  33.906  38.667  1.00  0.00     0.057 A 
ATOM     64  C   UNL A   1      39.470  33.485  39.787  1.00  0.00     0.134 A 
ATOM     65  C   UNL A   1      40.922  35.100  38.779  1.00  0.00     0.134 A 
ATOM     66  F   UNL A   1      38.742  32.358  39.740  1.00  0.00    -0.206 F 
ATOM     67  C   UNL A   1      39.441  34.234  40.965  1.00  0.00     0.040 A 
ATOM     68  C   UNL A   1      40.922  35.845  39.960  1.00  0.00     0.040 A 
ATOM     69  F   UNL A   1      41.645  35.559  37.746  1.00  0.00    -0.206 F 
ATOM     70  C   UNL A   1      40.175  35.414  41.055  1.00  0.00     0.006 A 
ENDBRANCH  49  63
BRANCH  50  71
ATOM     71  C   UNL A   1      39.962  28.802  30.074  1.00  0.00     0.057 A 
ATOM     72  C   UNL A   1      40.637  29.293  28.950  1.00  0.00     0.134 A 
ATOM     73  C   UNL A   1      39.267  27.597  29.932  1.00  0.00     0.134 A 
ATOM     74  F   UNL A   1      41.308  30.453  29.019  1.00  0.00    -0.206 F 
ATOM     75  C   UNL A   1      40.600  28.627  27.724  1.00  0.00     0.040 A 
ATOM     76  C   UNL A   1      39.240  26.907  28.718  1.00  0.00     0.040 A 
ATOM     77  F   UNL A   1      38.608  27.068  30.973  1.00  0.00    -0.206 F 
ATOM     78  C   UNL A   1      39.900  27.428  27.607  1.00  0.00     0.006 A 
ENDBRANCH  50  71
BRANCH  62  79
ATOM     79  C   UNL A   1      44.063  28.603  35.688  1.00  0.00     0.057 A 
ATOM     80  C   UNL A   1      43.887  27.422  36.420  1.00  0.00     0.134 A 
ATOM     81  C   UNL A   1      45.363  28.929  35.281  1.00  0.00     0.134 A 
ATOM     82  F   UNL A   1      42.668  27.064  36.849  1.00  0.00    -0.206 F 
ATOM     83  C   UNL A   1      44.969  26.608  36.754  1.00  0.00     0.040 A 
ATOM     84  C   UNL A   1      46.449  28.111  35.590  1.00  0.00     0.040 A 
ATOM     85  F   UNL A   1      45.595  30.043  34.571  1.00  0.00    -0.206 F 
ATOM     86  C   UNL A   1      46.254  26.949  36.334  1.00  0.00     0.006 A 
ENDBRANCH  62  79
ENDBRANCH  36  37
ENDBRANCH  28  31
ENDBRANCH  26  27
ENDBRANCH  25  26
ENDBRANCH  24  25
ENDBRANCH   1  24
TORSDOF 16
ENDMDL
