MODEL 1
REMARK VINA RESULT:     -12.1      0.000      0.000
REMARK SMILES Cc1c(Br)c(C(=O)NCCCCCCNC(=O)c2ccc(-c3c4nc(c(-c5c(F)cccc5F)c5ccc([nH]5)c(-c5c(F)cccc5F)c5nc(c(-c6c(F)cccc6F)c6ccc3[nH]6)C=C5)C=C4)cc2)nn1-c1ccccc1
REMARK SMILES IDX 12 1 11 2 10 3 9 4 8 5 6 6 7 7 5 9 1 10 2 11 3 12 73 13 4 14
REMARK SMILES IDX 72 15 74 16 75 17 79 18 76 19 78 20 77 21 13 22 14 23 15 24
REMARK SMILES IDX 16 25 17 27 18 28 19 29 71 30 20 31 70 32 21 33 22 34 23 35
REMARK SMILES IDX 64 36 24 37 69 38 63 39 65 40 25 41 68 42 62 43 61 44 26 46
REMARK SMILES IDX 52 47 35 48 51 49 36 50 39 51 50 52 66 53 37 54 38 55 49 57
REMARK SMILES IDX 67 58 40 59 27 60 28 61 33 62 29 63 30 64 32 65 34 66 31 67
REMARK SMILES IDX 53 68 54 69 59 70 55 71 56 72 58 73 60 74 57 75 41 76 42 77
REMARK SMILES IDX 47 78 43 79 44 80 46 81 48 82 45 83
REMARK H PARENT 8 8 15 26 65 45 39 56
REMARK Flexibility Score: inf
ROOT
ATOM      1  C   UNL A   1      41.197  21.055  27.493  1.00  0.00     0.002 C 
ENDROOT
BRANCH   1   2
ATOM      2  C   UNL A   1      40.070  21.176  26.457  1.00  0.00     0.002 C 
BRANCH   2   3
ATOM      3  C   UNL A   1      39.325  22.510  26.400  1.00  0.00     0.021 C 
BRANCH   3   4
ATOM      4  C   UNL A   1      37.858  22.440  25.984  1.00  0.00     0.116 C 
BRANCH   4   5
ATOM      5  N   UNL A   1      37.655  22.760  24.581  1.00  0.00    -0.351 N 
ATOM      6  C   UNL A   1      36.579  22.516  23.747  1.00  0.00     0.272 C 
ATOM      7  O   UNL A   1      36.700  22.871  22.573  1.00  0.00    -0.267 OA
ATOM      8  H   UNL A   1      38.409  23.227  24.153  1.00  0.00     0.163 HD
BRANCH   6   9
ATOM      9  C   UNL A   1      35.372  21.831  24.245  1.00  0.00     0.165 A 
ATOM     10  C   UNL A   1      31.839  21.285  25.230  1.00  0.00     0.068 C 
ATOM     11  C   UNL A   1      33.257  21.291  24.790  1.00  0.00     0.056 A 
ATOM     12  C   UNL A   1      34.055  22.337  24.376  1.00  0.00     0.072 A 
ATOM     13  N   UNL A   1      34.102  20.197  24.810  1.00  0.00    -0.236 N 
ATOM     14  Br  UNL A   1      33.493  24.101  24.068  1.00  0.00    -0.046 Br
ATOM     15  N   UNL A   1      35.397  20.577  24.733  1.00  0.00    -0.161 NA
BRANCH  13  16
ATOM     16  C   UNL A   1      33.808  18.809  24.830  1.00  0.00     0.065 A 
ATOM     17  C   UNL A   1      34.394  17.979  23.864  1.00  0.00     0.028 A 
ATOM     18  C   UNL A   1      32.869  18.283  25.725  1.00  0.00     0.028 A 
ATOM     19  C   UNL A   1      34.081  16.621  23.826  1.00  0.00     0.002 A 
ATOM     20  C   UNL A   1      32.537  16.927  25.661  1.00  0.00     0.002 A 
ATOM     21  C   UNL A   1      33.150  16.096  24.722  1.00  0.00     0.000 A 
ENDBRANCH  13  16
ENDBRANCH   6   9
ENDBRANCH   4   5
ENDBRANCH   3   4
ENDBRANCH   2   3
ENDBRANCH   1   2
BRANCH   1  22
ATOM     22  C   UNL A   1      42.299  20.019  27.228  1.00  0.00     0.021 C 
BRANCH  22  23
ATOM     23  C   UNL A   1      42.377  19.525  25.791  1.00  0.00     0.116 C 
BRANCH  23  24
ATOM     24  N   UNL A   1      43.747  19.375  25.299  1.00  0.00    -0.352 N 
ATOM     25  C   UNL A   1      44.626  20.363  24.879  1.00  0.00     0.251 C 
ATOM     26  H   UNL A   1      44.090  18.453  25.260  1.00  0.00     0.163 HD
ATOM     27  O   UNL A   1      45.575  20.102  24.160  1.00  0.00    -0.269 OA
BRANCH  25  28
ATOM     28  C   UNL A   1      44.390  21.750  25.326  1.00  0.00     0.039 A 
ATOM     29  C   UNL A   1      43.445  22.581  24.716  1.00  0.00     0.014 A 
ATOM     30  C   UNL A   1      45.135  22.208  26.405  1.00  0.00     0.014 A 
ATOM     31  C   UNL A   1      43.215  23.843  25.262  1.00  0.00     0.010 A 
ATOM     32  C   UNL A   1      44.753  23.338  27.069  1.00  0.00     0.010 A 
ATOM     33  C   UNL A   1      43.866  24.204  26.454  1.00  0.00    -0.014 A 
BRANCH  33  34
ATOM     34  C   UNL A   1      43.611  25.477  27.110  1.00  0.00     0.031 A 
ATOM     35  C   UNL A   1      44.564  26.560  26.769  1.00  0.00     0.074 A 
ATOM     36  C   UNL A   1      42.492  25.729  27.823  1.00  0.00     0.049 A 
ATOM     37  N   UNL A   1      45.488  27.047  27.525  1.00  0.00    -0.248 NA
ATOM     38  C   UNL A   1      44.586  27.070  25.391  1.00  0.00     0.031 C 
ATOM     39  C   UNL A   1      41.289  24.903  27.995  1.00  0.00     0.029 A 
ATOM     40  N   UNL A   1      42.166  26.862  28.498  1.00  0.00    -0.354 N 
ATOM     41  C   UNL A   1      46.086  28.068  26.794  1.00  0.00     0.074 A 
ATOM     42  C   UNL A   1      45.614  27.922  25.440  1.00  0.00     0.031 C 
ATOM     43  C   UNL A   1      40.295  25.649  28.524  1.00  0.00     0.029 A 
ATOM     44  C   UNL A   1      40.840  26.939  28.900  1.00  0.00     0.049 A 
ATOM     45  H   UNL A   1      42.820  27.574  28.687  1.00  0.00     0.167 HD
ATOM     46  C   UNL A   1      46.744  29.082  27.421  1.00  0.00     0.037 A 
ATOM     47  C   UNL A   1      40.241  28.003  29.487  1.00  0.00     0.037 A 
ATOM     48  C   UNL A   1      46.979  28.768  28.810  1.00  0.00     0.049 A 
ATOM     49  C   UNL A   1      41.319  28.845  30.066  1.00  0.00     0.074 A 
ATOM     50  C   UNL A   1      47.658  27.768  29.479  1.00  0.00     0.029 A 
ATOM     51  N   UNL A   1      46.132  29.327  29.738  1.00  0.00    -0.354 N 
ATOM     52  N   UNL A   1      42.057  28.482  31.078  1.00  0.00    -0.248 NA
ATOM     53  C   UNL A   1      41.881  29.891  29.226  1.00  0.00     0.031 C 
ATOM     54  C   UNL A   1      46.835  27.455  30.602  1.00  0.00     0.029 A 
ATOM     55  C   UNL A   1      45.745  28.327  30.593  1.00  0.00     0.049 A 
ATOM     56  H   UNL A   1      45.855  30.271  29.780  1.00  0.00     0.167 HD
ATOM     57  C   UNL A   1      43.335  28.915  30.754  1.00  0.00     0.074 A 
ATOM     58  C   UNL A   1      43.148  29.854  29.649  1.00  0.00     0.031 C 
ATOM     59  C   UNL A   1      44.442  28.258  31.212  1.00  0.00     0.037 A 
BRANCH  46  60
ATOM     60  C   UNL A   1      46.852  30.493  26.906  1.00  0.00     0.057 A 
ATOM     61  C   UNL A   1      48.097  31.146  26.960  1.00  0.00     0.134 A 
ATOM     62  C   UNL A   1      45.748  31.327  26.641  1.00  0.00     0.134 A 
ATOM     63  F   UNL A   1      49.224  30.462  27.212  1.00  0.00    -0.206 F 
ATOM     64  C   UNL A   1      48.221  32.536  26.844  1.00  0.00     0.040 A 
ATOM     65  C   UNL A   1      45.868  32.709  26.472  1.00  0.00     0.040 A 
ATOM     66  F   UNL A   1      44.490  30.871  26.637  1.00  0.00    -0.206 F 
ATOM     67  C   UNL A   1      47.103  33.323  26.609  1.00  0.00     0.006 A 
ENDBRANCH  46  60
BRANCH  47  68
ATOM     68  C   UNL A   1      38.858  28.500  29.318  1.00  0.00     0.057 A 
ATOM     69  C   UNL A   1      37.975  28.552  30.407  1.00  0.00     0.134 A 
ATOM     70  C   UNL A   1      38.467  29.213  28.171  1.00  0.00     0.134 A 
ATOM     71  F   UNL A   1      38.275  27.929  31.556  1.00  0.00    -0.206 F 
ATOM     72  C   UNL A   1      36.795  29.307  30.375  1.00  0.00     0.040 A 
ATOM     73  C   UNL A   1      37.289  29.966  28.124  1.00  0.00     0.040 A 
ATOM     74  F   UNL A   1      39.261  29.280  27.092  1.00  0.00    -0.206 F 
ATOM     75  C   UNL A   1      36.458  30.031  29.236  1.00  0.00     0.006 A 
ENDBRANCH  47  68
BRANCH  59  76
ATOM     76  C   UNL A   1      44.253  27.215  32.280  1.00  0.00     0.057 A 
ATOM     77  C   UNL A   1      44.178  25.834  32.037  1.00  0.00     0.134 A 
ATOM     78  C   UNL A   1      44.297  27.616  33.619  1.00  0.00     0.134 A 
ATOM     79  F   UNL A   1      44.227  25.343  30.793  1.00  0.00    -0.206 F 
ATOM     80  C   UNL A   1      44.106  24.903  33.079  1.00  0.00     0.040 A 
ATOM     81  C   UNL A   1      44.261  26.695  34.668  1.00  0.00     0.040 A 
ATOM     82  F   UNL A   1      44.424  28.916  33.931  1.00  0.00    -0.206 F 
ATOM     83  C   UNL A   1      44.153  25.334  34.401  1.00  0.00     0.006 A 
ENDBRANCH  59  76
ENDBRANCH  33  34
ENDBRANCH  25  28
ENDBRANCH  23  24
ENDBRANCH  22  23
ENDBRANCH   1  22
TORSDOF 14
ENDMDL
MODEL 2
REMARK VINA RESULT:     -11.8      1.952      3.421
REMARK SMILES Cc1c(Br)c(C(=O)NCCCCCCNC(=O)c2ccc(-c3c4nc(c(-c5c(F)cccc5F)c5ccc([nH]5)c(-c5c(F)cccc5F)c5nc(c(-c6c(F)cccc6F)c6ccc3[nH]6)C=C5)C=C4)cc2)nn1-c1ccccc1
REMARK SMILES IDX 12 1 11 2 10 3 9 4 8 5 6 6 7 7 5 9 1 10 2 11 3 12 73 13 4 14
REMARK SMILES IDX 72 15 74 16 75 17 79 18 76 19 78 20 77 21 13 22 14 23 15 24
REMARK SMILES IDX 16 25 17 27 18 28 19 29 71 30 20 31 70 32 21 33 22 34 23 35
REMARK SMILES IDX 64 36 24 37 69 38 63 39 65 40 25 41 68 42 62 43 61 44 26 46
REMARK SMILES IDX 52 47 35 48 51 49 36 50 39 51 50 52 66 53 37 54 38 55 49 57
REMARK SMILES IDX 67 58 40 59 27 60 28 61 33 62 29 63 30 64 32 65 34 66 31 67
REMARK SMILES IDX 53 68 54 69 59 70 55 71 56 72 58 73 60 74 57 75 41 76 42 77
REMARK SMILES IDX 47 78 43 79 44 80 46 81 48 82 45 83
REMARK H PARENT 8 8 15 26 65 45 39 56
REMARK Flexibility Score: inf
ROOT
ATOM      1  C   UNL A   1      40.847  21.658  27.302  1.00  0.00     0.002 C 
ENDROOT
BRANCH   1   2
ATOM      2  C   UNL A   1      39.772  21.857  26.223  1.00  0.00     0.002 C 
BRANCH   2   3
ATOM      3  C   UNL A   1      38.741  22.958  26.472  1.00  0.00     0.021 C 
BRANCH   3   4
ATOM      4  C   UNL A   1      37.521  22.951  25.553  1.00  0.00     0.116 C 
BRANCH   4   5
ATOM      5  N   UNL A   1      36.365  22.310  26.157  1.00  0.00    -0.351 N 
ATOM      6  C   UNL A   1      35.039  22.699  26.202  1.00  0.00     0.272 C 
ATOM      7  O   UNL A   1      34.270  21.965  26.827  1.00  0.00    -0.267 OA
ATOM      8  H   UNL A   1      36.559  21.457  26.610  1.00  0.00     0.163 HD
BRANCH   6   9
ATOM      9  C   UNL A   1      34.592  23.950  25.561  1.00  0.00     0.165 A 
ATOM     10  C   UNL A   1      33.333  26.265  22.952  1.00  0.00     0.068 C 
ATOM     11  C   UNL A   1      33.740  25.471  24.139  1.00  0.00     0.056 A 
ATOM     12  C   UNL A   1      34.141  24.154  24.234  1.00  0.00     0.072 A 
ATOM     13  N   UNL A   1      33.890  25.971  25.419  1.00  0.00    -0.236 N 
ATOM     14  Br  UNL A   1      34.110  22.888  22.849  1.00  0.00    -0.046 Br
ATOM     15  N   UNL A   1      34.628  25.140  26.188  1.00  0.00    -0.161 NA
BRANCH  13  16
ATOM     16  C   UNL A   1      33.345  27.136  26.020  1.00  0.00     0.065 A 
ATOM     17  C   UNL A   1      34.098  28.319  26.007  1.00  0.00     0.028 A 
ATOM     18  C   UNL A   1      32.127  27.092  26.708  1.00  0.00     0.028 A 
ATOM     19  C   UNL A   1      33.612  29.465  26.637  1.00  0.00     0.002 A 
ATOM     20  C   UNL A   1      31.661  28.236  27.362  1.00  0.00     0.002 A 
ATOM     21  C   UNL A   1      32.395  29.421  27.317  1.00  0.00     0.000 A 
ENDBRANCH  13  16
ENDBRANCH   6   9
ENDBRANCH   4   5
ENDBRANCH   3   4
ENDBRANCH   2   3
ENDBRANCH   1   2
BRANCH   1  22
ATOM     22  C   UNL A   1      41.707  20.388  27.223  1.00  0.00     0.021 C 
BRANCH  22  23
ATOM     23  C   UNL A   1      41.917  19.847  25.817  1.00  0.00     0.116 C 
BRANCH  23  24
ATOM     24  N   UNL A   1      43.324  19.612  25.486  1.00  0.00    -0.352 N 
ATOM     25  C   UNL A   1      44.302  20.543  25.166  1.00  0.00     0.251 C 
ATOM     26  H   UNL A   1      43.614  18.672  25.491  1.00  0.00     0.163 HD
ATOM     27  O   UNL A   1      45.309  20.219  24.562  1.00  0.00    -0.269 OA
BRANCH  25  28
ATOM     28  C   UNL A   1      44.098  21.946  25.577  1.00  0.00     0.039 A 
ATOM     29  C   UNL A   1      43.312  22.834  24.836  1.00  0.00     0.014 A 
ATOM     30  C   UNL A   1      44.707  22.360  26.755  1.00  0.00     0.014 A 
ATOM     31  C   UNL A   1      43.092  24.114  25.346  1.00  0.00     0.010 A 
ATOM     32  C   UNL A   1      44.309  23.518  27.359  1.00  0.00     0.010 A 
ATOM     33  C   UNL A   1      43.583  24.439  26.622  1.00  0.00    -0.014 A 
BRANCH  33  34
ATOM     34  C   UNL A   1      43.323  25.730  27.237  1.00  0.00     0.031 A 
ATOM     35  C   UNL A   1      44.271  26.806  26.860  1.00  0.00     0.074 A 
ATOM     36  C   UNL A   1      42.203  26.001  27.942  1.00  0.00     0.049 A 
ATOM     37  N   UNL A   1      45.193  27.322  27.599  1.00  0.00    -0.248 NA
ATOM     38  C   UNL A   1      44.290  27.272  25.466  1.00  0.00     0.031 C 
ATOM     39  C   UNL A   1      41.004  25.174  28.140  1.00  0.00     0.029 A 
ATOM     40  N   UNL A   1      41.872  27.154  28.580  1.00  0.00    -0.354 N 
ATOM     41  C   UNL A   1      45.786  28.322  26.836  1.00  0.00     0.074 A 
ATOM     42  C   UNL A   1      45.314  28.129  25.488  1.00  0.00     0.031 C 
ATOM     43  C   UNL A   1      40.007  25.933  28.645  1.00  0.00     0.029 A 
ATOM     44  C   UNL A   1      40.546  27.237  28.980  1.00  0.00     0.049 A 
ATOM     45  H   UNL A   1      42.523  27.874  28.745  1.00  0.00     0.167 HD
ATOM     46  C   UNL A   1      46.439  29.359  27.429  1.00  0.00     0.037 A 
ATOM     47  C   UNL A   1      39.942  28.317  29.532  1.00  0.00     0.037 A 
ATOM     48  C   UNL A   1      46.676  29.090  28.828  1.00  0.00     0.049 A 
ATOM     49  C   UNL A   1      41.016  29.182  30.083  1.00  0.00     0.074 A 
ATOM     50  C   UNL A   1      47.360  28.116  29.528  1.00  0.00     0.029 A 
ATOM     51  N   UNL A   1      45.827  29.675  29.737  1.00  0.00    -0.354 N 
ATOM     52  N   UNL A   1      41.757  28.855  31.106  1.00  0.00    -0.248 NA
ATOM     53  C   UNL A   1      41.573  30.203  29.210  1.00  0.00     0.031 C 
ATOM     54  C   UNL A   1      46.539  27.835  30.661  1.00  0.00     0.029 A 
ATOM     55  C   UNL A   1      45.445  28.702  30.624  1.00  0.00     0.049 A 
ATOM     56  H   UNL A   1      45.546  30.619  29.749  1.00  0.00     0.167 HD
ATOM     57  C   UNL A   1      43.032  29.284  30.768  1.00  0.00     0.074 A 
ATOM     58  C   UNL A   1      42.840  30.185  29.633  1.00  0.00     0.031 C 
ATOM     59  C   UNL A   1      44.142  28.647  31.246  1.00  0.00     0.037 A 
BRANCH  46  60
ATOM     60  C   UNL A   1      46.541  30.753  26.869  1.00  0.00     0.057 A 
ATOM     61  C   UNL A   1      47.792  31.396  26.861  1.00  0.00     0.134 A 
ATOM     62  C   UNL A   1      45.435  31.588  26.617  1.00  0.00     0.134 A 
ATOM     63  F   UNL A   1      48.921  30.710  27.095  1.00  0.00    -0.206 F 
ATOM     64  C   UNL A   1      47.923  32.781  26.699  1.00  0.00     0.040 A 
ATOM     65  C   UNL A   1      45.560  32.963  26.403  1.00  0.00     0.040 A 
ATOM     66  F   UNL A   1      44.173  31.143  26.669  1.00  0.00    -0.206 F 
ATOM     67  C   UNL A   1      46.803  33.570  26.479  1.00  0.00     0.006 A 
ENDBRANCH  46  60
BRANCH  47  68
ATOM     68  C   UNL A   1      38.556  28.801  29.348  1.00  0.00     0.057 A 
ATOM     69  C   UNL A   1      37.668  28.866  30.431  1.00  0.00     0.134 A 
ATOM     70  C   UNL A   1      38.167  29.492  28.187  1.00  0.00     0.134 A 
ATOM     71  F   UNL A   1      37.966  28.264  31.592  1.00  0.00    -0.206 F 
ATOM     72  C   UNL A   1      36.483  29.613  30.380  1.00  0.00     0.040 A 
ATOM     73  C   UNL A   1      36.984  30.237  28.121  1.00  0.00     0.040 A 
ATOM     74  F   UNL A   1      38.966  29.546  27.111  1.00  0.00    -0.206 F 
ATOM     75  C   UNL A   1      36.147  30.315  29.228  1.00  0.00     0.006 A 
ENDBRANCH  47  68
BRANCH  59  76
ATOM     76  C   UNL A   1      43.959  27.638  32.347  1.00  0.00     0.057 A 
ATOM     77  C   UNL A   1      43.879  26.250  32.148  1.00  0.00     0.134 A 
ATOM     78  C   UNL A   1      44.013  28.080  33.673  1.00  0.00     0.134 A 
ATOM     79  F   UNL A   1      43.918  25.720  30.920  1.00  0.00    -0.206 F 
ATOM     80  C   UNL A   1      43.812  25.353  33.218  1.00  0.00     0.040 A 
ATOM     81  C   UNL A   1      43.982  27.193  34.750  1.00  0.00     0.040 A 
ATOM     82  F   UNL A   1      44.145  29.389  33.943  1.00  0.00    -0.206 F 
ATOM     83  C   UNL A   1      43.870  25.824  34.526  1.00  0.00     0.006 A 
ENDBRANCH  59  76
ENDBRANCH  33  34
ENDBRANCH  25  28
ENDBRANCH  23  24
ENDBRANCH  22  23
ENDBRANCH   1  22
TORSDOF 14
ENDMDL
MODEL 3
REMARK VINA RESULT:     -11.6      4.442      9.090
REMARK SMILES Cc1c(Br)c(C(=O)NCCCCCCNC(=O)c2ccc(-c3c4nc(c(-c5c(F)cccc5F)c5ccc([nH]5)c(-c5c(F)cccc5F)c5nc(c(-c6c(F)cccc6F)c6ccc3[nH]6)C=C5)C=C4)cc2)nn1-c1ccccc1
REMARK SMILES IDX 12 1 11 2 10 3 9 4 8 5 6 6 7 7 5 9 1 10 2 11 3 12 73 13 4 14
REMARK SMILES IDX 72 15 74 16 75 17 79 18 76 19 78 20 77 21 13 22 14 23 15 24
REMARK SMILES IDX 16 25 17 27 18 28 19 29 71 30 20 31 70 32 21 33 22 34 23 35
REMARK SMILES IDX 64 36 24 37 69 38 63 39 65 40 25 41 68 42 62 43 61 44 26 46
REMARK SMILES IDX 52 47 35 48 51 49 36 50 39 51 50 52 66 53 37 54 38 55 49 57
REMARK SMILES IDX 67 58 40 59 27 60 28 61 33 62 29 63 30 64 32 65 34 66 31 67
REMARK SMILES IDX 53 68 54 69 59 70 55 71 56 72 58 73 60 74 57 75 41 76 42 77
REMARK SMILES IDX 47 78 43 79 44 80 46 81 48 82 45 83
REMARK H PARENT 8 8 15 26 65 45 39 56
REMARK Flexibility Score: inf
ROOT
ATOM      1  C   UNL A   1      34.106  29.088  27.047  1.00  0.00     0.002 C 
ENDROOT
BRANCH   1   2
ATOM      2  C   UNL A   1      33.207  27.942  26.561  1.00  0.00     0.002 C 
BRANCH   2   3
ATOM      3  C   UNL A   1      33.722  27.114  25.383  1.00  0.00     0.021 C 
BRANCH   3   4
ATOM      4  C   UNL A   1      34.009  27.887  24.097  1.00  0.00     0.116 C 
BRANCH   4   5
ATOM      5  N   UNL A   1      33.993  27.040  22.916  1.00  0.00    -0.351 N 
ATOM      6  C   UNL A   1      32.938  26.572  22.156  1.00  0.00     0.272 C 
ATOM      7  O   UNL A   1      33.222  25.828  21.216  1.00  0.00    -0.267 OA
ATOM      8  H   UNL A   1      34.882  26.751  22.607  1.00  0.00     0.163 HD
BRANCH   6   9
ATOM      9  C   UNL A   1      31.545  26.926  22.490  1.00  0.00     0.165 A 
ATOM     10  C   UNL A   1      28.144  26.671  23.945  1.00  0.00     0.068 C 
ATOM     11  C   UNL A   1      29.479  26.988  23.378  1.00  0.00     0.056 A 
ATOM     12  C   UNL A   1      30.609  26.204  23.270  1.00  0.00     0.072 A 
ATOM     13  N   UNL A   1      29.812  28.166  22.735  1.00  0.00    -0.236 N 
ATOM     14  Br  UNL A   1      30.840  24.493  24.006  1.00  0.00    -0.046 Br
ATOM     15  N   UNL A   1      30.937  28.022  21.999  1.00  0.00    -0.161 NA
BRANCH  13  16
ATOM     16  C   UNL A   1      29.208  29.448  22.796  1.00  0.00     0.065 A 
ATOM     17  C   UNL A   1      29.625  30.347  23.788  1.00  0.00     0.028 A 
ATOM     18  C   UNL A   1      28.139  29.784  21.956  1.00  0.00     0.028 A 
ATOM     19  C   UNL A   1      29.012  31.594  23.906  1.00  0.00     0.002 A 
ATOM     20  C   UNL A   1      27.509  31.023  22.101  1.00  0.00     0.002 A 
ATOM     21  C   UNL A   1      27.952  31.929  23.065  1.00  0.00     0.000 A 
ENDBRANCH  13  16
ENDBRANCH   6   9
ENDBRANCH   4   5
ENDBRANCH   3   4
ENDBRANCH   2   3
ENDBRANCH   1   2
BRANCH   1  22
ATOM     22  C   UNL A   1      33.418  30.367  27.548  1.00  0.00     0.021 C 
BRANCH  22  23
ATOM     23  C   UNL A   1      34.319  31.590  27.616  1.00  0.00     0.116 C 
BRANCH  23  24
ATOM     24  N   UNL A   1      34.286  32.268  28.913  1.00  0.00    -0.352 N 
ATOM     25  C   UNL A   1      35.073  32.033  30.031  1.00  0.00     0.251 C 
ATOM     26  H   UNL A   1      33.617  32.986  29.005  1.00  0.00     0.163 HD
ATOM     27  O   UNL A   1      34.718  32.389  31.141  1.00  0.00    -0.269 OA
BRANCH  25  28
ATOM     28  C   UNL A   1      36.363  31.338  29.848  1.00  0.00     0.039 A 
ATOM     29  C   UNL A   1      37.549  32.027  29.573  1.00  0.00     0.014 A 
ATOM     30  C   UNL A   1      36.367  29.955  29.978  1.00  0.00     0.014 A 
ATOM     31  C   UNL A   1      38.740  31.305  29.512  1.00  0.00     0.010 A 
ATOM     32  C   UNL A   1      37.548  29.289  30.144  1.00  0.00     0.010 A 
ATOM     33  C   UNL A   1      38.729  29.933  29.818  1.00  0.00    -0.014 A 
BRANCH  33  34
ATOM     34  C   UNL A   1      39.949  29.144  29.843  1.00  0.00     0.031 A 
ATOM     35  C   UNL A   1      40.513  28.904  31.193  1.00  0.00     0.074 A 
ATOM     36  C   UNL A   1      40.440  28.508  28.757  1.00  0.00     0.049 A 
ATOM     37  N   UNL A   1      41.571  29.440  31.699  1.00  0.00    -0.248 NA
ATOM     38  C   UNL A   1      39.748  28.079  32.139  1.00  0.00     0.031 C 
ATOM     39  C   UNL A   1      39.849  28.353  27.421  1.00  0.00     0.029 A 
ATOM     40  N   UNL A   1      41.579  27.774  28.660  1.00  0.00    -0.354 N 
ATOM     41  C   UNL A   1      41.726  28.873  32.959  1.00  0.00     0.074 A 
ATOM     42  C   UNL A   1      40.492  28.184  33.243  1.00  0.00     0.031 C 
ATOM     43  C   UNL A   1      40.514  27.398  26.736  1.00  0.00     0.029 A 
ATOM     44  C   UNL A   1      41.682  27.011  27.504  1.00  0.00     0.049 A 
ATOM     45  H   UNL A   1      42.276  27.781  29.354  1.00  0.00     0.167 HD
ATOM     46  C   UNL A   1      42.946  28.836  33.563  1.00  0.00     0.037 A 
ATOM     47  C   UNL A   1      42.659  26.117  27.219  1.00  0.00     0.037 A 
ATOM     48  C   UNL A   1      43.886  29.697  32.886  1.00  0.00     0.049 A 
ATOM     49  C   UNL A   1      43.820  26.449  28.084  1.00  0.00     0.074 A 
ATOM     50  C   UNL A   1      43.942  31.050  32.612  1.00  0.00     0.029 A 
ATOM     51  N   UNL A   1      44.779  29.106  32.024  1.00  0.00    -0.354 N 
ATOM     52  N   UNL A   1      44.533  27.533  27.953  1.00  0.00    -0.248 NA
ATOM     53  C   UNL A   1      43.897  25.803  29.385  1.00  0.00     0.031 C 
ATOM     54  C   UNL A   1      44.471  31.134  31.289  1.00  0.00     0.029 A 
ATOM     55  C   UNL A   1      44.775  29.839  30.865  1.00  0.00     0.049 A 
ATOM     56  H   UNL A   1      45.322  28.305  32.206  1.00  0.00     0.167 HD
ATOM     57  C   UNL A   1      44.786  27.947  29.253  1.00  0.00     0.074 A 
ATOM     58  C   UNL A   1      44.449  26.796  30.089  1.00  0.00     0.031 C 
ATOM     59  C   UNL A   1      44.964  29.268  29.552  1.00  0.00     0.037 A 
BRANCH  46  60
ATOM     60  C   UNL A   1      43.407  27.768  34.519  1.00  0.00     0.057 A 
ATOM     61  C   UNL A   1      43.558  26.450  34.049  1.00  0.00     0.134 A 
ATOM     62  C   UNL A   1      43.421  27.911  35.920  1.00  0.00     0.134 A 
ATOM     63  F   UNL A   1      43.553  26.183  32.734  1.00  0.00    -0.206 F 
ATOM     64  C   UNL A   1      43.631  25.350  34.912  1.00  0.00     0.040 A 
ATOM     65  C   UNL A   1      43.546  26.824  36.790  1.00  0.00     0.040 A 
ATOM     66  F   UNL A   1      43.210  29.087  36.524  1.00  0.00    -0.206 F 
ATOM     67  C   UNL A   1      43.616  25.534  36.287  1.00  0.00     0.006 A 
ENDBRANCH  46  60
BRANCH  47  68
ATOM     68  C   UNL A   1      42.556  24.829  26.497  1.00  0.00     0.057 A 
ATOM     69  C   UNL A   1      43.366  24.564  25.383  1.00  0.00     0.134 A 
ATOM     70  C   UNL A   1      41.893  23.723  27.056  1.00  0.00     0.134 A 
ATOM     71  F   UNL A   1      44.063  25.550  24.799  1.00  0.00    -0.206 F 
ATOM     72  C   UNL A   1      43.543  23.268  24.882  1.00  0.00     0.040 A 
ATOM     73  C   UNL A   1      42.057  22.425  26.562  1.00  0.00     0.040 A 
ATOM     74  F   UNL A   1      41.139  23.850  28.158  1.00  0.00    -0.206 F 
ATOM     75  C   UNL A   1      42.901  22.191  25.483  1.00  0.00     0.006 A 
ENDBRANCH  47  68
BRANCH  59  76
ATOM     76  C   UNL A   1      45.138  30.233  28.411  1.00  0.00     0.057 A 
ATOM     77  C   UNL A   1      44.080  30.868  27.740  1.00  0.00     0.134 A 
ATOM     78  C   UNL A   1      46.432  30.648  28.080  1.00  0.00     0.134 A 
ATOM     79  F   UNL A   1      42.805  30.612  28.052  1.00  0.00    -0.206 F 
ATOM     80  C   UNL A   1      44.305  31.835  26.755  1.00  0.00     0.040 A 
ATOM     81  C   UNL A   1      46.669  31.638  27.123  1.00  0.00     0.040 A 
ATOM     82  F   UNL A   1      47.492  30.127  28.718  1.00  0.00    -0.206 F 
ATOM     83  C   UNL A   1      45.605  32.227  26.448  1.00  0.00     0.006 A 
ENDBRANCH  59  76
ENDBRANCH  33  34
ENDBRANCH  25  28
ENDBRANCH  23  24
ENDBRANCH  22  23
ENDBRANCH   1  22
TORSDOF 14
ENDMDL
