MODEL 1
REMARK VINA RESULT:     -11.2      0.000      0.000
REMARK SMILES CCC[NH2+][C@@]1(C(=O)NCCCCCCNC(=O)c2ccc(-c3c4nc(c(-c5c(F)cccc5F)c5ccc([nH]5)c(-c5c(F)cccc5F)c5nc(c(-c6c(F)cccc6F)c6ccc3[nH]6)C=C5)C=C4)cc2)CCC[C@@H]1CC[NH+]1CC[NH+](C)CC1
REMARK SMILES IDX 11 1 10 2 9 3 8 4 6 5 7 6 5 8 72 9 75 10 73 11 74 12 4 13
REMARK SMILES IDX 3 16 2 17 1 18 76 19 77 20 78 21 79 22 84 23 80 25 83 26
REMARK SMILES IDX 81 27 82 28 12 30 13 31 14 32 15 33 16 34 17 36 18 37 19 38
REMARK SMILES IDX 71 39 20 40 70 41 21 42 22 43 23 44 64 45 24 46 69 47 63 48
REMARK SMILES IDX 65 49 25 50 68 51 62 52 61 53 26 55 52 56 35 57 51 58 36 59
REMARK SMILES IDX 39 60 50 61 66 62 37 63 38 64 49 66 67 67 40 68 27 69 28 70
REMARK SMILES IDX 33 71 29 72 30 73 32 74 34 75 31 76 53 77 54 78 59 79 55 80
REMARK SMILES IDX 56 81 58 82 60 83 57 84 41 85 42 86 47 87 43 88 44 89 46 90
REMARK SMILES IDX 48 91 45 92
REMARK H PARENT 8 7 4 14 4 15 78 24 81 29 15 35 65 54 39 65
REMARK Flexibility Score: inf
ROOT
ATOM      1  C   UNL A   1      32.441  29.998  27.248  1.00  0.00     0.002 C 
ENDROOT
BRANCH   1   2
ATOM      2  C   UNL A   1      32.006  28.551  27.499  1.00  0.00     0.021 C 
BRANCH   2   3
ATOM      3  C   UNL A   1      31.622  27.788  26.232  1.00  0.00     0.116 C 
BRANCH   3   4
ATOM      4  N   UNL A   1      30.719  26.706  26.520  1.00  0.00    -0.351 N 
ATOM      5  C   UNL A   1      30.651  25.415  26.121  1.00  0.00     0.281 C 
ATOM      6  O   UNL A   1      29.635  24.826  26.529  1.00  0.00    -0.268 OA
ATOM      7  H   UNL A   1      29.996  26.959  27.139  1.00  0.00     0.163 HD
BRANCH   5   8
ATOM      8  C   UNL A   1      31.697  24.647  25.175  1.00  0.00     0.178 C 
ATOM      9  C   UNL A   1      33.091  24.585  25.820  1.00  0.00     0.079 C 
ATOM     10  C   UNL A   1      31.928  25.275  23.770  1.00  0.00     0.066 C 
ATOM     11  C   UNL A   1      34.030  25.467  24.994  1.00  0.00     0.008 C 
ATOM     12  C   UNL A   1      33.225  26.080  23.851  1.00  0.00     0.011 C 
BRANCH   8  13
ATOM     13  N   UNL A   1      31.116  23.271  25.103  1.00  0.00    -0.333 N 
ATOM     14  H   UNL A   1      30.174  23.330  25.491  1.00  0.00     0.347 HD
ATOM     15  H   UNL A   1      31.210  23.033  24.116  1.00  0.00     0.347 HD
BRANCH  13  16
ATOM     16  C   UNL A   1      31.770  22.157  25.770  1.00  0.00     0.261 C 
BRANCH  16  17
ATOM     17  C   UNL A   1      32.136  21.052  24.771  1.00  0.00     0.058 C 
ATOM     18  C   UNL A   1      33.194  21.490  23.762  1.00  0.00     0.010 C 
ENDBRANCH  16  17
ENDBRANCH  13  16
ENDBRANCH   8  13
BRANCH  10  19
ATOM     19  C   UNL A   1      30.715  26.031  23.201  1.00  0.00     0.072 C 
BRANCH  19  20
ATOM     20  C   UNL A   1      31.033  27.473  22.777  1.00  0.00     0.263 C 
BRANCH  20  21
ATOM     21  N   UNL A   1      29.830  28.205  22.367  1.00  0.00    -0.326 N 
ATOM     22  C   UNL A   1      30.154  29.597  22.009  1.00  0.00     0.324 C 
ATOM     23  C   UNL A   1      28.731  28.169  23.346  1.00  0.00     0.324 C 
ATOM     24  H   UNL A   1      29.485  27.711  21.542  1.00  0.00     0.348 HD
ATOM     25  C   UNL A   1      28.912  30.392  21.543  1.00  0.00     0.324 C 
ATOM     26  C   UNL A   1      27.496  28.966  22.857  1.00  0.00     0.324 C 
ATOM     27  N   UNL A   1      27.768  30.366  22.476  1.00  0.00    -0.328 N 
ATOM     28  C   UNL A   1      28.006  31.204  23.647  1.00  0.00     0.333 C 
ATOM     29  H   UNL A   1      26.948  30.754  22.009  1.00  0.00     0.348 HD
ENDBRANCH  20  21
ENDBRANCH  19  20
ENDBRANCH  10  19
ENDBRANCH   5   8
ENDBRANCH   3   4
ENDBRANCH   2   3
ENDBRANCH   1   2
BRANCH   1  30
ATOM     30  C   UNL A   1      31.545  30.792  26.291  1.00  0.00     0.002 C 
BRANCH  30  31
ATOM     31  C   UNL A   1      31.423  32.289  26.595  1.00  0.00     0.021 C 
BRANCH  31  32
ATOM     32  C   UNL A   1      32.656  32.911  27.246  1.00  0.00     0.116 C 
BRANCH  32  33
ATOM     33  N   UNL A   1      32.427  34.296  27.630  1.00  0.00    -0.352 N 
ATOM     34  C   UNL A   1      33.002  35.033  28.629  1.00  0.00     0.251 C 
ATOM     35  H   UNL A   1      31.759  34.774  27.089  1.00  0.00     0.163 HD
ATOM     36  O   UNL A   1      32.520  36.125  28.943  1.00  0.00    -0.269 OA
BRANCH  34  37
ATOM     37  C   UNL A   1      34.188  34.527  29.346  1.00  0.00     0.039 A 
ATOM     38  C   UNL A   1      34.021  33.953  30.609  1.00  0.00     0.014 A 
ATOM     39  C   UNL A   1      35.465  34.637  28.786  1.00  0.00     0.014 A 
ATOM     40  C   UNL A   1      35.127  33.434  31.284  1.00  0.00     0.010 A 
ATOM     41  C   UNL A   1      36.556  34.061  29.432  1.00  0.00     0.010 A 
ATOM     42  C   UNL A   1      36.398  33.452  30.685  1.00  0.00    -0.014 A 
BRANCH  42  43
ATOM     43  C   UNL A   1      37.563  32.813  31.345  1.00  0.00     0.031 A 
ATOM     44  C   UNL A   1      38.214  31.604  30.737  1.00  0.00     0.074 A 
ATOM     45  C   UNL A   1      37.990  33.288  32.531  1.00  0.00     0.049 A 
ATOM     46  N   UNL A   1      39.199  30.877  31.201  1.00  0.00    -0.248 NA
ATOM     47  C   UNL A   1      37.672  31.133  29.454  1.00  0.00     0.031 C 
ATOM     48  C   UNL A   1      37.407  34.427  33.244  1.00  0.00     0.029 A 
ATOM     49  N   UNL A   1      39.005  32.866  33.351  1.00  0.00    -0.354 N 
ATOM     50  C   UNL A   1      39.388  29.860  30.273  1.00  0.00     0.074 A 
ATOM     51  C   UNL A   1      38.384  30.035  29.246  1.00  0.00     0.031 C 
ATOM     52  C   UNL A   1      38.086  34.623  34.386  1.00  0.00     0.029 A 
ATOM     53  C   UNL A   1      39.125  33.605  34.503  1.00  0.00     0.049 A 
ATOM     54  H   UNL A   1      39.591  32.105  33.135  1.00  0.00     0.167 HD
ATOM     55  C   UNL A   1      40.326  28.883  30.270  1.00  0.00     0.037 A 
ATOM     56  C   UNL A   1      39.970  33.471  35.542  1.00  0.00     0.037 A 
ATOM     57  C   UNL A   1      41.335  28.725  31.284  1.00  0.00     0.049 A 
ATOM     58  C   UNL A   1      40.993  32.371  35.518  1.00  0.00     0.074 A 
ATOM     59  C   UNL A   1      42.374  27.811  31.332  1.00  0.00     0.029 A 
ATOM     60  N   UNL A   1      41.429  29.497  32.433  1.00  0.00    -0.354 N 
ATOM     61  N   UNL A   1      41.209  31.463  34.598  1.00  0.00    -0.248 NA
ATOM     62  C   UNL A   1      41.892  32.279  36.677  1.00  0.00     0.031 C 
ATOM     63  C   UNL A   1      43.066  27.998  32.533  1.00  0.00     0.029 A 
ATOM     64  C   UNL A   1      42.488  29.060  33.211  1.00  0.00     0.049 A 
ATOM     65  H   UNL A   1      40.831  30.245  32.661  1.00  0.00     0.167 HD
ATOM     66  C   UNL A   1      42.277  30.703  35.056  1.00  0.00     0.074 A 
ATOM     67  C   UNL A   1      42.678  31.270  36.327  1.00  0.00     0.031 C 
ATOM     68  C   UNL A   1      42.870  29.630  34.477  1.00  0.00     0.037 A 
BRANCH  55  69
ATOM     69  C   UNL A   1      40.305  27.906  29.129  1.00  0.00     0.057 A 
ATOM     70  C   UNL A   1      41.078  28.100  27.977  1.00  0.00     0.134 A 
ATOM     71  C   UNL A   1      39.533  26.740  29.200  1.00  0.00     0.134 A 
ATOM     72  F   UNL A   1      41.831  29.201  27.840  1.00  0.00    -0.206 F 
ATOM     73  C   UNL A   1      41.064  27.181  26.925  1.00  0.00     0.040 A 
ATOM     74  C   UNL A   1      39.532  25.801  28.166  1.00  0.00     0.040 A 
ATOM     75  F   UNL A   1      38.775  26.490  30.277  1.00  0.00    -0.206 F 
ATOM     76  C   UNL A   1      40.294  26.024  27.022  1.00  0.00     0.006 A 
ENDBRANCH  55  69
BRANCH  56  77
ATOM     77  C   UNL A   1      39.893  34.414  36.686  1.00  0.00     0.057 A 
ATOM     78  C   UNL A   1      40.579  35.633  36.663  1.00  0.00     0.134 A 
ATOM     79  C   UNL A   1      39.134  34.121  37.825  1.00  0.00     0.134 A 
ATOM     80  F   UNL A   1      41.338  35.960  35.606  1.00  0.00    -0.206 F 
ATOM     81  C   UNL A   1      40.528  36.521  37.738  1.00  0.00     0.040 A 
ATOM     82  C   UNL A   1      39.053  35.011  38.897  1.00  0.00     0.040 A 
ATOM     83  F   UNL A   1      38.446  32.972  37.904  1.00  0.00    -0.206 F 
ATOM     84  C   UNL A   1      39.758  36.212  38.859  1.00  0.00     0.006 A 
ENDBRANCH  56  77
BRANCH  68  85
ATOM     85  C   UNL A   1      44.024  29.011  35.210  1.00  0.00     0.057 A 
ATOM     86  C   UNL A   1      43.835  27.994  36.154  1.00  0.00     0.134 A 
ATOM     87  C   UNL A   1      45.339  29.412  34.944  1.00  0.00     0.134 A 
ATOM     88  F   UNL A   1      42.599  27.575  36.466  1.00  0.00    -0.206 F 
ATOM     89  C   UNL A   1      44.913  27.413  36.825  1.00  0.00     0.040 A 
ATOM     90  C   UNL A   1      46.427  28.821  35.589  1.00  0.00     0.040 A 
ATOM     91  F   UNL A   1      45.589  30.375  34.044  1.00  0.00    -0.206 F 
ATOM     92  C   UNL A   1      46.214  27.822  36.537  1.00  0.00     0.006 A 
ENDBRANCH  68  85
ENDBRANCH  42  43
ENDBRANCH  34  37
ENDBRANCH  32  33
ENDBRANCH  31  32
ENDBRANCH  30  31
ENDBRANCH   1  30
TORSDOF 19
ENDMDL
MODEL 2
REMARK VINA RESULT:     -11.2      4.324      8.984
REMARK SMILES CCC[NH2+][C@@]1(C(=O)NCCCCCCNC(=O)c2ccc(-c3c4nc(c(-c5c(F)cccc5F)c5ccc([nH]5)c(-c5c(F)cccc5F)c5nc(c(-c6c(F)cccc6F)c6ccc3[nH]6)C=C5)C=C4)cc2)CCC[C@@H]1CC[NH+]1CC[NH+](C)CC1
REMARK SMILES IDX 11 1 10 2 9 3 8 4 6 5 7 6 5 8 72 9 75 10 73 11 74 12 4 13
REMARK SMILES IDX 3 16 2 17 1 18 76 19 77 20 78 21 79 22 84 23 80 25 83 26
REMARK SMILES IDX 81 27 82 28 12 30 13 31 14 32 15 33 16 34 17 36 18 37 19 38
REMARK SMILES IDX 71 39 20 40 70 41 21 42 22 43 23 44 64 45 24 46 69 47 63 48
REMARK SMILES IDX 65 49 25 50 68 51 62 52 61 53 26 55 52 56 35 57 51 58 36 59
REMARK SMILES IDX 39 60 50 61 66 62 37 63 38 64 49 66 67 67 40 68 27 69 28 70
REMARK SMILES IDX 33 71 29 72 30 73 32 74 34 75 31 76 53 77 54 78 59 79 55 80
REMARK SMILES IDX 56 81 58 82 60 83 57 84 41 85 42 86 47 87 43 88 44 89 46 90
REMARK SMILES IDX 48 91 45 92
REMARK H PARENT 8 7 4 14 4 15 78 24 81 29 15 35 65 54 39 65
REMARK Flexibility Score: inf
ROOT
ATOM      1  C   UNL A   1      36.374  21.934  25.751  1.00  0.00     0.002 C 
ENDROOT
BRANCH   1   2
ATOM      2  C   UNL A   1      35.279  22.264  26.770  1.00  0.00     0.021 C 
BRANCH   2   3
ATOM      3  C   UNL A   1      33.964  21.521  26.533  1.00  0.00     0.116 C 
BRANCH   3   4
ATOM      4  N   UNL A   1      32.839  22.273  27.019  1.00  0.00    -0.351 N 
ATOM      5  C   UNL A   1      31.926  23.076  26.426  1.00  0.00     0.281 C 
ATOM      6  O   UNL A   1      31.158  23.629  27.232  1.00  0.00    -0.268 OA
ATOM      7  H   UNL A   1      32.704  22.184  27.991  1.00  0.00     0.163 HD
BRANCH   5   8
ATOM      8  C   UNL A   1      31.802  23.391  24.856  1.00  0.00     0.178 C 
ATOM      9  C   UNL A   1      31.805  22.096  24.027  1.00  0.00     0.079 C 
ATOM     10  C   UNL A   1      32.936  24.265  24.247  1.00  0.00     0.066 C 
ATOM     11  C   UNL A   1      33.107  22.057  23.223  1.00  0.00     0.008 C 
ATOM     12  C   UNL A   1      33.911  23.311  23.558  1.00  0.00     0.011 C 
BRANCH   8  13
ATOM     13  N   UNL A   1      30.458  24.042  24.763  1.00  0.00    -0.333 N 
ATOM     14  H   UNL A   1      29.780  23.294  24.620  1.00  0.00     0.347 HD
ATOM     15  H   UNL A   1      30.402  24.576  25.630  1.00  0.00     0.347 HD
BRANCH  13  16
ATOM     16  C   UNL A   1      30.192  25.045  23.745  1.00  0.00     0.261 C 
BRANCH  16  17
ATOM     17  C   UNL A   1      29.589  26.313  24.362  1.00  0.00     0.058 C 
ATOM     18  C   UNL A   1      29.517  27.476  23.376  1.00  0.00     0.010 C 
ENDBRANCH  16  17
ENDBRANCH  13  16
ENDBRANCH   8  13
BRANCH  10  19
ATOM     19  C   UNL A   1      33.571  25.262  25.231  1.00  0.00     0.072 C 
BRANCH  19  20
ATOM     20  C   UNL A   1      33.669  26.692  24.679  1.00  0.00     0.263 C 
BRANCH  20  21
ATOM     21  N   UNL A   1      32.698  27.595  25.308  1.00  0.00    -0.326 N 
ATOM     22  C   UNL A   1      32.755  28.937  24.703  1.00  0.00     0.324 C 
ATOM     23  C   UNL A   1      32.813  27.686  26.773  1.00  0.00     0.324 C 
ATOM     24  H   UNL A   1      31.786  27.175  25.125  1.00  0.00     0.348 HD
ATOM     25  C   UNL A   1      31.723  29.908  25.323  1.00  0.00     0.324 C 
ATOM     26  C   UNL A   1      31.768  28.659  27.374  1.00  0.00     0.324 C 
ATOM     27  N   UNL A   1      31.775  30.017  26.795  1.00  0.00    -0.328 N 
ATOM     28  C   UNL A   1      32.934  30.784  27.240  1.00  0.00     0.333 C 
ATOM     29  H   UNL A   1      30.953  30.527  27.121  1.00  0.00     0.348 HD
ENDBRANCH  20  21
ENDBRANCH  19  20
ENDBRANCH  10  19
ENDBRANCH   5   8
ENDBRANCH   3   4
ENDBRANCH   2   3
ENDBRANCH   1   2
BRANCH   1  30
ATOM     30  C   UNL A   1      36.177  20.621  24.984  1.00  0.00     0.002 C 
BRANCH  30  31
ATOM     31  C   UNL A   1      37.398  19.695  24.945  1.00  0.00     0.021 C 
BRANCH  31  32
ATOM     32  C   UNL A   1      38.698  20.329  25.434  1.00  0.00     0.116 C 
BRANCH  32  33
ATOM     33  N   UNL A   1      39.733  19.335  25.669  1.00  0.00    -0.352 N 
ATOM     34  C   UNL A   1      41.028  19.500  26.079  1.00  0.00     0.251 C 
ATOM     35  H   UNL A   1      39.461  18.403  25.509  1.00  0.00     0.163 HD
ATOM     36  O   UNL A   1      41.820  18.556  26.010  1.00  0.00    -0.269 OA
BRANCH  34  37
ATOM     37  C   UNL A   1      41.490  20.803  26.594  1.00  0.00     0.039 A 
ATOM     38  C   UNL A   1      42.063  21.716  25.705  1.00  0.00     0.014 A 
ATOM     39  C   UNL A   1      41.380  21.117  27.952  1.00  0.00     0.014 A 
ATOM     40  C   UNL A   1      42.470  22.968  26.167  1.00  0.00     0.010 A 
ATOM     41  C   UNL A   1      41.727  22.390  28.399  1.00  0.00     0.010 A 
ATOM     42  C   UNL A   1      42.273  23.328  27.511  1.00  0.00    -0.014 A 
BRANCH  42  43
ATOM     43  C   UNL A   1      42.606  24.691  27.994  1.00  0.00     0.031 A 
ATOM     44  C   UNL A   1      44.019  25.047  28.358  1.00  0.00     0.074 A 
ATOM     45  C   UNL A   1      41.617  25.588  28.166  1.00  0.00     0.049 A 
ATOM     46  N   UNL A   1      44.487  26.164  28.855  1.00  0.00    -0.248 NA
ATOM     47  C   UNL A   1      45.037  24.002  28.164  1.00  0.00     0.031 C 
ATOM     48  C   UNL A   1      40.198  25.345  27.893  1.00  0.00     0.029 A 
ATOM     49  N   UNL A   1      41.650  26.882  28.623  1.00  0.00    -0.354 N 
ATOM     50  C   UNL A   1      45.847  25.955  29.041  1.00  0.00     0.074 A 
ATOM     51  C   UNL A   1      46.122  24.588  28.651  1.00  0.00     0.031 C 
ATOM     52  C   UNL A   1      39.501  26.458  28.171  1.00  0.00     0.029 A 
ATOM     53  C   UNL A   1      40.414  27.479  28.675  1.00  0.00     0.049 A 
ATOM     54  H   UNL A   1      42.481  27.337  28.890  1.00  0.00     0.167 HD
ATOM     55  C   UNL A   1      46.785  26.829  29.479  1.00  0.00     0.037 A 
ATOM     56  C   UNL A   1      40.055  28.707  29.092  1.00  0.00     0.037 A 
ATOM     57  C   UNL A   1      46.511  28.193  29.847  1.00  0.00     0.049 A 
ATOM     58  C   UNL A   1      41.113  29.653  29.584  1.00  0.00     0.074 A 
ATOM     59  C   UNL A   1      47.404  29.178  30.234  1.00  0.00     0.029 A 
ATOM     60  N   UNL A   1      45.248  28.765  29.880  1.00  0.00    -0.354 N 
ATOM     61  N   UNL A   1      42.407  29.466  29.684  1.00  0.00    -0.248 NA
ATOM     62  C   UNL A   1      40.662  30.982  30.019  1.00  0.00     0.031 C 
ATOM     63  C   UNL A   1      46.676  30.330  30.548  1.00  0.00     0.029 A 
ATOM     64  C   UNL A   1      45.334  30.078  30.311  1.00  0.00     0.049 A 
ATOM     65  H   UNL A   1      44.413  28.304  29.635  1.00  0.00     0.167 HD
ATOM     66  C   UNL A   1      42.926  30.657  30.176  1.00  0.00     0.074 A 
ATOM     67  C   UNL A   1      41.810  31.566  30.334  1.00  0.00     0.031 C 
ATOM     68  C   UNL A   1      44.212  30.968  30.471  1.00  0.00     0.037 A 
BRANCH  55  69
ATOM     69  C   UNL A   1      48.200  26.334  29.582  1.00  0.00     0.057 A 
ATOM     70  C   UNL A   1      48.688  25.732  30.748  1.00  0.00     0.134 A 
ATOM     71  C   UNL A   1      49.070  26.425  28.489  1.00  0.00     0.134 A 
ATOM     72  F   UNL A   1      47.910  25.623  31.835  1.00  0.00    -0.206 F 
ATOM     73  C   UNL A   1      50.000  25.263  30.833  1.00  0.00     0.040 A 
ATOM     74  C   UNL A   1      50.376  25.935  28.553  1.00  0.00     0.040 A 
ATOM     75  F   UNL A   1      48.665  26.984  27.339  1.00  0.00    -0.206 F 
ATOM     76  C   UNL A   1      50.847  25.357  29.730  1.00  0.00     0.006 A 
ENDBRANCH  55  69
BRANCH  56  77
ATOM     77  C   UNL A   1      38.629  29.117  29.048  1.00  0.00     0.057 A 
ATOM     78  C   UNL A   1      37.813  29.008  30.179  1.00  0.00     0.134 A 
ATOM     79  C   UNL A   1      38.050  29.626  27.880  1.00  0.00     0.134 A 
ATOM     80  F   UNL A   1      38.306  28.511  31.322  1.00  0.00    -0.206 F 
ATOM     81  C   UNL A   1      36.466  29.375  30.146  1.00  0.00     0.040 A 
ATOM     82  C   UNL A   1      36.711  30.020  27.839  1.00  0.00     0.040 A 
ATOM     83  F   UNL A   1      38.783  29.763  26.765  1.00  0.00    -0.206 F 
ATOM     84  C   UNL A   1      35.913  29.887  28.974  1.00  0.00     0.006 A 
ENDBRANCH  56  77
BRANCH  68  85
ATOM     85  C   UNL A   1      44.478  32.352  30.984  1.00  0.00     0.057 A 
ATOM     86  C   UNL A   1      44.717  33.426  30.118  1.00  0.00     0.134 A 
ATOM     87  C   UNL A   1      44.461  32.621  32.359  1.00  0.00     0.134 A 
ATOM     88  F   UNL A   1      44.762  33.232  28.791  1.00  0.00    -0.206 F 
ATOM     89  C   UNL A   1      44.953  34.714  30.600  1.00  0.00     0.040 A 
ATOM     90  C   UNL A   1      44.670  33.910  32.853  1.00  0.00     0.040 A 
ATOM     91  F   UNL A   1      44.230  31.639  33.242  1.00  0.00    -0.206 F 
ATOM     92  C   UNL A   1      44.922  34.959  31.972  1.00  0.00     0.006 A 
ENDBRANCH  68  85
ENDBRANCH  42  43
ENDBRANCH  34  37
ENDBRANCH  32  33
ENDBRANCH  31  32
ENDBRANCH  30  31
ENDBRANCH   1  30
TORSDOF 19
ENDMDL
MODEL 3
REMARK VINA RESULT:     -11.1      4.359      9.229
REMARK SMILES CCC[NH2+][C@@]1(C(=O)NCCCCCCNC(=O)c2ccc(-c3c4nc(c(-c5c(F)cccc5F)c5ccc([nH]5)c(-c5c(F)cccc5F)c5nc(c(-c6c(F)cccc6F)c6ccc3[nH]6)C=C5)C=C4)cc2)CCC[C@@H]1CC[NH+]1CC[NH+](C)CC1
REMARK SMILES IDX 11 1 10 2 9 3 8 4 6 5 7 6 5 8 72 9 75 10 73 11 74 12 4 13
REMARK SMILES IDX 3 16 2 17 1 18 76 19 77 20 78 21 79 22 84 23 80 25 83 26
REMARK SMILES IDX 81 27 82 28 12 30 13 31 14 32 15 33 16 34 17 36 18 37 19 38
REMARK SMILES IDX 71 39 20 40 70 41 21 42 22 43 23 44 64 45 24 46 69 47 63 48
REMARK SMILES IDX 65 49 25 50 68 51 62 52 61 53 26 55 52 56 35 57 51 58 36 59
REMARK SMILES IDX 39 60 50 61 66 62 37 63 38 64 49 66 67 67 40 68 27 69 28 70
REMARK SMILES IDX 33 71 29 72 30 73 32 74 34 75 31 76 53 77 54 78 59 79 55 80
REMARK SMILES IDX 56 81 58 82 60 83 57 84 41 85 42 86 47 87 43 88 44 89 46 90
REMARK SMILES IDX 48 91 45 92
REMARK H PARENT 8 7 4 14 4 15 78 24 81 29 15 35 65 54 39 65
REMARK Flexibility Score: inf
ROOT
ATOM      1  C   UNL A   1      36.047  22.062  26.047  1.00  0.00     0.002 C 
ENDROOT
BRANCH   1   2
ATOM      2  C   UNL A   1      34.940  21.846  27.084  1.00  0.00     0.021 C 
BRANCH   2   3
ATOM      3  C   UNL A   1      33.578  21.505  26.479  1.00  0.00     0.116 C 
BRANCH   3   4
ATOM      4  N   UNL A   1      32.551  22.389  26.961  1.00  0.00    -0.351 N 
ATOM      5  C   UNL A   1      31.746  23.298  26.365  1.00  0.00     0.281 C 
ATOM      6  O   UNL A   1      31.047  23.940  27.169  1.00  0.00    -0.268 OA
ATOM      7  H   UNL A   1      32.403  22.318  27.932  1.00  0.00     0.163 HD
BRANCH   5   8
ATOM      8  C   UNL A   1      31.666  23.624  24.794  1.00  0.00     0.178 C 
ATOM      9  C   UNL A   1      31.567  22.336  23.962  1.00  0.00     0.079 C 
ATOM     10  C   UNL A   1      32.878  24.399  24.201  1.00  0.00     0.066 C 
ATOM     11  C   UNL A   1      32.869  22.186  23.172  1.00  0.00     0.008 C 
ATOM     12  C   UNL A   1      33.775  23.365  23.519  1.00  0.00     0.011 C 
BRANCH   8  13
ATOM     13  N   UNL A   1      30.385  24.389  24.689  1.00  0.00    -0.333 N 
ATOM     14  H   UNL A   1      29.640  23.700  24.591  1.00  0.00     0.347 HD
ATOM     15  H   UNL A   1      30.392  24.965  25.530  1.00  0.00     0.347 HD
BRANCH  13  16
ATOM     16  C   UNL A   1      30.192  25.365  23.628  1.00  0.00     0.261 C 
BRANCH  16  17
ATOM     17  C   UNL A   1      29.543  26.646  24.166  1.00  0.00     0.058 C 
ATOM     18  C   UNL A   1      29.564  27.791  23.157  1.00  0.00     0.010 C 
ENDBRANCH  16  17
ENDBRANCH  13  16
ENDBRANCH   8  13
BRANCH  10  19
ATOM     19  C   UNL A   1      33.586  25.336  25.194  1.00  0.00     0.072 C 
BRANCH  19  20
ATOM     20  C   UNL A   1      33.711  26.782  24.692  1.00  0.00     0.263 C 
BRANCH  20  21
ATOM     21  N   UNL A   1      32.740  27.675  25.334  1.00  0.00    -0.326 N 
ATOM     22  C   UNL A   1      32.774  29.017  24.727  1.00  0.00     0.324 C 
ATOM     23  C   UNL A   1      32.874  27.769  26.798  1.00  0.00     0.324 C 
ATOM     24  H   UNL A   1      31.830  27.245  25.165  1.00  0.00     0.348 HD
ATOM     25  C   UNL A   1      31.741  29.978  25.361  1.00  0.00     0.324 C 
ATOM     26  C   UNL A   1      31.828  28.732  27.412  1.00  0.00     0.324 C 
ATOM     27  N   UNL A   1      31.812  30.089  26.832  1.00  0.00    -0.328 N 
ATOM     28  C   UNL A   1      32.969  30.869  27.260  1.00  0.00     0.333 C 
ATOM     29  H   UNL A   1      30.990  30.590  27.169  1.00  0.00     0.348 HD
ENDBRANCH  20  21
ENDBRANCH  19  20
ENDBRANCH  10  19
ENDBRANCH   5   8
ENDBRANCH   3   4
ENDBRANCH   2   3
ENDBRANCH   1   2
BRANCH   1  30
ATOM     30  C   UNL A   1      36.066  21.052  24.894  1.00  0.00     0.002 C 
BRANCH  30  31
ATOM     31  C   UNL A   1      37.231  20.058  24.912  1.00  0.00     0.021 C 
BRANCH  31  32
ATOM     32  C   UNL A   1      38.524  20.598  25.518  1.00  0.00     0.116 C 
BRANCH  32  33
ATOM     33  N   UNL A   1      39.542  19.566  25.637  1.00  0.00    -0.352 N 
ATOM     34  C   UNL A   1      40.860  19.674  25.990  1.00  0.00     0.251 C 
ATOM     35  H   UNL A   1      39.237  18.653  25.434  1.00  0.00     0.163 HD
ATOM     36  O   UNL A   1      41.621  18.717  25.820  1.00  0.00    -0.269 OA
BRANCH  34  37
ATOM     37  C   UNL A   1      41.383  20.930  26.559  1.00  0.00     0.039 A 
ATOM     38  C   UNL A   1      41.966  21.868  25.704  1.00  0.00     0.014 A 
ATOM     39  C   UNL A   1      41.320  21.174  27.935  1.00  0.00     0.014 A 
ATOM     40  C   UNL A   1      42.431  23.079  26.221  1.00  0.00     0.010 A 
ATOM     41  C   UNL A   1      41.725  22.407  28.438  1.00  0.00     0.010 A 
ATOM     42  C   UNL A   1      42.282  23.372  27.586  1.00  0.00    -0.014 A 
BRANCH  42  43
ATOM     43  C   UNL A   1      42.677  24.694  28.131  1.00  0.00     0.031 A 
ATOM     44  C   UNL A   1      41.648  25.767  28.351  1.00  0.00     0.074 A 
ATOM     45  C   UNL A   1      43.978  24.948  28.365  1.00  0.00     0.049 A 
ATOM     46  N   UNL A   1      41.815  27.000  28.759  1.00  0.00    -0.248 NA
ATOM     47  C   UNL A   1      40.252  25.418  28.047  1.00  0.00     0.031 C 
ATOM     48  C   UNL A   1      45.076  24.003  28.146  1.00  0.00     0.029 A 
ATOM     49  N   UNL A   1      44.602  26.079  28.828  1.00  0.00    -0.354 N 
ATOM     50  C   UNL A   1      40.551  27.575  28.752  1.00  0.00     0.074 A 
ATOM     51  C   UNL A   1      39.634  26.573  28.253  1.00  0.00     0.031 C 
ATOM     52  C   UNL A   1      46.234  24.588  28.491  1.00  0.00     0.029 A 
ATOM     53  C   UNL A   1      45.967  25.957  28.919  1.00  0.00     0.049 A 
ATOM     54  H   UNL A   1      44.117  26.901  29.071  1.00  0.00     0.167 HD
ATOM     55  C   UNL A   1      40.186  28.818  29.146  1.00  0.00     0.037 A 
ATOM     56  C   UNL A   1      46.900  26.851  29.297  1.00  0.00     0.037 A 
ATOM     57  C   UNL A   1      41.099  29.805  29.661  1.00  0.00     0.049 A 
ATOM     58  C   UNL A   1      46.470  28.227  29.717  1.00  0.00     0.074 A 
ATOM     59  C   UNL A   1      40.816  31.069  30.153  1.00  0.00     0.029 A 
ATOM     60  N   UNL A   1      42.474  29.643  29.744  1.00  0.00    -0.354 N 
ATOM     61  N   UNL A   1      45.262  28.733  29.777  1.00  0.00    -0.248 NA
ATOM     62  C   UNL A   1      47.532  29.157  30.124  1.00  0.00     0.031 C 
ATOM     63  C   UNL A   1      42.024  31.688  30.489  1.00  0.00     0.029 A 
ATOM     64  C   UNL A   1      43.056  30.793  30.250  1.00  0.00     0.049 A 
ATOM     65  H   UNL A   1      42.963  28.830  29.482  1.00  0.00     0.167 HD
ATOM     66  C   UNL A   1      45.416  30.032  30.244  1.00  0.00     0.074 A 
ATOM     67  C   UNL A   1      46.833  30.228  30.471  1.00  0.00     0.031 C 
ATOM     68  C   UNL A   1      44.469  30.977  30.463  1.00  0.00     0.037 A 
BRANCH  55  69
ATOM     69  C   UNL A   1      38.733  29.182  29.035  1.00  0.00     0.057 A 
ATOM     70  C   UNL A   1      38.160  29.576  27.819  1.00  0.00     0.134 A 
ATOM     71  C   UNL A   1      37.889  29.099  30.150  1.00  0.00     0.134 A 
ATOM     72  F   UNL A   1      38.915  29.686  26.716  1.00  0.00    -0.206 F 
ATOM     73  C   UNL A   1      36.806  29.900  27.721  1.00  0.00     0.040 A 
ATOM     74  C   UNL A   1      36.527  29.395  30.057  1.00  0.00     0.040 A 
ATOM     75  F   UNL A   1      38.370  28.723  31.343  1.00  0.00    -0.206 F 
ATOM     76  C   UNL A   1      35.983  29.803  28.842  1.00  0.00     0.006 A 
ENDBRANCH  55  69
BRANCH  56  77
ATOM     77  C   UNL A   1      48.333  26.465  29.307  1.00  0.00     0.057 A 
ATOM     78  C   UNL A   1      49.158  26.727  28.208  1.00  0.00     0.134 A 
ATOM     79  C   UNL A   1      48.912  25.829  30.412  1.00  0.00     0.134 A 
ATOM     80  F   UNL A   1      48.657  27.318  27.113  1.00  0.00    -0.206 F 
ATOM     81  C   UNL A   1      50.504  26.355  28.199  1.00  0.00     0.040 A 
ATOM     82  C   UNL A   1      50.262  25.474  30.426  1.00  0.00     0.040 A 
ATOM     83  F   UNL A   1      48.176  25.559  31.500  1.00  0.00    -0.206 F 
ATOM     84  C   UNL A   1      51.060  25.731  29.313  1.00  0.00     0.006 A 
ENDBRANCH  56  77
BRANCH  68  85
ATOM     85  C   UNL A   1      44.937  32.303  30.986  1.00  0.00     0.057 A 
ATOM     86  C   UNL A   1      45.021  32.566  32.359  1.00  0.00     0.134 A 
ATOM     87  C   UNL A   1      45.340  33.316  30.106  1.00  0.00     0.134 A 
ATOM     88  F   UNL A   1      44.636  31.642  33.253  1.00  0.00    -0.206 F 
ATOM     89  C   UNL A   1      45.468  33.798  32.840  1.00  0.00     0.040 A 
ATOM     90  C   UNL A   1      45.814  34.543  30.575  1.00  0.00     0.040 A 
ATOM     91  F   UNL A   1      45.292  33.126  28.780  1.00  0.00    -0.206 F 
ATOM     92  C   UNL A   1      45.873  34.787  31.946  1.00  0.00     0.006 A 
ENDBRANCH  68  85
ENDBRANCH  42  43
ENDBRANCH  34  37
ENDBRANCH  32  33
ENDBRANCH  31  32
ENDBRANCH  30  31
ENDBRANCH   1  30
TORSDOF 19
ENDMDL
