MODEL 1
REMARK VINA RESULT:     -10.6      0.000      0.000
REMARK SMILES C/C(=N/[NH+]=C1\NC(=O)[C@H](CC(=O)NCCCCCCNC(=O)c2ccc(-c3c4nc(c(-c5c(F)cccc5F)c5ccc([nH]5)c(-c5c(F)cccc5F)c5nc(c(-c6c(F)cccc6F)c6ccc3[nH]6)C=C5)C=C4)cc2)S1)c1ccc(OC(C)C)cc1
REMARK SMILES IDX 15 1 14 2 13 3 11 4 12 5 10 7 9 8 4 9 5 10 6 12 77 13 7 14
REMARK SMILES IDX 8 16 3 17 1 18 2 19 78 20 79 21 87 22 80 23 86 24 81 25
REMARK SMILES IDX 82 26 83 27 84 28 85 29 16 30 17 31 18 32 19 33 20 34 21 35
REMARK SMILES IDX 22 37 23 38 24 39 76 40 25 41 75 42 26 43 27 44 28 45 69 46
REMARK SMILES IDX 29 47 74 48 68 49 70 50 30 51 73 52 67 53 66 54 31 56 57 57
REMARK SMILES IDX 40 58 56 59 41 60 44 61 55 62 71 63 42 64 43 65 54 67 72 68
REMARK SMILES IDX 45 69 32 70 33 71 38 72 34 73 35 74 37 75 39 76 36 77 58 78
REMARK SMILES IDX 59 79 64 80 60 81 61 82 63 83 65 84 62 85 46 86 47 87 52 88
REMARK SMILES IDX 48 89 49 90 51 91 53 92 50 93
REMARK H PARENT 13 6 4 11 6 15 20 36 70 55 44 66
REMARK Flexibility Score: inf
ROOT
ATOM      1  C   UNL A   1      34.996  30.104  27.711  1.00  0.00     0.021 C 
ENDROOT
BRANCH   1   2
ATOM      2  C   UNL A   1      33.739  29.508  27.092  1.00  0.00     0.116 C 
BRANCH   2   3
ATOM      3  N   UNL A   1      33.627  29.771  25.673  1.00  0.00    -0.356 N 
ATOM      4  C   UNL A   1      33.328  28.908  24.660  1.00  0.00     0.221 C 
ATOM      5  O   UNL A   1      33.287  29.327  23.505  1.00  0.00    -0.275 OA
ATOM      6  H   UNL A   1      33.791  30.703  25.400  1.00  0.00     0.163 HD
BRANCH   4   7
ATOM      7  C   UNL A   1      33.039  27.459  24.972  1.00  0.00     0.127 C 
BRANCH   7   8
ATOM      8  C   UNL A   1      31.543  27.173  25.048  1.00  0.00     0.183 C 
ATOM      9  N   UNL A   1      31.240  23.380  24.792  1.00  0.00    -0.142 N 
ATOM     10  C   UNL A   1      31.106  24.660  24.731  1.00  0.00     0.337 C 
ATOM     11  H   UNL A   1      31.429  22.919  25.641  1.00  0.00     0.343 HD
ATOM     12  N   UNL A   1      30.841  25.382  23.623  1.00  0.00    -0.202 N 
ATOM     13  S   UNL A   1      31.318  25.692  26.113  1.00  0.00    -0.020 SA
ATOM     14  C   UNL A   1      30.932  26.741  23.719  1.00  0.00     0.322 C 
ATOM     15  H   UNL A   1      30.590  24.946  22.777  1.00  0.00     0.316 HD
ATOM     16  O   UNL A   1      30.616  27.494  22.814  1.00  0.00    -0.246 OA
BRANCH   9  17
ATOM     17  N   UNL A   1      31.104  22.682  23.589  1.00  0.00    -0.090 NA
ATOM     18  C   UNL A   1      31.908  21.104  21.969  1.00  0.00     0.071 C 
ATOM     19  C   UNL A   1      32.129  21.980  23.186  1.00  0.00     0.088 C 
BRANCH  19  20
ATOM     20  C   UNL A   1      33.519  22.029  23.745  1.00  0.00    -0.000 A 
ATOM     21  C   UNL A   1      34.460  22.958  23.308  1.00  0.00     0.014 A 
ATOM     22  C   UNL A   1      33.927  21.034  24.640  1.00  0.00     0.014 A 
ATOM     23  C   UNL A   1      35.802  22.829  23.687  1.00  0.00     0.047 A 
ATOM     24  C   UNL A   1      35.276  20.923  25.026  1.00  0.00     0.047 A 
ATOM     25  C   UNL A   1      36.230  21.798  24.532  1.00  0.00     0.119 A 
BRANCH  25  26
ATOM     26  O   UNL A   1      37.569  21.785  24.745  1.00  0.00    -0.491 OA
BRANCH  26  27
ATOM     27  C   UNL A   1      38.269  22.203  25.921  1.00  0.00     0.167 C 
ATOM     28  C   UNL A   1      39.660  21.616  26.125  1.00  0.00     0.052 C 
ATOM     29  C   UNL A   1      38.215  23.706  26.158  1.00  0.00     0.052 C 
ENDBRANCH  26  27
ENDBRANCH  25  26
ENDBRANCH  19  20
ENDBRANCH   9  17
ENDBRANCH   7   8
ENDBRANCH   4   7
ENDBRANCH   2   3
ENDBRANCH   1   2
BRANCH   1  30
ATOM     30  C   UNL A   1      35.090  31.631  27.628  1.00  0.00     0.002 C 
BRANCH  30  31
ATOM     31  C   UNL A   1      34.332  32.418  28.703  1.00  0.00     0.002 C 
BRANCH  31  32
ATOM     32  C   UNL A   1      33.315  33.439  28.195  1.00  0.00     0.021 C 
BRANCH  32  33
ATOM     33  C   UNL A   1      33.674  34.893  28.465  1.00  0.00     0.116 C 
BRANCH  33  34
ATOM     34  N   UNL A   1      32.901  35.450  29.558  1.00  0.00    -0.352 N 
ATOM     35  C   UNL A   1      33.030  35.254  30.911  1.00  0.00     0.251 C 
ATOM     36  H   UNL A   1      32.175  36.060  29.292  1.00  0.00     0.163 HD
ATOM     37  O   UNL A   1      32.148  35.633  31.675  1.00  0.00    -0.269 OA
BRANCH  35  38
ATOM     38  C   UNL A   1      34.223  34.563  31.450  1.00  0.00     0.039 A 
ATOM     39  C   UNL A   1      34.044  33.426  32.242  1.00  0.00     0.014 A 
ATOM     40  C   UNL A   1      35.511  35.038  31.186  1.00  0.00     0.014 A 
ATOM     41  C   UNL A   1      35.159  32.732  32.717  1.00  0.00     0.010 A 
ATOM     42  C   UNL A   1      36.618  34.296  31.585  1.00  0.00     0.010 A 
ATOM     43  C   UNL A   1      36.455  33.139  32.360  1.00  0.00    -0.014 A 
BRANCH  43  44
ATOM     44  C   UNL A   1      37.652  32.375  32.795  1.00  0.00     0.031 A 
ATOM     45  C   UNL A   1      38.333  32.713  34.092  1.00  0.00     0.074 A 
ATOM     46  C   UNL A   1      38.163  31.422  31.991  1.00  0.00     0.049 A 
ATOM     47  N   UNL A   1      39.431  32.218  34.603  1.00  0.00    -0.248 NA
ATOM     48  C   UNL A   1      37.712  33.768  34.910  1.00  0.00     0.031 C 
ATOM     49  C   UNL A   1      37.619  31.030  30.689  1.00  0.00     0.029 A 
ATOM     50  N   UNL A   1      39.263  30.617  32.147  1.00  0.00    -0.354 N 
ATOM     51  C   UNL A   1      39.639  32.908  35.791  1.00  0.00     0.074 A 
ATOM     52  C   UNL A   1      38.588  33.896  35.897  1.00  0.00     0.031 C 
ATOM     53  C   UNL A   1      38.372  30.044  30.176  1.00  0.00     0.029 A 
ATOM     54  C   UNL A   1      39.476  29.765  31.089  1.00  0.00     0.049 A 
ATOM     55  H   UNL A   1      39.845  30.646  32.940  1.00  0.00     0.167 HD
ATOM     56  C   UNL A   1      40.606  32.721  36.721  1.00  0.00     0.037 A 
ATOM     57  C   UNL A   1      40.456  28.867  30.876  1.00  0.00     0.037 A 
ATOM     58  C   UNL A   1      41.638  31.721  36.624  1.00  0.00     0.049 A 
ATOM     59  C   UNL A   1      41.530  28.692  31.914  1.00  0.00     0.074 A 
ATOM     60  C   UNL A   1      42.624  31.409  37.542  1.00  0.00     0.029 A 
ATOM     61  N   UNL A   1      41.817  30.876  35.539  1.00  0.00    -0.354 N 
ATOM     62  N   UNL A   1      41.675  29.305  33.064  1.00  0.00    -0.248 NA
ATOM     63  C   UNL A   1      42.574  27.700  31.625  1.00  0.00     0.031 C 
ATOM     64  C   UNL A   1      43.432  30.409  36.991  1.00  0.00     0.029 A 
ATOM     65  C   UNL A   1      42.918  30.062  35.752  1.00  0.00     0.049 A 
ATOM     66  H   UNL A   1      41.246  30.856  34.737  1.00  0.00     0.167 HD
ATOM     67  C   UNL A   1      42.812  28.759  33.645  1.00  0.00     0.074 A 
ATOM     68  C   UNL A   1      43.306  27.751  32.729  1.00  0.00     0.031 C 
ATOM     69  C   UNL A   1      43.397  29.065  34.828  1.00  0.00     0.037 A 
BRANCH  56  70
ATOM     70  C   UNL A   1      40.591  33.617  37.927  1.00  0.00     0.057 A 
ATOM     71  C   UNL A   1      39.758  33.365  39.026  1.00  0.00     0.134 A 
ATOM     72  C   UNL A   1      41.441  34.727  38.004  1.00  0.00     0.134 A 
ATOM     73  F   UNL A   1      38.910  32.326  39.012  1.00  0.00    -0.206 F 
ATOM     74  C   UNL A   1      39.751  34.201  40.144  1.00  0.00     0.040 A 
ATOM     75  C   UNL A   1      41.464  35.552  39.129  1.00  0.00     0.040 A 
ATOM     76  F   UNL A   1      42.269  35.023  36.990  1.00  0.00    -0.206 F 
ATOM     77  C   UNL A   1      40.611  35.295  40.201  1.00  0.00     0.006 A 
ENDBRANCH  56  70
BRANCH  57  78
ATOM     78  C   UNL A   1      40.464  28.055  29.632  1.00  0.00     0.057 A 
ATOM     79  C   UNL A   1      39.645  26.927  29.501  1.00  0.00     0.134 A 
ATOM     80  C   UNL A   1      41.292  28.379  28.550  1.00  0.00     0.134 A 
ATOM     81  F   UNL A   1      38.842  26.555  30.509  1.00  0.00    -0.206 F 
ATOM     82  C   UNL A   1      39.663  26.139  28.348  1.00  0.00     0.040 A 
ATOM     83  C   UNL A   1      41.300  27.616  27.382  1.00  0.00     0.040 A 
ATOM     84  F   UNL A   1      42.094  29.453  28.609  1.00  0.00    -0.206 F 
ATOM     85  C   UNL A   1      40.490  26.487  27.282  1.00  0.00     0.006 A 
ENDBRANCH  57  78
BRANCH  69  86
ATOM     86  C   UNL A   1      44.624  28.288  35.208  1.00  0.00     0.057 A 
ATOM     87  C   UNL A   1      44.544  27.079  35.910  1.00  0.00     0.134 A 
ATOM     88  C   UNL A   1      45.898  28.738  34.835  1.00  0.00     0.134 A 
ATOM     89  F   UNL A   1      43.355  26.602  36.308  1.00  0.00    -0.206 F 
ATOM     90  C   UNL A   1      45.689  26.355  36.247  1.00  0.00     0.040 A 
ATOM     91  C   UNL A   1      47.048  28.008  35.141  1.00  0.00     0.040 A 
ATOM     92  F   UNL A   1      46.044  29.883  34.154  1.00  0.00    -0.206 F 
ATOM     93  C   UNL A   1      46.945  26.816  35.856  1.00  0.00     0.006 A 
ENDBRANCH  69  86
ENDBRANCH  43  44
ENDBRANCH  35  38
ENDBRANCH  33  34
ENDBRANCH  32  33
ENDBRANCH  31  32
ENDBRANCH  30  31
ENDBRANCH   1  30
TORSDOF 18
ENDMDL
MODEL 2
REMARK VINA RESULT:     -10.5      2.745      8.777
REMARK SMILES C/C(=N/[NH+]=C1\NC(=O)[C@H](CC(=O)NCCCCCCNC(=O)c2ccc(-c3c4nc(c(-c5c(F)cccc5F)c5ccc([nH]5)c(-c5c(F)cccc5F)c5nc(c(-c6c(F)cccc6F)c6ccc3[nH]6)C=C5)C=C4)cc2)S1)c1ccc(OC(C)C)cc1
REMARK SMILES IDX 15 1 14 2 13 3 11 4 12 5 10 7 9 8 4 9 5 10 6 12 77 13 7 14
REMARK SMILES IDX 8 16 3 17 1 18 2 19 78 20 79 21 87 22 80 23 86 24 81 25
REMARK SMILES IDX 82 26 83 27 84 28 85 29 16 30 17 31 18 32 19 33 20 34 21 35
REMARK SMILES IDX 22 37 23 38 24 39 76 40 25 41 75 42 26 43 27 44 28 45 69 46
REMARK SMILES IDX 29 47 74 48 68 49 70 50 30 51 73 52 67 53 66 54 31 56 57 57
REMARK SMILES IDX 40 58 56 59 41 60 44 61 55 62 71 63 42 64 43 65 54 67 72 68
REMARK SMILES IDX 45 69 32 70 33 71 38 72 34 73 35 74 37 75 39 76 36 77 58 78
REMARK SMILES IDX 59 79 64 80 60 81 61 82 63 83 65 84 62 85 46 86 47 87 52 88
REMARK SMILES IDX 48 89 49 90 51 91 53 92 50 93
REMARK H PARENT 13 6 4 11 6 15 20 36 70 55 44 66
REMARK Flexibility Score: inf
ROOT
ATOM      1  C   UNL A   1      39.467  22.120  26.265  1.00  0.00     0.021 C 
ENDROOT
BRANCH   1   2
ATOM      2  C   UNL A   1      38.050  21.815  25.796  1.00  0.00     0.116 C 
BRANCH   2   3
ATOM      3  N   UNL A   1      37.099  22.845  26.159  1.00  0.00    -0.356 N 
ATOM      4  C   UNL A   1      36.236  23.536  25.360  1.00  0.00     0.221 C 
ATOM      5  O   UNL A   1      35.503  24.386  25.862  1.00  0.00    -0.275 OA
ATOM      6  H   UNL A   1      37.072  23.079  27.114  1.00  0.00     0.163 HD
BRANCH   4   7
ATOM      7  C   UNL A   1      36.183  23.238  23.881  1.00  0.00     0.127 C 
BRANCH   7   8
ATOM      8  C   UNL A   1      35.056  22.274  23.527  1.00  0.00     0.183 C 
ATOM      9  N   UNL A   1      31.843  24.258  24.056  1.00  0.00    -0.142 N 
ATOM     10  C   UNL A   1      32.776  23.375  23.973  1.00  0.00     0.337 C 
ATOM     11  H   UNL A   1      31.635  24.864  23.309  1.00  0.00     0.343 HD
ATOM     12  N   UNL A   1      33.131  22.497  24.933  1.00  0.00    -0.202 N 
ATOM     13  S   UNL A   1      33.800  23.220  22.576  1.00  0.00    -0.020 SA
ATOM     14  C   UNL A   1      34.273  21.773  24.736  1.00  0.00     0.322 C 
ATOM     15  H   UNL A   1      32.588  22.381  25.745  1.00  0.00     0.316 HD
ATOM     16  O   UNL A   1      34.633  20.882  25.485  1.00  0.00    -0.246 OA
BRANCH   9  17
ATOM     17  N   UNL A   1      31.141  24.310  25.263  1.00  0.00    -0.090 NA
ATOM     18  C   UNL A   1      29.396  25.209  26.646  1.00  0.00     0.071 C 
ATOM     19  C   UNL A   1      30.259  25.265  25.401  1.00  0.00     0.088 C 
BRANCH  19  20
ATOM     20  C   UNL A   1      30.084  26.454  24.506  1.00  0.00    -0.000 A 
ATOM     21  C   UNL A   1      31.049  27.453  24.407  1.00  0.00     0.014 A 
ATOM     22  C   UNL A   1      28.865  26.633  23.844  1.00  0.00     0.014 A 
ATOM     23  C   UNL A   1      30.754  28.649  23.739  1.00  0.00     0.047 A 
ATOM     24  C   UNL A   1      28.584  27.833  23.163  1.00  0.00     0.047 A 
ATOM     25  C   UNL A   1      29.512  28.862  23.129  1.00  0.00     0.119 A 
BRANCH  25  26
ATOM     26  O   UNL A   1      29.374  30.096  22.584  1.00  0.00    -0.491 OA
BRANCH  26  27
ATOM     27  C   UNL A   1      28.160  30.816  22.351  1.00  0.00     0.167 C 
ATOM     28  C   UNL A   1      27.647  31.668  23.506  1.00  0.00     0.052 C 
ATOM     29  C   UNL A   1      28.132  31.544  21.014  1.00  0.00     0.052 C 
ENDBRANCH  26  27
ENDBRANCH  25  26
ENDBRANCH  19  20
ENDBRANCH   9  17
ENDBRANCH   7   8
ENDBRANCH   4   7
ENDBRANCH   2   3
ENDBRANCH   1   2
BRANCH   1  30
ATOM     30  C   UNL A   1      40.341  20.886  26.511  1.00  0.00     0.002 C 
BRANCH  30  31
ATOM     31  C   UNL A   1      41.724  21.143  27.119  1.00  0.00     0.002 C 
BRANCH  31  32
ATOM     32  C   UNL A   1      42.841  21.472  26.131  1.00  0.00     0.021 C 
BRANCH  32  33
ATOM     33  C   UNL A   1      42.644  22.760  25.344  1.00  0.00     0.116 C 
BRANCH  33  34
ATOM     34  N   UNL A   1      43.906  23.347  24.936  1.00  0.00    -0.352 N 
ATOM     35  C   UNL A   1      44.437  24.577  25.236  1.00  0.00     0.251 C 
ATOM     36  H   UNL A   1      44.466  22.778  24.359  1.00  0.00     0.163 HD
ATOM     37  O   UNL A   1      45.416  24.989  24.623  1.00  0.00    -0.269 OA
BRANCH  35  38
ATOM     38  C   UNL A   1      43.815  25.419  26.282  1.00  0.00     0.039 A 
ATOM     39  C   UNL A   1      43.041  24.806  27.270  1.00  0.00     0.014 A 
ATOM     40  C   UNL A   1      43.984  26.806  26.285  1.00  0.00     0.014 A 
ATOM     41  C   UNL A   1      42.488  25.577  28.294  1.00  0.00     0.010 A 
ATOM     42  C   UNL A   1      43.507  27.560  27.352  1.00  0.00     0.010 A 
ATOM     43  C   UNL A   1      42.749  26.956  28.365  1.00  0.00    -0.014 A 
BRANCH  43  44
ATOM     44  C   UNL A   1      42.231  27.784  29.483  1.00  0.00     0.031 A 
ATOM     45  C   UNL A   1      42.903  27.741  30.828  1.00  0.00     0.074 A 
ATOM     46  C   UNL A   1      41.118  28.523  29.306  1.00  0.00     0.049 A 
ATOM     47  N   UNL A   1      42.554  28.327  31.945  1.00  0.00    -0.248 NA
ATOM     48  C   UNL A   1      44.111  26.908  30.938  1.00  0.00     0.031 C 
ATOM     49  C   UNL A   1      40.351  28.615  28.062  1.00  0.00     0.029 A 
ATOM     50  N   UNL A   1      40.432  29.329  30.179  1.00  0.00    -0.354 N 
ATOM     51  C   UNL A   1      43.488  27.922  32.891  1.00  0.00     0.074 A 
ATOM     52  C   UNL A   1      44.384  26.997  32.232  1.00  0.00     0.031 C 
ATOM     53  C   UNL A   1      39.315  29.449  28.245  1.00  0.00     0.029 A 
ATOM     54  C   UNL A   1      39.318  29.915  29.628  1.00  0.00     0.049 A 
ATOM     55  H   UNL A   1      40.711  29.473  31.112  1.00  0.00     0.167 HD
ATOM     56  C   UNL A   1      43.604  28.304  34.185  1.00  0.00     0.037 A 
ATOM     57  C   UNL A   1      38.397  30.729  30.178  1.00  0.00     0.037 A 
ATOM     58  C   UNL A   1      42.724  29.242  34.832  1.00  0.00     0.049 A 
ATOM     59  C   UNL A   1      38.535  31.123  31.623  1.00  0.00     0.074 A 
ATOM     60  C   UNL A   1      42.794  29.743  36.119  1.00  0.00     0.029 A 
ATOM     61  N   UNL A   1      41.610  29.817  34.238  1.00  0.00    -0.354 N 
ATOM     62  N   UNL A   1      39.463  30.785  32.486  1.00  0.00    -0.248 NA
ATOM     63  C   UNL A   1      37.500  32.009  32.170  1.00  0.00     0.031 C 
ATOM     64  C   UNL A   1      41.694  30.582  36.322  1.00  0.00     0.029 A 
ATOM     65  C   UNL A   1      40.966  30.644  35.144  1.00  0.00     0.049 A 
ATOM     66  H   UNL A   1      41.320  29.661  33.310  1.00  0.00     0.167 HD
ATOM     67  C   UNL A   1      39.136  31.435  33.669  1.00  0.00     0.074 A 
ATOM     68  C   UNL A   1      37.936  32.202  33.406  1.00  0.00     0.031 C 
ATOM     69  C   UNL A   1      39.770  31.399  34.866  1.00  0.00     0.037 A 
BRANCH  56  70
ATOM     70  C   UNL A   1      44.724  27.706  34.987  1.00  0.00     0.057 A 
ATOM     71  C   UNL A   1      46.003  28.281  35.017  1.00  0.00     0.134 A 
ATOM     72  C   UNL A   1      44.515  26.560  35.764  1.00  0.00     0.134 A 
ATOM     73  F   UNL A   1      46.274  29.372  34.285  1.00  0.00    -0.206 F 
ATOM     74  C   UNL A   1      47.038  27.721  35.766  1.00  0.00     0.040 A 
ATOM     75  C   UNL A   1      45.536  26.008  36.541  1.00  0.00     0.040 A 
ATOM     76  F   UNL A   1      43.314  25.962  35.788  1.00  0.00    -0.206 F 
ATOM     77  C   UNL A   1      46.804  26.584  36.537  1.00  0.00     0.006 A 
ENDBRANCH  56  70
BRANCH  57  78
ATOM     78  C   UNL A   1      37.267  31.237  29.358  1.00  0.00     0.057 A 
ATOM     79  C   UNL A   1      36.162  30.427  29.072  1.00  0.00     0.134 A 
ATOM     80  C   UNL A   1      37.266  32.536  28.836  1.00  0.00     0.134 A 
ATOM     81  F   UNL A   1      36.112  29.167  29.528  1.00  0.00    -0.206 F 
ATOM     82  C   UNL A   1      35.107  30.882  28.278  1.00  0.00     0.040 A 
ATOM     83  C   UNL A   1      36.206  33.013  28.064  1.00  0.00     0.040 A 
ATOM     84  F   UNL A   1      38.292  33.365  29.082  1.00  0.00    -0.206 F 
ATOM     85  C   UNL A   1      35.126  32.182  27.777  1.00  0.00     0.006 A 
ENDBRANCH  57  78
BRANCH  69  86
ATOM     86  C   UNL A   1      39.189  32.227  35.976  1.00  0.00     0.057 A 
ATOM     87  C   UNL A   1      39.548  33.568  36.162  1.00  0.00     0.134 A 
ATOM     88  C   UNL A   1      38.232  31.686  36.844  1.00  0.00     0.134 A 
ATOM     89  F   UNL A   1      40.470  34.140  35.373  1.00  0.00    -0.206 F 
ATOM     90  C   UNL A   1      38.993  34.335  37.187  1.00  0.00     0.040 A 
ATOM     91  C   UNL A   1      37.648  32.451  37.854  1.00  0.00     0.040 A 
ATOM     92  F   UNL A   1      37.837  30.411  36.714  1.00  0.00    -0.206 F 
ATOM     93  C   UNL A   1      38.034  33.778  38.032  1.00  0.00     0.006 A 
ENDBRANCH  69  86
ENDBRANCH  43  44
ENDBRANCH  35  38
ENDBRANCH  33  34
ENDBRANCH  32  33
ENDBRANCH  31  32
ENDBRANCH  30  31
ENDBRANCH   1  30
TORSDOF 18
ENDMDL
MODEL 3
REMARK VINA RESULT:     -10.4      4.658      8.940
REMARK SMILES C/C(=N/[NH+]=C1\NC(=O)[C@H](CC(=O)NCCCCCCNC(=O)c2ccc(-c3c4nc(c(-c5c(F)cccc5F)c5ccc([nH]5)c(-c5c(F)cccc5F)c5nc(c(-c6c(F)cccc6F)c6ccc3[nH]6)C=C5)C=C4)cc2)S1)c1ccc(OC(C)C)cc1
REMARK SMILES IDX 15 1 14 2 13 3 11 4 12 5 10 7 9 8 4 9 5 10 6 12 77 13 7 14
REMARK SMILES IDX 8 16 3 17 1 18 2 19 78 20 79 21 87 22 80 23 86 24 81 25
REMARK SMILES IDX 82 26 83 27 84 28 85 29 16 30 17 31 18 32 19 33 20 34 21 35
REMARK SMILES IDX 22 37 23 38 24 39 76 40 25 41 75 42 26 43 27 44 28 45 69 46
REMARK SMILES IDX 29 47 74 48 68 49 70 50 30 51 73 52 67 53 66 54 31 56 57 57
REMARK SMILES IDX 40 58 56 59 41 60 44 61 55 62 71 63 42 64 43 65 54 67 72 68
REMARK SMILES IDX 45 69 32 70 33 71 38 72 34 73 35 74 37 75 39 76 36 77 58 78
REMARK SMILES IDX 59 79 64 80 60 81 61 82 63 83 65 84 62 85 46 86 47 87 52 88
REMARK SMILES IDX 48 89 49 90 51 91 53 92 50 93
REMARK H PARENT 13 6 4 11 6 15 20 36 70 55 44 66
REMARK Flexibility Score: inf
ROOT
ATOM      1  C   UNL A   1      34.565  35.058  32.725  1.00  0.00     0.021 C 
ENDROOT
BRANCH   1   2
ATOM      2  C   UNL A   1      36.078  34.981  32.886  1.00  0.00     0.116 C 
BRANCH   2   3
ATOM      3  N   UNL A   1      36.485  34.336  34.116  1.00  0.00    -0.356 N 
ATOM      4  C   UNL A   1      36.670  33.009  34.370  1.00  0.00     0.221 C 
ATOM      5  O   UNL A   1      37.016  32.655  35.495  1.00  0.00    -0.275 OA
ATOM      6  H   UNL A   1      36.649  34.940  34.877  1.00  0.00     0.163 HD
BRANCH   4   7
ATOM      7  C   UNL A   1      36.464  32.000  33.266  1.00  0.00     0.127 C 
BRANCH   7   8
ATOM      8  C   UNL A   1      37.765  31.654  32.550  1.00  0.00     0.183 C 
ATOM      9  N   UNL A   1      39.760  29.583  35.054  1.00  0.00    -0.142 N 
ATOM     10  C   UNL A   1      39.337  30.381  34.137  1.00  0.00     0.337 C 
ATOM     11  H   UNL A   1      39.469  28.644  35.098  1.00  0.00     0.343 HD
ATOM     12  N   UNL A   1      39.680  31.677  33.986  1.00  0.00    -0.202 N 
ATOM     13  S   UNL A   1      38.164  29.905  32.946  1.00  0.00    -0.020 SA
ATOM     14  C   UNL A   1      38.977  32.415  33.077  1.00  0.00     0.322 C 
ATOM     15  H   UNL A   1      40.410  32.076  34.512  1.00  0.00     0.316 HD
ATOM     16  O   UNL A   1      39.267  33.562  32.785  1.00  0.00    -0.246 OA
BRANCH   9  17
ATOM     17  N   UNL A   1      40.655  30.121  35.983  1.00  0.00    -0.090 NA
ATOM     18  C   UNL A   1      42.888  30.480  36.790  1.00  0.00     0.071 C 
ATOM     19  C   UNL A   1      41.908  29.765  35.880  1.00  0.00     0.088 C 
BRANCH  19  20
ATOM     20  C   UNL A   1      42.455  28.661  35.027  1.00  0.00    -0.000 A 
ATOM     21  C   UNL A   1      42.762  27.407  35.548  1.00  0.00     0.014 A 
ATOM     22  C   UNL A   1      42.788  28.932  33.696  1.00  0.00     0.014 A 
ATOM     23  C   UNL A   1      43.475  26.481  34.776  1.00  0.00     0.047 A 
ATOM     24  C   UNL A   1      43.492  27.988  32.923  1.00  0.00     0.047 A 
ATOM     25  C   UNL A   1      43.868  26.769  33.463  1.00  0.00     0.119 A 
BRANCH  25  26
ATOM     26  O   UNL A   1      44.604  25.788  32.884  1.00  0.00    -0.491 OA
BRANCH  26  27
ATOM     27  C   UNL A   1      44.529  24.380  33.132  1.00  0.00     0.167 C 
ATOM     28  C   UNL A   1      44.145  23.505  31.945  1.00  0.00     0.052 C 
ATOM     29  C   UNL A   1      45.716  23.837  33.914  1.00  0.00     0.052 C 
ENDBRANCH  26  27
ENDBRANCH  25  26
ENDBRANCH  19  20
ENDBRANCH   9  17
ENDBRANCH   7   8
ENDBRANCH   4   7
ENDBRANCH   2   3
ENDBRANCH   1   2
BRANCH   1  30
ATOM     30  C   UNL A   1      34.000  34.226  31.569  1.00  0.00     0.002 C 
BRANCH  30  31
ATOM     31  C   UNL A   1      34.017  34.884  30.185  1.00  0.00     0.002 C 
BRANCH  31  32
ATOM     32  C   UNL A   1      34.616  34.051  29.054  1.00  0.00     0.021 C 
BRANCH  32  33
ATOM     33  C   UNL A   1      35.013  32.634  29.441  1.00  0.00     0.116 C 
BRANCH  33  34
ATOM     34  N   UNL A   1      34.232  31.638  28.732  1.00  0.00    -0.352 N 
ATOM     35  C   UNL A   1      34.640  30.481  28.115  1.00  0.00     0.251 C 
ATOM     36  H   UNL A   1      33.264  31.817  28.688  1.00  0.00     0.163 HD
ATOM     37  O   UNL A   1      33.872  29.875  27.376  1.00  0.00    -0.269 OA
BRANCH  35  38
ATOM     38  C   UNL A   1      36.016  29.977  28.319  1.00  0.00     0.039 A 
ATOM     39  C   UNL A   1      36.951  30.130  27.293  1.00  0.00     0.014 A 
ATOM     40  C   UNL A   1      36.382  29.346  29.512  1.00  0.00     0.014 A 
ATOM     41  C   UNL A   1      38.267  29.707  27.487  1.00  0.00     0.010 A 
ATOM     42  C   UNL A   1      37.713  29.006  29.736  1.00  0.00     0.010 A 
ATOM     43  C   UNL A   1      38.669  29.176  28.724  1.00  0.00    -0.014 A 
BRANCH  43  44
ATOM     44  C   UNL A   1      40.078  28.785  28.977  1.00  0.00     0.031 A 
ATOM     45  C   UNL A   1      41.034  29.766  29.595  1.00  0.00     0.074 A 
ATOM     46  C   UNL A   1      40.512  27.569  28.591  1.00  0.00     0.049 A 
ATOM     47  N   UNL A   1      42.318  29.641  29.820  1.00  0.00    -0.248 NA
ATOM     48  C   UNL A   1      40.481  31.073  29.986  1.00  0.00     0.031 C 
ATOM     49  C   UNL A   1      39.693  26.543  27.943  1.00  0.00     0.029 A 
ATOM     50  N   UNL A   1      41.756  26.995  28.677  1.00  0.00    -0.354 N 
ATOM     51  C   UNL A   1      42.725  30.853  30.364  1.00  0.00     0.074 A 
ATOM     52  C   UNL A   1      41.568  31.720  30.382  1.00  0.00     0.031 C 
ATOM     53  C   UNL A   1      40.449  25.457  27.712  1.00  0.00     0.029 A 
ATOM     54  C   UNL A   1      41.813  25.725  28.154  1.00  0.00     0.049 A 
ATOM     55  H   UNL A   1      42.533  27.449  29.076  1.00  0.00     0.167 HD
ATOM     56  C   UNL A   1      43.949  31.204  30.829  1.00  0.00     0.037 A 
ATOM     57  C   UNL A   1      42.852  24.877  28.035  1.00  0.00     0.037 A 
ATOM     58  C   UNL A   1      45.093  30.331  30.830  1.00  0.00     0.049 A 
ATOM     59  C   UNL A   1      44.205  25.298  28.539  1.00  0.00     0.074 A 
ATOM     60  C   UNL A   1      46.358  30.570  31.336  1.00  0.00     0.029 A 
ATOM     61  N   UNL A   1      45.110  29.052  30.295  1.00  0.00    -0.354 N 
ATOM     62  N   UNL A   1      44.559  26.422  29.113  1.00  0.00    -0.248 NA
ATOM     63  C   UNL A   1      45.301  24.333  28.380  1.00  0.00     0.031 C 
ATOM     64  C   UNL A   1      47.156  29.454  31.062  1.00  0.00     0.029 A 
ATOM     65  C   UNL A   1      46.373  28.500  30.431  1.00  0.00     0.049 A 
ATOM     66  H   UNL A   1      44.338  28.602  29.881  1.00  0.00     0.167 HD
ATOM     67  C   UNL A   1      45.912  26.291  29.403  1.00  0.00     0.074 A 
ATOM     68  C   UNL A   1      46.307  24.970  28.960  1.00  0.00     0.031 C 
ATOM     69  C   UNL A   1      46.751  27.184  29.982  1.00  0.00     0.037 A 
BRANCH  56  70
ATOM     70  C   UNL A   1      44.110  32.595  31.374  1.00  0.00     0.057 A 
ATOM     71  C   UNL A   1      43.869  32.893  32.723  1.00  0.00     0.134 A 
ATOM     72  C   UNL A   1      44.540  33.641  30.550  1.00  0.00     0.134 A 
ATOM     73  F   UNL A   1      43.442  31.939  33.564  1.00  0.00    -0.206 F 
ATOM     74  C   UNL A   1      44.023  34.187  33.224  1.00  0.00     0.040 A 
ATOM     75  C   UNL A   1      44.727  34.933  31.047  1.00  0.00     0.040 A 
ATOM     76  F   UNL A   1      44.795  33.425  29.250  1.00  0.00    -0.206 F 
ATOM     77  C   UNL A   1      44.460  35.210  32.386  1.00  0.00     0.006 A 
ENDBRANCH  56  70
BRANCH  57  78
ATOM     78  C   UNL A   1      42.654  23.538  27.422  1.00  0.00     0.057 A 
ATOM     79  C   UNL A   1      42.309  22.430  28.204  1.00  0.00     0.134 A 
ATOM     80  C   UNL A   1      42.811  23.332  26.046  1.00  0.00     0.134 A 
ATOM     81  F   UNL A   1      42.162  22.560  29.531  1.00  0.00    -0.206 F 
ATOM     82  C   UNL A   1      42.148  21.161  27.644  1.00  0.00     0.040 A 
ATOM     83  C   UNL A   1      42.626  22.075  25.469  1.00  0.00     0.040 A 
ATOM     84  F   UNL A   1      43.132  24.356  25.240  1.00  0.00    -0.206 F 
ATOM     85  C   UNL A   1      42.302  20.983  26.271  1.00  0.00     0.006 A 
ENDBRANCH  57  78
BRANCH  69  86
ATOM     86  C   UNL A   1      48.175  26.754  30.186  1.00  0.00     0.057 A 
ATOM     87  C   UNL A   1      48.580  26.063  31.335  1.00  0.00     0.134 A 
ATOM     88  C   UNL A   1      49.143  27.002  29.204  1.00  0.00     0.134 A 
ATOM     89  F   UNL A   1      47.704  25.808  32.318  1.00  0.00    -0.206 F 
ATOM     90  C   UNL A   1      49.903  25.655  31.511  1.00  0.00     0.040 A 
ATOM     91  C   UNL A   1      50.463  26.573  29.355  1.00  0.00     0.040 A 
ATOM     92  F   UNL A   1      48.820  27.650  28.076  1.00  0.00    -0.206 F 
ATOM     93  C   UNL A   1      50.846  25.903  30.515  1.00  0.00     0.006 A 
ENDBRANCH  69  86
ENDBRANCH  43  44
ENDBRANCH  35  38
ENDBRANCH  33  34
ENDBRANCH  32  33
ENDBRANCH  31  32
ENDBRANCH  30  31
ENDBRANCH   1  30
TORSDOF 18
ENDMDL
