MODEL 1
REMARK VINA RESULT:     -13.2      0.000      0.000
REMARK SMILES Cc1ccc(/[NH+]=C2/S[C@@H](CC(=O)Nc3ccc(C(=O)NCCCCCCNC(=O)c4ccc(-c5c6nc(c(-c7c(F)cccc7F)c7ccc([nH]7)c(-c7c(F)cccc7F)c7nc(c(-c8c(F)cccc8F)c8ccc5[nH]8)C=C7)C=C6)cc4)cc3)C(=O)N2C)cc1
REMARK SMILES IDX 22 1 21 2 20 3 18 4 19 5 17 7 14 8 15 9 85 10 16 11 84 12
REMARK SMILES IDX 13 13 11 14 12 15 10 17 9 18 6 19 7 20 8 22 88 23 86 24
REMARK SMILES IDX 89 25 87 26 5 27 1 28 2 29 3 30 91 31 4 32 90 33 23 34 24 35
REMARK SMILES IDX 25 36 26 37 27 38 28 39 29 41 30 42 31 43 83 44 32 45 82 46
REMARK SMILES IDX 33 47 34 48 35 49 76 50 36 51 81 52 75 53 77 54 37 55 80 56
REMARK SMILES IDX 74 57 73 58 38 60 64 61 47 62 63 63 48 64 51 65 62 66 78 67
REMARK SMILES IDX 49 68 50 69 61 71 79 72 52 73 39 74 40 75 45 76 41 77 42 78
REMARK SMILES IDX 44 79 46 80 43 81 65 82 66 83 71 84 67 85 68 86 70 87 72 88
REMARK SMILES IDX 69 89 53 90 54 91 59 92 55 93 56 94 58 95 60 96 57 97
REMARK H PARENT 20 6 13 16 6 21 27 40 77 59 51 70
REMARK Flexibility Score: inf
ROOT
ATOM      1  C   UNL A   1      41.783  20.757  26.127  1.00  0.00     0.021 C 
ENDROOT
BRANCH   1   2
ATOM      2  C   UNL A   1      40.363  21.168  26.535  1.00  0.00     0.116 C 
BRANCH   2   3
ATOM      3  N   UNL A   1      40.141  22.604  26.483  1.00  0.00    -0.352 N 
ATOM      4  C   UNL A   1      39.034  23.348  26.141  1.00  0.00     0.251 C 
ATOM      5  O   UNL A   1      39.137  24.573  26.096  1.00  0.00    -0.269 OA
ATOM      6  H   UNL A   1      40.924  23.143  26.739  1.00  0.00     0.163 HD
BRANCH   4   7
ATOM      7  C   UNL A   1      37.730  22.730  25.783  1.00  0.00     0.039 A 
ATOM      8  C   UNL A   1      35.294  21.427  25.135  1.00  0.00     0.041 A 
ATOM      9  C   UNL A   1      35.310  22.770  25.509  1.00  0.00     0.027 A 
ATOM     10  C   UNL A   1      36.527  20.771  24.995  1.00  0.00     0.027 A 
ATOM     11  C   UNL A   1      36.519  23.423  25.817  1.00  0.00     0.016 A 
ATOM     12  C   UNL A   1      37.731  21.411  25.319  1.00  0.00     0.016 A 
BRANCH   8  13
ATOM     13  N   UNL A   1      34.151  20.637  24.898  1.00  0.00    -0.326 N 
ATOM     14  C   UNL A   1      32.841  20.683  25.268  1.00  0.00     0.226 C 
ATOM     15  O   UNL A   1      32.109  19.758  24.896  1.00  0.00    -0.275 OA
ATOM     16  H   UNL A   1      34.348  19.862  24.324  1.00  0.00     0.169 HD
BRANCH  14  17
ATOM     17  C   UNL A   1      32.261  21.750  26.161  1.00  0.00     0.128 C 
BRANCH  17  18
ATOM     18  C   UNL A   1      31.101  22.500  25.519  1.00  0.00     0.183 C 
ATOM     19  N   UNL A   1      30.650  25.481  23.218  1.00  0.00    -0.235 N 
ATOM     20  C   UNL A   1      30.909  24.726  24.231  1.00  0.00     0.319 C 
ATOM     21  H   UNL A   1      30.922  25.168  22.325  1.00  0.00     0.313 HD
ATOM     22  S   UNL A   1      31.575  23.143  23.889  1.00  0.00    -0.022 SA
ATOM     23  N   UNL A   1      30.748  24.881  25.580  1.00  0.00    -0.193 N 
ATOM     24  C   UNL A   1      30.605  23.708  26.285  1.00  0.00     0.324 C 
ATOM     25  C   UNL A   1      30.583  26.119  26.320  1.00  0.00     0.301 C 
ATOM     26  O   UNL A   1      30.057  23.637  27.382  1.00  0.00    -0.245 OA
BRANCH  19  27
ATOM     27  C   UNL A   1      30.009  26.715  23.312  1.00  0.00     0.125 A 
ATOM     28  C   UNL A   1      27.779  30.309  22.721  1.00  0.00     0.044 C 
ATOM     29  C   UNL A   1      28.561  29.094  23.097  1.00  0.00    -0.051 A 
ATOM     30  C   UNL A   1      27.927  27.912  23.478  1.00  0.00     0.008 A 
ATOM     31  C   UNL A   1      29.951  29.115  23.006  1.00  0.00     0.008 A 
ATOM     32  C   UNL A   1      28.643  26.723  23.566  1.00  0.00     0.052 A 
ATOM     33  C   UNL A   1      30.674  27.937  23.176  1.00  0.00     0.052 A 
ENDBRANCH  19  27
ENDBRANCH  17  18
ENDBRANCH  14  17
ENDBRANCH   8  13
ENDBRANCH   4   7
ENDBRANCH   2   3
ENDBRANCH   1   2
BRANCH   1  34
ATOM     34  C   UNL A   1      42.219  19.327  26.484  1.00  0.00     0.002 C 
BRANCH  34  35
ATOM     35  C   UNL A   1      43.463  18.788  25.760  1.00  0.00     0.002 C 
BRANCH  35  36
ATOM     36  C   UNL A   1      44.133  19.737  24.754  1.00  0.00     0.021 C 
BRANCH  36  37
ATOM     37  C   UNL A   1      45.616  20.031  25.042  1.00  0.00     0.116 C 
BRANCH  37  38
ATOM     38  N   UNL A   1      46.098  21.187  24.278  1.00  0.00    -0.352 N 
ATOM     39  C   UNL A   1      45.917  22.539  24.483  1.00  0.00     0.251 C 
ATOM     40  H   UNL A   1      46.640  20.960  23.487  1.00  0.00     0.163 HD
ATOM     41  O   UNL A   1      46.607  23.361  23.888  1.00  0.00    -0.269 OA
BRANCH  39  42
ATOM     42  C   UNL A   1      44.941  22.991  25.490  1.00  0.00     0.039 A 
ATOM     43  C   UNL A   1      43.861  23.769  25.074  1.00  0.00     0.014 A 
ATOM     44  C   UNL A   1      45.194  22.790  26.844  1.00  0.00     0.014 A 
ATOM     45  C   UNL A   1      43.200  24.563  26.010  1.00  0.00     0.010 A 
ATOM     46  C   UNL A   1      44.557  23.609  27.770  1.00  0.00     0.010 A 
ATOM     47  C   UNL A   1      43.654  24.588  27.333  1.00  0.00    -0.014 A 
BRANCH  47  48
ATOM     48  C   UNL A   1      43.498  25.800  28.152  1.00  0.00     0.031 A 
ATOM     49  C   UNL A   1      42.211  26.485  28.398  1.00  0.00     0.074 A 
ATOM     50  C   UNL A   1      44.587  26.284  28.802  1.00  0.00     0.049 A 
ATOM     51  N   UNL A   1      42.122  27.740  28.707  1.00  0.00    -0.248 NA
ATOM     52  C   UNL A   1      40.917  25.833  28.303  1.00  0.00     0.031 C 
ATOM     53  C   UNL A   1      44.617  27.270  29.882  1.00  0.00     0.029 A 
ATOM     54  N   UNL A   1      45.936  26.077  28.496  1.00  0.00    -0.354 N 
ATOM     55  C   UNL A   1      40.839  27.989  29.140  1.00  0.00     0.074 A 
ATOM     56  C   UNL A   1      40.111  26.792  28.777  1.00  0.00     0.031 C 
ATOM     57  C   UNL A   1      45.848  27.791  29.964  1.00  0.00     0.029 A 
ATOM     58  C   UNL A   1      46.621  27.250  28.866  1.00  0.00     0.049 A 
ATOM     59  H   UNL A   1      46.331  25.267  28.100  1.00  0.00     0.167 HD
ATOM     60  C   UNL A   1      40.584  29.123  29.866  1.00  0.00     0.037 A 
ATOM     61  C   UNL A   1      47.310  27.987  27.952  1.00  0.00     0.037 A 
ATOM     62  C   UNL A   1      41.783  29.963  30.003  1.00  0.00     0.049 A 
ATOM     63  C   UNL A   1      46.830  29.409  27.802  1.00  0.00     0.074 A 
ATOM     64  C   UNL A   1      42.639  30.234  31.061  1.00  0.00     0.029 A 
ATOM     65  N   UNL A   1      42.381  30.518  28.876  1.00  0.00    -0.354 N 
ATOM     66  N   UNL A   1      45.719  29.870  28.303  1.00  0.00    -0.248 NA
ATOM     67  C   UNL A   1      47.550  30.414  27.032  1.00  0.00     0.031 C 
ATOM     68  C   UNL A   1      43.735  30.986  30.569  1.00  0.00     0.029 A 
ATOM     69  C   UNL A   1      43.563  31.154  29.206  1.00  0.00     0.049 A 
ATOM     70  H   UNL A   1      42.010  30.465  27.964  1.00  0.00     0.167 HD
ATOM     71  C   UNL A   1      45.524  31.169  27.890  1.00  0.00     0.074 A 
ATOM     72  C   UNL A   1      46.729  31.473  27.143  1.00  0.00     0.031 C 
ATOM     73  C   UNL A   1      44.364  31.834  28.190  1.00  0.00     0.037 A 
BRANCH  60  74
ATOM     74  C   UNL A   1      39.322  29.386  30.684  1.00  0.00     0.057 A 
ATOM     75  C   UNL A   1      38.467  30.473  30.387  1.00  0.00     0.134 A 
ATOM     76  C   UNL A   1      38.899  28.641  31.798  1.00  0.00     0.134 A 
ATOM     77  F   UNL A   1      38.622  31.219  29.284  1.00  0.00    -0.206 F 
ATOM     78  C   UNL A   1      37.386  30.856  31.195  1.00  0.00     0.040 A 
ATOM     79  C   UNL A   1      37.845  29.033  32.640  1.00  0.00     0.040 A 
ATOM     80  F   UNL A   1      39.427  27.449  32.091  1.00  0.00    -0.206 F 
ATOM     81  C   UNL A   1      37.092  30.157  32.352  1.00  0.00     0.006 A 
ENDBRANCH  60  74
BRANCH  61  82
ATOM     82  C   UNL A   1      47.922  27.173  26.874  1.00  0.00     0.057 A 
ATOM     83  C   UNL A   1      47.207  27.006  25.675  1.00  0.00     0.134 A 
ATOM     84  C   UNL A   1      49.286  26.873  26.854  1.00  0.00     0.134 A 
ATOM     85  F   UNL A   1      45.895  27.288  25.628  1.00  0.00    -0.206 F 
ATOM     86  C   UNL A   1      47.840  26.653  24.482  1.00  0.00     0.040 A 
ATOM     87  C   UNL A   1      49.929  26.508  25.665  1.00  0.00     0.040 A 
ATOM     88  F   UNL A   1      50.039  27.045  27.948  1.00  0.00    -0.206 F 
ATOM     89  C   UNL A   1      49.213  26.430  24.470  1.00  0.00     0.006 A 
ENDBRANCH  61  82
BRANCH  73  90
ATOM     90  C   UNL A   1      43.878  33.183  27.662  1.00  0.00     0.057 A 
ATOM     91  C   UNL A   1      43.549  34.306  28.438  1.00  0.00     0.134 A 
ATOM     92  C   UNL A   1      43.807  33.421  26.264  1.00  0.00     0.134 A 
ATOM     93  F   UNL A   1      43.669  34.314  29.768  1.00  0.00    -0.206 F 
ATOM     94  C   UNL A   1      43.123  35.527  27.885  1.00  0.00     0.040 A 
ATOM     95  C   UNL A   1      43.433  34.649  25.700  1.00  0.00     0.040 A 
ATOM     96  F   UNL A   1      44.120  32.480  25.363  1.00  0.00    -0.206 F 
ATOM     97  C   UNL A   1      43.072  35.707  26.512  1.00  0.00     0.006 A 
ENDBRANCH  73  90
ENDBRANCH  47  48
ENDBRANCH  39  42
ENDBRANCH  37  38
ENDBRANCH  36  37
ENDBRANCH  35  36
ENDBRANCH  34  35
ENDBRANCH   1  34
TORSDOF 17
ENDMDL
MODEL 2
REMARK VINA RESULT:     -13.1      3.309     10.286
REMARK SMILES Cc1ccc(/[NH+]=C2/S[C@@H](CC(=O)Nc3ccc(C(=O)NCCCCCCNC(=O)c4ccc(-c5c6nc(c(-c7c(F)cccc7F)c7ccc([nH]7)c(-c7c(F)cccc7F)c7nc(c(-c8c(F)cccc8F)c8ccc5[nH]8)C=C7)C=C6)cc4)cc3)C(=O)N2C)cc1
REMARK SMILES IDX 22 1 21 2 20 3 18 4 19 5 17 7 14 8 15 9 85 10 16 11 84 12
REMARK SMILES IDX 13 13 11 14 12 15 10 17 9 18 6 19 7 20 8 22 88 23 86 24
REMARK SMILES IDX 89 25 87 26 5 27 1 28 2 29 3 30 91 31 4 32 90 33 23 34 24 35
REMARK SMILES IDX 25 36 26 37 27 38 28 39 29 41 30 42 31 43 83 44 32 45 82 46
REMARK SMILES IDX 33 47 34 48 35 49 76 50 36 51 81 52 75 53 77 54 37 55 80 56
REMARK SMILES IDX 74 57 73 58 38 60 64 61 47 62 63 63 48 64 51 65 62 66 78 67
REMARK SMILES IDX 49 68 50 69 61 71 79 72 52 73 39 74 40 75 45 76 41 77 42 78
REMARK SMILES IDX 44 79 46 80 43 81 65 82 66 83 71 84 67 85 68 86 70 87 72 88
REMARK SMILES IDX 69 89 53 90 54 91 59 92 55 93 56 94 58 95 60 96 57 97
REMARK H PARENT 20 6 13 16 6 21 27 40 77 59 51 70
REMARK Flexibility Score: inf
ROOT
ATOM      1  C   UNL A   1      33.167  29.116  24.765  1.00  0.00     0.021 C 
ENDROOT
BRANCH   1   2
ATOM      2  C   UNL A   1      33.072  29.348  23.252  1.00  0.00     0.116 C 
BRANCH   2   3
ATOM      3  N   UNL A   1      31.722  29.206  22.731  1.00  0.00    -0.352 N 
ATOM      4  C   UNL A   1      30.937  28.097  22.512  1.00  0.00     0.251 C 
ATOM      5  O   UNL A   1      29.842  28.247  21.971  1.00  0.00    -0.269 OA
ATOM      6  H   UNL A   1      31.290  30.058  22.492  1.00  0.00     0.163 HD
BRANCH   4   7
ATOM      7  C   UNL A   1      31.375  26.720  22.861  1.00  0.00     0.039 A 
ATOM      8  C   UNL A   1      32.098  24.081  23.615  1.00  0.00     0.041 A 
ATOM      9  C   UNL A   1      32.484  24.605  22.381  1.00  0.00     0.027 A 
ATOM     10  C   UNL A   1      31.428  24.932  24.507  1.00  0.00     0.027 A 
ATOM     11  C   UNL A   1      32.137  25.919  22.011  1.00  0.00     0.016 A 
ATOM     12  C   UNL A   1      31.065  26.234  24.136  1.00  0.00     0.016 A 
BRANCH   8  13
ATOM     13  N   UNL A   1      32.295  22.759  24.061  1.00  0.00    -0.326 N 
ATOM     14  C   UNL A   1      33.373  21.963  24.303  1.00  0.00     0.226 C 
ATOM     15  O   UNL A   1      33.155  20.797  24.653  1.00  0.00    -0.275 OA
ATOM     16  H   UNL A   1      31.445  22.298  24.241  1.00  0.00     0.169 HD
BRANCH  14  17
ATOM     17  C   UNL A   1      34.800  22.401  24.096  1.00  0.00     0.128 C 
BRANCH  17  18
ATOM     18  C   UNL A   1      35.709  22.050  25.268  1.00  0.00     0.183 C 
ATOM     19  N   UNL A   1      39.355  22.528  26.198  1.00  0.00    -0.235 N 
ATOM     20  C   UNL A   1      38.260  22.141  25.637  1.00  0.00     0.319 C 
ATOM     21  H   UNL A   1      39.445  23.480  26.433  1.00  0.00     0.313 HD
ATOM     22  S   UNL A   1      36.978  23.327  25.499  1.00  0.00    -0.022 SA
ATOM     23  N   UNL A   1      37.843  20.945  25.123  1.00  0.00    -0.193 N 
ATOM     24  C   UNL A   1      36.480  20.755  25.128  1.00  0.00     0.324 C 
ATOM     25  C   UNL A   1      38.662  19.823  24.702  1.00  0.00     0.301 C 
ATOM     26  O   UNL A   1      35.948  19.649  25.106  1.00  0.00    -0.245 OA
BRANCH  19  27
ATOM     27  C   UNL A   1      40.419  21.678  26.492  1.00  0.00     0.125 A 
ATOM     28  C   UNL A   1      43.321  18.551  26.699  1.00  0.00     0.044 C 
ATOM     29  C   UNL A   1      42.413  19.736  26.730  1.00  0.00    -0.051 A 
ATOM     30  C   UNL A   1      42.542  20.772  25.806  1.00  0.00     0.008 A 
ATOM     31  C   UNL A   1      41.374  19.784  27.657  1.00  0.00     0.008 A 
ATOM     32  C   UNL A   1      41.541  21.728  25.673  1.00  0.00     0.052 A 
ATOM     33  C   UNL A   1      40.416  20.791  27.572  1.00  0.00     0.052 A 
ENDBRANCH  19  27
ENDBRANCH  17  18
ENDBRANCH  14  17
ENDBRANCH   8  13
ENDBRANCH   4   7
ENDBRANCH   2   3
ENDBRANCH   1   2
BRANCH   1  34
ATOM     34  C   UNL A   1      32.012  29.658  25.623  1.00  0.00     0.002 C 
BRANCH  34  35
ATOM     35  C   UNL A   1      32.298  29.843  27.121  1.00  0.00     0.002 C 
BRANCH  35  36
ATOM     36  C   UNL A   1      33.777  29.836  27.541  1.00  0.00     0.021 C 
BRANCH  36  37
ATOM     37  C   UNL A   1      34.452  31.219  27.525  1.00  0.00     0.116 C 
BRANCH  37  38
ATOM     38  N   UNL A   1      34.857  31.640  28.871  1.00  0.00    -0.352 N 
ATOM     39  C   UNL A   1      35.968  31.310  29.620  1.00  0.00     0.251 C 
ATOM     40  H   UNL A   1      34.233  32.260  29.314  1.00  0.00     0.163 HD
ATOM     41  O   UNL A   1      36.266  31.957  30.620  1.00  0.00    -0.269 OA
BRANCH  39  42
ATOM     42  C   UNL A   1      36.848  30.220  29.163  1.00  0.00     0.039 A 
ATOM     43  C   UNL A   1      36.987  29.088  29.967  1.00  0.00     0.014 A 
ATOM     44  C   UNL A   1      37.653  30.398  28.042  1.00  0.00     0.014 A 
ATOM     45  C   UNL A   1      38.107  28.276  29.803  1.00  0.00     0.010 A 
ATOM     46  C   UNL A   1      38.788  29.608  27.902  1.00  0.00     0.010 A 
ATOM     47  C   UNL A   1      39.081  28.630  28.863  1.00  0.00    -0.014 A 
BRANCH  47  48
ATOM     48  C   UNL A   1      40.493  28.278  29.083  1.00  0.00     0.031 A 
ATOM     49  C   UNL A   1      41.177  27.127  28.455  1.00  0.00     0.074 A 
ATOM     50  C   UNL A   1      41.253  29.106  29.844  1.00  0.00     0.049 A 
ATOM     51  N   UNL A   1      42.222  26.557  28.965  1.00  0.00    -0.248 NA
ATOM     52  C   UNL A   1      40.742  26.507  27.216  1.00  0.00     0.031 C 
ATOM     53  C   UNL A   1      42.712  29.128  29.955  1.00  0.00     0.029 A 
ATOM     54  N   UNL A   1      40.827  30.022  30.811  1.00  0.00    -0.354 N 
ATOM     55  C   UNL A   1      42.770  25.726  28.015  1.00  0.00     0.074 A 
ATOM     56  C   UNL A   1      41.756  25.663  26.984  1.00  0.00     0.031 C 
ATOM     57  C   UNL A   1      43.054  29.766  31.082  1.00  0.00     0.029 A 
ATOM     58  C   UNL A   1      41.832  30.072  31.795  1.00  0.00     0.049 A 
ATOM     59  H   UNL A   1      39.986  30.536  30.804  1.00  0.00     0.167 HD
ATOM     60  C   UNL A   1      44.064  25.301  28.161  1.00  0.00     0.037 A 
ATOM     61  C   UNL A   1      41.574  29.739  33.089  1.00  0.00     0.037 A 
ATOM     62  C   UNL A   1      44.655  25.776  29.421  1.00  0.00     0.049 A 
ATOM     63  C   UNL A   1      42.392  28.586  33.616  1.00  0.00     0.074 A 
ATOM     64  C   UNL A   1      45.602  26.745  29.722  1.00  0.00     0.029 A 
ATOM     65  N   UNL A   1      44.121  25.372  30.640  1.00  0.00    -0.354 N 
ATOM     66  N   UNL A   1      43.119  27.799  32.876  1.00  0.00    -0.248 NA
ATOM     67  C   UNL A   1      42.414  28.204  35.022  1.00  0.00     0.031 C 
ATOM     68  C   UNL A   1      45.659  26.893  31.130  1.00  0.00     0.029 A 
ATOM     69  C   UNL A   1      44.730  26.034  31.690  1.00  0.00     0.049 A 
ATOM     70  H   UNL A   1      43.404  24.703  30.741  1.00  0.00     0.167 HD
ATOM     71  C   UNL A   1      43.644  26.786  33.648  1.00  0.00     0.074 A 
ATOM     72  C   UNL A   1      43.214  27.124  34.991  1.00  0.00     0.031 C 
ATOM     73  C   UNL A   1      44.351  25.762  33.075  1.00  0.00     0.037 A 
BRANCH  60  74
ATOM     74  C   UNL A   1      44.915  24.661  27.066  1.00  0.00     0.057 A 
ATOM     75  C   UNL A   1      45.661  25.450  26.160  1.00  0.00     0.134 A 
ATOM     76  C   UNL A   1      45.025  23.282  26.818  1.00  0.00     0.134 A 
ATOM     77  F   UNL A   1      45.796  26.774  26.313  1.00  0.00    -0.206 F 
ATOM     78  C   UNL A   1      46.331  24.927  25.043  1.00  0.00     0.040 A 
ATOM     79  C   UNL A   1      45.658  22.745  25.683  1.00  0.00     0.040 A 
ATOM     80  F   UNL A   1      44.599  22.370  27.696  1.00  0.00    -0.206 F 
ATOM     81  C   UNL A   1      46.300  23.570  24.778  1.00  0.00     0.006 A 
ENDBRANCH  60  74
BRANCH  61  82
ATOM     82  C   UNL A   1      40.199  30.082  33.528  1.00  0.00     0.057 A 
ATOM     83  C   UNL A   1      39.931  31.409  33.908  1.00  0.00     0.134 A 
ATOM     84  C   UNL A   1      39.104  29.262  33.247  1.00  0.00     0.134 A 
ATOM     85  F   UNL A   1      40.942  32.248  34.180  1.00  0.00    -0.206 F 
ATOM     86  C   UNL A   1      38.635  31.927  33.912  1.00  0.00     0.040 A 
ATOM     87  C   UNL A   1      37.799  29.769  33.259  1.00  0.00     0.040 A 
ATOM     88  F   UNL A   1      39.283  27.998  32.842  1.00  0.00    -0.206 F 
ATOM     89  C   UNL A   1      37.565  31.111  33.558  1.00  0.00     0.006 A 
ENDBRANCH  61  82
BRANCH  73  90
ATOM     90  C   UNL A   1      44.833  24.463  33.720  1.00  0.00     0.057 A 
ATOM     91  C   UNL A   1      46.170  24.083  33.918  1.00  0.00     0.134 A 
ATOM     92  C   UNL A   1      43.897  23.543  34.264  1.00  0.00     0.134 A 
ATOM     93  F   UNL A   1      47.193  24.873  33.583  1.00  0.00    -0.206 F 
ATOM     94  C   UNL A   1      46.545  22.877  34.536  1.00  0.00     0.040 A 
ATOM     95  C   UNL A   1      44.260  22.362  34.926  1.00  0.00     0.040 A 
ATOM     96  F   UNL A   1      42.575  23.752  34.204  1.00  0.00    -0.206 F 
ATOM     97  C   UNL A   1      45.590  22.014  35.051  1.00  0.00     0.006 A 
ENDBRANCH  73  90
ENDBRANCH  47  48
ENDBRANCH  39  42
ENDBRANCH  37  38
ENDBRANCH  36  37
ENDBRANCH  35  36
ENDBRANCH  34  35
ENDBRANCH   1  34
TORSDOF 17
ENDMDL
MODEL 3
REMARK VINA RESULT:     -12.2      5.280      9.407
REMARK SMILES Cc1ccc(/[NH+]=C2/S[C@@H](CC(=O)Nc3ccc(C(=O)NCCCCCCNC(=O)c4ccc(-c5c6nc(c(-c7c(F)cccc7F)c7ccc([nH]7)c(-c7c(F)cccc7F)c7nc(c(-c8c(F)cccc8F)c8ccc5[nH]8)C=C7)C=C6)cc4)cc3)C(=O)N2C)cc1
REMARK SMILES IDX 22 1 21 2 20 3 18 4 19 5 17 7 14 8 15 9 85 10 16 11 84 12
REMARK SMILES IDX 13 13 11 14 12 15 10 17 9 18 6 19 7 20 8 22 88 23 86 24
REMARK SMILES IDX 89 25 87 26 5 27 1 28 2 29 3 30 91 31 4 32 90 33 23 34 24 35
REMARK SMILES IDX 25 36 26 37 27 38 28 39 29 41 30 42 31 43 83 44 32 45 82 46
REMARK SMILES IDX 33 47 34 48 35 49 76 50 36 51 81 52 75 53 77 54 37 55 80 56
REMARK SMILES IDX 74 57 73 58 38 60 64 61 47 62 63 63 48 64 51 65 62 66 78 67
REMARK SMILES IDX 49 68 50 69 61 71 79 72 52 73 39 74 40 75 45 76 41 77 42 78
REMARK SMILES IDX 44 79 46 80 43 81 65 82 66 83 71 84 67 85 68 86 70 87 72 88
REMARK SMILES IDX 69 89 53 90 54 91 59 92 55 93 56 94 58 95 60 96 57 97
REMARK H PARENT 20 6 13 16 6 21 27 40 77 59 51 70
REMARK Flexibility Score: inf
ROOT
ATOM      1  C   UNL A   1      39.912  28.547  27.847  1.00  0.00     0.021 C 
ENDROOT
BRANCH   1   2
ATOM      2  C   UNL A   1      40.768  27.538  28.623  1.00  0.00     0.116 C 
BRANCH   2   3
ATOM      3  N   UNL A   1      42.197  27.725  28.429  1.00  0.00    -0.352 N 
ATOM      4  C   UNL A   1      43.194  26.848  28.067  1.00  0.00     0.251 C 
ATOM      5  O   UNL A   1      44.357  27.248  28.058  1.00  0.00    -0.269 OA
ATOM      6  H   UNL A   1      42.509  28.646  28.585  1.00  0.00     0.163 HD
BRANCH   4   7
ATOM      7  C   UNL A   1      42.929  25.424  27.727  1.00  0.00     0.039 A 
ATOM      8  C   UNL A   1      42.483  22.731  26.953  1.00  0.00     0.041 A 
ATOM      9  C   UNL A   1      42.604  23.079  28.299  1.00  0.00     0.027 A 
ATOM     10  C   UNL A   1      42.491  23.766  26.005  1.00  0.00     0.027 A 
ATOM     11  C   UNL A   1      42.812  24.417  28.686  1.00  0.00     0.016 A 
ATOM     12  C   UNL A   1      42.716  25.096  26.385  1.00  0.00     0.016 A 
BRANCH   8  13
ATOM     13  N   UNL A   1      42.372  21.426  26.433  1.00  0.00    -0.326 N 
ATOM     14  C   UNL A   1      41.364  20.527  26.264  1.00  0.00     0.226 C 
ATOM     15  O   UNL A   1      41.658  19.419  25.800  1.00  0.00    -0.275 OA
ATOM     16  H   UNL A   1      43.237  21.079  26.116  1.00  0.00     0.169 HD
BRANCH  14  17
ATOM     17  C   UNL A   1      39.937  20.782  26.676  1.00  0.00     0.128 C 
BRANCH  17  18
ATOM     18  C   UNL A   1      39.147  21.572  25.640  1.00  0.00     0.183 C 
ATOM     19  N   UNL A   1      36.333  24.116  25.635  1.00  0.00    -0.235 N 
ATOM     20  C   UNL A   1      37.024  23.031  25.746  1.00  0.00     0.319 C 
ATOM     21  H   UNL A   1      36.739  24.957  25.946  1.00  0.00     0.313 HD
ATOM     22  S   UNL A   1      38.679  23.200  26.294  1.00  0.00    -0.022 SA
ATOM     23  N   UNL A   1      36.748  21.716  25.497  1.00  0.00    -0.193 N 
ATOM     24  C   UNL A   1      37.845  20.941  25.196  1.00  0.00     0.324 C 
ATOM     25  C   UNL A   1      35.446  21.085  25.387  1.00  0.00     0.301 C 
ATOM     26  O   UNL A   1      37.782  19.892  24.562  1.00  0.00    -0.245 OA
BRANCH  19  27
ATOM     27  C   UNL A   1      35.048  24.166  25.101  1.00  0.00     0.125 A 
ATOM     28  C   UNL A   1      31.067  23.422  23.742  1.00  0.00     0.044 C 
ATOM     29  C   UNL A   1      32.425  23.852  24.189  1.00  0.00    -0.051 A 
ATOM     30  C   UNL A   1      32.676  24.195  25.517  1.00  0.00     0.008 A 
ATOM     31  C   UNL A   1      33.482  23.848  23.282  1.00  0.00     0.008 A 
ATOM     32  C   UNL A   1      33.982  24.333  25.976  1.00  0.00     0.052 A 
ATOM     33  C   UNL A   1      34.783  24.068  23.732  1.00  0.00     0.052 A 
ENDBRANCH  19  27
ENDBRANCH  17  18
ENDBRANCH  14  17
ENDBRANCH   8  13
ENDBRANCH   4   7
ENDBRANCH   2   3
ENDBRANCH   1   2
BRANCH   1  34
ATOM     34  C   UNL A   1      38.409  28.572  28.169  1.00  0.00     0.002 C 
BRANCH  34  35
ATOM     35  C   UNL A   1      37.615  29.778  27.643  1.00  0.00     0.002 C 
BRANCH  35  36
ATOM     36  C   UNL A   1      36.089  29.719  27.814  1.00  0.00     0.021 C 
BRANCH  36  37
ATOM     37  C   UNL A   1      35.372  31.069  27.631  1.00  0.00     0.116 C 
BRANCH  37  38
ATOM     38  N   UNL A   1      34.703  31.498  28.865  1.00  0.00    -0.352 N 
ATOM     39  C   UNL A   1      35.185  32.197  29.952  1.00  0.00     0.251 C 
ATOM     40  H   UNL A   1      33.753  31.247  28.926  1.00  0.00     0.163 HD
ATOM     41  O   UNL A   1      34.416  32.686  30.774  1.00  0.00    -0.269 OA
BRANCH  39  42
ATOM     42  C   UNL A   1      36.636  32.423  30.079  1.00  0.00     0.039 A 
ATOM     43  C   UNL A   1      37.424  31.422  30.645  1.00  0.00     0.014 A 
ATOM     44  C   UNL A   1      37.171  33.677  29.798  1.00  0.00     0.014 A 
ATOM     45  C   UNL A   1      38.666  31.760  31.178  1.00  0.00     0.010 A 
ATOM     46  C   UNL A   1      38.395  34.020  30.362  1.00  0.00     0.010 A 
ATOM     47  C   UNL A   1      39.080  33.096  31.163  1.00  0.00    -0.014 A 
BRANCH  47  48
ATOM     48  C   UNL A   1      39.957  33.617  32.224  1.00  0.00     0.031 A 
ATOM     49  C   UNL A   1      39.478  34.225  33.484  1.00  0.00     0.074 A 
ATOM     50  C   UNL A   1      41.298  33.459  32.087  1.00  0.00     0.049 A 
ATOM     51  N   UNL A   1      40.178  35.064  34.179  1.00  0.00    -0.248 NA
ATOM     52  C   UNL A   1      38.174  33.959  34.064  1.00  0.00     0.031 C 
ATOM     53  C   UNL A   1      42.325  33.618  33.117  1.00  0.00     0.029 A 
ATOM     54  N   UNL A   1      42.028  33.260  30.910  1.00  0.00    -0.354 N 
ATOM     55  C   UNL A   1      39.579  35.213  35.409  1.00  0.00     0.074 A 
ATOM     56  C   UNL A   1      38.289  34.578  35.247  1.00  0.00     0.031 C 
ATOM     57  C   UNL A   1      43.514  33.796  32.524  1.00  0.00     0.029 A 
ATOM     58  C   UNL A   1      43.278  33.878  31.098  1.00  0.00     0.049 A 
ATOM     59  H   UNL A   1      41.725  32.779  30.106  1.00  0.00     0.167 HD
ATOM     60  C   UNL A   1      40.301  35.740  36.448  1.00  0.00     0.037 A 
ATOM     61  C   UNL A   1      43.698  34.889  30.290  1.00  0.00     0.037 A 
ATOM     62  C   UNL A   1      41.649  36.146  36.023  1.00  0.00     0.049 A 
ATOM     63  C   UNL A   1      43.975  36.189  31.003  1.00  0.00     0.074 A 
ATOM     64  C   UNL A   1      42.914  35.618  36.238  1.00  0.00     0.029 A 
ATOM     65  N   UNL A   1      41.810  37.150  35.073  1.00  0.00    -0.354 N 
ATOM     66  N   UNL A   1      43.637  36.441  32.235  1.00  0.00    -0.248 NA
ATOM     67  C   UNL A   1      44.619  37.327  30.359  1.00  0.00     0.031 C 
ATOM     68  C   UNL A   1      43.841  36.333  35.439  1.00  0.00     0.029 A 
ATOM     69  C   UNL A   1      43.139  37.283  34.717  1.00  0.00     0.049 A 
ATOM     70  H   UNL A   1      41.075  37.693  34.704  1.00  0.00     0.167 HD
ATOM     71  C   UNL A   1      43.933  37.750  32.541  1.00  0.00     0.074 A 
ATOM     72  C   UNL A   1      44.596  38.238  31.348  1.00  0.00     0.031 C 
ATOM     73  C   UNL A   1      43.563  38.291  33.745  1.00  0.00     0.037 A 
BRANCH  60  74
ATOM     74  C   UNL A   1      39.910  35.675  37.923  1.00  0.00     0.057 A 
ATOM     75  C   UNL A   1      39.430  34.477  38.502  1.00  0.00     0.134 A 
ATOM     76  C   UNL A   1      39.944  36.751  38.826  1.00  0.00     0.134 A 
ATOM     77  F   UNL A   1      39.451  33.310  37.845  1.00  0.00    -0.206 F 
ATOM     78  C   UNL A   1      38.910  34.398  39.803  1.00  0.00     0.040 A 
ATOM     79  C   UNL A   1      39.390  36.699  40.117  1.00  0.00     0.040 A 
ATOM     80  F   UNL A   1      40.584  37.889  38.544  1.00  0.00    -0.206 F 
ATOM     81  C   UNL A   1      38.852  35.522  40.606  1.00  0.00     0.006 A 
ENDBRANCH  60  74
BRANCH  61  82
ATOM     82  C   UNL A   1      43.222  34.766  28.890  1.00  0.00     0.057 A 
ATOM     83  C   UNL A   1      42.079  35.489  28.507  1.00  0.00     0.134 A 
ATOM     84  C   UNL A   1      44.035  34.266  27.871  1.00  0.00     0.134 A 
ATOM     85  F   UNL A   1      41.264  36.004  29.441  1.00  0.00    -0.206 F 
ATOM     86  C   UNL A   1      41.810  35.790  27.171  1.00  0.00     0.040 A 
ATOM     87  C   UNL A   1      43.769  34.551  26.526  1.00  0.00     0.040 A 
ATOM     88  F   UNL A   1      45.161  33.599  28.161  1.00  0.00    -0.206 F 
ATOM     89  C   UNL A   1      42.675  35.343  26.177  1.00  0.00     0.006 A 
ENDBRANCH  61  82
BRANCH  73  90
ATOM     90  C   UNL A   1      43.618  39.752  34.189  1.00  0.00     0.057 A 
ATOM     91  C   UNL A   1      44.299  40.252  35.310  1.00  0.00     0.134 A 
ATOM     92  C   UNL A   1      43.013  40.764  33.397  1.00  0.00     0.134 A 
ATOM     93  F   UNL A   1      45.028  39.469  36.110  1.00  0.00    -0.206 F 
ATOM     94  C   UNL A   1      44.323  41.616  35.652  1.00  0.00     0.040 A 
ATOM     95  C   UNL A   1      43.073  42.131  33.700  1.00  0.00     0.040 A 
ATOM     96  F   UNL A   1      42.349  40.483  32.267  1.00  0.00    -0.206 F 
ATOM     97  C   UNL A   1      43.716  42.563  34.843  1.00  0.00     0.006 A 
ENDBRANCH  73  90
ENDBRANCH  47  48
ENDBRANCH  39  42
ENDBRANCH  37  38
ENDBRANCH  36  37
ENDBRANCH  35  36
ENDBRANCH  34  35
ENDBRANCH   1  34
TORSDOF 17
ENDMDL
