MODEL 1
REMARK VINA RESULT:     -11.3      0.000      0.000
REMARK SMILES Cc1nsc(NC(=O)N2CCC[C@@H](C)C2)c1C(=O)NCCCCCCNC(=O)c1ccc(-c2c3nc(c(-c4c(F)cccc4F)c4ccc([nH]4)c(-c4c(F)cccc4F)c4nc(c(-c5c(F)cccc5F)c5ccc2[nH]5)C=C4)C=C3)cc1
REMARK SMILES IDX 22 1 21 2 20 3 19 4 17 5 18 6 16 8 1 9 2 10 3 11 4 12 5 13
REMARK SMILES IDX 6 14 7 15 8 17 9 18 10 19 15 20 11 21 13 22 12 23 14 24
REMARK SMILES IDX 23 25 24 26 25 27 26 28 27 29 28 31 29 32 30 33 82 34 31 35
REMARK SMILES IDX 81 36 32 37 33 38 34 39 75 40 35 41 80 42 74 43 76 44 36 45
REMARK SMILES IDX 79 46 73 47 72 48 37 50 63 51 46 52 62 53 47 54 50 55 61 56
REMARK SMILES IDX 77 57 48 58 49 59 60 61 78 62 51 63 38 64 39 65 44 66 40 67
REMARK SMILES IDX 41 68 43 69 45 70 42 71 64 72 65 73 70 74 66 75 67 76 69 77
REMARK SMILES IDX 71 78 68 79 52 80 53 81 58 82 54 83 55 84 57 85 59 86 56 87
REMARK H PARENT 19 7 6 16 26 30 76 49 50 60
REMARK Flexibility Score: inf
ROOT
ATOM      1  C   UNL A   1      40.019  21.495  26.098  1.00  0.00     0.002 C 
ENDROOT
BRANCH   1   2
ATOM      2  C   UNL A   1      38.826  20.603  25.775  1.00  0.00     0.021 C 
BRANCH   2   3
ATOM      3  C   UNL A   1      37.655  21.222  25.033  1.00  0.00     0.116 C 
BRANCH   3   4
ATOM      4  N   UNL A   1      37.410  22.633  25.214  1.00  0.00    -0.352 N 
ATOM      5  C   UNL A   1      36.209  23.275  25.454  1.00  0.00     0.256 C 
ATOM      6  O   UNL A   1      36.246  24.484  25.686  1.00  0.00    -0.269 OA
ATOM      7  H   UNL A   1      38.202  23.214  25.161  1.00  0.00     0.163 HD
BRANCH   5   8
ATOM      8  C   UNL A   1      34.940  22.575  25.272  1.00  0.00     0.097 A 
ATOM      9  C   UNL A   1      34.084  21.826  27.678  1.00  0.00     0.069 C 
ATOM     10  C   UNL A   1      34.098  21.819  26.187  1.00  0.00     0.066 A 
ATOM     11  N   UNL A   1      33.223  20.990  25.610  1.00  0.00    -0.195 NA
ATOM     12  S   UNL A   1      33.299  21.228  23.978  1.00  0.00    -0.017 S 
ATOM     13  C   UNL A   1      34.233  22.649  24.077  1.00  0.00     0.130 A 
BRANCH  13  14
ATOM     14  N   UNL A   1      34.354  23.530  23.020  1.00  0.00    -0.297 N 
ATOM     15  C   UNL A   1      33.661  24.681  22.778  1.00  0.00     0.322 C 
ATOM     16  H   UNL A   1      35.035  23.294  22.348  1.00  0.00     0.172 HD
ATOM     17  O   UNL A   1      33.520  25.047  21.610  1.00  0.00    -0.248 OA
BRANCH  15  18
ATOM     18  N   UNL A   1      33.153  25.410  23.832  1.00  0.00    -0.324 N 
ATOM     19  C   UNL A   1      33.752  26.645  24.347  1.00  0.00     0.121 C 
ATOM     20  C   UNL A   1      31.763  25.208  24.207  1.00  0.00     0.124 C 
ATOM     21  C   UNL A   1      33.584  26.800  25.864  1.00  0.00     0.022 C 
ATOM     22  C   UNL A   1      31.686  25.091  25.731  1.00  0.00     0.005 C 
ATOM     23  C   UNL A   1      32.203  26.383  26.382  1.00  0.00     0.007 C 
ATOM     24  C   UNL A   1      30.271  24.764  26.192  1.00  0.00     0.009 C 
ENDBRANCH  15  18
ENDBRANCH  13  14
ENDBRANCH   5   8
ENDBRANCH   3   4
ENDBRANCH   2   3
ENDBRANCH   1   2
BRANCH   1  25
ATOM     25  C   UNL A   1      40.880  21.139  27.316  1.00  0.00     0.002 C 
BRANCH  25  26
ATOM     26  C   UNL A   1      42.051  20.163  27.136  1.00  0.00     0.021 C 
BRANCH  26  27
ATOM     27  C   UNL A   1      42.222  19.590  25.741  1.00  0.00     0.116 C 
BRANCH  27  28
ATOM     28  N   UNL A   1      43.618  19.406  25.346  1.00  0.00    -0.352 N 
ATOM     29  C   UNL A   1      44.546  20.372  24.985  1.00  0.00     0.251 C 
ATOM     30  H   UNL A   1      43.942  18.476  25.335  1.00  0.00     0.163 HD
ATOM     31  O   UNL A   1      45.540  20.086  24.342  1.00  0.00    -0.269 OA
BRANCH  29  32
ATOM     32  C   UNL A   1      44.308  21.765  25.410  1.00  0.00     0.039 A 
ATOM     33  C   UNL A   1      43.407  22.604  24.748  1.00  0.00     0.014 A 
ATOM     34  C   UNL A   1      45.003  22.217  26.526  1.00  0.00     0.014 A 
ATOM     35  C   UNL A   1      43.175  23.873  25.274  1.00  0.00     0.010 A 
ATOM     36  C   UNL A   1      44.600  23.350  27.167  1.00  0.00     0.010 A 
ATOM     37  C   UNL A   1      43.769  24.229  26.497  1.00  0.00    -0.014 A 
BRANCH  37  38
ATOM     38  C   UNL A   1      43.508  25.505  27.138  1.00  0.00     0.031 A 
ATOM     39  C   UNL A   1      44.457  26.580  26.773  1.00  0.00     0.074 A 
ATOM     40  C   UNL A   1      42.388  25.757  27.848  1.00  0.00     0.049 A 
ATOM     41  N   UNL A   1      45.409  27.051  27.505  1.00  0.00    -0.248 NA
ATOM     42  C   UNL A   1      44.459  27.084  25.392  1.00  0.00     0.031 C 
ATOM     43  C   UNL A   1      41.193  24.924  28.037  1.00  0.00     0.029 A 
ATOM     44  N   UNL A   1      42.057  26.896  28.511  1.00  0.00    -0.354 N 
ATOM     45  C   UNL A   1      45.999  28.067  26.762  1.00  0.00     0.074 A 
ATOM     46  C   UNL A   1      45.510  27.909  25.416  1.00  0.00     0.031 C 
ATOM     47  C   UNL A   1      40.196  25.669  28.566  1.00  0.00     0.029 A 
ATOM     48  C   UNL A   1      40.733  26.968  28.923  1.00  0.00     0.049 A 
ATOM     49  H   UNL A   1      42.706  27.614  28.685  1.00  0.00     0.167 HD
ATOM     50  C   UNL A   1      46.646  29.092  27.382  1.00  0.00     0.037 A 
ATOM     51  C   UNL A   1      40.134  28.038  29.503  1.00  0.00     0.037 A 
ATOM     52  C   UNL A   1      46.886  28.780  28.773  1.00  0.00     0.049 A 
ATOM     53  C   UNL A   1      41.216  28.887  30.065  1.00  0.00     0.074 A 
ATOM     54  C   UNL A   1      47.561  27.776  29.441  1.00  0.00     0.029 A 
ATOM     55  N   UNL A   1      46.039  29.337  29.703  1.00  0.00    -0.354 N 
ATOM     56  N   UNL A   1      41.963  28.529  31.072  1.00  0.00    -0.248 NA
ATOM     57  C   UNL A   1      41.782  29.914  29.202  1.00  0.00     0.031 C 
ATOM     58  C   UNL A   1      46.732  27.457  30.558  1.00  0.00     0.029 A 
ATOM     59  C   UNL A   1      45.648  28.336  30.554  1.00  0.00     0.049 A 
ATOM     60  H   UNL A   1      45.765  30.282  29.749  1.00  0.00     0.167 HD
ATOM     61  C   UNL A   1      43.242  28.941  30.727  1.00  0.00     0.074 A 
ATOM     62  C   UNL A   1      43.055  29.859  29.604  1.00  0.00     0.031 C 
ATOM     63  C   UNL A   1      44.347  28.278  31.181  1.00  0.00     0.037 A 
BRANCH  50  64
ATOM     64  C   UNL A   1      46.719  30.508  26.870  1.00  0.00     0.057 A 
ATOM     65  C   UNL A   1      47.956  31.178  26.905  1.00  0.00     0.134 A 
ATOM     66  C   UNL A   1      45.601  31.332  26.632  1.00  0.00     0.134 A 
ATOM     67  F   UNL A   1      49.098  30.506  27.118  1.00  0.00    -0.206 F 
ATOM     68  C   UNL A   1      48.060  32.570  26.816  1.00  0.00     0.040 A 
ATOM     69  C   UNL A   1      45.700  32.718  26.490  1.00  0.00     0.040 A 
ATOM     70  F   UNL A   1      44.348  30.865  26.627  1.00  0.00    -0.206 F 
ATOM     71  C   UNL A   1      46.927  33.347  26.620  1.00  0.00     0.006 A 
ENDBRANCH  50  64
BRANCH  51  72
ATOM     72  C   UNL A   1      38.749  28.532  29.329  1.00  0.00     0.057 A 
ATOM     73  C   UNL A   1      37.862  28.586  30.414  1.00  0.00     0.134 A 
ATOM     74  C   UNL A   1      38.358  29.236  28.177  1.00  0.00     0.134 A 
ATOM     75  F   UNL A   1      38.160  27.973  31.568  1.00  0.00    -0.206 F 
ATOM     76  C   UNL A   1      36.676  29.332  30.371  1.00  0.00     0.040 A 
ATOM     77  C   UNL A   1      37.175  29.982  28.120  1.00  0.00     0.040 A 
ATOM     78  F   UNL A   1      39.155  29.303  27.101  1.00  0.00    -0.206 F 
ATOM     79  C   UNL A   1      36.338  30.046  29.227  1.00  0.00     0.006 A 
ENDBRANCH  51  72
BRANCH  63  80
ATOM     80  C   UNL A   1      44.161  27.241  32.257  1.00  0.00     0.057 A 
ATOM     81  C   UNL A   1      44.092  25.859  32.023  1.00  0.00     0.134 A 
ATOM     82  C   UNL A   1      44.210  27.650  33.593  1.00  0.00     0.134 A 
ATOM     83  F   UNL A   1      44.139  25.360  30.783  1.00  0.00    -0.206 F 
ATOM     84  C   UNL A   1      44.034  24.932  33.070  1.00  0.00     0.040 A 
ATOM     85  C   UNL A   1      44.187  26.734  34.649  1.00  0.00     0.040 A 
ATOM     86  F   UNL A   1      44.332  28.952  33.897  1.00  0.00    -0.206 F 
ATOM     87  C   UNL A   1      44.089  25.371  34.389  1.00  0.00     0.006 A 
ENDBRANCH  63  80
ENDBRANCH  37  38
ENDBRANCH  29  32
ENDBRANCH  27  28
ENDBRANCH  26  27
ENDBRANCH  25  26
ENDBRANCH   1  25
TORSDOF 15
ENDMDL
MODEL 2
REMARK VINA RESULT:     -11.3      1.287      2.042
REMARK SMILES Cc1nsc(NC(=O)N2CCC[C@@H](C)C2)c1C(=O)NCCCCCCNC(=O)c1ccc(-c2c3nc(c(-c4c(F)cccc4F)c4ccc([nH]4)c(-c4c(F)cccc4F)c4nc(c(-c5c(F)cccc5F)c5ccc2[nH]5)C=C4)C=C3)cc1
REMARK SMILES IDX 22 1 21 2 20 3 19 4 17 5 18 6 16 8 1 9 2 10 3 11 4 12 5 13
REMARK SMILES IDX 6 14 7 15 8 17 9 18 10 19 15 20 11 21 13 22 12 23 14 24
REMARK SMILES IDX 23 25 24 26 25 27 26 28 27 29 28 31 29 32 30 33 82 34 31 35
REMARK SMILES IDX 81 36 32 37 33 38 34 39 75 40 35 41 80 42 74 43 76 44 36 45
REMARK SMILES IDX 79 46 73 47 72 48 37 50 63 51 46 52 62 53 47 54 50 55 61 56
REMARK SMILES IDX 77 57 48 58 49 59 60 61 78 62 51 63 38 64 39 65 44 66 40 67
REMARK SMILES IDX 41 68 43 69 45 70 42 71 64 72 65 73 70 74 66 75 67 76 69 77
REMARK SMILES IDX 71 78 68 79 52 80 53 81 58 82 54 83 55 84 57 85 59 86 56 87
REMARK H PARENT 19 7 6 16 26 30 76 49 50 60
REMARK Flexibility Score: inf
ROOT
ATOM      1  C   UNL A   1      39.487  22.325  26.483  1.00  0.00     0.002 C 
ENDROOT
BRANCH   1   2
ATOM      2  C   UNL A   1      38.862  23.715  26.499  1.00  0.00     0.021 C 
BRANCH   2   3
ATOM      3  C   UNL A   1      37.438  23.861  25.991  1.00  0.00     0.116 C 
BRANCH   3   4
ATOM      4  N   UNL A   1      36.390  23.180  26.713  1.00  0.00    -0.352 N 
ATOM      5  C   UNL A   1      35.166  22.741  26.244  1.00  0.00     0.256 C 
ATOM      6  O   UNL A   1      34.464  22.082  27.013  1.00  0.00    -0.269 OA
ATOM      7  H   UNL A   1      36.572  23.005  27.664  1.00  0.00     0.163 HD
BRANCH   5   8
ATOM      8  C   UNL A   1      34.661  23.186  24.948  1.00  0.00     0.097 A 
ATOM      9  C   UNL A   1      36.517  22.626  23.127  1.00  0.00     0.069 C 
ATOM     10  C   UNL A   1      35.281  23.286  23.636  1.00  0.00     0.066 A 
ATOM     11  N   UNL A   1      34.664  24.094  22.770  1.00  0.00    -0.195 NA
ATOM     12  S   UNL A   1      33.261  24.612  23.468  1.00  0.00    -0.017 S 
ATOM     13  C   UNL A   1      33.319  23.504  24.761  1.00  0.00     0.130 A 
BRANCH  13  14
ATOM     14  N   UNL A   1      32.216  23.215  25.538  1.00  0.00    -0.297 N 
ATOM     15  C   UNL A   1      31.499  24.045  26.352  1.00  0.00     0.322 C 
ATOM     16  H   UNL A   1      31.903  22.283  25.500  1.00  0.00     0.172 HD
ATOM     17  O   UNL A   1      30.914  23.556  27.321  1.00  0.00    -0.248 OA
BRANCH  15  18
ATOM     18  N   UNL A   1      31.431  25.392  26.071  1.00  0.00    -0.324 N 
ATOM     19  C   UNL A   1      30.301  26.040  25.399  1.00  0.00     0.121 C 
ATOM     20  C   UNL A   1      32.298  26.298  26.807  1.00  0.00     0.124 C 
ATOM     21  C   UNL A   1      30.732  27.207  24.501  1.00  0.00     0.022 C 
ATOM     22  C   UNL A   1      32.925  27.280  25.814  1.00  0.00     0.005 C 
ATOM     23  C   UNL A   1      31.825  28.091  25.114  1.00  0.00     0.007 C 
ATOM     24  C   UNL A   1      33.938  28.190  26.498  1.00  0.00     0.009 C 
ENDBRANCH  15  18
ENDBRANCH  13  14
ENDBRANCH   5   8
ENDBRANCH   3   4
ENDBRANCH   2   3
ENDBRANCH   1   2
BRANCH   1  25
ATOM     25  C   UNL A   1      40.547  21.996  27.540  1.00  0.00     0.002 C 
BRANCH  25  26
ATOM     26  C   UNL A   1      41.351  20.695  27.404  1.00  0.00     0.021 C 
BRANCH  26  27
ATOM     27  C   UNL A   1      41.547  20.187  25.987  1.00  0.00     0.116 C 
BRANCH  27  28
ATOM     28  N   UNL A   1      42.934  19.851  25.668  1.00  0.00    -0.352 N 
ATOM     29  C   UNL A   1      43.975  20.709  25.343  1.00  0.00     0.251 C 
ATOM     30  H   UNL A   1      43.158  18.893  25.686  1.00  0.00     0.163 HD
ATOM     31  O   UNL A   1      44.964  20.309  24.756  1.00  0.00    -0.269 OA
BRANCH  29  32
ATOM     32  C   UNL A   1      43.863  22.127  25.736  1.00  0.00     0.039 A 
ATOM     33  C   UNL A   1      43.125  23.052  24.993  1.00  0.00     0.014 A 
ATOM     34  C   UNL A   1      44.508  22.515  26.905  1.00  0.00     0.014 A 
ATOM     35  C   UNL A   1      42.996  24.348  25.488  1.00  0.00     0.010 A 
ATOM     36  C   UNL A   1      44.185  23.697  27.501  1.00  0.00     0.010 A 
ATOM     37  C   UNL A   1      43.521  24.653  26.756  1.00  0.00    -0.014 A 
BRANCH  37  38
ATOM     38  C   UNL A   1      43.355  25.962  27.364  1.00  0.00     0.031 A 
ATOM     39  C   UNL A   1      44.371  26.959  26.961  1.00  0.00     0.074 A 
ATOM     40  C   UNL A   1      42.262  26.310  28.076  1.00  0.00     0.049 A 
ATOM     41  N   UNL A   1      45.361  27.382  27.671  1.00  0.00    -0.248 NA
ATOM     42  C   UNL A   1      44.394  27.423  25.567  1.00  0.00     0.031 C 
ATOM     43  C   UNL A   1      41.014  25.566  28.297  1.00  0.00     0.029 A 
ATOM     44  N   UNL A   1      42.017  27.486  28.709  1.00  0.00    -0.354 N 
ATOM     45  C   UNL A   1      46.011  28.335  26.896  1.00  0.00     0.074 A 
ATOM     46  C   UNL A   1      45.499  28.175  25.559  1.00  0.00     0.031 C 
ATOM     47  C   UNL A   1      40.076  26.392  28.814  1.00  0.00     0.029 A 
ATOM     48  C   UNL A   1      40.705  27.660  29.130  1.00  0.00     0.049 A 
ATOM     49  H   UNL A   1      42.715  28.163  28.858  1.00  0.00     0.167 HD
ATOM     50  C   UNL A   1      46.734  29.329  27.482  1.00  0.00     0.037 A 
ATOM     51  C   UNL A   1      40.187  28.784  29.685  1.00  0.00     0.037 A 
ATOM     52  C   UNL A   1      46.966  29.039  28.879  1.00  0.00     0.049 A 
ATOM     53  C   UNL A   1      41.330  29.572  30.215  1.00  0.00     0.074 A 
ATOM     54  C   UNL A   1      47.578  28.009  29.569  1.00  0.00     0.029 A 
ATOM     55  N   UNL A   1      46.169  29.679  29.800  1.00  0.00    -0.354 N 
ATOM     56  N   UNL A   1      42.062  29.191  31.225  1.00  0.00    -0.248 NA
ATOM     57  C   UNL A   1      41.957  30.534  29.319  1.00  0.00     0.031 C 
ATOM     58  C   UNL A   1      46.740  27.779  30.701  1.00  0.00     0.029 A 
ATOM     59  C   UNL A   1      45.718  28.730  30.682  1.00  0.00     0.049 A 
ATOM     60  H   UNL A   1      45.961  30.641  29.822  1.00  0.00     0.167 HD
ATOM     61  C   UNL A   1      43.362  29.504  30.858  1.00  0.00     0.074 A 
ATOM     62  C   UNL A   1      43.227  30.402  29.711  1.00  0.00     0.031 C 
ATOM     63  C   UNL A   1      44.424  28.779  31.321  1.00  0.00     0.037 A 
BRANCH  50  64
ATOM     64  C   UNL A   1      46.898  30.723  26.930  1.00  0.00     0.057 A 
ATOM     65  C   UNL A   1      48.179  31.308  26.938  1.00  0.00     0.134 A 
ATOM     66  C   UNL A   1      45.837  31.614  26.677  1.00  0.00     0.134 A 
ATOM     67  F   UNL A   1      49.274  30.565  27.163  1.00  0.00    -0.206 F 
ATOM     68  C   UNL A   1      48.377  32.686  26.810  1.00  0.00     0.040 A 
ATOM     69  C   UNL A   1      46.029  32.986  26.495  1.00  0.00     0.040 A 
ATOM     70  F   UNL A   1      44.555  31.233  26.693  1.00  0.00    -0.206 F 
ATOM     71  C   UNL A   1      47.297  33.533  26.600  1.00  0.00     0.006 A 
ENDBRANCH  50  64
BRANCH  51  72
ATOM     72  C   UNL A   1      38.837  29.368  29.509  1.00  0.00     0.057 A 
ATOM     73  C   UNL A   1      38.332  29.644  28.230  1.00  0.00     0.134 A 
ATOM     74  C   UNL A   1      37.902  29.388  30.559  1.00  0.00     0.134 A 
ATOM     75  F   UNL A   1      39.140  29.617  27.160  1.00  0.00    -0.206 F 
ATOM     76  C   UNL A   1      36.971  29.884  28.001  1.00  0.00     0.040 A 
ATOM     77  C   UNL A   1      36.540  29.630  30.344  1.00  0.00     0.040 A 
ATOM     78  F   UNL A   1      38.261  29.080  31.814  1.00  0.00    -0.206 F 
ATOM     79  C   UNL A   1      36.068  29.862  29.058  1.00  0.00     0.006 A 
ENDBRANCH  51  72
BRANCH  63  80
ATOM     80  C   UNL A   1      44.178  27.787  32.427  1.00  0.00     0.057 A 
ATOM     81  C   UNL A   1      43.953  26.416  32.226  1.00  0.00     0.134 A 
ATOM     82  C   UNL A   1      44.329  28.212  33.750  1.00  0.00     0.134 A 
ATOM     83  F   UNL A   1      43.892  25.893  30.997  1.00  0.00    -0.206 F 
ATOM     84  C   UNL A   1      43.845  25.519  33.296  1.00  0.00     0.040 A 
ATOM     85  C   UNL A   1      44.257  27.323  34.826  1.00  0.00     0.040 A 
ATOM     86  F   UNL A   1      44.601  29.499  34.020  1.00  0.00    -0.206 F 
ATOM     87  C   UNL A   1      44.004  25.973  34.601  1.00  0.00     0.006 A 
ENDBRANCH  63  80
ENDBRANCH  37  38
ENDBRANCH  29  32
ENDBRANCH  27  28
ENDBRANCH  26  27
ENDBRANCH  25  26
ENDBRANCH   1  25
TORSDOF 15
ENDMDL
MODEL 3
REMARK VINA RESULT:     -10.9      4.603      9.863
REMARK SMILES Cc1nsc(NC(=O)N2CCC[C@@H](C)C2)c1C(=O)NCCCCCCNC(=O)c1ccc(-c2c3nc(c(-c4c(F)cccc4F)c4ccc([nH]4)c(-c4c(F)cccc4F)c4nc(c(-c5c(F)cccc5F)c5ccc2[nH]5)C=C4)C=C3)cc1
REMARK SMILES IDX 22 1 21 2 20 3 19 4 17 5 18 6 16 8 1 9 2 10 3 11 4 12 5 13
REMARK SMILES IDX 6 14 7 15 8 17 9 18 10 19 15 20 11 21 13 22 12 23 14 24
REMARK SMILES IDX 23 25 24 26 25 27 26 28 27 29 28 31 29 32 30 33 82 34 31 35
REMARK SMILES IDX 81 36 32 37 33 38 34 39 75 40 35 41 80 42 74 43 76 44 36 45
REMARK SMILES IDX 79 46 73 47 72 48 37 50 63 51 46 52 62 53 47 54 50 55 61 56
REMARK SMILES IDX 77 57 48 58 49 59 60 61 78 62 51 63 38 64 39 65 44 66 40 67
REMARK SMILES IDX 41 68 43 69 45 70 42 71 64 72 65 73 70 74 66 75 67 76 69 77
REMARK SMILES IDX 71 78 68 79 52 80 53 81 58 82 54 83 55 84 57 85 59 86 56 87
REMARK H PARENT 19 7 6 16 26 30 76 49 50 60
REMARK Flexibility Score: inf
ROOT
ATOM      1  C   UNL A   1      33.698  32.489  27.820  1.00  0.00     0.002 C 
ENDROOT
BRANCH   1   2
ATOM      2  C   UNL A   1      34.799  31.435  27.805  1.00  0.00     0.021 C 
BRANCH   2   3
ATOM      3  C   UNL A   1      34.478  30.079  27.201  1.00  0.00     0.116 C 
BRANCH   3   4
ATOM      4  N   UNL A   1      33.465  29.277  27.843  1.00  0.00    -0.352 N 
ATOM      5  C   UNL A   1      32.464  28.524  27.259  1.00  0.00     0.256 C 
ATOM      6  O   UNL A   1      31.770  27.825  27.999  1.00  0.00    -0.269 OA
ATOM      7  H   UNL A   1      33.491  29.263  28.827  1.00  0.00     0.163 HD
BRANCH   5   8
ATOM      8  C   UNL A   1      32.139  28.685  25.844  1.00  0.00     0.097 A 
ATOM      9  C   UNL A   1      30.942  31.044  25.559  1.00  0.00     0.069 C 
ATOM     10  C   UNL A   1      31.357  29.679  25.125  1.00  0.00     0.066 A 
ATOM     11  N   UNL A   1      30.939  29.312  23.910  1.00  0.00    -0.195 NA
ATOM     12  S   UNL A   1      31.609  27.844  23.565  1.00  0.00    -0.017 S 
ATOM     13  C   UNL A   1      32.704  27.868  24.870  1.00  0.00     0.130 A 
BRANCH  13  14
ATOM     14  N   UNL A   1      33.800  27.031  24.932  1.00  0.00    -0.297 N 
ATOM     15  C   UNL A   1      33.869  25.737  25.363  1.00  0.00     0.322 C 
ATOM     16  H   UNL A   1      34.649  27.422  24.623  1.00  0.00     0.172 HD
ATOM     17  O   UNL A   1      34.936  25.329  25.827  1.00  0.00    -0.248 OA
BRANCH  15  18
ATOM     18  N   UNL A   1      32.765  24.919  25.260  1.00  0.00    -0.324 N 
ATOM     19  C   UNL A   1      31.607  24.978  26.157  1.00  0.00     0.121 C 
ATOM     20  C   UNL A   1      32.519  24.244  23.996  1.00  0.00     0.124 C 
ATOM     21  C   UNL A   1      30.976  23.602  26.405  1.00  0.00     0.022 C 
ATOM     22  C   UNL A   1      32.159  22.786  24.290  1.00  0.00     0.005 C 
ATOM     23  C   UNL A   1      30.889  22.723  25.153  1.00  0.00     0.007 C 
ATOM     24  C   UNL A   1      31.999  21.983  23.005  1.00  0.00     0.009 C 
ENDBRANCH  15  18
ENDBRANCH  13  14
ENDBRANCH   5   8
ENDBRANCH   3   4
ENDBRANCH   2   3
ENDBRANCH   1   2
BRANCH   1  25
ATOM     25  C   UNL A   1      34.060  33.909  28.272  1.00  0.00     0.002 C 
BRANCH  25  26
ATOM     26  C   UNL A   1      32.948  34.829  28.792  1.00  0.00     0.021 C 
BRANCH  26  27
ATOM     27  C   UNL A   1      33.407  36.009  29.628  1.00  0.00     0.116 C 
BRANCH  27  28
ATOM     28  N   UNL A   1      32.768  36.085  30.942  1.00  0.00    -0.352 N 
ATOM     29  C   UNL A   1      32.945  35.250  32.035  1.00  0.00     0.251 C 
ATOM     30  H   UNL A   1      32.130  36.824  31.066  1.00  0.00     0.163 HD
ATOM     31  O   UNL A   1      32.116  35.189  32.925  1.00  0.00    -0.269 OA
BRANCH  29  32
ATOM     32  C   UNL A   1      34.174  34.436  32.103  1.00  0.00     0.039 A 
ATOM     33  C   UNL A   1      34.176  33.062  31.850  1.00  0.00     0.014 A 
ATOM     34  C   UNL A   1      35.358  35.099  32.409  1.00  0.00     0.014 A 
ATOM     35  C   UNL A   1      35.397  32.390  31.845  1.00  0.00     0.010 A 
ATOM     36  C   UNL A   1      36.557  34.497  32.168  1.00  0.00     0.010 A 
ATOM     37  C   UNL A   1      36.585  33.126  31.991  1.00  0.00    -0.014 A 
BRANCH  37  38
ATOM     38  C   UNL A   1      37.893  32.500  31.917  1.00  0.00     0.031 A 
ATOM     39  C   UNL A   1      38.611  32.425  33.210  1.00  0.00     0.074 A 
ATOM     40  C   UNL A   1      38.343  31.859  30.818  1.00  0.00     0.049 A 
ATOM     41  N   UNL A   1      39.608  33.153  33.582  1.00  0.00    -0.248 NA
ATOM     42  C   UNL A   1      38.071  31.563  34.270  1.00  0.00     0.031 C 
ATOM     43  C   UNL A   1      37.641  31.548  29.565  1.00  0.00     0.029 A 
ATOM     44  N   UNL A   1      39.551  31.268  30.630  1.00  0.00    -0.354 N 
ATOM     45  C   UNL A   1      39.969  32.695  34.844  1.00  0.00     0.074 A 
ATOM     46  C   UNL A   1      38.880  31.865  35.290  1.00  0.00     0.031 C 
ATOM     47  C   UNL A   1      38.354  30.644  28.855  1.00  0.00     0.029 A 
ATOM     48  C   UNL A   1      39.636  30.455  29.507  1.00  0.00     0.049 A 
ATOM     49  H   UNL A   1      40.308  31.405  31.243  1.00  0.00     0.167 HD
ATOM     50  C   UNL A   1      41.243  32.849  35.299  1.00  0.00     0.037 A 
ATOM     51  C   UNL A   1      40.691  29.677  29.163  1.00  0.00     0.037 A 
ATOM     52  C   UNL A   1      41.973  33.782  34.470  1.00  0.00     0.049 A 
ATOM     53  C   UNL A   1      41.878  30.214  29.878  1.00  0.00     0.074 A 
ATOM     54  C   UNL A   1      41.801  35.107  34.115  1.00  0.00     0.029 A 
ATOM     55  N   UNL A   1      42.840  33.259  33.539  1.00  0.00    -0.354 N 
ATOM     56  N   UNL A   1      42.413  31.374  29.614  1.00  0.00    -0.248 NA
ATOM     57  C   UNL A   1      42.163  29.683  31.203  1.00  0.00     0.031 C 
ATOM     58  C   UNL A   1      42.152  35.164  32.733  1.00  0.00     0.029 A 
ATOM     59  C   UNL A   1      42.597  33.897  32.349  1.00  0.00     0.049 A 
ATOM     60  H   UNL A   1      43.512  32.557  33.697  1.00  0.00     0.167 HD
ATOM     61  C   UNL A   1      42.718  31.913  30.855  1.00  0.00     0.074 A 
ATOM     62  C   UNL A   1      42.617  30.793  31.791  1.00  0.00     0.031 C 
ATOM     63  C   UNL A   1      42.732  33.264  31.057  1.00  0.00     0.037 A 
BRANCH  50  64
ATOM     64  C   UNL A   1      41.955  31.895  36.225  1.00  0.00     0.057 A 
ATOM     65  C   UNL A   1      42.615  32.415  37.354  1.00  0.00     0.134 A 
ATOM     66  C   UNL A   1      42.274  30.561  35.909  1.00  0.00     0.134 A 
ATOM     67  F   UNL A   1      42.394  33.674  37.764  1.00  0.00    -0.206 F 
ATOM     68  C   UNL A   1      43.594  31.697  38.049  1.00  0.00     0.040 A 
ATOM     69  C   UNL A   1      43.213  29.817  36.628  1.00  0.00     0.040 A 
ATOM     70  F   UNL A   1      41.781  29.935  34.834  1.00  0.00    -0.206 F 
ATOM     71  C   UNL A   1      43.905  30.397  37.678  1.00  0.00     0.006 A 
ENDBRANCH  50  64
BRANCH  51  72
ATOM     72  C   UNL A   1      40.688  28.337  28.530  1.00  0.00     0.057 A 
ATOM     73  C   UNL A   1      40.011  27.262  29.124  1.00  0.00     0.134 A 
ATOM     74  C   UNL A   1      41.087  28.154  27.195  1.00  0.00     0.134 A 
ATOM     75  F   UNL A   1      39.562  27.352  30.384  1.00  0.00    -0.206 F 
ATOM     76  C   UNL A   1      39.711  26.088  28.418  1.00  0.00     0.040 A 
ATOM     77  C   UNL A   1      40.797  26.985  26.481  1.00  0.00     0.040 A 
ATOM     78  F   UNL A   1      41.688  29.137  26.509  1.00  0.00    -0.206 F 
ATOM     79  C   UNL A   1      40.091  25.954  27.087  1.00  0.00     0.006 A 
ENDBRANCH  51  72
BRANCH  63  80
ATOM     80  C   UNL A   1      42.648  34.163  29.852  1.00  0.00     0.057 A 
ATOM     81  C   UNL A   1      41.456  34.715  29.355  1.00  0.00     0.134 A 
ATOM     82  C   UNL A   1      43.838  34.610  29.269  1.00  0.00     0.134 A 
ATOM     83  F   UNL A   1      40.273  34.428  29.909  1.00  0.00    -0.206 F 
ATOM     84  C   UNL A   1      41.449  35.636  28.302  1.00  0.00     0.040 A 
ATOM     85  C   UNL A   1      43.848  35.555  28.239  1.00  0.00     0.040 A 
ATOM     86  F   UNL A   1      45.021  34.171  29.727  1.00  0.00    -0.206 F 
ATOM     87  C   UNL A   1      42.650  36.064  27.746  1.00  0.00     0.006 A 
ENDBRANCH  63  80
ENDBRANCH  37  38
ENDBRANCH  29  32
ENDBRANCH  27  28
ENDBRANCH  26  27
ENDBRANCH  25  26
ENDBRANCH   1  25
TORSDOF 15
ENDMDL
