MODEL 1
REMARK VINA RESULT:     -11.3      0.000      0.000
REMARK SMILES CC(C)n1ncnc1C[C@H](C(=O)NCCCCCCNC(=O)c1ccc(-c2c3nc(c(-c4c(F)cccc4F)c4ccc([nH]4)c(-c4c(F)cccc4F)c4nc(c(-c5c(F)cccc5F)c5ccc2[nH]5)C=C4)C=C3)cc1)c1ccccc1F
REMARK SMILES IDX 16 1 15 2 14 3 13 4 11 5 12 6 10 8 9 9 8 10 4 11 5 12 6 13
REMARK SMILES IDX 7 14 2 15 1 16 3 17 77 18 78 19 82 20 79 21 81 22 83 23
REMARK SMILES IDX 80 24 17 25 18 26 19 27 20 28 21 29 22 31 23 32 24 33 76 34
REMARK SMILES IDX 25 35 75 36 26 37 27 38 28 39 69 40 29 41 74 42 68 43 70 44
REMARK SMILES IDX 30 45 73 46 67 47 66 48 31 50 57 51 40 52 56 53 41 54 44 55
REMARK SMILES IDX 55 56 71 57 42 58 43 59 54 61 72 62 45 63 32 64 33 65 38 66
REMARK SMILES IDX 34 67 35 68 37 69 39 70 36 71 58 72 59 73 64 74 60 75 61 76
REMARK SMILES IDX 63 77 65 78 62 79 46 80 47 81 52 82 48 83 49 84 51 85 53 86
REMARK SMILES IDX 50 87
REMARK H PARENT 13 7 20 30 70 49 44 60
REMARK Flexibility Score: inf
ROOT
ATOM      1  C   UNL A   1      39.581  21.971  26.471  1.00  0.00     0.002 C 
ENDROOT
BRANCH   1   2
ATOM      2  C   UNL A   1      39.078  23.398  26.261  1.00  0.00     0.021 C 
BRANCH   2   3
ATOM      3  C   UNL A   1      37.632  23.538  25.821  1.00  0.00     0.116 C 
BRANCH   3   4
ATOM      4  N   UNL A   1      37.305  23.037  24.492  1.00  0.00    -0.356 N 
ATOM      5  C   UNL A   1      36.195  23.344  23.732  1.00  0.00     0.228 C 
ATOM      6  O   UNL A   1      36.188  23.012  22.544  1.00  0.00    -0.274 OA
ATOM      7  H   UNL A   1      37.949  22.409  24.092  1.00  0.00     0.163 HD
BRANCH   5   8
ATOM      8  C   UNL A   1      34.940  23.980  24.386  1.00  0.00     0.119 C 
BRANCH   8   9
ATOM      9  C   UNL A   1      34.203  24.558  23.128  1.00  0.00     0.095 C 
BRANCH   9  10
ATOM     10  C   UNL A   1      33.950  26.018  23.026  1.00  0.00     0.128 A 
ATOM     11  N   UNL A   1      33.740  26.936  24.036  1.00  0.00    -0.248 N 
ATOM     12  N   UNL A   1      33.490  28.157  23.493  1.00  0.00    -0.159 NA
ATOM     13  C   UNL A   1      33.610  27.925  22.191  1.00  0.00     0.246 A 
ATOM     14  N   UNL A   1      33.923  26.649  21.864  1.00  0.00    -0.220 NA
BRANCH  11  15
ATOM     15  C   UNL A   1      33.624  26.824  25.490  1.00  0.00     0.103 C 
ATOM     16  C   UNL A   1      34.042  28.039  26.319  1.00  0.00     0.033 C 
ATOM     17  C   UNL A   1      32.187  26.446  25.898  1.00  0.00     0.033 C 
ENDBRANCH  11  15
ENDBRANCH   9  10
ENDBRANCH   8   9
BRANCH   8  18
ATOM     18  C   UNL A   1      34.268  23.042  25.397  1.00  0.00     0.001 A 
ATOM     19  C   UNL A   1      34.105  23.406  26.746  1.00  0.00     0.007 A 
ATOM     20  C   UNL A   1      33.844  21.759  25.061  1.00  0.00     0.127 A 
ATOM     21  C   UNL A   1      33.911  22.431  27.732  1.00  0.00     0.001 A 
ATOM     22  C   UNL A   1      33.678  20.769  26.026  1.00  0.00     0.039 A 
ATOM     23  F   UNL A   1      33.555  21.453  23.791  1.00  0.00    -0.207 F 
ATOM     24  C   UNL A   1      33.780  21.095  27.372  1.00  0.00     0.003 A 
ENDBRANCH   8  18
ENDBRANCH   5   8
ENDBRANCH   3   4
ENDBRANCH   2   3
ENDBRANCH   1   2
BRANCH   1  25
ATOM     25  C   UNL A   1      40.619  21.732  27.577  1.00  0.00     0.002 C 
BRANCH  25  26
ATOM     26  C   UNL A   1      41.684  20.647  27.364  1.00  0.00     0.021 C 
BRANCH  26  27
ATOM     27  C   UNL A   1      41.777  20.094  25.952  1.00  0.00     0.116 C 
BRANCH  27  28
ATOM     28  N   UNL A   1      43.143  19.778  25.536  1.00  0.00    -0.352 N 
ATOM     29  C   UNL A   1      44.143  20.659  25.155  1.00  0.00     0.251 C 
ATOM     30  H   UNL A   1      43.381  18.824  25.525  1.00  0.00     0.163 HD
ATOM     31  O   UNL A   1      45.097  20.286  24.491  1.00  0.00    -0.269 OA
BRANCH  29  32
ATOM     32  C   UNL A   1      44.037  22.067  25.581  1.00  0.00     0.039 A 
ATOM     33  C   UNL A   1      43.191  22.976  24.937  1.00  0.00     0.014 A 
ATOM     34  C   UNL A   1      44.794  22.456  26.679  1.00  0.00     0.014 A 
ATOM     35  C   UNL A   1      43.062  24.259  25.468  1.00  0.00     0.010 A 
ATOM     36  C   UNL A   1      44.514  23.635  27.310  1.00  0.00     0.010 A 
ATOM     37  C   UNL A   1      43.717  24.573  26.669  1.00  0.00    -0.014 A 
BRANCH  37  38
ATOM     38  C   UNL A   1      43.511  25.846  27.348  1.00  0.00     0.031 A 
ATOM     39  C   UNL A   1      44.487  26.903  26.971  1.00  0.00     0.074 A 
ATOM     40  C   UNL A   1      42.386  26.113  28.050  1.00  0.00     0.049 A 
ATOM     41  N   UNL A   1      45.387  27.449  27.717  1.00  0.00    -0.248 NA
ATOM     42  C   UNL A   1      44.576  27.296  25.553  1.00  0.00     0.031 C 
ATOM     43  C   UNL A   1      41.196  25.267  28.221  1.00  0.00     0.029 A 
ATOM     44  N   UNL A   1      42.017  27.262  28.678  1.00  0.00    -0.354 N 
ATOM     45  C   UNL A   1      46.003  28.416  26.928  1.00  0.00     0.074 A 
ATOM     46  C   UNL A   1      45.612  28.136  25.572  1.00  0.00     0.031 C 
ATOM     47  C   UNL A   1      40.168  26.010  28.689  1.00  0.00     0.029 A 
ATOM     48  C   UNL A   1      40.669  27.329  29.021  1.00  0.00     0.049 A 
ATOM     49  H   UNL A   1      42.652  27.988  28.874  1.00  0.00     0.167 HD
ATOM     50  C   UNL A   1      46.560  29.524  27.493  1.00  0.00     0.037 A 
ATOM     51  C   UNL A   1      40.013  28.403  29.526  1.00  0.00     0.037 A 
ATOM     52  C   UNL A   1      46.747  29.337  28.912  1.00  0.00     0.049 A 
ATOM     53  C   UNL A   1      41.039  29.327  30.066  1.00  0.00     0.074 A 
ATOM     54  C   UNL A   1      47.447  28.440  29.695  1.00  0.00     0.029 A 
ATOM     55  N   UNL A   1      45.828  29.922  29.748  1.00  0.00    -0.354 N 
ATOM     56  N   UNL A   1      41.773  29.062  31.111  1.00  0.00    -0.248 NA
ATOM     57  C   UNL A   1      41.572  30.336  29.165  1.00  0.00     0.031 C 
ATOM     58  C   UNL A   1      46.600  28.186  30.814  1.00  0.00     0.029 A 
ATOM     59  C   UNL A   1      45.471  28.998  30.692  1.00  0.00     0.049 A 
ATOM     60  H   UNL A   1      45.488  30.844  29.681  1.00  0.00     0.167 HD
ATOM     61  C   UNL A   1      43.038  29.521  30.775  1.00  0.00     0.074 A 
ATOM     62  C   UNL A   1      42.833  30.376  29.607  1.00  0.00     0.031 C 
ATOM     63  C   UNL A   1      44.156  28.928  31.288  1.00  0.00     0.037 A 
BRANCH  50  64
ATOM     64  C   UNL A   1      46.551  30.904  26.870  1.00  0.00     0.057 A 
ATOM     65  C   UNL A   1      47.744  31.651  26.862  1.00  0.00     0.134 A 
ATOM     66  C   UNL A   1      45.387  31.639  26.568  1.00  0.00     0.134 A 
ATOM     67  F   UNL A   1      48.922  31.072  27.135  1.00  0.00    -0.206 F 
ATOM     68  C   UNL A   1      47.762  33.038  26.669  1.00  0.00     0.040 A 
ATOM     69  C   UNL A   1      45.401  33.016  26.321  1.00  0.00     0.040 A 
ATOM     70  F   UNL A   1      44.163  31.102  26.590  1.00  0.00    -0.206 F 
ATOM     71  C   UNL A   1      46.585  33.728  26.409  1.00  0.00     0.006 A 
ENDBRANCH  50  64
BRANCH  51  72
ATOM     72  C   UNL A   1      38.608  28.826  29.329  1.00  0.00     0.057 A 
ATOM     73  C   UNL A   1      37.716  28.904  30.409  1.00  0.00     0.134 A 
ATOM     74  C   UNL A   1      38.190  29.445  28.138  1.00  0.00     0.134 A 
ATOM     75  F   UNL A   1      38.040  28.376  31.598  1.00  0.00    -0.206 F 
ATOM     76  C   UNL A   1      36.496  29.587  30.322  1.00  0.00     0.040 A 
ATOM     77  C   UNL A   1      36.972  30.128  28.036  1.00  0.00     0.040 A 
ATOM     78  F   UNL A   1      38.992  29.489  27.065  1.00  0.00    -0.206 F 
ATOM     79  C   UNL A   1      36.127  30.215  29.136  1.00  0.00     0.006 A 
ENDBRANCH  51  72
BRANCH  63  80
ATOM     80  C   UNL A   1      43.974  27.954  32.422  1.00  0.00     0.057 A 
ATOM     81  C   UNL A   1      43.869  26.562  32.267  1.00  0.00     0.134 A 
ATOM     82  C   UNL A   1      44.051  28.436  33.732  1.00  0.00     0.134 A 
ATOM     83  F   UNL A   1      43.886  25.994  31.056  1.00  0.00    -0.206 F 
ATOM     84  C   UNL A   1      43.798  25.698  33.365  1.00  0.00     0.040 A 
ATOM     85  C   UNL A   1      44.015  27.582  34.837  1.00  0.00     0.040 A 
ATOM     86  F   UNL A   1      44.208  29.749  33.961  1.00  0.00    -0.206 F 
ATOM     87  C   UNL A   1      43.877  26.208  34.656  1.00  0.00     0.006 A 
ENDBRANCH  63  80
ENDBRANCH  37  38
ENDBRANCH  29  32
ENDBRANCH  27  28
ENDBRANCH  26  27
ENDBRANCH  25  26
ENDBRANCH   1  25
TORSDOF 17
ENDMDL
MODEL 2
REMARK VINA RESULT:     -11.0      4.024      8.917
REMARK SMILES CC(C)n1ncnc1C[C@H](C(=O)NCCCCCCNC(=O)c1ccc(-c2c3nc(c(-c4c(F)cccc4F)c4ccc([nH]4)c(-c4c(F)cccc4F)c4nc(c(-c5c(F)cccc5F)c5ccc2[nH]5)C=C4)C=C3)cc1)c1ccccc1F
REMARK SMILES IDX 16 1 15 2 14 3 13 4 11 5 12 6 10 8 9 9 8 10 4 11 5 12 6 13
REMARK SMILES IDX 7 14 2 15 1 16 3 17 77 18 78 19 82 20 79 21 81 22 83 23
REMARK SMILES IDX 80 24 17 25 18 26 19 27 20 28 21 29 22 31 23 32 24 33 76 34
REMARK SMILES IDX 25 35 75 36 26 37 27 38 28 39 69 40 29 41 74 42 68 43 70 44
REMARK SMILES IDX 30 45 73 46 67 47 66 48 31 50 57 51 40 52 56 53 41 54 44 55
REMARK SMILES IDX 55 56 71 57 42 58 43 59 54 61 72 62 45 63 32 64 33 65 38 66
REMARK SMILES IDX 34 67 35 68 37 69 39 70 36 71 58 72 59 73 64 74 60 75 61 76
REMARK SMILES IDX 63 77 65 78 62 79 46 80 47 81 52 82 48 83 49 84 51 85 53 86
REMARK SMILES IDX 50 87
REMARK H PARENT 13 7 20 30 70 49 44 60
REMARK Flexibility Score: inf
ROOT
ATOM      1  C   UNL A   1      32.995  29.637  26.317  1.00  0.00     0.002 C 
ENDROOT
BRANCH   1   2
ATOM      2  C   UNL A   1      33.527  28.438  25.536  1.00  0.00     0.021 C 
BRANCH   2   3
ATOM      3  C   UNL A   1      33.272  27.074  26.151  1.00  0.00     0.116 C 
BRANCH   3   4
ATOM      4  N   UNL A   1      31.903  26.794  26.567  1.00  0.00    -0.356 N 
ATOM      5  C   UNL A   1      30.940  26.102  25.861  1.00  0.00     0.228 C 
ATOM      6  O   UNL A   1      29.913  25.761  26.453  1.00  0.00    -0.274 OA
ATOM      7  H   UNL A   1      31.637  27.138  27.449  1.00  0.00     0.163 HD
BRANCH   5   8
ATOM      8  C   UNL A   1      31.093  25.866  24.336  1.00  0.00     0.119 C 
BRANCH   8   9
ATOM      9  C   UNL A   1      30.681  24.358  24.220  1.00  0.00     0.095 C 
BRANCH   9  10
ATOM     10  C   UNL A   1      31.547  23.308  24.813  1.00  0.00     0.128 A 
ATOM     11  N   UNL A   1      32.922  23.187  24.770  1.00  0.00    -0.248 N 
ATOM     12  N   UNL A   1      33.297  22.042  25.399  1.00  0.00    -0.159 NA
ATOM     13  C   UNL A   1      32.139  21.557  25.831  1.00  0.00     0.246 A 
ATOM     14  N   UNL A   1      31.055  22.310  25.529  1.00  0.00    -0.220 NA
BRANCH  11  15
ATOM     15  C   UNL A   1      33.978  23.954  24.109  1.00  0.00     0.103 C 
ATOM     16  C   UNL A   1      35.213  24.302  24.941  1.00  0.00     0.033 C 
ATOM     17  C   UNL A   1      34.457  23.239  22.831  1.00  0.00     0.033 C 
ENDBRANCH  11  15
ENDBRANCH   9  10
ENDBRANCH   8   9
BRANCH   8  18
ATOM     18  C   UNL A   1      30.445  26.981  23.504  1.00  0.00     0.001 A 
ATOM     19  C   UNL A   1      31.218  27.874  22.738  1.00  0.00     0.007 A 
ATOM     20  C   UNL A   1      29.073  27.219  23.509  1.00  0.00     0.127 A 
ATOM     21  C   UNL A   1      30.701  29.116  22.350  1.00  0.00     0.001 A 
ATOM     22  C   UNL A   1      28.545  28.458  23.157  1.00  0.00     0.039 A 
ATOM     23  F   UNL A   1      28.219  26.240  23.827  1.00  0.00    -0.207 F 
ATOM     24  C   UNL A   1      29.380  29.439  22.636  1.00  0.00     0.003 A 
ENDBRANCH   8  18
ENDBRANCH   5   8
ENDBRANCH   3   4
ENDBRANCH   2   3
ENDBRANCH   1   2
BRANCH   1  25
ATOM     25  C   UNL A   1      31.737  30.340  25.785  1.00  0.00     0.002 C 
BRANCH  25  26
ATOM     26  C   UNL A   1      31.425  31.761  26.276  1.00  0.00     0.021 C 
BRANCH  26  27
ATOM     27  C   UNL A   1      32.367  32.305  27.337  1.00  0.00     0.116 C 
BRANCH  27  28
ATOM     28  N   UNL A   1      32.206  33.737  27.584  1.00  0.00    -0.352 N 
ATOM     29  C   UNL A   1      32.921  34.537  28.461  1.00  0.00     0.251 C 
ATOM     30  H   UNL A   1      31.504  34.189  27.063  1.00  0.00     0.163 HD
ATOM     31  O   UNL A   1      32.477  35.605  28.852  1.00  0.00    -0.269 OA
BRANCH  29  32
ATOM     32  C   UNL A   1      34.247  34.074  28.910  1.00  0.00     0.039 A 
ATOM     33  C   UNL A   1      34.430  33.408  30.126  1.00  0.00     0.014 A 
ATOM     34  C   UNL A   1      35.320  34.297  28.055  1.00  0.00     0.014 A 
ATOM     35  C   UNL A   1      35.694  32.903  30.427  1.00  0.00     0.010 A 
ATOM     36  C   UNL A   1      36.495  33.632  28.256  1.00  0.00     0.010 A 
ATOM     37  C   UNL A   1      36.719  33.005  29.473  1.00  0.00    -0.014 A 
BRANCH  37  38
ATOM     38  C   UNL A   1      38.018  32.375  29.670  1.00  0.00     0.031 A 
ATOM     39  C   UNL A   1      38.080  30.955  29.235  1.00  0.00     0.074 A 
ATOM     40  C   UNL A   1      39.125  33.092  29.973  1.00  0.00     0.049 A 
ATOM     41  N   UNL A   1      38.244  29.910  29.974  1.00  0.00    -0.248 NA
ATOM     42  C   UNL A   1      37.773  30.643  27.827  1.00  0.00     0.031 C 
ATOM     43  C   UNL A   1      39.260  34.550  30.104  1.00  0.00     0.029 A 
ATOM     44  N   UNL A   1      40.409  32.668  30.122  1.00  0.00    -0.354 N 
ATOM     45  C   UNL A   1      38.291  28.827  29.100  1.00  0.00     0.074 A 
ATOM     46  C   UNL A   1      37.795  29.309  27.838  1.00  0.00     0.031 C 
ATOM     47  C   UNL A   1      40.566  34.895  30.071  1.00  0.00     0.029 A 
ATOM     48  C   UNL A   1      41.362  33.683  30.101  1.00  0.00     0.049 A 
ATOM     49  H   UNL A   1      40.646  31.719  30.236  1.00  0.00     0.167 HD
ATOM     50  C   UNL A   1      38.990  27.702  29.421  1.00  0.00     0.037 A 
ATOM     51  C   UNL A   1      42.710  33.531  30.091  1.00  0.00     0.037 A 
ATOM     52  C   UNL A   1      39.289  27.671  30.832  1.00  0.00     0.049 A 
ATOM     53  C   UNL A   1      42.996  32.153  30.556  1.00  0.00     0.074 A 
ATOM     54  C   UNL A   1      38.536  27.676  31.990  1.00  0.00     0.029 A 
ATOM     55  N   UNL A   1      40.559  28.027  31.213  1.00  0.00    -0.354 N 
ATOM     56  N   UNL A   1      42.782  31.740  31.774  1.00  0.00    -0.248 NA
ATOM     57  C   UNL A   1      43.078  31.109  29.546  1.00  0.00     0.031 C 
ATOM     58  C   UNL A   1      39.265  28.498  32.901  1.00  0.00     0.029 A 
ATOM     59  C   UNL A   1      40.455  28.880  32.279  1.00  0.00     0.049 A 
ATOM     60  H   UNL A   1      41.397  27.723  30.794  1.00  0.00     0.167 HD
ATOM     61  C   UNL A   1      42.261  30.464  31.624  1.00  0.00     0.074 A 
ATOM     62  C   UNL A   1      42.552  30.095  30.239  1.00  0.00     0.031 C 
ATOM     63  C   UNL A   1      41.386  29.954  32.540  1.00  0.00     0.037 A 
BRANCH  50  64
ATOM     64  C   UNL A   1      39.758  26.854  28.429  1.00  0.00     0.057 A 
ATOM     65  C   UNL A   1      40.651  27.488  27.545  1.00  0.00     0.134 A 
ATOM     66  C   UNL A   1      39.440  25.521  28.099  1.00  0.00     0.134 A 
ATOM     67  F   UNL A   1      41.034  28.758  27.745  1.00  0.00    -0.206 F 
ATOM     68  C   UNL A   1      41.110  26.877  26.371  1.00  0.00     0.040 A 
ATOM     69  C   UNL A   1      39.935  24.884  26.956  1.00  0.00     0.040 A 
ATOM     70  F   UNL A   1      38.563  24.791  28.794  1.00  0.00    -0.206 F 
ATOM     71  C   UNL A   1      40.742  25.573  26.068  1.00  0.00     0.006 A 
ENDBRANCH  50  64
BRANCH  51  72
ATOM     72  C   UNL A   1      43.747  34.371  29.451  1.00  0.00     0.057 A 
ATOM     73  C   UNL A   1      43.971  34.315  28.067  1.00  0.00     0.134 A 
ATOM     74  C   UNL A   1      44.333  35.454  30.128  1.00  0.00     0.134 A 
ATOM     75  F   UNL A   1      43.424  33.340  27.328  1.00  0.00    -0.206 F 
ATOM     76  C   UNL A   1      44.705  35.299  27.389  1.00  0.00     0.040 A 
ATOM     77  C   UNL A   1      45.071  36.442  29.464  1.00  0.00     0.040 A 
ATOM     78  F   UNL A   1      44.128  35.642  31.439  1.00  0.00    -0.206 F 
ATOM     79  C   UNL A   1      45.245  36.374  28.086  1.00  0.00     0.006 A 
ENDBRANCH  51  72
BRANCH  63  80
ATOM     80  C   UNL A   1      41.217  30.700  33.837  1.00  0.00     0.057 A 
ATOM     81  C   UNL A   1      40.257  31.701  34.061  1.00  0.00     0.134 A 
ATOM     82  C   UNL A   1      41.964  30.287  34.945  1.00  0.00     0.134 A 
ATOM     83  F   UNL A   1      39.426  32.097  33.091  1.00  0.00    -0.206 F 
ATOM     84  C   UNL A   1      40.083  32.291  35.317  1.00  0.00     0.040 A 
ATOM     85  C   UNL A   1      41.777  30.845  36.212  1.00  0.00     0.040 A 
ATOM     86  F   UNL A   1      42.862  29.298  34.822  1.00  0.00    -0.206 F 
ATOM     87  C   UNL A   1      40.842  31.859  36.399  1.00  0.00     0.006 A 
ENDBRANCH  63  80
ENDBRANCH  37  38
ENDBRANCH  29  32
ENDBRANCH  27  28
ENDBRANCH  26  27
ENDBRANCH  25  26
ENDBRANCH   1  25
TORSDOF 17
ENDMDL
MODEL 3
REMARK VINA RESULT:     -10.9      3.665      8.584
REMARK SMILES CC(C)n1ncnc1C[C@H](C(=O)NCCCCCCNC(=O)c1ccc(-c2c3nc(c(-c4c(F)cccc4F)c4ccc([nH]4)c(-c4c(F)cccc4F)c4nc(c(-c5c(F)cccc5F)c5ccc2[nH]5)C=C4)C=C3)cc1)c1ccccc1F
REMARK SMILES IDX 16 1 15 2 14 3 13 4 11 5 12 6 10 8 9 9 8 10 4 11 5 12 6 13
REMARK SMILES IDX 7 14 2 15 1 16 3 17 77 18 78 19 82 20 79 21 81 22 83 23
REMARK SMILES IDX 80 24 17 25 18 26 19 27 20 28 21 29 22 31 23 32 24 33 76 34
REMARK SMILES IDX 25 35 75 36 26 37 27 38 28 39 69 40 29 41 74 42 68 43 70 44
REMARK SMILES IDX 30 45 73 46 67 47 66 48 31 50 57 51 40 52 56 53 41 54 44 55
REMARK SMILES IDX 55 56 71 57 42 58 43 59 54 61 72 62 45 63 32 64 33 65 38 66
REMARK SMILES IDX 34 67 35 68 37 69 39 70 36 71 58 72 59 73 64 74 60 75 61 76
REMARK SMILES IDX 63 77 65 78 62 79 46 80 47 81 52 82 48 83 49 84 51 85 53 86
REMARK SMILES IDX 50 87
REMARK H PARENT 13 7 20 30 70 49 44 60
REMARK Flexibility Score: inf
ROOT
ATOM      1  C   UNL A   1      32.779  29.694  25.354  1.00  0.00     0.002 C 
ENDROOT
BRANCH   1   2
ATOM      2  C   UNL A   1      32.610  28.783  24.140  1.00  0.00     0.021 C 
BRANCH   2   3
ATOM      3  C   UNL A   1      33.614  27.652  24.010  1.00  0.00     0.116 C 
BRANCH   3   4
ATOM      4  N   UNL A   1      33.641  26.952  22.732  1.00  0.00    -0.356 N 
ATOM      5  C   UNL A   1      33.370  25.618  22.503  1.00  0.00     0.228 C 
ATOM      6  O   UNL A   1      33.217  25.243  21.338  1.00  0.00    -0.274 OA
ATOM      7  H   UNL A   1      33.882  27.490  21.944  1.00  0.00     0.163 HD
BRANCH   5   8
ATOM      8  C   UNL A   1      33.377  24.598  23.672  1.00  0.00     0.119 C 
BRANCH   8   9
ATOM      9  C   UNL A   1      32.232  23.622  23.229  1.00  0.00     0.095 C 
BRANCH   9  10
ATOM     10  C   UNL A   1      32.196  22.236  23.762  1.00  0.00     0.128 A 
ATOM     11  N   UNL A   1      31.892  21.803  25.038  1.00  0.00    -0.248 N 
ATOM     12  N   UNL A   1      32.036  20.453  25.104  1.00  0.00    -0.159 NA
ATOM     13  C   UNL A   1      32.370  20.136  23.859  1.00  0.00     0.246 A 
ATOM     14  N   UNL A   1      32.443  21.182  23.002  1.00  0.00    -0.220 NA
BRANCH  11  15
ATOM     15  C   UNL A   1      31.581  22.496  26.288  1.00  0.00     0.103 C 
ATOM     16  C   UNL A   1      32.759  23.047  27.092  1.00  0.00     0.033 C 
ATOM     17  C   UNL A   1      30.594  23.652  26.043  1.00  0.00     0.033 C 
ENDBRANCH  11  15
ENDBRANCH   9  10
ENDBRANCH   8   9
BRANCH   8  18
ATOM     18  C   UNL A   1      34.793  24.125  24.027  1.00  0.00     0.001 A 
ATOM     19  C   UNL A   1      35.536  23.302  23.161  1.00  0.00     0.007 A 
ATOM     20  C   UNL A   1      35.398  24.422  25.246  1.00  0.00     0.127 A 
ATOM     21  C   UNL A   1      36.600  22.531  23.643  1.00  0.00     0.001 A 
ATOM     22  C   UNL A   1      36.435  23.644  25.755  1.00  0.00     0.039 A 
ATOM     23  F   UNL A   1      35.011  25.491  25.951  1.00  0.00    -0.207 F 
ATOM     24  C   UNL A   1      36.995  22.644  24.971  1.00  0.00     0.003 A 
ENDBRANCH   8  18
ENDBRANCH   5   8
ENDBRANCH   3   4
ENDBRANCH   2   3
ENDBRANCH   1   2
BRANCH   1  25
ATOM     25  C   UNL A   1      31.511  30.151  26.091  1.00  0.00     0.002 C 
BRANCH  25  26
ATOM     26  C   UNL A   1      31.355  31.640  26.432  1.00  0.00     0.021 C 
BRANCH  26  27
ATOM     27  C   UNL A   1      32.517  32.261  27.188  1.00  0.00     0.116 C 
BRANCH  27  28
ATOM     28  N   UNL A   1      32.313  33.669  27.522  1.00  0.00    -0.352 N 
ATOM     29  C   UNL A   1      32.991  34.430  28.462  1.00  0.00     0.251 C 
ATOM     30  H   UNL A   1      31.608  34.135  27.017  1.00  0.00     0.163 HD
ATOM     31  O   UNL A   1      32.510  35.459  28.911  1.00  0.00    -0.269 OA
BRANCH  29  32
ATOM     32  C   UNL A   1      34.321  33.974  28.906  1.00  0.00     0.039 A 
ATOM     33  C   UNL A   1      34.513  33.321  30.128  1.00  0.00     0.014 A 
ATOM     34  C   UNL A   1      35.387  34.191  28.042  1.00  0.00     0.014 A 
ATOM     35  C   UNL A   1      35.780  32.820  30.426  1.00  0.00     0.010 A 
ATOM     36  C   UNL A   1      36.565  33.529  28.241  1.00  0.00     0.010 A 
ATOM     37  C   UNL A   1      36.798  32.915  29.464  1.00  0.00    -0.014 A 
BRANCH  37  38
ATOM     38  C   UNL A   1      38.100  32.289  29.658  1.00  0.00     0.031 A 
ATOM     39  C   UNL A   1      38.170  30.874  29.206  1.00  0.00     0.074 A 
ATOM     40  C   UNL A   1      39.202  33.008  29.973  1.00  0.00     0.049 A 
ATOM     41  N   UNL A   1      38.337  29.821  29.934  1.00  0.00    -0.248 NA
ATOM     42  C   UNL A   1      37.870  30.578  27.794  1.00  0.00     0.031 C 
ATOM     43  C   UNL A   1      39.329  34.465  30.122  1.00  0.00     0.029 A 
ATOM     44  N   UNL A   1      40.487  32.589  30.122  1.00  0.00    -0.354 N 
ATOM     45  C   UNL A   1      38.392  28.749  29.047  1.00  0.00     0.074 A 
ATOM     46  C   UNL A   1      37.898  29.243  27.789  1.00  0.00     0.031 C 
ATOM     47  C   UNL A   1      40.633  34.817  30.098  1.00  0.00     0.029 A 
ATOM     48  C   UNL A   1      41.435  33.609  30.117  1.00  0.00     0.049 A 
ATOM     49  H   UNL A   1      40.729  31.640  30.226  1.00  0.00     0.167 HD
ATOM     50  C   UNL A   1      39.095  27.625  29.357  1.00  0.00     0.037 A 
ATOM     51  C   UNL A   1      42.784  33.464  30.110  1.00  0.00     0.037 A 
ATOM     52  C   UNL A   1      39.389  27.578  30.770  1.00  0.00     0.049 A 
ATOM     53  C   UNL A   1      43.075  32.081  30.560  1.00  0.00     0.074 A 
ATOM     54  C   UNL A   1      38.632  27.566  31.925  1.00  0.00     0.029 A 
ATOM     55  N   UNL A   1      40.657  27.936  31.159  1.00  0.00    -0.354 N 
ATOM     56  N   UNL A   1      42.859  31.654  31.772  1.00  0.00    -0.248 NA
ATOM     57  C   UNL A   1      43.166  31.050  29.538  1.00  0.00     0.031 C 
ATOM     58  C   UNL A   1      39.354  28.380  32.848  1.00  0.00     0.029 A 
ATOM     59  C   UNL A   1      40.544  28.776  32.235  1.00  0.00     0.049 A 
ATOM     60  H   UNL A   1      41.498  27.641  30.740  1.00  0.00     0.167 HD
ATOM     61  C   UNL A   1      42.345  30.376  31.605  1.00  0.00     0.074 A 
ATOM     62  C   UNL A   1      42.643  30.025  30.218  1.00  0.00     0.031 C 
ATOM     63  C   UNL A   1      41.469  29.851  32.512  1.00  0.00     0.037 A 
BRANCH  50  64
ATOM     64  C   UNL A   1      39.872  26.792  28.359  1.00  0.00     0.057 A 
ATOM     65  C   UNL A   1      40.808  27.433  27.525  1.00  0.00     0.134 A 
ATOM     66  C   UNL A   1      39.530  25.481  27.970  1.00  0.00     0.134 A 
ATOM     67  F   UNL A   1      41.217  28.684  27.783  1.00  0.00    -0.206 F 
ATOM     68  C   UNL A   1      41.286  26.852  26.345  1.00  0.00     0.040 A 
ATOM     69  C   UNL A   1      40.043  24.872  26.821  1.00  0.00     0.040 A 
ATOM     70  F   UNL A   1      38.613  24.750  28.612  1.00  0.00    -0.206 F 
ATOM     71  C   UNL A   1      40.895  25.570  25.982  1.00  0.00     0.006 A 
ENDBRANCH  50  64
BRANCH  51  72
ATOM     72  C   UNL A   1      43.819  34.316  29.484  1.00  0.00     0.057 A 
ATOM     73  C   UNL A   1      44.030  34.298  28.097  1.00  0.00     0.134 A 
ATOM     74  C   UNL A   1      44.416  35.377  30.185  1.00  0.00     0.134 A 
ATOM     75  F   UNL A   1      43.471  33.347  27.336  1.00  0.00    -0.206 F 
ATOM     76  C   UNL A   1      44.762  35.296  27.440  1.00  0.00     0.040 A 
ATOM     77  C   UNL A   1      45.154  36.380  29.542  1.00  0.00     0.040 A 
ATOM     78  F   UNL A   1      44.225  35.529  31.503  1.00  0.00    -0.206 F 
ATOM     79  C   UNL A   1      45.315  36.350  28.162  1.00  0.00     0.006 A 
ENDBRANCH  51  72
BRANCH  63  80
ATOM     80  C   UNL A   1      41.291  30.581  33.817  1.00  0.00     0.057 A 
ATOM     81  C   UNL A   1      40.327  31.576  34.049  1.00  0.00     0.134 A 
ATOM     82  C   UNL A   1      42.034  30.157  34.924  1.00  0.00     0.134 A 
ATOM     83  F   UNL A   1      39.500  31.982  33.078  1.00  0.00    -0.206 F 
ATOM     84  C   UNL A   1      40.146  32.152  35.311  1.00  0.00     0.040 A 
ATOM     85  C   UNL A   1      41.839  30.699  36.196  1.00  0.00     0.040 A 
ATOM     86  F   UNL A   1      42.935  29.171  34.794  1.00  0.00    -0.206 F 
ATOM     87  C   UNL A   1      40.900  31.708  36.391  1.00  0.00     0.006 A 
ENDBRANCH  63  80
ENDBRANCH  37  38
ENDBRANCH  29  32
ENDBRANCH  27  28
ENDBRANCH  26  27
ENDBRANCH  25  26
ENDBRANCH   1  25
TORSDOF 17
ENDMDL
