MODEL 1
REMARK VINA RESULT:     -11.2      0.000      0.000
REMARK SMILES Cc1cnc(NC(=O)NC[C@H]2CC[C@H](C(=O)NCCCCCCNC(=O)c3ccc(-c4c5nc(c(-c6c(F)cccc6F)c6ccc([nH]6)c(-c6c(F)cccc6F)c6nc(c(-c7c(F)cccc7F)c7ccc4[nH]7)C=C6)C=C5)cc3)O2)s1
REMARK SMILES IDX 20 1 19 2 18 3 17 4 15 5 16 6 14 8 11 9 12 10 81 11 13 12
REMARK SMILES IDX 10 13 9 14 6 15 7 16 8 18 5 20 1 21 2 22 3 23 82 24 4 25
REMARK SMILES IDX 21 26 22 27 23 28 24 29 25 30 26 32 27 33 28 34 80 35 29 36
REMARK SMILES IDX 79 37 30 38 31 39 32 40 73 41 33 42 78 43 72 44 74 45 34 46
REMARK SMILES IDX 77 47 71 48 70 49 35 51 61 52 44 53 60 54 45 55 48 56 59 57
REMARK SMILES IDX 75 58 46 59 47 60 58 62 76 63 49 64 36 65 37 66 42 67 38 68
REMARK SMILES IDX 39 69 41 70 43 71 40 72 62 73 63 74 68 75 64 76 65 77 67 78
REMARK SMILES IDX 69 79 66 80 50 81 51 82 56 83 52 84 53 85 55 86 57 87 54 88
REMARK H PARENT 17 7 6 17 9 19 24 31 74 50 48 61
REMARK Flexibility Score: inf
ROOT
ATOM      1  C   UNL A   1      30.779  29.309  24.149  1.00  0.00     0.002 C 
ENDROOT
BRANCH   1   2
ATOM      2  C   UNL A   1      31.510  28.755  22.924  1.00  0.00     0.021 C 
BRANCH   2   3
ATOM      3  C   UNL A   1      30.980  27.398  22.464  1.00  0.00     0.116 C 
BRANCH   3   4
ATOM      4  N   UNL A   1      31.771  26.845  21.390  1.00  0.00    -0.354 N 
ATOM      5  C   UNL A   1      32.564  25.736  21.358  1.00  0.00     0.249 C 
ATOM      6  O   UNL A   1      33.121  25.478  20.286  1.00  0.00    -0.272 OA
ATOM      7  H   UNL A   1      31.732  27.348  20.545  1.00  0.00     0.163 HD
BRANCH   5   8
ATOM      8  C   UNL A   1      32.841  24.873  22.615  1.00  0.00     0.207 C 
ATOM      9  C   UNL A   1      33.993  22.846  22.870  1.00  0.00     0.138 C 
ATOM     10  C   UNL A   1      32.537  22.501  22.648  1.00  0.00     0.037 C 
ATOM     11  O   UNL A   1      34.132  24.267  22.723  1.00  0.00    -0.363 OA
ATOM     12  C   UNL A   1      31.788  23.794  22.800  1.00  0.00     0.045 C 
BRANCH   9  13
ATOM     13  C   UNL A   1      34.693  22.327  24.134  1.00  0.00     0.149 C 
BRANCH  13  14
ATOM     14  N   UNL A   1      34.204  21.099  24.735  1.00  0.00    -0.335 N 
ATOM     15  N   UNL A   1      32.463  21.399  26.352  1.00  0.00    -0.284 N 
ATOM     16  C   UNL A   1      33.270  20.671  25.581  1.00  0.00     0.321 C 
ATOM     17  H   UNL A   1      32.012  20.851  27.035  1.00  0.00     0.174 HD
ATOM     18  O   UNL A   1      33.237  19.444  25.749  1.00  0.00    -0.248 OA
ATOM     19  H   UNL A   1      34.734  20.336  24.411  1.00  0.00     0.165 HD
BRANCH  15  20
ATOM     20  C   UNL A   1      32.107  22.705  26.433  1.00  0.00     0.190 A 
ATOM     21  C   UNL A   1      30.068  25.879  25.795  1.00  0.00     0.058 C 
ATOM     22  C   UNL A   1      31.016  24.826  26.228  1.00  0.00     0.023 A 
ATOM     23  C   UNL A   1      32.388  24.879  26.370  1.00  0.00     0.128 A 
ATOM     24  S   UNL A   1      30.495  23.227  26.579  1.00  0.00    -0.102 S 
ATOM     25  N   UNL A   1      33.004  23.656  26.547  1.00  0.00    -0.228 NA
ENDBRANCH  15  20
ENDBRANCH  13  14
ENDBRANCH   9  13
ENDBRANCH   5   8
ENDBRANCH   3   4
ENDBRANCH   2   3
ENDBRANCH   1   2
BRANCH   1  26
ATOM     26  C   UNL A   1      31.653  29.470  25.400  1.00  0.00     0.002 C 
BRANCH  26  27
ATOM     27  C   UNL A   1      32.806  28.469  25.528  1.00  0.00     0.021 C 
BRANCH  27  28
ATOM     28  C   UNL A   1      34.042  29.013  26.238  1.00  0.00     0.116 C 
BRANCH  28  29
ATOM     29  N   UNL A   1      33.827  30.365  26.725  1.00  0.00    -0.352 N 
ATOM     30  C   UNL A   1      34.461  31.047  27.731  1.00  0.00     0.251 C 
ATOM     31  H   UNL A   1      33.117  30.868  26.264  1.00  0.00     0.163 HD
ATOM     32  O   UNL A   1      33.976  32.089  28.162  1.00  0.00    -0.269 OA
BRANCH  30  33
ATOM     33  C   UNL A   1      35.730  30.542  28.294  1.00  0.00     0.039 A 
ATOM     34  C   UNL A   1      36.929  30.887  27.664  1.00  0.00     0.014 A 
ATOM     35  C   UNL A   1      35.737  29.676  29.392  1.00  0.00     0.014 A 
ATOM     36  C   UNL A   1      38.136  30.382  28.149  1.00  0.00     0.010 A 
ATOM     37  C   UNL A   1      36.947  29.230  29.918  1.00  0.00     0.010 A 
ATOM     38  C   UNL A   1      38.156  29.558  29.287  1.00  0.00    -0.014 A 
BRANCH  38  39
ATOM     39  C   UNL A   1      39.430  28.995  29.796  1.00  0.00     0.031 A 
ATOM     40  C   UNL A   1      40.074  29.580  31.024  1.00  0.00     0.074 A 
ATOM     41  C   UNL A   1      40.021  27.979  29.139  1.00  0.00     0.049 A 
ATOM     42  N   UNL A   1      41.201  29.253  31.604  1.00  0.00    -0.248 NA
ATOM     43  C   UNL A   1      39.370  30.700  31.671  1.00  0.00     0.031 C 
ATOM     44  C   UNL A   1      39.521  27.358  27.912  1.00  0.00     0.029 A 
ATOM     45  N   UNL A   1      41.178  27.293  29.413  1.00  0.00    -0.354 N 
ATOM     46  C   UNL A   1      41.341  30.124  32.677  1.00  0.00     0.074 A 
ATOM     47  C   UNL A   1      40.220  31.038  32.630  1.00  0.00     0.031 C 
ATOM     48  C   UNL A   1      40.354  26.370  27.548  1.00  0.00     0.029 A 
ATOM     49  C   UNL A   1      41.458  26.304  28.501  1.00  0.00     0.049 A 
ATOM     50  H   UNL A   1      41.751  27.490  30.187  1.00  0.00     0.167 HD
ATOM     51  C   UNL A   1      42.299  30.144  33.634  1.00  0.00     0.037 A 
ATOM     52  C   UNL A   1      42.489  25.442  28.443  1.00  0.00     0.037 A 
ATOM     53  C   UNL A   1      43.404  29.224  33.691  1.00  0.00     0.049 A 
ATOM     54  C   UNL A   1      43.530  25.472  29.529  1.00  0.00     0.074 A 
ATOM     55  C   UNL A   1      44.420  29.148  34.627  1.00  0.00     0.029 A 
ATOM     56  N   UNL A   1      43.627  28.208  32.775  1.00  0.00    -0.354 N 
ATOM     57  N   UNL A   1      43.626  26.276  30.562  1.00  0.00    -0.248 NA
ATOM     58  C   UNL A   1      44.596  24.464  29.451  1.00  0.00     0.031 C 
ATOM     59  C   UNL A   1      45.274  28.101  34.263  1.00  0.00     0.029 A 
ATOM     60  C   UNL A   1      44.765  27.499  33.124  1.00  0.00     0.049 A 
ATOM     61  H   UNL A   1      43.062  28.018  31.991  1.00  0.00     0.167 HD
ATOM     62  C   UNL A   1      44.740  25.849  31.272  1.00  0.00     0.074 A 
ATOM     63  C   UNL A   1      45.277  24.706  30.561  1.00  0.00     0.031 C 
ATOM     64  C   UNL A   1      45.274  26.355  32.411  1.00  0.00     0.037 A 
BRANCH  51  65
ATOM     65  C   UNL A   1      42.178  31.187  34.708  1.00  0.00     0.057 A 
ATOM     66  C   UNL A   1      42.869  32.404  34.629  1.00  0.00     0.134 A 
ATOM     67  C   UNL A   1      41.349  30.988  35.818  1.00  0.00     0.134 A 
ATOM     68  F   UNL A   1      43.693  32.653  33.599  1.00  0.00    -0.206 F 
ATOM     69  C   UNL A   1      42.758  33.374  35.627  1.00  0.00     0.040 A 
ATOM     70  C   UNL A   1      41.208  31.962  36.809  1.00  0.00     0.040 A 
ATOM     71  F   UNL A   1      40.655  29.847  35.955  1.00  0.00    -0.206 F 
ATOM     72  C   UNL A   1      41.920  33.156  36.718  1.00  0.00     0.006 A 
ENDBRANCH  51  65
BRANCH  52  73
ATOM     73  C   UNL A   1      42.576  24.454  27.339  1.00  0.00     0.057 A 
ATOM     74  C   UNL A   1      42.052  23.162  27.479  1.00  0.00     0.134 A 
ATOM     75  C   UNL A   1      43.200  24.769  26.127  1.00  0.00     0.134 A 
ATOM     76  F   UNL A   1      41.456  22.797  28.623  1.00  0.00    -0.206 F 
ATOM     77  C   UNL A   1      42.174  22.210  26.467  1.00  0.00     0.040 A 
ATOM     78  C   UNL A   1      43.306  23.834  25.095  1.00  0.00     0.040 A 
ATOM     79  F   UNL A   1      43.710  25.993  25.926  1.00  0.00    -0.206 F 
ATOM     80  C   UNL A   1      42.801  22.547  25.268  1.00  0.00     0.006 A 
ENDBRANCH  52  73
BRANCH  64  81
ATOM     81  C   UNL A   1      46.468  25.646  32.978  1.00  0.00     0.057 A 
ATOM     82  C   UNL A   1      46.342  24.613  33.915  1.00  0.00     0.134 A 
ATOM     83  C   UNL A   1      47.761  25.997  32.569  1.00  0.00     0.134 A 
ATOM     84  F   UNL A   1      45.132  24.240  34.357  1.00  0.00    -0.206 F 
ATOM     85  C   UNL A   1      47.463  23.976  34.451  1.00  0.00     0.040 A 
ATOM     86  C   UNL A   1      48.887  25.349  33.077  1.00  0.00     0.040 A 
ATOM     87  F   UNL A   1      47.950  26.972  31.667  1.00  0.00    -0.206 F 
ATOM     88  C   UNL A   1      48.739  24.341  34.027  1.00  0.00     0.006 A 
ENDBRANCH  64  81
ENDBRANCH  38  39
ENDBRANCH  30  33
ENDBRANCH  28  29
ENDBRANCH  27  28
ENDBRANCH  26  27
ENDBRANCH   1  26
TORSDOF 16
ENDMDL
MODEL 2
REMARK VINA RESULT:     -11.1      0.997      2.075
REMARK SMILES Cc1cnc(NC(=O)NC[C@H]2CC[C@H](C(=O)NCCCCCCNC(=O)c3ccc(-c4c5nc(c(-c6c(F)cccc6F)c6ccc([nH]6)c(-c6c(F)cccc6F)c6nc(c(-c7c(F)cccc7F)c7ccc4[nH]7)C=C6)C=C5)cc3)O2)s1
REMARK SMILES IDX 20 1 19 2 18 3 17 4 15 5 16 6 14 8 11 9 12 10 81 11 13 12
REMARK SMILES IDX 10 13 9 14 6 15 7 16 8 18 5 20 1 21 2 22 3 23 82 24 4 25
REMARK SMILES IDX 21 26 22 27 23 28 24 29 25 30 26 32 27 33 28 34 80 35 29 36
REMARK SMILES IDX 79 37 30 38 31 39 32 40 73 41 33 42 78 43 72 44 74 45 34 46
REMARK SMILES IDX 77 47 71 48 70 49 35 51 61 52 44 53 60 54 45 55 48 56 59 57
REMARK SMILES IDX 75 58 46 59 47 60 58 62 76 63 49 64 36 65 37 66 42 67 38 68
REMARK SMILES IDX 39 69 41 70 43 71 40 72 62 73 63 74 68 75 64 76 65 77 67 78
REMARK SMILES IDX 69 79 66 80 50 81 51 82 56 83 52 84 53 85 55 86 57 87 54 88
REMARK H PARENT 17 7 6 17 9 19 24 31 74 50 48 61
REMARK Flexibility Score: inf
ROOT
ATOM      1  C   UNL A   1      30.690  29.282  23.985  1.00  0.00     0.002 C 
ENDROOT
BRANCH   1   2
ATOM      2  C   UNL A   1      31.383  28.692  22.754  1.00  0.00     0.021 C 
BRANCH   2   3
ATOM      3  C   UNL A   1      30.914  27.278  22.414  1.00  0.00     0.116 C 
BRANCH   3   4
ATOM      4  N   UNL A   1      31.744  26.661  21.408  1.00  0.00    -0.354 N 
ATOM      5  C   UNL A   1      32.521  25.542  21.469  1.00  0.00     0.249 C 
ATOM      6  O   UNL A   1      33.122  25.222  20.438  1.00  0.00    -0.272 OA
ATOM      7  H   UNL A   1      31.752  27.121  20.538  1.00  0.00     0.163 HD
BRANCH   5   8
ATOM      8  C   UNL A   1      32.727  24.740  22.779  1.00  0.00     0.207 C 
ATOM      9  C   UNL A   1      34.597  24.524  24.179  1.00  0.00     0.138 C 
ATOM     10  C   UNL A   1      34.659  23.389  23.180  1.00  0.00     0.037 C 
ATOM     11  O   UNL A   1      33.489  25.362  23.817  1.00  0.00    -0.363 OA
ATOM     12  C   UNL A   1      33.314  23.366  22.512  1.00  0.00     0.045 C 
BRANCH   9  13
ATOM     13  C   UNL A   1      34.602  24.194  25.678  1.00  0.00     0.149 C 
BRANCH  13  14
ATOM     14  N   UNL A   1      33.328  24.127  26.371  1.00  0.00    -0.335 N 
ATOM     15  N   UNL A   1      32.234  22.000  26.255  1.00  0.00    -0.284 N 
ATOM     16  C   UNL A   1      32.373  23.254  26.682  1.00  0.00     0.321 C 
ATOM     17  H   UNL A   1      31.343  21.636  26.462  1.00  0.00     0.174 HD
ATOM     18  O   UNL A   1      31.444  23.713  27.362  1.00  0.00    -0.248 OA
ATOM     19  H   UNL A   1      33.095  25.015  26.725  1.00  0.00     0.165 HD
BRANCH  15  20
ATOM     20  C   UNL A   1      33.011  21.098  25.606  1.00  0.00     0.190 A 
ATOM     21  C   UNL A   1      33.986  17.799  23.929  1.00  0.00     0.058 C 
ATOM     22  C   UNL A   1      33.881  19.169  24.487  1.00  0.00     0.023 A 
ATOM     23  C   UNL A   1      34.805  19.901  25.204  1.00  0.00     0.128 A 
ATOM     24  S   UNL A   1      32.435  20.087  24.366  1.00  0.00    -0.102 S 
ATOM     25  N   UNL A   1      34.309  21.045  25.798  1.00  0.00    -0.228 NA
ENDBRANCH  15  20
ENDBRANCH  13  14
ENDBRANCH   9  13
ENDBRANCH   5   8
ENDBRANCH   3   4
ENDBRANCH   2   3
ENDBRANCH   1   2
BRANCH   1  26
ATOM     26  C   UNL A   1      31.576  29.380  25.235  1.00  0.00     0.002 C 
BRANCH  26  27
ATOM     27  C   UNL A   1      33.042  28.985  25.032  1.00  0.00     0.021 C 
BRANCH  27  28
ATOM     28  C   UNL A   1      33.918  29.140  26.271  1.00  0.00     0.116 C 
BRANCH  28  29
ATOM     29  N   UNL A   1      33.797  30.468  26.849  1.00  0.00    -0.352 N 
ATOM     30  C   UNL A   1      34.521  31.060  27.851  1.00  0.00     0.251 C 
ATOM     31  H   UNL A   1      33.086  31.028  26.462  1.00  0.00     0.163 HD
ATOM     32  O   UNL A   1      34.112  32.093  28.371  1.00  0.00    -0.269 OA
BRANCH  30  33
ATOM     33  C   UNL A   1      35.796  30.466  28.304  1.00  0.00     0.039 A 
ATOM     34  C   UNL A   1      35.800  29.688  29.464  1.00  0.00     0.014 A 
ATOM     35  C   UNL A   1      36.993  30.732  27.632  1.00  0.00     0.014 A 
ATOM     36  C   UNL A   1      37.001  29.157  29.937  1.00  0.00     0.010 A 
ATOM     37  C   UNL A   1      38.179  30.144  28.064  1.00  0.00     0.010 A 
ATOM     38  C   UNL A   1      38.198  29.371  29.235  1.00  0.00    -0.014 A 
BRANCH  38  39
ATOM     39  C   UNL A   1      39.484  28.834  29.742  1.00  0.00     0.031 A 
ATOM     40  C   UNL A   1      40.133  29.451  30.952  1.00  0.00     0.074 A 
ATOM     41  C   UNL A   1      40.081  27.811  29.101  1.00  0.00     0.049 A 
ATOM     42  N   UNL A   1      41.270  29.149  31.526  1.00  0.00    -0.248 NA
ATOM     43  C   UNL A   1      39.423  30.575  31.583  1.00  0.00     0.031 C 
ATOM     44  C   UNL A   1      39.575  27.160  27.892  1.00  0.00     0.029 A 
ATOM     45  N   UNL A   1      41.248  27.144  29.376  1.00  0.00    -0.354 N 
ATOM     46  C   UNL A   1      41.411  30.044  32.580  1.00  0.00     0.074 A 
ATOM     47  C   UNL A   1      40.278  30.943  32.525  1.00  0.00     0.031 C 
ATOM     48  C   UNL A   1      40.416  26.174  27.539  1.00  0.00     0.029 A 
ATOM     49  C   UNL A   1      41.531  26.141  28.482  1.00  0.00     0.049 A 
ATOM     50  H   UNL A   1      41.827  27.364  30.140  1.00  0.00     0.167 HD
ATOM     51  C   UNL A   1      42.378  30.095  33.526  1.00  0.00     0.037 A 
ATOM     52  C   UNL A   1      42.571  25.289  28.431  1.00  0.00     0.037 A 
ATOM     53  C   UNL A   1      43.494  29.189  33.591  1.00  0.00     0.049 A 
ATOM     54  C   UNL A   1      43.623  25.354  29.505  1.00  0.00     0.074 A 
ATOM     55  C   UNL A   1      44.521  29.144  34.517  1.00  0.00     0.029 A 
ATOM     56  N   UNL A   1      43.721  28.157  32.693  1.00  0.00    -0.354 N 
ATOM     57  N   UNL A   1      43.720  26.179  30.520  1.00  0.00    -0.248 NA
ATOM     58  C   UNL A   1      44.699  24.357  29.436  1.00  0.00     0.031 C 
ATOM     59  C   UNL A   1      45.383  28.100  34.165  1.00  0.00     0.029 A 
ATOM     60  C   UNL A   1      44.870  27.469  33.044  1.00  0.00     0.049 A 
ATOM     61  H   UNL A   1      43.150  27.944  31.919  1.00  0.00     0.167 HD
ATOM     62  C   UNL A   1      44.846  25.780  31.227  1.00  0.00     0.074 A 
ATOM     63  C   UNL A   1      45.389  24.629  30.534  1.00  0.00     0.031 C 
ATOM     64  C   UNL A   1      45.385  26.317  32.350  1.00  0.00     0.037 A 
BRANCH  51  65
ATOM     65  C   UNL A   1      42.256  31.158  34.580  1.00  0.00     0.057 A 
ATOM     66  C   UNL A   1      42.861  32.413  34.429  1.00  0.00     0.134 A 
ATOM     67  C   UNL A   1      41.509  30.939  35.743  1.00  0.00     0.134 A 
ATOM     68  F   UNL A   1      43.605  32.683  33.344  1.00  0.00    -0.206 F 
ATOM     69  C   UNL A   1      42.750  33.402  35.408  1.00  0.00     0.040 A 
ATOM     70  C   UNL A   1      41.367  31.930  36.717  1.00  0.00     0.040 A 
ATOM     71  F   UNL A   1      40.899  29.762  35.951  1.00  0.00    -0.206 F 
ATOM     72  C   UNL A   1      41.994  33.163  36.553  1.00  0.00     0.006 A 
ENDBRANCH  51  65
BRANCH  52  73
ATOM     73  C   UNL A   1      42.658  24.280  27.346  1.00  0.00     0.057 A 
ATOM     74  C   UNL A   1      42.164  22.982  27.523  1.00  0.00     0.134 A 
ATOM     75  C   UNL A   1      43.255  24.581  26.117  1.00  0.00     0.134 A 
ATOM     76  F   UNL A   1      41.595  22.628  28.685  1.00  0.00    -0.206 F 
ATOM     77  C   UNL A   1      42.287  22.010  26.529  1.00  0.00     0.040 A 
ATOM     78  C   UNL A   1      43.362  23.627  25.103  1.00  0.00     0.040 A 
ATOM     79  F   UNL A   1      43.737  25.810  25.881  1.00  0.00    -0.206 F 
ATOM     80  C   UNL A   1      42.886  22.334  25.312  1.00  0.00     0.006 A 
ENDBRANCH  52  73
BRANCH  64  81
ATOM     81  C   UNL A   1      46.594  25.633  32.919  1.00  0.00     0.057 A 
ATOM     82  C   UNL A   1      47.893  25.976  32.527  1.00  0.00     0.134 A 
ATOM     83  C   UNL A   1      46.451  24.626  33.882  1.00  0.00     0.134 A 
ATOM     84  F   UNL A   1      48.096  26.923  31.599  1.00  0.00    -0.206 F 
ATOM     85  C   UNL A   1      49.009  25.318  33.049  1.00  0.00     0.040 A 
ATOM     86  C   UNL A   1      47.558  23.980  34.431  1.00  0.00     0.040 A 
ATOM     87  F   UNL A   1      45.233  24.257  34.308  1.00  0.00    -0.206 F 
ATOM     88  C   UNL A   1      48.841  24.320  34.007  1.00  0.00     0.006 A 
ENDBRANCH  64  81
ENDBRANCH  38  39
ENDBRANCH  30  33
ENDBRANCH  28  29
ENDBRANCH  27  28
ENDBRANCH  26  27
ENDBRANCH   1  26
TORSDOF 16
ENDMDL
MODEL 3
REMARK VINA RESULT:     -11.1      3.006      8.044
REMARK SMILES Cc1cnc(NC(=O)NC[C@H]2CC[C@H](C(=O)NCCCCCCNC(=O)c3ccc(-c4c5nc(c(-c6c(F)cccc6F)c6ccc([nH]6)c(-c6c(F)cccc6F)c6nc(c(-c7c(F)cccc7F)c7ccc4[nH]7)C=C6)C=C5)cc3)O2)s1
REMARK SMILES IDX 20 1 19 2 18 3 17 4 15 5 16 6 14 8 11 9 12 10 81 11 13 12
REMARK SMILES IDX 10 13 9 14 6 15 7 16 8 18 5 20 1 21 2 22 3 23 82 24 4 25
REMARK SMILES IDX 21 26 22 27 23 28 24 29 25 30 26 32 27 33 28 34 80 35 29 36
REMARK SMILES IDX 79 37 30 38 31 39 32 40 73 41 33 42 78 43 72 44 74 45 34 46
REMARK SMILES IDX 77 47 71 48 70 49 35 51 61 52 44 53 60 54 45 55 48 56 59 57
REMARK SMILES IDX 75 58 46 59 47 60 58 62 76 63 49 64 36 65 37 66 42 67 38 68
REMARK SMILES IDX 39 69 41 70 43 71 40 72 62 73 63 74 68 75 64 76 65 77 67 78
REMARK SMILES IDX 69 79 66 80 50 81 51 82 56 83 52 84 53 85 55 86 57 87 54 88
REMARK H PARENT 17 7 6 17 9 19 24 31 74 50 48 61
REMARK Flexibility Score: inf
ROOT
ATOM      1  C   UNL A   1      37.228  21.887  24.225  1.00  0.00     0.002 C 
ENDROOT
BRANCH   1   2
ATOM      2  C   UNL A   1      37.292  23.058  25.208  1.00  0.00     0.021 C 
BRANCH   2   3
ATOM      3  C   UNL A   1      35.960  23.789  25.369  1.00  0.00     0.116 C 
BRANCH   3   4
ATOM      4  N   UNL A   1      35.202  23.292  26.491  1.00  0.00    -0.354 N 
ATOM      5  C   UNL A   1      33.923  22.824  26.555  1.00  0.00     0.249 C 
ATOM      6  O   UNL A   1      33.524  22.436  27.659  1.00  0.00    -0.272 OA
ATOM      7  H   UNL A   1      35.685  23.290  27.349  1.00  0.00     0.163 HD
BRANCH   5   8
ATOM      8  C   UNL A   1      32.965  22.846  25.338  1.00  0.00     0.207 C 
ATOM      9  C   UNL A   1      31.309  24.382  24.705  1.00  0.00     0.138 C 
ATOM     10  C   UNL A   1      30.629  23.317  25.537  1.00  0.00     0.037 C 
ATOM     11  O   UNL A   1      32.719  24.111  24.719  1.00  0.00    -0.363 OA
ATOM     12  C   UNL A   1      31.628  22.203  25.661  1.00  0.00     0.045 C 
BRANCH   9  13
ATOM     13  C   UNL A   1      30.791  24.658  23.286  1.00  0.00     0.149 C 
BRANCH  13  14
ATOM     14  N   UNL A   1      31.758  24.731  22.205  1.00  0.00    -0.335 N 
ATOM     15  N   UNL A   1      32.576  26.933  21.738  1.00  0.00    -0.284 N 
ATOM     16  C   UNL A   1      32.546  25.609  21.590  1.00  0.00     0.321 C 
ATOM     17  H   UNL A   1      33.095  27.372  21.026  1.00  0.00     0.174 HD
ATOM     18  O   UNL A   1      33.254  25.137  20.688  1.00  0.00    -0.248 OA
ATOM     19  H   UNL A   1      31.864  23.843  21.794  1.00  0.00     0.165 HD
BRANCH  15  20
ATOM     20  C   UNL A   1      32.070  27.827  22.623  1.00  0.00     0.190 A 
ATOM     21  C   UNL A   1      31.763  29.834  25.867  1.00  0.00     0.058 C 
ATOM     22  C   UNL A   1      31.652  29.228  24.518  1.00  0.00     0.023 A 
ATOM     23  C   UNL A   1      30.529  28.826  23.823  1.00  0.00     0.128 A 
ATOM     24  S   UNL A   1      33.039  28.845  23.581  1.00  0.00    -0.102 S 
ATOM     25  N   UNL A   1      30.782  28.067  22.697  1.00  0.00    -0.228 NA
ENDBRANCH  15  20
ENDBRANCH  13  14
ENDBRANCH   9  13
ENDBRANCH   5   8
ENDBRANCH   3   4
ENDBRANCH   2   3
ENDBRANCH   1   2
BRANCH   1  26
ATOM     26  C   UNL A   1      36.959  20.521  24.871  1.00  0.00     0.002 C 
BRANCH  26  27
ATOM     27  C   UNL A   1      38.166  19.579  24.939  1.00  0.00     0.021 C 
BRANCH  27  28
ATOM     28  C   UNL A   1      39.175  19.920  26.032  1.00  0.00     0.116 C 
BRANCH  28  29
ATOM     29  N   UNL A   1      40.412  19.175  25.868  1.00  0.00    -0.352 N 
ATOM     30  C   UNL A   1      41.711  19.608  25.919  1.00  0.00     0.251 C 
ATOM     31  H   UNL A   1      40.300  18.213  25.694  1.00  0.00     0.163 HD
ATOM     32  O   UNL A   1      42.613  18.883  25.511  1.00  0.00    -0.269 OA
BRANCH  30  33
ATOM     33  C   UNL A   1      42.035  20.941  26.469  1.00  0.00     0.039 A 
ATOM     34  C   UNL A   1      41.988  21.125  27.854  1.00  0.00     0.014 A 
ATOM     35  C   UNL A   1      42.314  22.021  25.626  1.00  0.00     0.014 A 
ATOM     36  C   UNL A   1      42.243  22.387  28.393  1.00  0.00     0.010 A 
ATOM     37  C   UNL A   1      42.638  23.262  26.169  1.00  0.00     0.010 A 
ATOM     38  C   UNL A   1      42.581  23.462  27.556  1.00  0.00    -0.014 A 
BRANCH  38  39
ATOM     39  C   UNL A   1      42.829  24.813  28.116  1.00  0.00     0.031 A 
ATOM     40  C   UNL A   1      44.218  25.210  28.537  1.00  0.00     0.074 A 
ATOM     41  C   UNL A   1      41.802  25.671  28.272  1.00  0.00     0.049 A 
ATOM     42  N   UNL A   1      44.632  26.328  29.079  1.00  0.00    -0.248 NA
ATOM     43  C   UNL A   1      45.279  24.207  28.348  1.00  0.00     0.031 C 
ATOM     44  C   UNL A   1      40.404  25.386  27.946  1.00  0.00     0.029 A 
ATOM     45  N   UNL A   1      41.778  26.956  28.750  1.00  0.00    -0.354 N 
ATOM     46  C   UNL A   1      45.994  26.161  29.297  1.00  0.00     0.074 A 
ATOM     47  C   UNL A   1      46.325  24.812  28.891  1.00  0.00     0.031 C 
ATOM     48  C   UNL A   1      39.661  26.472  28.216  1.00  0.00     0.029 A 
ATOM     49  C   UNL A   1      40.525  27.517  28.755  1.00  0.00     0.049 A 
ATOM     50  H   UNL A   1      42.583  27.431  29.061  1.00  0.00     0.167 HD
ATOM     51  C   UNL A   1      46.895  27.058  29.763  1.00  0.00     0.037 A 
ATOM     52  C   UNL A   1      40.120  28.739  29.149  1.00  0.00     0.037 A 
ATOM     53  C   UNL A   1      46.568  28.406  30.148  1.00  0.00     0.049 A 
ATOM     54  C   UNL A   1      41.143  29.724  29.645  1.00  0.00     0.074 A 
ATOM     55  C   UNL A   1      47.408  29.400  30.618  1.00  0.00     0.029 A 
ATOM     56  N   UNL A   1      45.294  28.951  30.095  1.00  0.00    -0.354 N 
ATOM     57  N   UNL A   1      42.435  29.565  29.806  1.00  0.00    -0.248 NA
ATOM     58  C   UNL A   1      40.654  31.063  29.998  1.00  0.00     0.031 C 
ATOM     59  C   UNL A   1      46.637  30.540  30.874  1.00  0.00     0.029 A 
ATOM     60  C   UNL A   1      45.326  30.267  30.523  1.00  0.00     0.049 A 
ATOM     61  H   UNL A   1      44.486  28.473  29.799  1.00  0.00     0.167 HD
ATOM     62  C   UNL A   1      42.917  30.792  30.244  1.00  0.00     0.074 A 
ATOM     63  C   UNL A   1      41.780  31.688  30.309  1.00  0.00     0.031 C 
ATOM     64  C   UNL A   1      44.185  31.147  30.566  1.00  0.00     0.037 A 
BRANCH  51  65
ATOM     65  C   UNL A   1      48.325  26.611  29.861  1.00  0.00     0.057 A 
ATOM     66  C   UNL A   1      49.231  26.816  28.812  1.00  0.00     0.134 A 
ATOM     67  C   UNL A   1      48.810  25.993  31.020  1.00  0.00     0.134 A 
ATOM     68  F   UNL A   1      48.827  27.390  27.667  1.00  0.00    -0.206 F 
ATOM     69  C   UNL A   1      50.560  26.400  28.901  1.00  0.00     0.040 A 
ATOM     70  C   UNL A   1      50.145  25.596  31.132  1.00  0.00     0.040 A 
ATOM     71  F   UNL A   1      47.998  25.769  32.064  1.00  0.00    -0.206 F 
ATOM     72  C   UNL A   1      51.022  25.794  30.067  1.00  0.00     0.006 A 
ENDBRANCH  51  65
BRANCH  52  73
ATOM     73  C   UNL A   1      38.687  29.115  29.061  1.00  0.00     0.057 A 
ATOM     74  C   UNL A   1      38.132  29.582  27.863  1.00  0.00     0.134 A 
ATOM     75  C   UNL A   1      37.844  29.038  30.175  1.00  0.00     0.134 A 
ATOM     76  F   UNL A   1      38.894  29.695  26.766  1.00  0.00    -0.206 F 
ATOM     77  C   UNL A   1      36.800  29.988  27.784  1.00  0.00     0.040 A 
ATOM     78  C   UNL A   1      36.502  29.414  30.104  1.00  0.00     0.040 A 
ATOM     79  F   UNL A   1      38.312  28.586  31.349  1.00  0.00    -0.206 F 
ATOM     80  C   UNL A   1      35.979  29.902  28.907  1.00  0.00     0.006 A 
ENDBRANCH  52  73
BRANCH  64  81
ATOM     81  C   UNL A   1      44.412  32.575  30.968  1.00  0.00     0.057 A 
ATOM     82  C   UNL A   1      44.429  32.973  32.310  1.00  0.00     0.134 A 
ATOM     83  C   UNL A   1      44.628  33.560  29.996  1.00  0.00     0.134 A 
ATOM     84  F   UNL A   1      44.215  32.080  33.288  1.00  0.00    -0.206 F 
ATOM     85  C   UNL A   1      44.619  34.308  32.671  1.00  0.00     0.040 A 
ATOM     86  C   UNL A   1      44.847  34.892  30.345  1.00  0.00     0.040 A 
ATOM     87  F   UNL A   1      44.633  33.242  28.692  1.00  0.00    -0.206 F 
ATOM     88  C   UNL A   1      44.834  35.271  31.686  1.00  0.00     0.006 A 
ENDBRANCH  64  81
ENDBRANCH  38  39
ENDBRANCH  30  33
ENDBRANCH  28  29
ENDBRANCH  27  28
ENDBRANCH  26  27
ENDBRANCH   1  26
TORSDOF 16
ENDMDL
