MODEL 1
REMARK VINA RESULT:     -10.3      0.000      0.000
REMARK SMILES C[C@@H]([NH2+]CC(C)(C)S(C)(=O)=O)C(=O)NCCCCCCNC(=O)c1ccc(-c2c3nc(c(-c4c(F)cccc4F)c4ccc([nH]4)c(-c4c(F)cccc4F)c4nc(c(-c5c(F)cccc5F)c5ccc2[nH]5)C=C4)C=C3)cc1
REMARK SMILES IDX 16 1 15 2 14 3 12 4 13 5 2 7 1 8 3 9 4 12 5 13 6 14 7 15
REMARK SMILES IDX 8 16 9 17 10 18 11 19 17 20 18 21 19 22 20 23 21 24 22 25
REMARK SMILES IDX 23 27 24 28 25 29 77 30 26 31 76 32 27 33 28 34 29 35 70 36
REMARK SMILES IDX 30 37 75 38 69 39 71 40 31 41 74 42 68 43 67 44 32 46 58 47
REMARK SMILES IDX 41 48 57 49 42 50 45 51 56 52 72 53 43 54 44 55 55 57 73 58
REMARK SMILES IDX 46 59 33 60 34 61 39 62 35 63 36 64 38 65 40 66 37 67 59 68
REMARK SMILES IDX 60 69 65 70 61 71 62 72 64 73 66 74 63 75 47 76 48 77 53 78
REMARK SMILES IDX 49 79 50 80 52 81 54 82 51 83
REMARK H PARENT 14 6 3 10 3 11 21 26 71 45 45 56
REMARK Flexibility Score: inf
ROOT
ATOM      1  C   UNL A   1      34.249  21.417  24.419  1.00  0.00     0.021 C 
ENDROOT
BRANCH   1   2
ATOM      2  C   UNL A   1      32.856  21.172  25.001  1.00  0.00     0.116 C 
BRANCH   2   3
ATOM      3  N   UNL A   1      32.902  21.448  26.419  1.00  0.00    -0.351 N 
ATOM      4  C   UNL A   1      32.427  22.541  27.078  1.00  0.00     0.277 C 
ATOM      5  O   UNL A   1      32.877  22.762  28.205  1.00  0.00    -0.268 OA
ATOM      6  H   UNL A   1      33.331  20.761  26.978  1.00  0.00     0.163 HD
BRANCH   4   7
ATOM      7  C   UNL A   1      31.293  23.398  26.483  1.00  0.00     0.269 C 
ATOM      8  C   UNL A   1      29.902  22.917  26.884  1.00  0.00     0.086 C 
BRANCH   7   9
ATOM      9  N   UNL A   1      31.494  24.835  26.768  1.00  0.00    -0.335 N 
ATOM     10  H   UNL A   1      32.105  24.911  27.581  1.00  0.00     0.347 HD
ATOM     11  H   UNL A   1      30.562  25.222  26.914  1.00  0.00     0.347 HD
BRANCH   9  12
ATOM     12  C   UNL A   1      32.091  25.627  25.678  1.00  0.00     0.283 C 
BRANCH  12  13
ATOM     13  C   UNL A   1      32.317  27.166  25.788  1.00  0.00     0.115 C 
ATOM     14  C   UNL A   1      31.458  27.762  26.917  1.00  0.00     0.034 C 
ATOM     15  C   UNL A   1      33.809  27.395  26.136  1.00  0.00     0.034 C 
BRANCH  13  16
ATOM     16  S   UNL A   1      31.985  28.125  24.249  1.00  0.00     0.158 S 
ATOM     17  C   UNL A   1      32.235  27.021  22.871  1.00  0.00     0.159 C 
ATOM     18  O   UNL A   1      30.601  28.555  24.247  1.00  0.00    -0.228 OA
ATOM     19  O   UNL A   1      33.015  29.145  24.133  1.00  0.00    -0.228 OA
ENDBRANCH  13  16
ENDBRANCH  12  13
ENDBRANCH   9  12
ENDBRANCH   7   9
ENDBRANCH   4   7
ENDBRANCH   2   3
ENDBRANCH   1   2
BRANCH   1  20
ATOM     20  C   UNL A   1      35.314  20.495  25.031  1.00  0.00     0.002 C 
BRANCH  20  21
ATOM     21  C   UNL A   1      36.738  21.058  24.979  1.00  0.00     0.002 C 
BRANCH  21  22
ATOM     22  C   UNL A   1      37.832  19.990  24.955  1.00  0.00     0.021 C 
BRANCH  22  23
ATOM     23  C   UNL A   1      39.074  20.367  25.756  1.00  0.00     0.116 C 
BRANCH  23  24
ATOM     24  N   UNL A   1      39.981  19.239  25.897  1.00  0.00    -0.352 N 
ATOM     25  C   UNL A   1      41.340  19.248  26.073  1.00  0.00     0.251 C 
ATOM     26  H   UNL A   1      39.563  18.349  25.860  1.00  0.00     0.163 HD
ATOM     27  O   UNL A   1      41.996  18.219  25.938  1.00  0.00    -0.269 OA
BRANCH  25  28
ATOM     28  C   UNL A   1      42.012  20.518  26.408  1.00  0.00     0.039 A 
ATOM     29  C   UNL A   1      42.458  21.342  25.374  1.00  0.00     0.014 A 
ATOM     30  C   UNL A   1      42.172  20.902  27.744  1.00  0.00     0.014 A 
ATOM     31  C   UNL A   1      43.004  22.588  25.678  1.00  0.00     0.010 A 
ATOM     32  C   UNL A   1      42.645  22.174  28.042  1.00  0.00     0.010 A 
ATOM     33  C   UNL A   1      43.062  23.031  27.011  1.00  0.00    -0.014 A 
BRANCH  33  34
ATOM     34  C   UNL A   1      43.527  24.399  27.343  1.00  0.00     0.031 A 
ATOM     35  C   UNL A   1      42.545  25.454  27.761  1.00  0.00     0.074 A 
ATOM     36  C   UNL A   1      44.829  24.708  27.192  1.00  0.00     0.049 A 
ATOM     37  N   UNL A   1      42.754  26.719  28.022  1.00  0.00    -0.248 NA
ATOM     38  C   UNL A   1      41.139  25.039  27.875  1.00  0.00     0.031 C 
ATOM     39  C   UNL A   1      45.869  23.783  26.738  1.00  0.00     0.029 A 
ATOM     40  N   UNL A   1      45.498  25.890  27.388  1.00  0.00    -0.354 N 
ATOM     41  C   UNL A   1      41.508  27.251  28.328  1.00  0.00     0.074 A 
ATOM     42  C   UNL A   1      40.542  26.188  28.157  1.00  0.00     0.031 C 
ATOM     43  C   UNL A   1      47.045  24.428  26.702  1.00  0.00     0.029 A 
ATOM     44  C   UNL A   1      46.835  25.819  27.087  1.00  0.00     0.049 A 
ATOM     45  H   UNL A   1      45.060  26.710  27.712  1.00  0.00     0.167 HD
ATOM     46  C   UNL A   1      41.201  28.505  28.738  1.00  0.00     0.037 A 
ATOM     47  C   UNL A   1      47.786  26.774  27.101  1.00  0.00     0.037 A 
ATOM     48  C   UNL A   1      42.168  29.559  28.904  1.00  0.00     0.049 A 
ATOM     49  C   UNL A   1      47.419  28.166  27.530  1.00  0.00     0.074 A 
ATOM     50  C   UNL A   1      41.969  30.850  29.363  1.00  0.00     0.029 A 
ATOM     51  N   UNL A   1      43.517  29.449  28.599  1.00  0.00    -0.354 N 
ATOM     52  N   UNL A   1      46.251  28.638  27.893  1.00  0.00    -0.248 NA
ATOM     53  C   UNL A   1      48.503  29.158  27.556  1.00  0.00     0.031 C 
ATOM     54  C   UNL A   1      43.184  31.535  29.281  1.00  0.00     0.029 A 
ATOM     55  C   UNL A   1      44.156  30.658  28.828  1.00  0.00     0.049 A 
ATOM     56  H   UNL A   1      43.958  28.631  28.270  1.00  0.00     0.167 HD
ATOM     57  C   UNL A   1      46.459  29.975  28.206  1.00  0.00     0.074 A 
ATOM     58  C   UNL A   1      47.871  30.233  28.010  1.00  0.00     0.031 C 
ATOM     59  C   UNL A   1      45.561  30.904  28.617  1.00  0.00     0.037 A 
BRANCH  46  60
ATOM     60  C   UNL A   1      39.756  28.799  29.026  1.00  0.00     0.057 A 
ATOM     61  C   UNL A   1      39.209  28.643  30.308  1.00  0.00     0.134 A 
ATOM     62  C   UNL A   1      38.899  29.250  28.013  1.00  0.00     0.134 A 
ATOM     63  F   UNL A   1      39.969  28.206  31.323  1.00  0.00    -0.206 F 
ATOM     64  C   UNL A   1      37.857  28.886  30.563  1.00  0.00     0.040 A 
ATOM     65  C   UNL A   1      37.554  29.528  28.263  1.00  0.00     0.040 A 
ATOM     66  F   UNL A   1      39.356  29.430  26.764  1.00  0.00    -0.206 F 
ATOM     67  C   UNL A   1      37.027  29.335  29.538  1.00  0.00     0.006 A 
ENDBRANCH  46  60
BRANCH  47  68
ATOM     68  C   UNL A   1      49.172  26.433  26.695  1.00  0.00     0.057 A 
ATOM     69  C   UNL A   1      49.615  26.635  25.382  1.00  0.00     0.134 A 
ATOM     70  C   UNL A   1      50.095  25.920  27.614  1.00  0.00     0.134 A 
ATOM     71  F   UNL A   1      48.774  27.109  24.451  1.00  0.00    -0.206 F 
ATOM     72  C   UNL A   1      50.921  26.328  24.997  1.00  0.00     0.040 A 
ATOM     73  C   UNL A   1      51.411  25.635  27.250  1.00  0.00     0.040 A 
ATOM     74  F   UNL A   1      49.736  25.715  28.891  1.00  0.00    -0.206 F 
ATOM     75  C   UNL A   1      51.826  25.834  25.935  1.00  0.00     0.006 A 
ENDBRANCH  47  68
BRANCH  59  76
ATOM     76  C   UNL A   1      46.082  32.285  28.896  1.00  0.00     0.057 A 
ATOM     77  C   UNL A   1      46.083  33.286  27.916  1.00  0.00     0.134 A 
ATOM     78  C   UNL A   1      46.545  32.630  30.172  1.00  0.00     0.134 A 
ATOM     79  F   UNL A   1      45.666  33.019  26.670  1.00  0.00    -0.206 F 
ATOM     80  C   UNL A   1      46.546  34.574  28.190  1.00  0.00     0.040 A 
ATOM     81  C   UNL A   1      46.983  33.921  30.466  1.00  0.00     0.040 A 
ATOM     82  F   UNL A   1      46.564  31.721  31.159  1.00  0.00    -0.206 F 
ATOM     83  C   UNL A   1      46.990  34.897  29.472  1.00  0.00     0.006 A 
ENDBRANCH  59  76
ENDBRANCH  33  34
ENDBRANCH  25  28
ENDBRANCH  23  24
ENDBRANCH  22  23
ENDBRANCH  21  22
ENDBRANCH  20  21
ENDBRANCH   1  20
TORSDOF 17
ENDMDL
MODEL 2
REMARK VINA RESULT:     -10.3      2.970      7.605
REMARK SMILES C[C@@H]([NH2+]CC(C)(C)S(C)(=O)=O)C(=O)NCCCCCCNC(=O)c1ccc(-c2c3nc(c(-c4c(F)cccc4F)c4ccc([nH]4)c(-c4c(F)cccc4F)c4nc(c(-c5c(F)cccc5F)c5ccc2[nH]5)C=C4)C=C3)cc1
REMARK SMILES IDX 16 1 15 2 14 3 12 4 13 5 2 7 1 8 3 9 4 12 5 13 6 14 7 15
REMARK SMILES IDX 8 16 9 17 10 18 11 19 17 20 18 21 19 22 20 23 21 24 22 25
REMARK SMILES IDX 23 27 24 28 25 29 77 30 26 31 76 32 27 33 28 34 29 35 70 36
REMARK SMILES IDX 30 37 75 38 69 39 71 40 31 41 74 42 68 43 67 44 32 46 58 47
REMARK SMILES IDX 41 48 57 49 42 50 45 51 56 52 72 53 43 54 44 55 55 57 73 58
REMARK SMILES IDX 46 59 33 60 34 61 39 62 35 63 36 64 38 65 40 66 37 67 59 68
REMARK SMILES IDX 60 69 65 70 61 71 62 72 64 73 66 74 63 75 47 76 48 77 53 78
REMARK SMILES IDX 49 79 50 80 52 81 54 82 51 83
REMARK H PARENT 14 6 3 10 3 11 21 26 71 45 45 56
REMARK Flexibility Score: inf
ROOT
ATOM      1  C   UNL A   1      31.374  28.726  22.698  1.00  0.00     0.021 C 
ENDROOT
BRANCH   1   2
ATOM      2  C   UNL A   1      30.797  27.313  22.604  1.00  0.00     0.116 C 
BRANCH   2   3
ATOM      3  N   UNL A   1      31.445  26.631  21.506  1.00  0.00    -0.351 N 
ATOM      4  C   UNL A   1      32.399  25.661  21.566  1.00  0.00     0.277 C 
ATOM      5  O   UNL A   1      33.078  25.472  20.554  1.00  0.00    -0.268 OA
ATOM      6  H   UNL A   1      31.162  26.901  20.604  1.00  0.00     0.163 HD
BRANCH   4   7
ATOM      7  C   UNL A   1      32.545  24.765  22.811  1.00  0.00     0.269 C 
ATOM      8  C   UNL A   1      31.285  23.963  23.126  1.00  0.00     0.086 C 
BRANCH   7   9
ATOM      9  N   UNL A   1      33.748  23.909  22.724  1.00  0.00    -0.335 N 
ATOM     10  H   UNL A   1      34.564  24.497  22.892  1.00  0.00     0.347 HD
ATOM     11  H   UNL A   1      33.723  23.489  21.795  1.00  0.00     0.347 HD
BRANCH   9  12
ATOM     12  C   UNL A   1      33.801  22.781  23.671  1.00  0.00     0.283 C 
BRANCH  12  13
ATOM     13  C   UNL A   1      34.800  22.739  24.868  1.00  0.00     0.115 C 
ATOM     14  C   UNL A   1      34.590  23.950  25.794  1.00  0.00     0.034 C 
ATOM     15  C   UNL A   1      34.508  21.450  25.675  1.00  0.00     0.034 C 
BRANCH  13  16
ATOM     16  S   UNL A   1      36.584  22.675  24.405  1.00  0.00     0.158 S 
ATOM     17  C   UNL A   1      37.476  23.669  25.588  1.00  0.00     0.159 C 
ATOM     18  O   UNL A   1      37.052  21.307  24.509  1.00  0.00    -0.228 OA
ATOM     19  O   UNL A   1      36.733  23.350  23.126  1.00  0.00    -0.228 OA
ENDBRANCH  13  16
ENDBRANCH  12  13
ENDBRANCH   9  12
ENDBRANCH   7   9
ENDBRANCH   4   7
ENDBRANCH   2   3
ENDBRANCH   1   2
BRANCH   1  20
ATOM     20  C   UNL A   1      32.707  28.770  23.460  1.00  0.00     0.002 C 
BRANCH  20  21
ATOM     21  C   UNL A   1      32.574  28.560  24.972  1.00  0.00     0.002 C 
BRANCH  21  22
ATOM     22  C   UNL A   1      33.909  28.513  25.716  1.00  0.00     0.021 C 
BRANCH  22  23
ATOM     23  C   UNL A   1      33.770  28.623  27.230  1.00  0.00     0.116 C 
BRANCH  23  24
ATOM     24  N   UNL A   1      33.767  30.011  27.666  1.00  0.00    -0.352 N 
ATOM     25  C   UNL A   1      34.737  30.700  28.345  1.00  0.00     0.251 C 
ATOM     26  H   UNL A   1      32.958  30.526  27.443  1.00  0.00     0.163 HD
ATOM     27  O   UNL A   1      34.494  31.793  28.850  1.00  0.00    -0.269 OA
BRANCH  25  28
ATOM     28  C   UNL A   1      36.079  30.101  28.483  1.00  0.00     0.039 A 
ATOM     29  C   UNL A   1      36.969  30.178  27.412  1.00  0.00     0.014 A 
ATOM     30  C   UNL A   1      36.460  29.491  29.683  1.00  0.00     0.014 A 
ATOM     31  C   UNL A   1      38.270  29.704  27.567  1.00  0.00     0.010 A 
ATOM     32  C   UNL A   1      37.778  29.089  29.862  1.00  0.00     0.010 A 
ATOM     33  C   UNL A   1      38.697  29.195  28.806  1.00  0.00    -0.014 A 
BRANCH  33  34
ATOM     34  C   UNL A   1      40.109  28.799  29.026  1.00  0.00     0.031 A 
ATOM     35  C   UNL A   1      41.095  29.782  29.585  1.00  0.00     0.074 A 
ATOM     36  C   UNL A   1      40.516  27.573  28.647  1.00  0.00     0.049 A 
ATOM     37  N   UNL A   1      42.381  29.641  29.781  1.00  0.00    -0.248 NA
ATOM     38  C   UNL A   1      40.572  31.108  29.947  1.00  0.00     0.031 C 
ATOM     39  C   UNL A   1      39.662  26.550  28.040  1.00  0.00     0.029 A 
ATOM     40  N   UNL A   1      41.754  26.984  28.701  1.00  0.00    -0.354 N 
ATOM     41  C   UNL A   1      42.821  30.857  30.285  1.00  0.00     0.074 A 
ATOM     42  C   UNL A   1      41.678  31.745  30.304  1.00  0.00     0.031 C 
ATOM     43  C   UNL A   1      40.398  25.456  27.789  1.00  0.00     0.029 A 
ATOM     44  C   UNL A   1      41.781  25.716  28.177  1.00  0.00     0.049 A 
ATOM     45  H   UNL A   1      42.546  27.428  29.079  1.00  0.00     0.167 HD
ATOM     46  C   UNL A   1      44.060  31.197  30.717  1.00  0.00     0.037 A 
ATOM     47  C   UNL A   1      42.808  24.861  28.007  1.00  0.00     0.037 A 
ATOM     48  C   UNL A   1      45.194  30.308  30.692  1.00  0.00     0.049 A 
ATOM     49  C   UNL A   1      44.181  25.267  28.465  1.00  0.00     0.074 A 
ATOM     50  C   UNL A   1      46.479  30.536  31.153  1.00  0.00     0.029 A 
ATOM     51  N   UNL A   1      45.181  29.026  30.163  1.00  0.00    -0.354 N 
ATOM     52  N   UNL A   1      44.569  26.393  29.013  1.00  0.00    -0.248 NA
ATOM     53  C   UNL A   1      45.257  24.283  28.284  1.00  0.00     0.031 C 
ATOM     54  C   UNL A   1      47.257  29.415  30.849  1.00  0.00     0.029 A 
ATOM     55  C   UNL A   1      46.445  28.463  30.254  1.00  0.00     0.049 A 
ATOM     56  H   UNL A   1      44.391  28.580  29.779  1.00  0.00     0.167 HD
ATOM     57  C   UNL A   1      45.929  26.249  29.258  1.00  0.00     0.074 A 
ATOM     58  C   UNL A   1      46.293  24.918  28.818  1.00  0.00     0.031 C 
ATOM     59  C   UNL A   1      46.796  27.140  29.800  1.00  0.00     0.037 A 
BRANCH  46  60
ATOM     60  C   UNL A   1      44.246  32.591  31.242  1.00  0.00     0.057 A 
ATOM     61  C   UNL A   1      44.067  32.903  32.599  1.00  0.00     0.134 A 
ATOM     62  C   UNL A   1      44.617  33.637  30.388  1.00  0.00     0.134 A 
ATOM     63  F   UNL A   1      43.702  31.952  33.472  1.00  0.00    -0.206 F 
ATOM     64  C   UNL A   1      44.209  34.207  33.076  1.00  0.00     0.040 A 
ATOM     65  C   UNL A   1      44.794  34.939  30.859  1.00  0.00     0.040 A 
ATOM     66  F   UNL A   1      44.814  33.411  29.079  1.00  0.00    -0.206 F 
ATOM     67  C   UNL A   1      44.578  35.230  32.204  1.00  0.00     0.006 A 
ENDBRANCH  46  60
BRANCH  47  68
ATOM     68  C   UNL A   1      42.567  23.540  27.375  1.00  0.00     0.057 A 
ATOM     69  C   UNL A   1      42.244  22.415  28.143  1.00  0.00     0.134 A 
ATOM     70  C   UNL A   1      42.629  23.376  25.986  1.00  0.00     0.134 A 
ATOM     71  F   UNL A   1      42.184  22.505  29.480  1.00  0.00    -0.206 F 
ATOM     72  C   UNL A   1      42.004  21.173  27.554  1.00  0.00     0.040 A 
ATOM     73  C   UNL A   1      42.366  22.147  25.381  1.00  0.00     0.040 A 
ATOM     74  F   UNL A   1      42.923  24.418  25.193  1.00  0.00    -0.206 F 
ATOM     75  C   UNL A   1      42.057  21.038  26.167  1.00  0.00     0.006 A 
ENDBRANCH  47  68
BRANCH  59  76
ATOM     76  C   UNL A   1      48.224  26.699  29.956  1.00  0.00     0.057 A 
ATOM     77  C   UNL A   1      48.654  25.970  31.072  1.00  0.00     0.134 A 
ATOM     78  C   UNL A   1      49.168  26.970  28.958  1.00  0.00     0.134 A 
ATOM     79  F   UNL A   1      47.804  25.689  32.071  1.00  0.00    -0.206 F 
ATOM     80  C   UNL A   1      49.978  25.543  31.198  1.00  0.00     0.040 A 
ATOM     81  C   UNL A   1      50.486  26.524  29.058  1.00  0.00     0.040 A 
ATOM     82  F   UNL A   1      48.820  27.658  27.859  1.00  0.00    -0.206 F 
ATOM     83  C   UNL A   1      50.896  25.813  30.184  1.00  0.00     0.006 A 
ENDBRANCH  59  76
ENDBRANCH  33  34
ENDBRANCH  25  28
ENDBRANCH  23  24
ENDBRANCH  22  23
ENDBRANCH  21  22
ENDBRANCH  20  21
ENDBRANCH   1  20
TORSDOF 17
ENDMDL
MODEL 3
REMARK VINA RESULT:     -10.2      2.308      7.304
REMARK SMILES C[C@@H]([NH2+]CC(C)(C)S(C)(=O)=O)C(=O)NCCCCCCNC(=O)c1ccc(-c2c3nc(c(-c4c(F)cccc4F)c4ccc([nH]4)c(-c4c(F)cccc4F)c4nc(c(-c5c(F)cccc5F)c5ccc2[nH]5)C=C4)C=C3)cc1
REMARK SMILES IDX 16 1 15 2 14 3 12 4 13 5 2 7 1 8 3 9 4 12 5 13 6 14 7 15
REMARK SMILES IDX 8 16 9 17 10 18 11 19 17 20 18 21 19 22 20 23 21 24 22 25
REMARK SMILES IDX 23 27 24 28 25 29 77 30 26 31 76 32 27 33 28 34 29 35 70 36
REMARK SMILES IDX 30 37 75 38 69 39 71 40 31 41 74 42 68 43 67 44 32 46 58 47
REMARK SMILES IDX 41 48 57 49 42 50 45 51 56 52 72 53 43 54 44 55 55 57 73 58
REMARK SMILES IDX 46 59 33 60 34 61 39 62 35 63 36 64 38 65 40 66 37 67 59 68
REMARK SMILES IDX 60 69 65 70 61 71 62 72 64 73 66 74 63 75 47 76 48 77 53 78
REMARK SMILES IDX 49 79 50 80 52 81 54 82 51 83
REMARK H PARENT 14 6 3 10 3 11 21 26 71 45 45 56
REMARK Flexibility Score: inf
ROOT
ATOM      1  C   UNL A   1      36.399  23.511  25.555  1.00  0.00     0.021 C 
ENDROOT
BRANCH   1   2
ATOM      2  C   UNL A   1      35.019  22.942  25.226  1.00  0.00     0.116 C 
BRANCH   2   3
ATOM      3  N   UNL A   1      34.179  23.083  26.394  1.00  0.00    -0.351 N 
ATOM      4  C   UNL A   1      32.909  22.624  26.576  1.00  0.00     0.277 C 
ATOM      5  O   UNL A   1      32.242  23.149  27.471  1.00  0.00    -0.268 OA
ATOM      6  H   UNL A   1      34.573  23.572  27.151  1.00  0.00     0.163 HD
BRANCH   4   7
ATOM      7  C   UNL A   1      32.374  21.425  25.771  1.00  0.00     0.269 C 
ATOM      8  C   UNL A   1      32.150  21.744  24.295  1.00  0.00     0.086 C 
BRANCH   7   9
ATOM      9  N   UNL A   1      33.215  20.224  25.964  1.00  0.00    -0.335 N 
ATOM     10  H   UNL A   1      32.690  19.562  26.534  1.00  0.00     0.347 HD
ATOM     11  H   UNL A   1      34.076  20.555  26.401  1.00  0.00     0.347 HD
BRANCH   9  12
ATOM     12  C   UNL A   1      33.632  19.530  24.733  1.00  0.00     0.283 C 
BRANCH  12  13
ATOM     13  C   UNL A   1      33.081  18.126  24.336  1.00  0.00     0.115 C 
ATOM     14  C   UNL A   1      32.036  17.644  25.357  1.00  0.00     0.034 C 
ATOM     15  C   UNL A   1      32.389  18.269  22.958  1.00  0.00     0.034 C 
BRANCH  13  16
ATOM     16  S   UNL A   1      34.352  16.803  24.149  1.00  0.00     0.158 S 
ATOM     17  C   UNL A   1      33.945  15.508  25.306  1.00  0.00     0.159 C 
ATOM     18  O   UNL A   1      34.278  16.260  22.807  1.00  0.00    -0.228 OA
ATOM     19  O   UNL A   1      35.625  17.348  24.594  1.00  0.00    -0.228 OA
ENDBRANCH  13  16
ENDBRANCH  12  13
ENDBRANCH   9  12
ENDBRANCH   7   9
ENDBRANCH   4   7
ENDBRANCH   2   3
ENDBRANCH   1   2
BRANCH   1  20
ATOM     20  C   UNL A   1      37.526  22.492  25.331  1.00  0.00     0.002 C 
BRANCH  20  21
ATOM     21  C   UNL A   1      37.063  21.169  24.712  1.00  0.00     0.002 C 
BRANCH  21  22
ATOM     22  C   UNL A   1      38.017  19.998  24.954  1.00  0.00     0.021 C 
BRANCH  22  23
ATOM     23  C   UNL A   1      39.115  20.303  25.967  1.00  0.00     0.116 C 
BRANCH  23  24
ATOM     24  N   UNL A   1      40.134  19.265  25.978  1.00  0.00    -0.352 N 
ATOM     25  C   UNL A   1      41.494  19.399  26.069  1.00  0.00     0.251 C 
ATOM     26  H   UNL A   1      39.802  18.341  25.912  1.00  0.00     0.163 HD
ATOM     27  O   UNL A   1      42.235  18.450  25.827  1.00  0.00    -0.269 OA
BRANCH  25  28
ATOM     28  C   UNL A   1      42.063  20.709  26.441  1.00  0.00     0.039 A 
ATOM     29  C   UNL A   1      42.459  21.587  25.431  1.00  0.00     0.014 A 
ATOM     30  C   UNL A   1      42.176  21.074  27.787  1.00  0.00     0.014 A 
ATOM     31  C   UNL A   1      42.905  22.864  25.771  1.00  0.00     0.010 A 
ATOM     32  C   UNL A   1      42.547  22.371  28.119  1.00  0.00     0.010 A 
ATOM     33  C   UNL A   1      42.911  23.280  27.113  1.00  0.00    -0.014 A 
BRANCH  33  34
ATOM     34  C   UNL A   1      43.267  24.671  27.481  1.00  0.00     0.031 A 
ATOM     35  C   UNL A   1      44.703  25.104  27.515  1.00  0.00     0.074 A 
ATOM     36  C   UNL A   1      42.294  25.523  27.860  1.00  0.00     0.049 A 
ATOM     37  N   UNL A   1      45.210  26.255  27.879  1.00  0.00    -0.248 NA
ATOM     38  C   UNL A   1      45.704  24.105  27.113  1.00  0.00     0.031 C 
ATOM     39  C   UNL A   1      40.867  25.200  27.921  1.00  0.00     0.029 A 
ATOM     40  N   UNL A   1      42.359  26.827  28.280  1.00  0.00    -0.354 N 
ATOM     41  C   UNL A   1      46.586  26.117  27.753  1.00  0.00     0.074 A 
ATOM     42  C   UNL A   1      46.837  24.752  27.342  1.00  0.00     0.031 C 
ATOM     43  C   UNL A   1      40.191  26.280  28.341  1.00  0.00     0.029 A 
ATOM     44  C   UNL A   1      41.138  27.354  28.619  1.00  0.00     0.049 A 
ATOM     45  H   UNL A   1      43.200  27.335  28.332  1.00  0.00     0.167 HD
ATOM     46  C   UNL A   1      47.551  27.050  27.938  1.00  0.00     0.037 A 
ATOM     47  C   UNL A   1      40.816  28.564  29.119  1.00  0.00     0.037 A 
ATOM     48  C   UNL A   1      47.293  28.406  28.350  1.00  0.00     0.049 A 
ATOM     49  C   UNL A   1      41.904  29.574  29.346  1.00  0.00     0.074 A 
ATOM     50  C   UNL A   1      48.194  29.443  28.517  1.00  0.00     0.029 A 
ATOM     51  N   UNL A   1      46.042  28.908  28.676  1.00  0.00    -0.354 N 
ATOM     52  N   UNL A   1      43.195  29.457  29.148  1.00  0.00    -0.248 NA
ATOM     53  C   UNL A   1      41.492  30.886  29.863  1.00  0.00     0.031 C 
ATOM     54  C   UNL A   1      47.496  30.554  29.000  1.00  0.00     0.029 A 
ATOM     55  C   UNL A   1      46.151  30.231  29.077  1.00  0.00     0.049 A 
ATOM     56  H   UNL A   1      45.199  28.400  28.629  1.00  0.00     0.167 HD
ATOM     57  C   UNL A   1      43.748  30.682  29.499  1.00  0.00     0.074 A 
ATOM     58  C   UNL A   1      42.648  31.535  29.902  1.00  0.00     0.031 C 
ATOM     59  C   UNL A   1      45.049  31.064  29.487  1.00  0.00     0.037 A 
BRANCH  46  60
ATOM     60  C   UNL A   1      48.972  26.624  27.703  1.00  0.00     0.057 A 
ATOM     61  C   UNL A   1      49.563  26.682  26.432  1.00  0.00     0.134 A 
ATOM     62  C   UNL A   1      49.766  26.155  28.759  1.00  0.00     0.134 A 
ATOM     63  F   UNL A   1      48.859  27.111  25.374  1.00  0.00    -0.206 F 
ATOM     64  C   UNL A   1      50.874  26.254  26.213  1.00  0.00     0.040 A 
ATOM     65  C   UNL A   1      51.088  25.755  28.558  1.00  0.00     0.040 A 
ATOM     66  F   UNL A   1      49.269  26.080  30.003  1.00  0.00    -0.206 F 
ATOM     67  C   UNL A   1      51.642  25.793  27.281  1.00  0.00     0.006 A 
ENDBRANCH  46  60
BRANCH  47  68
ATOM     68  C   UNL A   1      39.399  28.874  29.433  1.00  0.00     0.057 A 
ATOM     69  C   UNL A   1      38.539  29.403  28.465  1.00  0.00     0.134 A 
ATOM     70  C   UNL A   1      38.865  28.625  30.703  1.00  0.00     0.134 A 
ATOM     71  F   UNL A   1      38.995  29.677  27.233  1.00  0.00    -0.206 F 
ATOM     72  C   UNL A   1      37.202  29.685  28.751  1.00  0.00     0.040 A 
ATOM     73  C   UNL A   1      37.524  28.877  30.996  1.00  0.00     0.040 A 
ATOM     74  F   UNL A   1      39.635  28.108  31.673  1.00  0.00    -0.206 F 
ATOM     75  C   UNL A   1      36.690  29.414  30.019  1.00  0.00     0.006 A 
ENDBRANCH  47  68
BRANCH  59  76
ATOM     76  C   UNL A   1      45.354  32.472  29.913  1.00  0.00     0.057 A 
ATOM     77  C   UNL A   1      45.284  33.547  29.018  1.00  0.00     0.134 A 
ATOM     78  C   UNL A   1      45.678  32.761  31.246  1.00  0.00     0.134 A 
ATOM     79  F   UNL A   1      44.992  33.339  27.726  1.00  0.00    -0.206 F 
ATOM     80  C   UNL A   1      45.545  34.856  29.429  1.00  0.00     0.040 A 
ATOM     81  C   UNL A   1      45.913  34.067  31.674  1.00  0.00     0.040 A 
ATOM     82  F   UNL A   1      45.755  31.778  32.156  1.00  0.00    -0.206 F 
ATOM     83  C   UNL A   1      45.852  35.120  30.763  1.00  0.00     0.006 A 
ENDBRANCH  59  76
ENDBRANCH  33  34
ENDBRANCH  25  28
ENDBRANCH  23  24
ENDBRANCH  22  23
ENDBRANCH  21  22
ENDBRANCH  20  21
ENDBRANCH   1  20
TORSDOF 17
ENDMDL
