MODEL 1
REMARK VINA RESULT:     -11.8      0.000      0.000
REMARK SMILES Cc1ccc(NC(=O)c2csc(Br)c2)c(C(=O)NCCCCCCNC(=O)c2ccc(-c3c4nc(c(-c5c(F)cccc5F)c5ccc([nH]5)c(-c5c(F)cccc5F)c5nc(c(-c6c(F)cccc6F)c6ccc3[nH]6)C=C5)C=C4)cc2)c1
REMARK SMILES IDX 21 1 20 2 19 3 18 4 16 5 17 6 15 8 1 9 2 10 3 11 82 12 4 13
REMARK SMILES IDX 5 14 6 15 7 16 8 18 9 19 10 20 14 21 11 22 12 23 13 24 22 25
REMARK SMILES IDX 23 26 24 27 25 28 26 29 27 31 28 32 29 33 81 34 30 35 80 36
REMARK SMILES IDX 31 37 32 38 33 39 74 40 34 41 79 42 73 43 75 44 35 45 78 46
REMARK SMILES IDX 72 47 71 48 36 50 62 51 45 52 61 53 46 54 49 55 60 56 76 57
REMARK SMILES IDX 47 58 48 59 59 61 77 62 50 63 37 64 38 65 43 66 39 67 40 68
REMARK SMILES IDX 42 69 44 70 41 71 63 72 64 73 69 74 65 75 66 76 68 77 70 78
REMARK SMILES IDX 67 79 51 80 52 81 57 82 53 83 54 84 56 85 58 86 55 87
REMARK H PARENT 18 7 6 17 25 30 75 49 49 60
REMARK Flexibility Score: inf
ROOT
ATOM      1  C   UNL A   1      32.007  29.425  26.867  1.00  0.00     0.002 C 
ENDROOT
BRANCH   1   2
ATOM      2  C   UNL A   1      31.660  27.968  27.216  1.00  0.00     0.021 C 
BRANCH   2   3
ATOM      3  C   UNL A   1      32.528  26.916  26.515  1.00  0.00     0.116 C 
BRANCH   3   4
ATOM      4  N   UNL A   1      31.996  25.582  26.704  1.00  0.00    -0.352 N 
ATOM      5  C   UNL A   1      32.360  24.326  26.293  1.00  0.00     0.253 C 
ATOM      6  O   UNL A   1      31.641  23.413  26.713  1.00  0.00    -0.269 OA
ATOM      7  H   UNL A   1      31.182  25.577  27.257  1.00  0.00     0.163 HD
BRANCH   5   8
ATOM      8  C   UNL A   1      33.536  23.978  25.416  1.00  0.00     0.063 A 
ATOM      9  C   UNL A   1      37.346  23.625  25.612  1.00  0.00     0.044 C 
ATOM     10  C   UNL A   1      35.951  23.692  25.066  1.00  0.00    -0.050 A 
ATOM     11  C   UNL A   1      35.721  23.391  23.730  1.00  0.00     0.005 A 
ATOM     12  C   UNL A   1      34.863  24.053  25.874  1.00  0.00     0.019 A 
ATOM     13  C   UNL A   1      34.422  23.393  23.228  1.00  0.00     0.027 A 
ATOM     14  C   UNL A   1      33.312  23.597  24.058  1.00  0.00     0.054 A 
BRANCH  14  15
ATOM     15  N   UNL A   1      31.986  23.481  23.567  1.00  0.00    -0.321 N 
ATOM     16  C   UNL A   1      30.974  24.366  23.276  1.00  0.00     0.256 C 
ATOM     17  H   UNL A   1      31.729  22.546  23.394  1.00  0.00     0.170 HD
ATOM     18  O   UNL A   1      29.841  23.932  23.073  1.00  0.00    -0.269 OA
BRANCH  16  19
ATOM     19  C   UNL A   1      31.236  25.797  23.183  1.00  0.00     0.052 A 
ATOM     20  C   UNL A   1      32.429  26.289  22.678  1.00  0.00     0.080 A 
ATOM     21  C   UNL A   1      30.383  26.872  23.616  1.00  0.00     0.041 A 
ATOM     22  S   UNL A   1      32.452  27.998  22.594  1.00  0.00    -0.136 S 
ATOM     23  C   UNL A   1      30.915  28.097  23.298  1.00  0.00     0.071 A 
ATOM     24  Br  UNL A   1      30.024  29.719  23.584  1.00  0.00    -0.039 Br
ENDBRANCH  16  19
ENDBRANCH  14  15
ENDBRANCH   5   8
ENDBRANCH   3   4
ENDBRANCH   2   3
ENDBRANCH   1   2
BRANCH   1  25
ATOM     25  C   UNL A   1      33.416  29.681  26.301  1.00  0.00     0.002 C 
BRANCH  25  26
ATOM     26  C   UNL A   1      34.256  30.728  27.039  1.00  0.00     0.021 C 
BRANCH  26  27
ATOM     27  C   UNL A   1      34.307  30.524  28.551  1.00  0.00     0.116 C 
BRANCH  27  28
ATOM     28  N   UNL A   1      35.214  31.432  29.229  1.00  0.00    -0.352 N 
ATOM     29  C   UNL A   1      36.544  31.236  29.602  1.00  0.00     0.251 C 
ATOM     30  H   UNL A   1      34.838  32.314  29.456  1.00  0.00     0.163 HD
ATOM     31  O   UNL A   1      37.166  32.122  30.158  1.00  0.00    -0.269 OA
BRANCH  29  32
ATOM     32  C   UNL A   1      37.215  29.985  29.191  1.00  0.00     0.039 A 
ATOM     33  C   UNL A   1      37.452  29.024  30.176  1.00  0.00     0.014 A 
ATOM     34  C   UNL A   1      37.796  29.859  27.930  1.00  0.00     0.014 A 
ATOM     35  C   UNL A   1      38.473  28.095  29.992  1.00  0.00     0.010 A 
ATOM     36  C   UNL A   1      38.862  28.990  27.770  1.00  0.00     0.010 A 
ATOM     37  C   UNL A   1      39.250  28.169  28.832  1.00  0.00    -0.014 A 
BRANCH  37  38
ATOM     38  C   UNL A   1      40.579  27.570  28.750  1.00  0.00     0.031 A 
ATOM     39  C   UNL A   1      40.774  26.155  28.383  1.00  0.00     0.074 A 
ATOM     40  C   UNL A   1      41.669  28.329  29.006  1.00  0.00     0.049 A 
ATOM     41  N   UNL A   1      41.776  25.449  28.792  1.00  0.00    -0.248 NA
ATOM     42  C   UNL A   1      39.843  25.413  27.541  1.00  0.00     0.031 C 
ATOM     43  C   UNL A   1      43.068  27.971  28.792  1.00  0.00     0.029 A 
ATOM     44  N   UNL A   1      41.723  29.522  29.740  1.00  0.00    -0.354 N 
ATOM     45  C   UNL A   1      41.767  24.272  28.091  1.00  0.00     0.074 A 
ATOM     46  C   UNL A   1      40.514  24.268  27.364  1.00  0.00     0.031 C 
ATOM     47  C   UNL A   1      43.832  28.713  29.609  1.00  0.00     0.029 A 
ATOM     48  C   UNL A   1      42.943  29.491  30.452  1.00  0.00     0.049 A 
ATOM     49  H   UNL A   1      41.047  30.238  29.756  1.00  0.00     0.167 HD
ATOM     50  C   UNL A   1      42.860  23.462  28.095  1.00  0.00     0.037 A 
ATOM     51  C   UNL A   1      42.958  29.511  31.815  1.00  0.00     0.037 A 
ATOM     52  C   UNL A   1      43.950  23.984  28.909  1.00  0.00     0.049 A 
ATOM     53  C   UNL A   1      43.562  28.282  32.464  1.00  0.00     0.074 A 
ATOM     54  C   UNL A   1      45.121  24.672  28.639  1.00  0.00     0.029 A 
ATOM     55  N   UNL A   1      43.772  24.066  30.278  1.00  0.00    -0.354 N 
ATOM     56  N   UNL A   1      44.035  27.256  31.813  1.00  0.00    -0.248 NA
ATOM     57  C   UNL A   1      43.577  28.074  33.915  1.00  0.00     0.031 C 
ATOM     58  C   UNL A   1      45.644  25.167  29.867  1.00  0.00     0.029 A 
ATOM     59  C   UNL A   1      44.791  24.776  30.880  1.00  0.00     0.049 A 
ATOM     60  H   UNL A   1      43.013  23.669  30.761  1.00  0.00     0.167 HD
ATOM     61  C   UNL A   1      44.325  26.254  32.702  1.00  0.00     0.074 A 
ATOM     62  C   UNL A   1      44.038  26.817  34.007  1.00  0.00     0.031 C 
ATOM     63  C   UNL A   1      44.727  25.011  32.311  1.00  0.00     0.037 A 
BRANCH  50  64
ATOM     64  C   UNL A   1      42.979  22.294  27.163  1.00  0.00     0.057 A 
ATOM     65  C   UNL A   1      42.202  21.136  27.334  1.00  0.00     0.134 A 
ATOM     66  C   UNL A   1      43.887  22.254  26.091  1.00  0.00     0.134 A 
ATOM     67  F   UNL A   1      41.256  21.057  28.277  1.00  0.00    -0.206 F 
ATOM     68  C   UNL A   1      42.382  19.987  26.555  1.00  0.00     0.040 A 
ATOM     69  C   UNL A   1      44.112  21.096  25.336  1.00  0.00     0.040 A 
ATOM     70  F   UNL A   1      44.586  23.344  25.738  1.00  0.00    -0.206 F 
ATOM     71  C   UNL A   1      43.364  19.952  25.575  1.00  0.00     0.006 A 
ENDBRANCH  50  64
BRANCH  51  72
ATOM     72  C   UNL A   1      41.865  30.330  32.397  1.00  0.00     0.057 A 
ATOM     73  C   UNL A   1      42.000  31.729  32.408  1.00  0.00     0.134 A 
ATOM     74  C   UNL A   1      40.587  29.810  32.617  1.00  0.00     0.134 A 
ATOM     75  F   UNL A   1      43.200  32.293  32.200  1.00  0.00    -0.206 F 
ATOM     76  C   UNL A   1      40.896  32.576  32.528  1.00  0.00     0.040 A 
ATOM     77  C   UNL A   1      39.477  30.648  32.751  1.00  0.00     0.040 A 
ATOM     78  F   UNL A   1      40.376  28.486  32.596  1.00  0.00    -0.206 F 
ATOM     79  C   UNL A   1      39.623  32.033  32.670  1.00  0.00     0.006 A 
ENDBRANCH  51  72
BRANCH  63  80
ATOM     80  C   UNL A   1      45.074  23.908  33.267  1.00  0.00     0.057 A 
ATOM     81  C   UNL A   1      44.149  22.928  33.652  1.00  0.00     0.134 A 
ATOM     82  C   UNL A   1      46.314  23.874  33.935  1.00  0.00     0.134 A 
ATOM     83  F   UNL A   1      42.915  22.899  33.126  1.00  0.00    -0.206 F 
ATOM     84  C   UNL A   1      44.452  21.953  34.611  1.00  0.00     0.040 A 
ATOM     85  C   UNL A   1      46.611  22.936  34.927  1.00  0.00     0.040 A 
ATOM     86  F   UNL A   1      47.296  24.738  33.639  1.00  0.00    -0.206 F 
ATOM     87  C   UNL A   1      45.681  21.963  35.262  1.00  0.00     0.006 A 
ENDBRANCH  63  80
ENDBRANCH  37  38
ENDBRANCH  29  32
ENDBRANCH  27  28
ENDBRANCH  26  27
ENDBRANCH  25  26
ENDBRANCH   1  25
TORSDOF 15
ENDMDL
MODEL 2
REMARK VINA RESULT:     -11.6      3.953      9.105
REMARK SMILES Cc1ccc(NC(=O)c2csc(Br)c2)c(C(=O)NCCCCCCNC(=O)c2ccc(-c3c4nc(c(-c5c(F)cccc5F)c5ccc([nH]5)c(-c5c(F)cccc5F)c5nc(c(-c6c(F)cccc6F)c6ccc3[nH]6)C=C5)C=C4)cc2)c1
REMARK SMILES IDX 21 1 20 2 19 3 18 4 16 5 17 6 15 8 1 9 2 10 3 11 82 12 4 13
REMARK SMILES IDX 5 14 6 15 7 16 8 18 9 19 10 20 14 21 11 22 12 23 13 24 22 25
REMARK SMILES IDX 23 26 24 27 25 28 26 29 27 31 28 32 29 33 81 34 30 35 80 36
REMARK SMILES IDX 31 37 32 38 33 39 74 40 34 41 79 42 73 43 75 44 35 45 78 46
REMARK SMILES IDX 72 47 71 48 36 50 62 51 45 52 61 53 46 54 49 55 60 56 76 57
REMARK SMILES IDX 47 58 48 59 59 61 77 62 50 63 37 64 38 65 43 66 39 67 40 68
REMARK SMILES IDX 42 69 44 70 41 71 63 72 64 73 69 74 65 75 66 76 68 77 70 78
REMARK SMILES IDX 67 79 51 80 52 81 57 82 53 83 54 84 56 85 58 86 55 87
REMARK H PARENT 18 7 6 17 25 30 75 49 49 60
REMARK Flexibility Score: inf
ROOT
ATOM      1  C   UNL A   1      36.230  24.242  25.516  1.00  0.00     0.002 C 
ENDROOT
BRANCH   1   2
ATOM      2  C   UNL A   1      34.710  24.321  25.738  1.00  0.00     0.021 C 
BRANCH   2   3
ATOM      3  C   UNL A   1      34.061  25.632  25.275  1.00  0.00     0.116 C 
BRANCH   3   4
ATOM      4  N   UNL A   1      33.331  26.266  26.352  1.00  0.00    -0.352 N 
ATOM      5  C   UNL A   1      32.080  26.811  26.486  1.00  0.00     0.253 C 
ATOM      6  O   UNL A   1      31.813  27.231  27.617  1.00  0.00    -0.269 OA
ATOM      7  H   UNL A   1      33.855  26.318  27.184  1.00  0.00     0.163 HD
BRANCH   5   8
ATOM      8  C   UNL A   1      31.033  26.921  25.406  1.00  0.00     0.063 A 
ATOM      9  C   UNL A   1      30.347  28.843  22.163  1.00  0.00     0.044 C 
ATOM     10  C   UNL A   1      30.164  27.939  23.346  1.00  0.00    -0.050 A 
ATOM     11  C   UNL A   1      29.024  27.152  23.438  1.00  0.00     0.005 A 
ATOM     12  C   UNL A   1      31.120  27.867  24.369  1.00  0.00     0.019 A 
ATOM     13  C   UNL A   1      28.872  26.266  24.503  1.00  0.00     0.027 A 
ATOM     14  C   UNL A   1      29.888  26.069  25.447  1.00  0.00     0.054 A 
BRANCH  14  15
ATOM     15  N   UNL A   1      29.780  25.081  26.459  1.00  0.00    -0.321 N 
ATOM     16  C   UNL A   1      30.107  23.748  26.558  1.00  0.00     0.256 C 
ATOM     17  H   UNL A   1      29.376  25.431  27.286  1.00  0.00     0.170 HD
ATOM     18  O   UNL A   1      29.676  23.097  27.509  1.00  0.00    -0.269 OA
BRANCH  16  19
ATOM     19  C   UNL A   1      30.969  23.113  25.569  1.00  0.00     0.052 A 
ATOM     20  C   UNL A   1      30.983  23.522  24.245  1.00  0.00     0.080 A 
ATOM     21  C   UNL A   1      31.854  21.997  25.768  1.00  0.00     0.041 A 
ATOM     22  S   UNL A   1      32.142  22.678  23.310  1.00  0.00    -0.136 S 
ATOM     23  C   UNL A   1      32.573  21.715  24.633  1.00  0.00     0.071 A 
ATOM     24  Br  UNL A   1      33.921  20.417  24.558  1.00  0.00    -0.039 Br
ENDBRANCH  16  19
ENDBRANCH  14  15
ENDBRANCH   5   8
ENDBRANCH   3   4
ENDBRANCH   2   3
ENDBRANCH   1   2
BRANCH   1  25
ATOM     25  C   UNL A   1      36.737  23.089  24.631  1.00  0.00     0.002 C 
BRANCH  25  26
ATOM     26  C   UNL A   1      37.986  22.356  25.133  1.00  0.00     0.021 C 
BRANCH  26  27
ATOM     27  C   UNL A   1      38.590  22.962  26.397  1.00  0.00     0.116 C 
BRANCH  27  28
ATOM     28  N   UNL A   1      40.032  23.119  26.333  1.00  0.00    -0.352 N 
ATOM     29  C   UNL A   1      40.809  24.247  26.598  1.00  0.00     0.251 C 
ATOM     30  H   UNL A   1      40.533  22.314  26.066  1.00  0.00     0.163 HD
ATOM     31  O   UNL A   1      42.021  24.196  26.507  1.00  0.00    -0.269 OA
BRANCH  29  32
ATOM     32  C   UNL A   1      40.141  25.458  27.118  1.00  0.00     0.039 A 
ATOM     33  C   UNL A   1      40.413  26.671  26.480  1.00  0.00     0.014 A 
ATOM     34  C   UNL A   1      39.452  25.438  28.330  1.00  0.00     0.014 A 
ATOM     35  C   UNL A   1      40.240  27.863  27.179  1.00  0.00     0.010 A 
ATOM     36  C   UNL A   1      39.349  26.611  29.058  1.00  0.00     0.010 A 
ATOM     37  C   UNL A   1      39.821  27.808  28.512  1.00  0.00    -0.014 A 
BRANCH  37  38
ATOM     38  C   UNL A   1      40.040  28.914  29.440  1.00  0.00     0.031 A 
ATOM     39  C   UNL A   1      39.004  29.930  29.699  1.00  0.00     0.074 A 
ATOM     40  C   UNL A   1      41.222  29.011  30.093  1.00  0.00     0.049 A 
ATOM     41  N   UNL A   1      39.274  31.147  30.040  1.00  0.00    -0.248 NA
ATOM     42  C   UNL A   1      37.576  29.664  29.574  1.00  0.00     0.031 C 
ATOM     43  C   UNL A   1      41.557  29.919  31.186  1.00  0.00     0.029 A 
ATOM     44  N   UNL A   1      42.448  28.440  29.724  1.00  0.00    -0.354 N 
ATOM     45  C   UNL A   1      38.100  31.742  30.417  1.00  0.00     0.074 A 
ATOM     46  C   UNL A   1      37.060  30.800  30.058  1.00  0.00     0.031 C 
ATOM     47  C   UNL A   1      42.888  30.088  31.211  1.00  0.00     0.029 A 
ATOM     48  C   UNL A   1      43.440  29.386  30.068  1.00  0.00     0.049 A 
ATOM     49  H   UNL A   1      42.589  27.558  29.311  1.00  0.00     0.167 HD
ATOM     50  C   UNL A   1      38.115  32.920  31.098  1.00  0.00     0.037 A 
ATOM     51  C   UNL A   1      44.245  29.933  29.113  1.00  0.00     0.037 A 
ATOM     52  C   UNL A   1      39.462  33.424  31.331  1.00  0.00     0.049 A 
ATOM     53  C   UNL A   1      44.116  31.434  28.955  1.00  0.00     0.074 A 
ATOM     54  C   UNL A   1      40.334  33.402  32.407  1.00  0.00     0.029 A 
ATOM     55  N   UNL A   1      40.215  33.826  30.244  1.00  0.00    -0.354 N 
ATOM     56  N   UNL A   1      43.307  32.186  29.648  1.00  0.00    -0.248 NA
ATOM     57  C   UNL A   1      44.822  32.188  27.916  1.00  0.00     0.031 C 
ATOM     58  C   UNL A   1      41.622  33.800  31.949  1.00  0.00     0.029 A 
ATOM     59  C   UNL A   1      41.528  34.065  30.596  1.00  0.00     0.049 A 
ATOM     60  H   UNL A   1      39.860  33.928  29.333  1.00  0.00     0.167 HD
ATOM     61  C   UNL A   1      43.309  33.452  29.122  1.00  0.00     0.074 A 
ATOM     62  C   UNL A   1      44.285  33.411  28.050  1.00  0.00     0.031 C 
ATOM     63  C   UNL A   1      42.473  34.436  29.559  1.00  0.00     0.037 A 
BRANCH  50  64
ATOM     64  C   UNL A   1      36.876  33.481  31.729  1.00  0.00     0.057 A 
ATOM     65  C   UNL A   1      36.671  33.428  33.118  1.00  0.00     0.134 A 
ATOM     66  C   UNL A   1      35.830  34.059  30.990  1.00  0.00     0.134 A 
ATOM     67  F   UNL A   1      37.609  32.959  33.950  1.00  0.00    -0.206 F 
ATOM     68  C   UNL A   1      35.472  33.832  33.717  1.00  0.00     0.040 A 
ATOM     69  C   UNL A   1      34.607  34.421  31.570  1.00  0.00     0.040 A 
ATOM     70  F   UNL A   1      35.961  34.293  29.675  1.00  0.00    -0.206 F 
ATOM     71  C   UNL A   1      34.422  34.297  32.940  1.00  0.00     0.006 A 
ENDBRANCH  50  64
BRANCH  51  72
ATOM     72  C   UNL A   1      44.572  28.987  28.017  1.00  0.00     0.057 A 
ATOM     73  C   UNL A   1      45.508  27.966  28.261  1.00  0.00     0.134 A 
ATOM     74  C   UNL A   1      43.762  28.853  26.887  1.00  0.00     0.134 A 
ATOM     75  F   UNL A   1      46.315  28.031  29.331  1.00  0.00    -0.206 F 
ATOM     76  C   UNL A   1      45.562  26.812  27.476  1.00  0.00     0.040 A 
ATOM     77  C   UNL A   1      43.817  27.709  26.086  1.00  0.00     0.040 A 
ATOM     78  F   UNL A   1      42.830  29.774  26.603  1.00  0.00    -0.206 F 
ATOM     79  C   UNL A   1      44.692  26.669  26.400  1.00  0.00     0.006 A 
ENDBRANCH  51  72
BRANCH  63  80
ATOM     80  C   UNL A   1      42.476  35.836  29.016  1.00  0.00     0.057 A 
ATOM     81  C   UNL A   1      41.761  36.197  27.866  1.00  0.00     0.134 A 
ATOM     82  C   UNL A   1      43.307  36.835  29.559  1.00  0.00     0.134 A 
ATOM     83  F   UNL A   1      40.984  35.308  27.229  1.00  0.00    -0.206 F 
ATOM     84  C   UNL A   1      41.837  37.482  27.314  1.00  0.00     0.040 A 
ATOM     85  C   UNL A   1      43.428  38.105  28.989  1.00  0.00     0.040 A 
ATOM     86  F   UNL A   1      44.021  36.627  30.675  1.00  0.00    -0.206 F 
ATOM     87  C   UNL A   1      42.683  38.437  27.867  1.00  0.00     0.006 A 
ENDBRANCH  63  80
ENDBRANCH  37  38
ENDBRANCH  29  32
ENDBRANCH  27  28
ENDBRANCH  26  27
ENDBRANCH  25  26
ENDBRANCH   1  25
TORSDOF 15
ENDMDL
MODEL 3
REMARK VINA RESULT:     -11.6      0.511      1.050
REMARK SMILES Cc1ccc(NC(=O)c2csc(Br)c2)c(C(=O)NCCCCCCNC(=O)c2ccc(-c3c4nc(c(-c5c(F)cccc5F)c5ccc([nH]5)c(-c5c(F)cccc5F)c5nc(c(-c6c(F)cccc6F)c6ccc3[nH]6)C=C5)C=C4)cc2)c1
REMARK SMILES IDX 21 1 20 2 19 3 18 4 16 5 17 6 15 8 1 9 2 10 3 11 82 12 4 13
REMARK SMILES IDX 5 14 6 15 7 16 8 18 9 19 10 20 14 21 11 22 12 23 13 24 22 25
REMARK SMILES IDX 23 26 24 27 25 28 26 29 27 31 28 32 29 33 81 34 30 35 80 36
REMARK SMILES IDX 31 37 32 38 33 39 74 40 34 41 79 42 73 43 75 44 35 45 78 46
REMARK SMILES IDX 72 47 71 48 36 50 62 51 45 52 61 53 46 54 49 55 60 56 76 57
REMARK SMILES IDX 47 58 48 59 59 61 77 62 50 63 37 64 38 65 43 66 39 67 40 68
REMARK SMILES IDX 42 69 44 70 41 71 63 72 64 73 69 74 65 75 66 76 68 77 70 78
REMARK SMILES IDX 67 79 51 80 52 81 57 82 53 83 54 84 56 85 58 86 55 87
REMARK H PARENT 18 7 6 17 25 30 75 49 49 60
REMARK Flexibility Score: inf
ROOT
ATOM      1  C   UNL A   1      31.780  28.819  27.339  1.00  0.00     0.002 C 
ENDROOT
BRANCH   1   2
ATOM      2  C   UNL A   1      31.424  27.557  26.535  1.00  0.00     0.021 C 
BRANCH   2   3
ATOM      3  C   UNL A   1      32.579  26.566  26.352  1.00  0.00     0.116 C 
BRANCH   3   4
ATOM      4  N   UNL A   1      32.158  25.209  26.633  1.00  0.00    -0.352 N 
ATOM      5  C   UNL A   1      32.628  23.962  26.312  1.00  0.00     0.253 C 
ATOM      6  O   UNL A   1      31.985  23.023  26.794  1.00  0.00    -0.269 OA
ATOM      7  H   UNL A   1      31.344  25.174  27.185  1.00  0.00     0.163 HD
BRANCH   5   8
ATOM      8  C   UNL A   1      33.834  23.653  25.462  1.00  0.00     0.063 A 
ATOM      9  C   UNL A   1      37.647  23.407  25.752  1.00  0.00     0.044 C 
ATOM     10  C   UNL A   1      36.265  23.438  25.171  1.00  0.00    -0.050 A 
ATOM     11  C   UNL A   1      36.077  23.139  23.828  1.00  0.00     0.005 A 
ATOM     12  C   UNL A   1      35.148  23.763  25.954  1.00  0.00     0.019 A 
ATOM     13  C   UNL A   1      34.791  23.107  23.294  1.00  0.00     0.027 A 
ATOM     14  C   UNL A   1      33.656  23.275  24.097  1.00  0.00     0.054 A 
BRANCH  14  15
ATOM     15  N   UNL A   1      32.346  23.124  23.573  1.00  0.00    -0.321 N 
ATOM     16  C   UNL A   1      31.348  23.987  23.182  1.00  0.00     0.256 C 
ATOM     17  H   UNL A   1      32.091  22.179  23.463  1.00  0.00     0.170 HD
ATOM     18  O   UNL A   1      30.221  23.541  22.975  1.00  0.00    -0.269 OA
BRANCH  16  19
ATOM     19  C   UNL A   1      31.619  25.405  22.989  1.00  0.00     0.052 A 
ATOM     20  C   UNL A   1      32.874  25.866  22.622  1.00  0.00     0.080 A 
ATOM     21  C   UNL A   1      30.710  26.504  23.183  1.00  0.00     0.041 A 
ATOM     22  S   UNL A   1      32.907  27.559  22.375  1.00  0.00    -0.136 S 
ATOM     23  C   UNL A   1      31.282  27.700  22.830  1.00  0.00     0.071 A 
ATOM     24  Br  UNL A   1      30.356  29.328  22.820  1.00  0.00    -0.039 Br
ENDBRANCH  16  19
ENDBRANCH  14  15
ENDBRANCH   5   8
ENDBRANCH   3   4
ENDBRANCH   2   3
ENDBRANCH   1   2
BRANCH   1  25
ATOM     25  C   UNL A   1      32.226  30.049  26.528  1.00  0.00     0.002 C 
BRANCH  25  26
ATOM     26  C   UNL A   1      33.168  31.021  27.246  1.00  0.00     0.021 C 
BRANCH  26  27
ATOM     27  C   UNL A   1      34.259  30.333  28.062  1.00  0.00     0.116 C 
BRANCH  27  28
ATOM     28  N   UNL A   1      35.027  31.246  28.889  1.00  0.00    -0.352 N 
ATOM     29  C   UNL A   1      36.296  31.078  29.444  1.00  0.00     0.251 C 
ATOM     30  H   UNL A   1      34.591  32.107  29.086  1.00  0.00     0.163 HD
ATOM     31  O   UNL A   1      36.800  31.963  30.110  1.00  0.00    -0.269 OA
BRANCH  29  32
ATOM     32  C   UNL A   1      37.063  29.863  29.098  1.00  0.00     0.039 A 
ATOM     33  C   UNL A   1      37.344  28.960  30.126  1.00  0.00     0.014 A 
ATOM     34  C   UNL A   1      37.680  29.730  27.855  1.00  0.00     0.014 A 
ATOM     35  C   UNL A   1      38.432  28.100  30.001  1.00  0.00     0.010 A 
ATOM     36  C   UNL A   1      38.808  28.933  27.752  1.00  0.00     0.010 A 
ATOM     37  C   UNL A   1      39.229  28.184  28.855  1.00  0.00    -0.014 A 
BRANCH  37  38
ATOM     38  C   UNL A   1      40.598  27.678  28.824  1.00  0.00     0.031 A 
ATOM     39  C   UNL A   1      40.912  26.306  28.384  1.00  0.00     0.074 A 
ATOM     40  C   UNL A   1      41.616  28.488  29.198  1.00  0.00     0.049 A 
ATOM     41  N   UNL A   1      41.932  25.640  28.814  1.00  0.00    -0.248 NA
ATOM     42  C   UNL A   1      40.087  25.562  27.439  1.00  0.00     0.031 C 
ATOM     43  C   UNL A   1      43.046  28.235  29.055  1.00  0.00     0.029 A 
ATOM     44  N   UNL A   1      41.542  29.630  30.006  1.00  0.00    -0.354 N 
ATOM     45  C   UNL A   1      42.046  24.514  28.043  1.00  0.00     0.074 A 
ATOM     46  C   UNL A   1      40.844  24.478  27.236  1.00  0.00     0.031 C 
ATOM     47  C   UNL A   1      43.705  28.969  29.965  1.00  0.00     0.029 A 
ATOM     48  C   UNL A   1      42.714  29.631  30.794  1.00  0.00     0.049 A 
ATOM     49  H   UNL A   1      40.819  30.299  30.021  1.00  0.00     0.167 HD
ATOM     50  C   UNL A   1      43.190  23.777  28.070  1.00  0.00     0.037 A 
ATOM     51  C   UNL A   1      42.644  29.562  32.154  1.00  0.00     0.037 A 
ATOM     52  C   UNL A   1      44.190  24.313  28.985  1.00  0.00     0.049 A 
ATOM     53  C   UNL A   1      43.289  28.335  32.764  1.00  0.00     0.074 A 
ATOM     54  C   UNL A   1      45.325  25.092  28.835  1.00  0.00     0.029 A 
ATOM     55  N   UNL A   1      43.922  24.294  30.341  1.00  0.00    -0.354 N 
ATOM     56  N   UNL A   1      43.870  27.386  32.084  1.00  0.00    -0.248 NA
ATOM     57  C   UNL A   1      43.228  28.033  34.197  1.00  0.00     0.031 C 
ATOM     58  C   UNL A   1      45.736  25.538  30.124  1.00  0.00     0.029 A 
ATOM     59  C   UNL A   1      44.851  25.026  31.052  1.00  0.00     0.049 A 
ATOM     60  H   UNL A   1      43.163  23.818  30.748  1.00  0.00     0.167 HD
ATOM     61  C   UNL A   1      44.173  26.348  32.927  1.00  0.00     0.074 A 
ATOM     62  C   UNL A   1      43.768  26.805  34.242  1.00  0.00     0.031 C 
ATOM     63  C   UNL A   1      44.682  25.163  32.487  1.00  0.00     0.037 A 
BRANCH  50  64
ATOM     64  C   UNL A   1      43.446  22.683  27.077  1.00  0.00     0.057 A 
ATOM     65  C   UNL A   1      42.720  21.481  27.106  1.00  0.00     0.134 A 
ATOM     66  C   UNL A   1      44.440  22.760  26.087  1.00  0.00     0.134 A 
ATOM     67  F   UNL A   1      41.705  21.293  27.958  1.00  0.00    -0.206 F 
ATOM     68  C   UNL A   1      43.023  20.399  26.272  1.00  0.00     0.040 A 
ATOM     69  C   UNL A   1      44.787  21.668  25.280  1.00  0.00     0.040 A 
ATOM     70  F   UNL A   1      45.108  23.903  25.866  1.00  0.00    -0.206 F 
ATOM     71  C   UNL A   1      44.082  20.477  25.380  1.00  0.00     0.006 A 
ENDBRANCH  50  64
BRANCH  51  72
ATOM     72  C   UNL A   1      41.463  30.269  32.711  1.00  0.00     0.057 A 
ATOM     73  C   UNL A   1      41.481  31.673  32.769  1.00  0.00     0.134 A 
ATOM     74  C   UNL A   1      40.225  29.639  32.860  1.00  0.00     0.134 A 
ATOM     75  F   UNL A   1      42.637  32.341  32.630  1.00  0.00    -0.206 F 
ATOM     76  C   UNL A   1      40.306  32.422  32.865  1.00  0.00     0.040 A 
ATOM     77  C   UNL A   1      39.044  30.378  32.970  1.00  0.00     0.040 A 
ATOM     78  F   UNL A   1      40.126  28.304  32.791  1.00  0.00    -0.206 F 
ATOM     79  C   UNL A   1      39.078  31.773  32.936  1.00  0.00     0.006 A 
ENDBRANCH  51  72
BRANCH  63  80
ATOM     80  C   UNL A   1      45.044  24.023  33.395  1.00  0.00     0.057 A 
ATOM     81  C   UNL A   1      46.315  23.898  33.973  1.00  0.00     0.134 A 
ATOM     82  C   UNL A   1      44.165  22.944  33.610  1.00  0.00     0.134 A 
ATOM     83  F   UNL A   1      47.254  24.837  33.785  1.00  0.00    -0.206 F 
ATOM     84  C   UNL A   1      46.675  22.789  34.748  1.00  0.00     0.040 A 
ATOM     85  C   UNL A   1      44.529  21.811  34.342  1.00  0.00     0.040 A 
ATOM     86  F   UNL A   1      42.911  22.953  33.136  1.00  0.00    -0.206 F 
ATOM     87  C   UNL A   1      45.786  21.734  34.924  1.00  0.00     0.006 A 
ENDBRANCH  63  80
ENDBRANCH  37  38
ENDBRANCH  29  32
ENDBRANCH  27  28
ENDBRANCH  26  27
ENDBRANCH  25  26
ENDBRANCH   1  25
TORSDOF 15
ENDMDL
