MODEL 1
REMARK VINA RESULT:     -12.0      0.000      0.000
REMARK SMILES O=C(NCCCCCCNC(=O)c1cn(-c2ccccc2)c2c1N=C(O)C[C@@H]2c1cccs1)c1ccc(-c2c3nc(c(-c4c(F)cccc4F)c4ccc([nH]4)c(-c4c(F)cccc4F)c4nc(c(-c5c(F)cccc5F)c5ccc2[nH]5)C=C4)C=C3)cc1
REMARK SMILES IDX 6 1 5 2 4 3 3 4 1 5 2 6 34 8 35 9 87 10 36 11 86 12 37 13
REMARK SMILES IDX 38 14 39 15 80 16 40 17 85 18 79 19 81 20 41 21 84 22 78 23
REMARK SMILES IDX 77 24 42 26 68 27 51 28 67 29 52 30 55 31 66 32 82 33 53 34
REMARK SMILES IDX 54 35 65 37 83 38 56 39 43 40 44 41 49 42 45 43 46 44 48 45
REMARK SMILES IDX 50 46 47 47 69 48 70 49 75 50 71 51 72 52 74 53 76 54 73 55
REMARK SMILES IDX 57 56 58 57 63 58 59 59 60 60 62 61 64 62 61 63 7 64 8 65
REMARK SMILES IDX 9 66 10 67 11 68 12 70 13 71 14 72 23 73 15 74 22 75 24 76
REMARK SMILES IDX 28 77 25 78 27 79 16 80 17 81 21 82 18 83 20 84 19 85 29 86
REMARK SMILES IDX 30 87 33 88 31 89 32 90 26 91
REMARK H PARENT 3 7 81 25 55 36 10 69 26 92
REMARK Flexibility Score: inf
ROOT
ATOM      1  C   UNL A   1      40.472  20.859  26.752  1.00  0.00     0.002 C 
ENDROOT
BRANCH   1   2
ATOM      2  C   UNL A   1      41.006  19.570  26.115  1.00  0.00     0.021 C 
BRANCH   2   3
ATOM      3  C   UNL A   1      42.469  19.262  26.429  1.00  0.00     0.116 C 
BRANCH   3   4
ATOM      4  N   UNL A   1      43.389  19.603  25.363  1.00  0.00    -0.352 N 
ATOM      5  O   UNL A   1      44.818  20.641  24.031  1.00  0.00    -0.269 OA
ATOM      6  C   UNL A   1      44.022  20.747  24.966  1.00  0.00     0.251 C 
ATOM      7  H   UNL A   1      43.609  18.832  24.792  1.00  0.00     0.163 HD
BRANCH   6   8
ATOM      8  C   UNL A   1      43.777  22.099  25.539  1.00  0.00     0.039 A 
ATOM      9  C   UNL A   1      42.849  23.028  25.066  1.00  0.00     0.014 A 
ATOM     10  C   UNL A   1      44.546  22.431  26.670  1.00  0.00     0.014 A 
ATOM     11  C   UNL A   1      42.740  24.282  25.662  1.00  0.00     0.010 A 
ATOM     12  C   UNL A   1      44.427  23.674  27.282  1.00  0.00     0.010 A 
ATOM     13  C   UNL A   1      43.539  24.611  26.761  1.00  0.00    -0.014 A 
BRANCH  13  14
ATOM     14  C   UNL A   1      43.288  25.881  27.440  1.00  0.00     0.031 A 
ATOM     15  C   UNL A   1      44.286  26.958  27.153  1.00  0.00     0.074 A 
ATOM     16  C   UNL A   1      42.161  26.150  28.127  1.00  0.00     0.049 A 
ATOM     17  N   UNL A   1      44.995  27.651  27.986  1.00  0.00    -0.248 NA
ATOM     18  C   UNL A   1      44.579  27.249  25.738  1.00  0.00     0.031 C 
ATOM     19  C   UNL A   1      40.955  25.326  28.236  1.00  0.00     0.029 A 
ATOM     20  N   UNL A   1      41.816  27.289  28.793  1.00  0.00    -0.354 N 
ATOM     21  C   UNL A   1      45.700  28.578  27.218  1.00  0.00     0.074 A 
ATOM     22  C   UNL A   1      45.496  28.211  25.841  1.00  0.00     0.031 C 
ATOM     23  C   UNL A   1      39.946  26.077  28.733  1.00  0.00     0.029 A 
ATOM     24  C   UNL A   1      40.464  27.387  29.095  1.00  0.00     0.049 A 
ATOM     25  H   UNL A   1      42.469  27.984  29.040  1.00  0.00     0.167 HD
ATOM     26  C   UNL A   1      46.250  29.702  27.753  1.00  0.00     0.037 A 
ATOM     27  C   UNL A   1      39.807  28.484  29.545  1.00  0.00     0.037 A 
ATOM     28  C   UNL A   1      46.437  29.587  29.172  1.00  0.00     0.049 A 
ATOM     29  C   UNL A   1      40.812  29.429  30.088  1.00  0.00     0.074 A 
ATOM     30  C   UNL A   1      47.160  28.742  29.991  1.00  0.00     0.029 A 
ATOM     31  N   UNL A   1      45.559  30.236  30.000  1.00  0.00    -0.354 N 
ATOM     32  N   UNL A   1      41.492  29.231  31.180  1.00  0.00    -0.248 NA
ATOM     33  C   UNL A   1      41.359  30.426  29.181  1.00  0.00     0.031 C 
ATOM     34  C   UNL A   1      46.341  28.557  31.143  1.00  0.00     0.029 A 
ATOM     35  C   UNL A   1      45.197  29.337  30.970  1.00  0.00     0.049 A 
ATOM     36  H   UNL A   1      45.249  31.166  29.916  1.00  0.00     0.167 HD
ATOM     37  C   UNL A   1      42.751  29.741  30.906  1.00  0.00     0.074 A 
ATOM     38  C   UNL A   1      42.581  30.551  29.702  1.00  0.00     0.031 C 
ATOM     39  C   UNL A   1      43.865  29.239  31.515  1.00  0.00     0.037 A 
BRANCH  26  40
ATOM     40  C   UNL A   1      46.315  31.027  27.036  1.00  0.00     0.057 A 
ATOM     41  C   UNL A   1      47.529  31.734  26.975  1.00  0.00     0.134 A 
ATOM     42  C   UNL A   1      45.173  31.764  26.661  1.00  0.00     0.134 A 
ATOM     43  F   UNL A   1      48.684  31.153  27.335  1.00  0.00    -0.206 F 
ATOM     44  C   UNL A   1      47.592  33.089  26.621  1.00  0.00     0.040 A 
ATOM     45  C   UNL A   1      45.232  33.101  26.257  1.00  0.00     0.040 A 
ATOM     46  F   UNL A   1      43.936  31.262  26.763  1.00  0.00    -0.206 F 
ATOM     47  C   UNL A   1      46.440  33.777  26.265  1.00  0.00     0.006 A 
ENDBRANCH  26  40
BRANCH  27  48
ATOM     48  C   UNL A   1      38.412  28.904  29.278  1.00  0.00     0.057 A 
ATOM     49  C   UNL A   1      37.476  29.024  30.315  1.00  0.00     0.134 A 
ATOM     50  C   UNL A   1      38.042  29.467  28.044  1.00  0.00     0.134 A 
ATOM     51  F   UNL A   1      37.753  28.560  31.541  1.00  0.00    -0.206 F 
ATOM     52  C   UNL A   1      36.251  29.684  30.140  1.00  0.00     0.040 A 
ATOM     53  C   UNL A   1      36.820  30.120  27.854  1.00  0.00     0.040 A 
ATOM     54  F   UNL A   1      38.891  29.481  27.006  1.00  0.00    -0.206 F 
ATOM     55  C   UNL A   1      35.925  30.243  28.908  1.00  0.00     0.006 A 
ENDBRANCH  27  48
BRANCH  39  56
ATOM     56  C   UNL A   1      43.671  28.300  32.673  1.00  0.00     0.057 A 
ATOM     57  C   UNL A   1      43.605  26.903  32.547  1.00  0.00     0.134 A 
ATOM     58  C   UNL A   1      43.697  28.815  33.973  1.00  0.00     0.134 A 
ATOM     59  F   UNL A   1      43.681  26.308  31.350  1.00  0.00    -0.206 F 
ATOM     60  C   UNL A   1      43.519  26.065  33.663  1.00  0.00     0.040 A 
ATOM     61  C   UNL A   1      43.648  27.987  35.096  1.00  0.00     0.040 A 
ATOM     62  F   UNL A   1      43.819  30.137  34.173  1.00  0.00    -0.206 F 
ATOM     63  C   UNL A   1      43.547  26.607  34.943  1.00  0.00     0.006 A 
ENDBRANCH  39  56
ENDBRANCH  13  14
ENDBRANCH   6   8
ENDBRANCH   3   4
ENDBRANCH   2   3
ENDBRANCH   1   2
BRANCH   1  64
ATOM     64  C   UNL A   1      39.415  21.618  25.943  1.00  0.00     0.002 C 
BRANCH  64  65
ATOM     65  C   UNL A   1      39.075  23.020  26.454  1.00  0.00     0.021 C 
BRANCH  65  66
ATOM     66  C   UNL A   1      37.668  23.497  26.110  1.00  0.00     0.116 C 
BRANCH  66  67
ATOM     67  N   UNL A   1      37.325  23.241  24.721  1.00  0.00    -0.352 N 
ATOM     68  C   UNL A   1      36.120  23.453  24.094  1.00  0.00     0.255 C 
ATOM     69  H   UNL A   1      38.044  22.869  24.161  1.00  0.00     0.163 HD
ATOM     70  O   UNL A   1      35.958  23.039  22.946  1.00  0.00    -0.269 OA
BRANCH  68  71
ATOM     71  C   UNL A   1      35.056  24.096  24.841  1.00  0.00     0.084 A 
ATOM     72  C   UNL A   1      34.969  25.456  25.085  1.00  0.00     0.107 A 
ATOM     73  C   UNL A   1      33.897  23.541  25.419  1.00  0.00     0.101 A 
ATOM     74  N   UNL A   1      33.788  25.735  25.748  1.00  0.00    -0.317 N 
ATOM     75  C   UNL A   1      33.082  24.547  25.869  1.00  0.00     0.058 A 
ATOM     76  N   UNL A   1      33.538  22.199  25.352  1.00  0.00    -0.215 NA
ATOM     77  C   UNL A   1      31.637  24.368  26.196  1.00  0.00     0.088 C 
ATOM     78  C   UNL A   1      32.341  21.937  25.746  1.00  0.00     0.187 C 
ATOM     79  C   UNL A   1      31.322  22.865  26.356  1.00  0.00     0.112 C 
BRANCH  74  80
ATOM     80  C   UNL A   1      33.368  27.035  26.122  1.00  0.00     0.045 A 
ATOM     81  C   UNL A   1      33.809  28.151  25.406  1.00  0.00     0.026 A 
ATOM     82  C   UNL A   1      32.498  27.192  27.210  1.00  0.00     0.026 A 
ATOM     83  C   UNL A   1      33.385  29.426  25.787  1.00  0.00     0.002 A 
ATOM     84  C   UNL A   1      32.108  28.472  27.605  1.00  0.00     0.002 A 
ATOM     85  C   UNL A   1      32.547  29.586  26.892  1.00  0.00     0.000 A 
ENDBRANCH  74  80
BRANCH  77  86
ATOM     86  C   UNL A   1      30.657  24.992  25.201  1.00  0.00     0.014 A 
ATOM     87  C   UNL A   1      29.621  25.860  25.510  1.00  0.00     0.016 A 
ATOM     88  S   UNL A   1      30.682  24.667  23.513  1.00  0.00    -0.148 S 
ATOM     89  C   UNL A   1      28.896  26.293  24.363  1.00  0.00     0.012 A 
ATOM     90  C   UNL A   1      29.404  25.754  23.204  1.00  0.00     0.065 A 
ENDBRANCH  77  86
BRANCH  78  91
ATOM     91  O   UNL A   1      31.924  20.655  25.656  1.00  0.00    -0.496 OA
ATOM     92  H   UNL A   1      31.239  20.344  26.215  1.00  0.00     0.294 HD
ENDBRANCH  78  91
ENDBRANCH  68  71
ENDBRANCH  66  67
ENDBRANCH  65  66
ENDBRANCH  64  65
ENDBRANCH   1  64
TORSDOF 16
ENDMDL
MODEL 2
REMARK VINA RESULT:     -11.0      5.239     11.102
REMARK SMILES O=C(NCCCCCCNC(=O)c1cn(-c2ccccc2)c2c1N=C(O)C[C@@H]2c1cccs1)c1ccc(-c2c3nc(c(-c4c(F)cccc4F)c4ccc([nH]4)c(-c4c(F)cccc4F)c4nc(c(-c5c(F)cccc5F)c5ccc2[nH]5)C=C4)C=C3)cc1
REMARK SMILES IDX 6 1 5 2 4 3 3 4 1 5 2 6 34 8 35 9 87 10 36 11 86 12 37 13
REMARK SMILES IDX 38 14 39 15 80 16 40 17 85 18 79 19 81 20 41 21 84 22 78 23
REMARK SMILES IDX 77 24 42 26 68 27 51 28 67 29 52 30 55 31 66 32 82 33 53 34
REMARK SMILES IDX 54 35 65 37 83 38 56 39 43 40 44 41 49 42 45 43 46 44 48 45
REMARK SMILES IDX 50 46 47 47 69 48 70 49 75 50 71 51 72 52 74 53 76 54 73 55
REMARK SMILES IDX 57 56 58 57 63 58 59 59 60 60 62 61 64 62 61 63 7 64 8 65
REMARK SMILES IDX 9 66 10 67 11 68 12 70 13 71 14 72 23 73 15 74 22 75 24 76
REMARK SMILES IDX 28 77 25 78 27 79 16 80 17 81 21 82 18 83 20 84 19 85 29 86
REMARK SMILES IDX 30 87 33 88 31 89 32 90 26 91
REMARK H PARENT 3 7 81 25 55 36 10 69 26 92
REMARK Flexibility Score: inf
ROOT
ATOM      1  C   UNL A   1      36.402  34.385  32.806  1.00  0.00     0.002 C 
ENDROOT
BRANCH   1   2
ATOM      2  C   UNL A   1      36.392  33.043  32.063  1.00  0.00     0.021 C 
BRANCH   2   3
ATOM      3  C   UNL A   1      35.001  32.526  31.701  1.00  0.00     0.116 C 
BRANCH   3   4
ATOM      4  N   UNL A   1      34.778  32.371  30.278  1.00  0.00    -0.352 N 
ATOM      5  O   UNL A   1      34.842  31.702  28.170  1.00  0.00    -0.269 OA
ATOM      6  C   UNL A   1      35.364  31.638  29.285  1.00  0.00     0.251 C 
ATOM      7  H   UNL A   1      34.031  32.923  29.950  1.00  0.00     0.163 HD
BRANCH   6   8
ATOM      8  C   UNL A   1      36.601  30.827  29.443  1.00  0.00     0.039 A 
ATOM      9  C   UNL A   1      36.652  29.478  29.797  1.00  0.00     0.014 A 
ATOM     10  C   UNL A   1      37.810  31.500  29.182  1.00  0.00     0.014 A 
ATOM     11  C   UNL A   1      37.878  28.836  29.955  1.00  0.00     0.010 A 
ATOM     12  C   UNL A   1      39.036  30.858  29.317  1.00  0.00     0.010 A 
ATOM     13  C   UNL A   1      39.070  29.529  29.730  1.00  0.00    -0.014 A 
BRANCH  13  14
ATOM     14  C   UNL A   1      40.323  28.777  29.768  1.00  0.00     0.031 A 
ATOM     15  C   UNL A   1      40.903  28.584  31.134  1.00  0.00     0.074 A 
ATOM     16  C   UNL A   1      40.842  28.138  28.702  1.00  0.00     0.049 A 
ATOM     17  N   UNL A   1      42.085  28.890  31.564  1.00  0.00    -0.248 NA
ATOM     18  C   UNL A   1      40.013  28.039  32.175  1.00  0.00     0.031 C 
ATOM     19  C   UNL A   1      40.241  27.960  27.378  1.00  0.00     0.029 A 
ATOM     20  N   UNL A   1      41.991  27.408  28.617  1.00  0.00    -0.354 N 
ATOM     21  C   UNL A   1      42.151  28.427  32.879  1.00  0.00     0.074 A 
ATOM     22  C   UNL A   1      40.817  28.020  33.238  1.00  0.00     0.031 C 
ATOM     23  C   UNL A   1      40.918  27.002  26.706  1.00  0.00     0.029 A 
ATOM     24  C   UNL A   1      42.069  26.594  27.495  1.00  0.00     0.049 A 
ATOM     25  H   UNL A   1      42.705  27.454  29.294  1.00  0.00     0.167 HD
ATOM     26  C   UNL A   1      43.332  28.229  33.526  1.00  0.00     0.037 A 
ATOM     27  C   UNL A   1      42.973  25.610  27.263  1.00  0.00     0.037 A 
ATOM     28  C   UNL A   1      44.406  28.965  32.921  1.00  0.00     0.049 A 
ATOM     29  C   UNL A   1      44.126  25.826  28.169  1.00  0.00     0.074 A 
ATOM     30  C   UNL A   1      44.660  30.303  32.692  1.00  0.00     0.029 A 
ATOM     31  N   UNL A   1      45.304  28.284  32.140  1.00  0.00    -0.354 N 
ATOM     32  N   UNL A   1      44.975  26.807  28.059  1.00  0.00    -0.248 NA
ATOM     33  C   UNL A   1      44.099  25.164  29.464  1.00  0.00     0.031 C 
ATOM     34  C   UNL A   1      45.322  30.341  31.429  1.00  0.00     0.029 A 
ATOM     35  C   UNL A   1      45.469  29.023  30.997  1.00  0.00     0.049 A 
ATOM     36  H   UNL A   1      45.745  27.431  32.357  1.00  0.00     0.167 HD
ATOM     37  C   UNL A   1      45.267  27.166  29.365  1.00  0.00     0.074 A 
ATOM     38  C   UNL A   1      44.780  26.058  30.184  1.00  0.00     0.031 C 
ATOM     39  C   UNL A   1      45.624  28.445  29.685  1.00  0.00     0.037 A 
BRANCH  26  40
ATOM     40  C   UNL A   1      43.573  27.112  34.509  1.00  0.00     0.057 A 
ATOM     41  C   UNL A   1      43.674  25.785  34.054  1.00  0.00     0.134 A 
ATOM     42  C   UNL A   1      43.419  27.257  35.902  1.00  0.00     0.134 A 
ATOM     43  F   UNL A   1      43.793  25.513  32.745  1.00  0.00    -0.206 F 
ATOM     44  C   UNL A   1      43.572  24.685  34.917  1.00  0.00     0.040 A 
ATOM     45  C   UNL A   1      43.368  26.168  36.778  1.00  0.00     0.040 A 
ATOM     46  F   UNL A   1      43.209  28.449  36.476  1.00  0.00    -0.206 F 
ATOM     47  C   UNL A   1      43.414  24.876  36.283  1.00  0.00     0.006 A 
ENDBRANCH  26  40
BRANCH  27  48
ATOM     48  C   UNL A   1      42.791  24.337  26.529  1.00  0.00     0.057 A 
ATOM     49  C   UNL A   1      43.510  24.061  25.357  1.00  0.00     0.134 A 
ATOM     50  C   UNL A   1      42.119  23.247  27.111  1.00  0.00     0.134 A 
ATOM     51  F   UNL A   1      44.221  25.023  24.752  1.00  0.00    -0.206 F 
ATOM     52  C   UNL A   1      43.574  22.773  24.808  1.00  0.00     0.040 A 
ATOM     53  C   UNL A   1      42.168  21.959  26.569  1.00  0.00     0.040 A 
ATOM     54  F   UNL A   1      41.467  23.378  28.276  1.00  0.00    -0.206 F 
ATOM     55  C   UNL A   1      42.909  21.715  25.421  1.00  0.00     0.006 A 
ENDBRANCH  27  48
BRANCH  39  56
ATOM     56  C   UNL A   1      45.939  29.389  28.558  1.00  0.00     0.057 A 
ATOM     57  C   UNL A   1      44.972  30.137  27.868  1.00  0.00     0.134 A 
ATOM     58  C   UNL A   1      47.278  29.659  28.258  1.00  0.00     0.134 A 
ATOM     59  F   UNL A   1      43.670  30.028  28.159  1.00  0.00    -0.206 F 
ATOM     60  C   UNL A   1      45.323  31.074  26.891  1.00  0.00     0.040 A 
ATOM     61  C   UNL A   1      47.643  30.618  27.310  1.00  0.00     0.040 A 
ATOM     62  F   UNL A   1      48.260  29.026  28.919  1.00  0.00    -0.206 F 
ATOM     63  C   UNL A   1      46.663  31.321  26.614  1.00  0.00     0.006 A 
ENDBRANCH  39  56
ENDBRANCH  13  14
ENDBRANCH   6   8
ENDBRANCH   3   4
ENDBRANCH   2   3
ENDBRANCH   1   2
BRANCH   1  64
ATOM     64  C   UNL A   1      37.348  34.479  34.008  1.00  0.00     0.002 C 
BRANCH  64  65
ATOM     65  C   UNL A   1      36.852  33.810  35.292  1.00  0.00     0.021 C 
BRANCH  65  66
ATOM     66  C   UNL A   1      37.793  32.757  35.865  1.00  0.00     0.116 C 
BRANCH  66  67
ATOM     67  N   UNL A   1      37.507  31.427  35.354  1.00  0.00    -0.352 N 
ATOM     68  C   UNL A   1      38.224  30.700  34.434  1.00  0.00     0.255 C 
ATOM     69  H   UNL A   1      36.698  30.993  35.711  1.00  0.00     0.163 HD
ATOM     70  O   UNL A   1      37.756  29.648  34.000  1.00  0.00    -0.269 OA
BRANCH  68  71
ATOM     71  C   UNL A   1      39.479  31.245  33.951  1.00  0.00     0.084 A 
ATOM     72  C   UNL A   1      39.678  31.776  32.688  1.00  0.00     0.107 A 
ATOM     73  C   UNL A   1      40.709  31.405  34.619  1.00  0.00     0.101 A 
ATOM     74  N   UNL A   1      40.962  32.282  32.594  1.00  0.00    -0.317 N 
ATOM     75  C   UNL A   1      41.567  32.130  33.832  1.00  0.00     0.058 A 
ATOM     76  N   UNL A   1      40.944  31.068  35.948  1.00  0.00    -0.215 NA
ATOM     77  C   UNL A   1      42.800  32.801  34.340  1.00  0.00     0.088 C 
ATOM     78  C   UNL A   1      42.058  31.499  36.428  1.00  0.00     0.187 C 
ATOM     79  C   UNL A   1      43.174  32.226  35.723  1.00  0.00     0.112 C 
BRANCH  74  80
ATOM     80  C   UNL A   1      41.486  32.927  31.447  1.00  0.00     0.045 A 
ATOM     81  C   UNL A   1      42.445  32.288  30.656  1.00  0.00     0.026 A 
ATOM     82  C   UNL A   1      41.027  34.206  31.105  1.00  0.00     0.026 A 
ATOM     83  C   UNL A   1      42.951  32.937  29.527  1.00  0.00     0.002 A 
ATOM     84  C   UNL A   1      41.563  34.860  29.996  1.00  0.00     0.002 A 
ATOM     85  C   UNL A   1      42.520  34.225  29.206  1.00  0.00     0.000 A 
ENDBRANCH  74  80
BRANCH  77  86
ATOM     86  C   UNL A   1      42.729  34.327  34.423  1.00  0.00     0.014 A 
ATOM     87  C   UNL A   1      43.497  35.222  33.695  1.00  0.00     0.016 A 
ATOM     88  S   UNL A   1      41.678  35.171  35.492  1.00  0.00    -0.148 S 
ATOM     89  C   UNL A   1      43.183  36.582  33.975  1.00  0.00     0.012 A 
ATOM     90  C   UNL A   1      42.173  36.694  34.901  1.00  0.00     0.065 A 
ENDBRANCH  77  86
BRANCH  78  91
ATOM     91  O   UNL A   1      42.314  31.241  37.730  1.00  0.00    -0.496 OA
ATOM     92  H   UNL A   1      41.727  30.704  38.225  1.00  0.00     0.294 HD
ENDBRANCH  78  91
ENDBRANCH  68  71
ENDBRANCH  66  67
ENDBRANCH  65  66
ENDBRANCH  64  65
ENDBRANCH   1  64
TORSDOF 16
ENDMDL
MODEL 3
REMARK VINA RESULT:     -11.0      3.507      8.602
REMARK SMILES O=C(NCCCCCCNC(=O)c1cn(-c2ccccc2)c2c1N=C(O)C[C@@H]2c1cccs1)c1ccc(-c2c3nc(c(-c4c(F)cccc4F)c4ccc([nH]4)c(-c4c(F)cccc4F)c4nc(c(-c5c(F)cccc5F)c5ccc2[nH]5)C=C4)C=C3)cc1
REMARK SMILES IDX 6 1 5 2 4 3 3 4 1 5 2 6 34 8 35 9 87 10 36 11 86 12 37 13
REMARK SMILES IDX 38 14 39 15 80 16 40 17 85 18 79 19 81 20 41 21 84 22 78 23
REMARK SMILES IDX 77 24 42 26 68 27 51 28 67 29 52 30 55 31 66 32 82 33 53 34
REMARK SMILES IDX 54 35 65 37 83 38 56 39 43 40 44 41 49 42 45 43 46 44 48 45
REMARK SMILES IDX 50 46 47 47 69 48 70 49 75 50 71 51 72 52 74 53 76 54 73 55
REMARK SMILES IDX 57 56 58 57 63 58 59 59 60 60 62 61 64 62 61 63 7 64 8 65
REMARK SMILES IDX 9 66 10 67 11 68 12 70 13 71 14 72 23 73 15 74 22 75 24 76
REMARK SMILES IDX 28 77 25 78 27 79 16 80 17 81 21 82 18 83 20 84 19 85 29 86
REMARK SMILES IDX 30 87 33 88 31 89 32 90 26 91
REMARK H PARENT 3 7 81 25 55 36 10 69 26 92
REMARK Flexibility Score: inf
ROOT
ATOM      1  C   UNL A   1      34.423  33.090  28.016  1.00  0.00     0.002 C 
ENDROOT
BRANCH   1   2
ATOM      2  C   UNL A   1      33.322  34.115  28.318  1.00  0.00     0.021 C 
BRANCH   2   3
ATOM      3  C   UNL A   1      33.739  35.236  29.267  1.00  0.00     0.116 C 
BRANCH   3   4
ATOM      4  N   UNL A   1      33.345  35.025  30.645  1.00  0.00    -0.352 N 
ATOM      5  O   UNL A   1      33.298  34.486  32.791  1.00  0.00    -0.269 OA
ATOM      6  C   UNL A   1      33.903  34.392  31.720  1.00  0.00     0.251 C 
ATOM      7  H   UNL A   1      32.473  35.432  30.856  1.00  0.00     0.163 HD
BRANCH   6   8
ATOM      8  C   UNL A   1      35.139  33.565  31.674  1.00  0.00     0.039 A 
ATOM      9  C   UNL A   1      35.189  32.172  31.718  1.00  0.00     0.014 A 
ATOM     10  C   UNL A   1      36.346  34.278  31.552  1.00  0.00     0.014 A 
ATOM     11  C   UNL A   1      36.414  31.509  31.711  1.00  0.00     0.010 A 
ATOM     12  C   UNL A   1      37.572  33.622  31.522  1.00  0.00     0.010 A 
ATOM     13  C   UNL A   1      37.606  32.234  31.628  1.00  0.00    -0.014 A 
BRANCH  13  14
ATOM     14  C   UNL A   1      38.856  31.491  31.479  1.00  0.00     0.031 A 
ATOM     15  C   UNL A   1      39.638  31.309  32.742  1.00  0.00     0.074 A 
ATOM     16  C   UNL A   1      39.213  30.850  30.348  1.00  0.00     0.049 A 
ATOM     17  N   UNL A   1      40.870  31.626  32.986  1.00  0.00    -0.248 NA
ATOM     18  C   UNL A   1      38.921  30.763  33.908  1.00  0.00     0.031 C 
ATOM     19  C   UNL A   1      38.419  30.661  29.132  1.00  0.00     0.029 A 
ATOM     20  N   UNL A   1      40.342  30.128  30.093  1.00  0.00    -0.354 N 
ATOM     21  C   UNL A   1      41.137  31.171  34.278  1.00  0.00     0.074 A 
ATOM     22  C   UNL A   1      39.877  30.756  34.837  1.00  0.00     0.031 C 
ATOM     23  C   UNL A   1      38.994  29.704  28.369  1.00  0.00     0.029 A 
ATOM     24  C   UNL A   1      40.255  29.309  28.976  1.00  0.00     0.049 A 
ATOM     25  H   UNL A   1      41.150  30.183  30.654  1.00  0.00     0.167 HD
ATOM     26  C   UNL A   1      42.404  30.985  34.739  1.00  0.00     0.037 A 
ATOM     27  C   UNL A   1      41.121  28.330  28.613  1.00  0.00     0.037 A 
ATOM     28  C   UNL A   1      43.369  31.725  33.975  1.00  0.00     0.049 A 
ATOM     29  C   UNL A   1      42.396  28.559  29.333  1.00  0.00     0.074 A 
ATOM     30  C   UNL A   1      43.574  33.064  33.704  1.00  0.00     0.029 A 
ATOM     31  N   UNL A   1      44.143  31.046  33.069  1.00  0.00    -0.354 N 
ATOM     32  N   UNL A   1      43.210  29.546  29.092  1.00  0.00    -0.248 NA
ATOM     33  C   UNL A   1      42.571  27.904  30.620  1.00  0.00     0.031 C 
ATOM     34  C   UNL A   1      44.036  33.100  32.356  1.00  0.00     0.029 A 
ATOM     35  C   UNL A   1      44.127  31.781  31.911  1.00  0.00     0.049 A 
ATOM     36  H   UNL A   1      44.619  30.199  33.221  1.00  0.00     0.167 HD
ATOM     37  C   UNL A   1      43.695  29.914  30.337  1.00  0.00     0.074 A 
ATOM     38  C   UNL A   1      43.346  28.807  31.224  1.00  0.00     0.031 C 
ATOM     39  C   UNL A   1      44.085  31.197  30.593  1.00  0.00     0.037 A 
BRANCH  26  40
ATOM     40  C   UNL A   1      42.800  29.875  35.678  1.00  0.00     0.057 A 
ATOM     41  C   UNL A   1      43.654  30.144  36.763  1.00  0.00     0.134 A 
ATOM     42  C   UNL A   1      42.611  28.508  35.389  1.00  0.00     0.134 A 
ATOM     43  F   UNL A   1      43.938  31.406  37.120  1.00  0.00    -0.206 F 
ATOM     44  C   UNL A   1      44.312  29.128  37.470  1.00  0.00     0.040 A 
ATOM     45  C   UNL A   1      43.223  27.486  36.120  1.00  0.00     0.040 A 
ATOM     46  F   UNL A   1      41.908  28.095  34.327  1.00  0.00    -0.206 F 
ATOM     47  C   UNL A   1      44.101  27.794  37.146  1.00  0.00     0.006 A 
ENDBRANCH  26  40
BRANCH  27  48
ATOM     48  C   UNL A   1      40.839  27.052  27.921  1.00  0.00     0.057 A 
ATOM     49  C   UNL A   1      39.867  26.162  28.400  1.00  0.00     0.134 A 
ATOM     50  C   UNL A   1      41.316  26.804  26.622  1.00  0.00     0.134 A 
ATOM     51  F   UNL A   1      39.317  26.340  29.610  1.00  0.00    -0.206 F 
ATOM     52  C   UNL A   1      39.382  25.100  27.624  1.00  0.00     0.040 A 
ATOM     53  C   UNL A   1      40.847  25.743  25.841  1.00  0.00     0.040 A 
ATOM     54  F   UNL A   1      42.187  27.636  26.033  1.00  0.00    -0.206 F 
ATOM     55  C   UNL A   1      39.866  24.894  26.336  1.00  0.00     0.006 A 
ENDBRANCH  27  48
BRANCH  39  56
ATOM     56  C   UNL A   1      44.218  32.137  29.428  1.00  0.00     0.057 A 
ATOM     57  C   UNL A   1      43.215  33.031  29.022  1.00  0.00     0.134 A 
ATOM     58  C   UNL A   1      45.457  32.245  28.785  1.00  0.00     0.134 A 
ATOM     59  F   UNL A   1      42.032  33.078  29.647  1.00  0.00    -0.206 F 
ATOM     60  C   UNL A   1      43.420  33.953  27.992  1.00  0.00     0.040 A 
ATOM     61  C   UNL A   1      45.685  33.186  27.779  1.00  0.00     0.040 A 
ATOM     62  F   UNL A   1      46.483  31.465  29.160  1.00  0.00    -0.206 F 
ATOM     63  C   UNL A   1      44.661  34.037  27.370  1.00  0.00     0.006 A 
ENDBRANCH  39  56
ENDBRANCH  13  14
ENDBRANCH   6   8
ENDBRANCH   3   4
ENDBRANCH   2   3
ENDBRANCH   1   2
BRANCH   1  64
ATOM     64  C   UNL A   1      34.064  31.623  28.279  1.00  0.00     0.002 C 
BRANCH  64  65
ATOM     65  C   UNL A   1      35.119  30.600  27.855  1.00  0.00     0.021 C 
BRANCH  65  66
ATOM     66  C   UNL A   1      34.584  29.446  27.014  1.00  0.00     0.116 C 
BRANCH  66  67
ATOM     67  N   UNL A   1      33.283  28.990  27.472  1.00  0.00    -0.352 N 
ATOM     68  C   UNL A   1      32.588  27.873  27.073  1.00  0.00     0.255 C 
ATOM     69  H   UNL A   1      32.844  29.550  28.153  1.00  0.00     0.163 HD
ATOM     70  O   UNL A   1      31.428  27.716  27.455  1.00  0.00    -0.269 OA
BRANCH  68  71
ATOM     71  C   UNL A   1      33.228  26.955  26.150  1.00  0.00     0.084 A 
ATOM     72  C   UNL A   1      33.993  25.862  26.524  1.00  0.00     0.107 A 
ATOM     73  C   UNL A   1      33.190  26.917  24.743  1.00  0.00     0.101 A 
ATOM     74  N   UNL A   1      34.376  25.157  25.397  1.00  0.00    -0.317 N 
ATOM     75  C   UNL A   1      33.792  25.768  24.298  1.00  0.00     0.058 A 
ATOM     76  N   UNL A   1      32.469  27.796  23.942  1.00  0.00    -0.215 NA
ATOM     77  C   UNL A   1      33.620  25.214  22.923  1.00  0.00     0.088 C 
ATOM     78  C   UNL A   1      32.385  27.457  22.702  1.00  0.00     0.187 C 
ATOM     79  C   UNL A   1      33.039  26.300  21.992  1.00  0.00     0.112 C 
BRANCH  74  80
ATOM     80  C   UNL A   1      35.141  23.964  25.421  1.00  0.00     0.045 A 
ATOM     81  C   UNL A   1      36.456  23.962  24.950  1.00  0.00     0.026 A 
ATOM     82  C   UNL A   1      34.571  22.790  25.931  1.00  0.00     0.026 A 
ATOM     83  C   UNL A   1      37.197  22.778  24.981  1.00  0.00     0.002 A 
ATOM     84  C   UNL A   1      35.307  21.605  25.927  1.00  0.00     0.002 A 
ATOM     85  C   UNL A   1      36.619  21.600  25.456  1.00  0.00     0.000 A 
ENDBRANCH  74  80
BRANCH  77  86
ATOM     86  C   UNL A   1      32.765  23.949  22.829  1.00  0.00     0.014 A 
ATOM     87  C   UNL A   1      33.149  22.743  22.264  1.00  0.00     0.016 A 
ATOM     88  S   UNL A   1      31.144  23.855  23.395  1.00  0.00    -0.148 S 
ATOM     89  C   UNL A   1      32.141  21.741  22.349  1.00  0.00     0.012 A 
ATOM     90  C   UNL A   1      31.014  22.203  22.988  1.00  0.00     0.065 A 
ENDBRANCH  77  86
BRANCH  78  91
ATOM     91  O   UNL A   1      31.654  28.252  21.890  1.00  0.00    -0.496 OA
ATOM     92  H   UNL A   1      32.036  29.025  21.522  1.00  0.00     0.294 HD
ENDBRANCH  78  91
ENDBRANCH  68  71
ENDBRANCH  66  67
ENDBRANCH  65  66
ENDBRANCH  64  65
ENDBRANCH   1  64
TORSDOF 16
ENDMDL
