MODEL 1
REMARK VINA RESULT:     -12.6      0.000      0.000
REMARK SMILES Cc1cc2nc(NC(=O)[C@H]3[C@@H](C(=O)NCCCCCCNC(=O)c4ccc(-c5c6nc(c(-c7c(F)cccc7F)c7ccc([nH]7)c(-c7c(F)cccc7F)c7nc(c(-c8c(F)cccc8F)c8ccc5[nH]8)C=C7)C=C6)cc4)[C@@H]4C=C[C@H]3C4)sc2cc1C
REMARK SMILES IDX 17 1 16 2 15 3 14 4 12 5 13 6 11 8 10 9 81 10 78 11 80 12
REMARK SMILES IDX 82 13 79 14 8 15 7 16 9 18 6 19 1 20 2 21 3 22 86 23 4 24
REMARK SMILES IDX 85 25 87 26 5 27 84 28 83 29 18 30 19 31 20 32 21 33 22 34
REMARK SMILES IDX 23 36 24 37 25 38 77 39 26 40 76 41 27 42 28 43 29 44 70 45
REMARK SMILES IDX 30 46 75 47 69 48 71 49 31 50 74 51 68 52 67 53 32 55 58 56
REMARK SMILES IDX 41 57 57 58 42 59 45 60 56 61 72 62 43 63 44 64 55 66 73 67
REMARK SMILES IDX 46 68 33 69 34 70 39 71 35 72 36 73 38 74 40 75 37 76 59 77
REMARK SMILES IDX 60 78 65 79 61 80 62 81 64 82 66 83 63 84 47 85 48 86 53 87
REMARK SMILES IDX 49 88 50 89 52 90 54 91 51 92
REMARK H PARENT 14 7 7 17 21 35 71 54 45 65
REMARK Flexibility Score: inf
ROOT
ATOM      1  C   UNL A   1      33.491  27.679  25.869  1.00  0.00     0.002 C 
ENDROOT
BRANCH   1   2
ATOM      2  C   UNL A   1      33.582  26.156  25.832  1.00  0.00     0.021 C 
BRANCH   2   3
ATOM      3  C   UNL A   1      32.305  25.392  26.141  1.00  0.00     0.116 C 
BRANCH   3   4
ATOM      4  N   UNL A   1      32.528  24.125  26.790  1.00  0.00    -0.356 N 
ATOM      5  C   UNL A   1      33.467  23.167  26.615  1.00  0.00     0.224 C 
ATOM      6  O   UNL A   1      33.319  22.154  27.313  1.00  0.00    -0.275 OA
ATOM      7  H   UNL A   1      31.872  23.917  27.493  1.00  0.00     0.163 HD
BRANCH   5   8
ATOM      8  C   UNL A   1      34.671  23.244  25.675  1.00  0.00     0.098 C 
ATOM      9  C   UNL A   1      34.632  22.419  24.341  1.00  0.00     0.099 C 
ATOM     10  C   UNL A   1      36.069  21.854  24.260  1.00  0.00     0.025 C 
ATOM     11  C   UNL A   1      36.100  22.981  26.211  1.00  0.00     0.025 C 
ATOM     12  C   UNL A   1      37.041  23.019  24.110  1.00  0.00    -0.027 C 
ATOM     13  C   UNL A   1      36.397  21.563  25.724  1.00  0.00     0.017 C 
ATOM     14  C   UNL A   1      37.068  23.681  25.280  1.00  0.00    -0.027 C 
BRANCH   9  15
ATOM     15  C   UNL A   1      33.341  21.618  24.115  1.00  0.00     0.230 C 
ATOM     16  N   UNL A   1      32.172  22.003  23.563  1.00  0.00    -0.302 N 
ATOM     17  H   UNL A   1      31.547  21.265  23.376  1.00  0.00     0.172 HD
ATOM     18  O   UNL A   1      33.377  20.409  24.408  1.00  0.00    -0.274 OA
BRANCH  16  19
ATOM     19  C   UNL A   1      31.708  23.229  23.222  1.00  0.00     0.190 A 
ATOM     20  C   UNL A   1      28.579  28.260  23.784  1.00  0.00     0.044 C 
ATOM     21  C   UNL A   1      29.698  27.368  23.321  1.00  0.00    -0.046 A 
ATOM     22  C   UNL A   1      29.530  25.987  23.505  1.00  0.00     0.033 A 
ATOM     23  C   UNL A   1      30.865  27.841  22.693  1.00  0.00    -0.047 A 
ATOM     24  C   UNL A   1      30.560  25.090  23.182  1.00  0.00     0.084 A 
ATOM     25  C   UNL A   1      31.904  26.942  22.353  1.00  0.00     0.025 A 
ATOM     26  C   UNL A   1      31.085  29.298  22.382  1.00  0.00     0.044 C 
ATOM     27  N   UNL A   1      30.530  23.735  23.419  1.00  0.00    -0.220 NA
ATOM     28  C   UNL A   1      31.745  25.577  22.638  1.00  0.00     0.057 A 
ATOM     29  S   UNL A   1      32.842  24.254  22.456  1.00  0.00    -0.097 S 
ENDBRANCH  16  19
ENDBRANCH   9  15
ENDBRANCH   5   8
ENDBRANCH   3   4
ENDBRANCH   2   3
ENDBRANCH   1   2
BRANCH   1  30
ATOM     30  C   UNL A   1      32.135  28.279  26.243  1.00  0.00     0.002 C 
BRANCH  30  31
ATOM     31  C   UNL A   1      32.144  29.613  27.000  1.00  0.00     0.021 C 
BRANCH  31  32
ATOM     32  C   UNL A   1      33.411  30.462  26.874  1.00  0.00     0.116 C 
BRANCH  32  33
ATOM     33  N   UNL A   1      33.654  31.351  27.984  1.00  0.00    -0.352 N 
ATOM     34  C   UNL A   1      34.733  31.662  28.764  1.00  0.00     0.251 C 
ATOM     35  H   UNL A   1      32.850  31.856  28.242  1.00  0.00     0.163 HD
ATOM     36  O   UNL A   1      34.580  32.583  29.558  1.00  0.00    -0.269 OA
BRANCH  34  37
ATOM     37  C   UNL A   1      36.030  30.932  28.748  1.00  0.00     0.039 A 
ATOM     38  C   UNL A   1      36.219  29.605  28.363  1.00  0.00     0.014 A 
ATOM     39  C   UNL A   1      37.141  31.661  29.215  1.00  0.00     0.014 A 
ATOM     40  C   UNL A   1      37.453  28.989  28.533  1.00  0.00     0.010 A 
ATOM     41  C   UNL A   1      38.383  31.057  29.365  1.00  0.00     0.010 A 
ATOM     42  C   UNL A   1      38.521  29.704  29.075  1.00  0.00    -0.014 A 
BRANCH  42  43
ATOM     43  C   UNL A   1      39.774  28.986  29.297  1.00  0.00     0.031 A 
ATOM     44  C   UNL A   1      40.196  28.801  30.717  1.00  0.00     0.074 A 
ATOM     45  C   UNL A   1      40.464  28.413  28.291  1.00  0.00     0.049 A 
ATOM     46  N   UNL A   1      41.315  29.131  31.283  1.00  0.00    -0.248 NA
ATOM     47  C   UNL A   1      39.213  28.209  31.638  1.00  0.00     0.031 C 
ATOM     48  C   UNL A   1      40.048  28.229  26.897  1.00  0.00     0.029 A 
ATOM     49  N   UNL A   1      41.658  27.761  28.345  1.00  0.00    -0.354 N 
ATOM     50  C   UNL A   1      41.242  28.652  32.592  1.00  0.00     0.074 A 
ATOM     51  C   UNL A   1      39.895  28.178  32.782  1.00  0.00     0.031 C 
ATOM     52  C   UNL A   1      40.856  27.319  26.312  1.00  0.00     0.029 A 
ATOM     53  C   UNL A   1      41.915  26.964  27.241  1.00  0.00     0.049 A 
ATOM     54  H   UNL A   1      42.283  27.848  29.101  1.00  0.00     0.167 HD
ATOM     55  C   UNL A   1      42.332  28.528  33.399  1.00  0.00     0.037 A 
ATOM     56  C   UNL A   1      42.875  26.016  27.140  1.00  0.00     0.037 A 
ATOM     57  C   UNL A   1      43.442  29.317  32.948  1.00  0.00     0.049 A 
ATOM     58  C   UNL A   1      43.885  26.267  28.197  1.00  0.00     0.074 A 
ATOM     59  C   UNL A   1      43.666  30.668  32.766  1.00  0.00     0.029 A 
ATOM     60  N   UNL A   1      44.482  28.687  32.314  1.00  0.00    -0.354 N 
ATOM     61  N   UNL A   1      44.713  27.272  28.206  1.00  0.00    -0.248 NA
ATOM     62  C   UNL A   1      43.707  25.593  29.474  1.00  0.00     0.031 C 
ATOM     63  C   UNL A   1      44.521  30.751  31.630  1.00  0.00     0.029 A 
ATOM     64  C   UNL A   1      44.780  29.446  31.211  1.00  0.00     0.049 A 
ATOM     65  H   UNL A   1      44.928  27.854  32.595  1.00  0.00     0.167 HD
ATOM     66  C   UNL A   1      44.840  27.616  29.544  1.00  0.00     0.074 A 
ATOM     67  C   UNL A   1      44.282  26.486  30.281  1.00  0.00     0.031 C 
ATOM     68  C   UNL A   1      45.131  28.894  29.925  1.00  0.00     0.037 A 
BRANCH  55  69
ATOM     69  C   UNL A   1      42.478  27.473  34.462  1.00  0.00     0.057 A 
ATOM     70  C   UNL A   1      42.906  26.177  34.124  1.00  0.00     0.134 A 
ATOM     71  C   UNL A   1      41.956  27.617  35.763  1.00  0.00     0.134 A 
ATOM     72  F   UNL A   1      43.386  25.907  32.901  1.00  0.00    -0.206 F 
ATOM     73  C   UNL A   1      42.791  25.096  35.009  1.00  0.00     0.040 A 
ATOM     74  C   UNL A   1      41.882  26.557  36.671  1.00  0.00     0.040 A 
ATOM     75  F   UNL A   1      41.408  28.765  36.181  1.00  0.00    -0.206 F 
ATOM     76  C   UNL A   1      42.278  25.284  36.286  1.00  0.00     0.006 A 
ENDBRANCH  55  69
BRANCH  56  77
ATOM     77  C   UNL A   1      42.807  24.729  26.414  1.00  0.00     0.057 A 
ATOM     78  C   UNL A   1      43.738  24.414  25.415  1.00  0.00     0.134 A 
ATOM     79  C   UNL A   1      42.003  23.668  26.867  1.00  0.00     0.134 A 
ATOM     80  F   UNL A   1      44.578  25.349  24.949  1.00  0.00    -0.206 F 
ATOM     81  C   UNL A   1      43.879  23.114  24.914  1.00  0.00     0.040 A 
ATOM     82  C   UNL A   1      42.125  22.369  26.367  1.00  0.00     0.040 A 
ATOM     83  F   UNL A   1      41.134  23.835  27.876  1.00  0.00    -0.206 F 
ATOM     84  C   UNL A   1      43.077  22.085  25.398  1.00  0.00     0.006 A 
ENDBRANCH  56  77
BRANCH  68  85
ATOM     85  C   UNL A   1      45.566  29.865  28.866  1.00  0.00     0.057 A 
ATOM     86  C   UNL A   1      46.898  30.024  28.454  1.00  0.00     0.134 A 
ATOM     87  C   UNL A   1      44.591  30.550  28.132  1.00  0.00     0.134 A 
ATOM     88  F   UNL A   1      47.887  29.324  29.024  1.00  0.00    -0.206 F 
ATOM     89  C   UNL A   1      47.247  30.867  27.395  1.00  0.00     0.040 A 
ATOM     90  C   UNL A   1      44.923  31.367  27.048  1.00  0.00     0.040 A 
ATOM     91  F   UNL A   1      43.290  30.397  28.425  1.00  0.00    -0.206 F 
ATOM     92  C   UNL A   1      46.256  31.537  26.684  1.00  0.00     0.006 A 
ENDBRANCH  68  85
ENDBRANCH  42  43
ENDBRANCH  34  37
ENDBRANCH  32  33
ENDBRANCH  31  32
ENDBRANCH  30  31
ENDBRANCH   1  30
TORSDOF 15
ENDMDL
MODEL 2
REMARK VINA RESULT:     -12.6      1.741      5.685
REMARK SMILES Cc1cc2nc(NC(=O)[C@H]3[C@@H](C(=O)NCCCCCCNC(=O)c4ccc(-c5c6nc(c(-c7c(F)cccc7F)c7ccc([nH]7)c(-c7c(F)cccc7F)c7nc(c(-c8c(F)cccc8F)c8ccc5[nH]8)C=C7)C=C6)cc4)[C@@H]4C=C[C@H]3C4)sc2cc1C
REMARK SMILES IDX 17 1 16 2 15 3 14 4 12 5 13 6 11 8 10 9 81 10 78 11 80 12
REMARK SMILES IDX 82 13 79 14 8 15 7 16 9 18 6 19 1 20 2 21 3 22 86 23 4 24
REMARK SMILES IDX 85 25 87 26 5 27 84 28 83 29 18 30 19 31 20 32 21 33 22 34
REMARK SMILES IDX 23 36 24 37 25 38 77 39 26 40 76 41 27 42 28 43 29 44 70 45
REMARK SMILES IDX 30 46 75 47 69 48 71 49 31 50 74 51 68 52 67 53 32 55 58 56
REMARK SMILES IDX 41 57 57 58 42 59 45 60 56 61 72 62 43 63 44 64 55 66 73 67
REMARK SMILES IDX 46 68 33 69 34 70 39 71 35 72 36 73 38 74 40 75 37 76 59 77
REMARK SMILES IDX 60 78 65 79 61 80 62 81 64 82 66 83 63 84 47 85 48 86 53 87
REMARK SMILES IDX 49 88 50 89 52 90 54 91 51 92
REMARK H PARENT 14 7 7 17 21 35 71 54 45 65
REMARK Flexibility Score: inf
ROOT
ATOM      1  C   UNL A   1      32.121  26.902  26.281  1.00  0.00     0.002 C 
ENDROOT
BRANCH   1   2
ATOM      2  C   UNL A   1      32.850  25.561  26.322  1.00  0.00     0.021 C 
BRANCH   2   3
ATOM      3  C   UNL A   1      31.982  24.322  26.467  1.00  0.00     0.116 C 
BRANCH   3   4
ATOM      4  N   UNL A   1      32.631  23.235  27.155  1.00  0.00    -0.356 N 
ATOM      5  C   UNL A   1      33.815  22.613  26.958  1.00  0.00     0.224 C 
ATOM      6  O   UNL A   1      34.035  21.652  27.708  1.00  0.00    -0.275 OA
ATOM      7  H   UNL A   1      32.113  22.876  27.911  1.00  0.00     0.163 HD
BRANCH   5   8
ATOM      8  C   UNL A   1      34.881  23.005  25.934  1.00  0.00     0.098 C 
ATOM      9  C   UNL A   1      34.745  22.462  24.467  1.00  0.00     0.099 C 
ATOM     10  C   UNL A   1      36.203  22.084  24.119  1.00  0.00     0.025 C 
ATOM     11  C   UNL A   1      36.384  22.797  26.249  1.00  0.00     0.025 C 
ATOM     12  C   UNL A   1      37.046  23.354  24.114  1.00  0.00    -0.027 C 
ATOM     13  C   UNL A   1      36.736  21.545  25.446  1.00  0.00     0.017 C 
ATOM     14  C   UNL A   1      37.164  23.769  25.388  1.00  0.00    -0.027 C 
BRANCH   9  15
ATOM     15  C   UNL A   1      33.508  21.586  24.215  1.00  0.00     0.230 C 
ATOM     16  N   UNL A   1      32.337  21.897  23.623  1.00  0.00    -0.302 N 
ATOM     17  H   UNL A   1      31.760  21.123  23.430  1.00  0.00     0.172 HD
ATOM     18  O   UNL A   1      33.602  20.386  24.529  1.00  0.00    -0.274 OA
BRANCH  16  19
ATOM     19  C   UNL A   1      31.816  23.091  23.249  1.00  0.00     0.190 A 
ATOM     20  C   UNL A   1      28.534  28.033  23.723  1.00  0.00     0.044 C 
ATOM     21  C   UNL A   1      29.665  27.159  23.253  1.00  0.00    -0.046 A 
ATOM     22  C   UNL A   1      29.554  25.783  23.503  1.00  0.00     0.033 A 
ATOM     23  C   UNL A   1      30.788  27.642  22.556  1.00  0.00    -0.047 A 
ATOM     24  C   UNL A   1      30.602  24.908  23.176  1.00  0.00     0.084 A 
ATOM     25  C   UNL A   1      31.844  26.766  22.212  1.00  0.00     0.025 A 
ATOM     26  C   UNL A   1      30.943  29.091  22.174  1.00  0.00     0.044 C 
ATOM     27  N   UNL A   1      30.630  23.565  23.473  1.00  0.00    -0.220 NA
ATOM     28  C   UNL A   1      31.745  25.410  22.563  1.00  0.00     0.057 A 
ATOM     29  S   UNL A   1      32.881  24.118  22.393  1.00  0.00    -0.097 S 
ENDBRANCH  16  19
ENDBRANCH   9  15
ENDBRANCH   5   8
ENDBRANCH   3   4
ENDBRANCH   2   3
ENDBRANCH   1   2
BRANCH   1  30
ATOM     30  C   UNL A   1      32.796  28.029  25.495  1.00  0.00     0.002 C 
BRANCH  30  31
ATOM     31  C   UNL A   1      33.437  29.161  26.307  1.00  0.00     0.021 C 
BRANCH  31  32
ATOM     32  C   UNL A   1      34.620  28.779  27.198  1.00  0.00     0.116 C 
BRANCH  32  33
ATOM     33  N   UNL A   1      34.877  29.693  28.285  1.00  0.00    -0.352 N 
ATOM     34  C   UNL A   1      35.981  30.074  28.996  1.00  0.00     0.251 C 
ATOM     35  H   UNL A   1      34.062  30.154  28.587  1.00  0.00     0.163 HD
ATOM     36  O   UNL A   1      35.822  30.993  29.792  1.00  0.00    -0.269 OA
BRANCH  34  37
ATOM     37  C   UNL A   1      37.314  29.419  28.908  1.00  0.00     0.039 A 
ATOM     38  C   UNL A   1      37.881  28.579  29.867  1.00  0.00     0.014 A 
ATOM     39  C   UNL A   1      38.068  29.732  27.760  1.00  0.00     0.014 A 
ATOM     40  C   UNL A   1      39.196  28.147  29.740  1.00  0.00     0.010 A 
ATOM     41  C   UNL A   1      39.375  29.283  27.616  1.00  0.00     0.010 A 
ATOM     42  C   UNL A   1      39.954  28.536  28.636  1.00  0.00    -0.014 A 
BRANCH  42  43
ATOM     43  C   UNL A   1      41.350  28.110  28.590  1.00  0.00     0.031 A 
ATOM     44  C   UNL A   1      41.634  26.823  27.888  1.00  0.00     0.074 A 
ATOM     45  C   UNL A   1      42.355  28.883  29.048  1.00  0.00     0.049 A 
ATOM     46  N   UNL A   1      42.253  25.774  28.332  1.00  0.00    -0.248 NA
ATOM     47  C   UNL A   1      41.112  26.675  26.521  1.00  0.00     0.031 C 
ATOM     48  C   UNL A   1      42.297  30.284  29.477  1.00  0.00     0.029 A 
ATOM     49  N   UNL A   1      43.685  28.596  29.110  1.00  0.00    -0.354 N 
ATOM     50  C   UNL A   1      42.336  24.890  27.255  1.00  0.00     0.074 A 
ATOM     51  C   UNL A   1      41.538  25.454  26.198  1.00  0.00     0.031 C 
ATOM     52  C   UNL A   1      43.551  30.784  29.525  1.00  0.00     0.029 A 
ATOM     53  C   UNL A   1      44.495  29.711  29.262  1.00  0.00     0.049 A 
ATOM     54  H   UNL A   1      44.040  27.680  29.052  1.00  0.00     0.167 HD
ATOM     55  C   UNL A   1      43.179  23.820  27.236  1.00  0.00     0.037 A 
ATOM     56  C   UNL A   1      45.836  29.759  29.092  1.00  0.00     0.037 A 
ATOM     57  C   UNL A   1      43.629  23.452  28.547  1.00  0.00     0.049 A 
ATOM     58  C   UNL A   1      46.361  28.374  29.165  1.00  0.00     0.074 A 
ATOM     59  C   UNL A   1      43.011  23.009  29.700  1.00  0.00     0.029 A 
ATOM     60  N   UNL A   1      44.902  23.794  28.926  1.00  0.00    -0.354 N 
ATOM     61  N   UNL A   1      46.406  27.655  30.251  1.00  0.00    -0.248 NA
ATOM     62  C   UNL A   1      46.482  27.631  27.920  1.00  0.00     0.031 C 
ATOM     63  C   UNL A   1      43.764  23.579  30.767  1.00  0.00     0.029 A 
ATOM     64  C   UNL A   1      44.804  24.310  30.192  1.00  0.00     0.049 A 
ATOM     65  H   UNL A   1      45.725  23.689  28.394  1.00  0.00     0.167 HD
ATOM     66  C   UNL A   1      46.146  26.360  29.830  1.00  0.00     0.074 A 
ATOM     67  C   UNL A   1      46.305  26.391  28.379  1.00  0.00     0.031 C 
ATOM     68  C   UNL A   1      45.561  25.446  30.659  1.00  0.00     0.037 A 
BRANCH  55  69
ATOM     69  C   UNL A   1      43.810  23.267  25.987  1.00  0.00     0.057 A 
ATOM     70  C   UNL A   1      43.684  21.903  25.670  1.00  0.00     0.134 A 
ATOM     71  C   UNL A   1      44.760  23.979  25.226  1.00  0.00     0.134 A 
ATOM     72  F   UNL A   1      42.840  21.113  26.351  1.00  0.00    -0.206 F 
ATOM     73  C   UNL A   1      44.472  21.287  24.688  1.00  0.00     0.040 A 
ATOM     74  C   UNL A   1      45.516  23.385  24.212  1.00  0.00     0.040 A 
ATOM     75  F   UNL A   1      45.066  25.255  25.495  1.00  0.00    -0.206 F 
ATOM     76  C   UNL A   1      45.391  22.028  23.956  1.00  0.00     0.006 A 
ENDBRANCH  55  69
BRANCH  56  77
ATOM     77  C   UNL A   1      46.643  30.872  28.546  1.00  0.00     0.057 A 
ATOM     78  C   UNL A   1      47.857  31.242  29.138  1.00  0.00     0.134 A 
ATOM     79  C   UNL A   1      46.382  31.418  27.276  1.00  0.00     0.134 A 
ATOM     80  F   UNL A   1      48.214  30.740  30.329  1.00  0.00    -0.206 F 
ATOM     81  C   UNL A   1      48.772  32.085  28.494  1.00  0.00     0.040 A 
ATOM     82  C   UNL A   1      47.280  32.270  26.628  1.00  0.00     0.040 A 
ATOM     83  F   UNL A   1      45.289  31.071  26.581  1.00  0.00    -0.206 F 
ATOM     84  C   UNL A   1      48.488  32.593  27.231  1.00  0.00     0.006 A 
ENDBRANCH  56  77
BRANCH  68  85
ATOM     85  C   UNL A   1      45.437  25.792  32.115  1.00  0.00     0.057 A 
ATOM     86  C   UNL A   1      46.454  25.573  33.056  1.00  0.00     0.134 A 
ATOM     87  C   UNL A   1      44.317  26.508  32.550  1.00  0.00     0.134 A 
ATOM     88  F   UNL A   1      47.611  24.995  32.705  1.00  0.00    -0.206 F 
ATOM     89  C   UNL A   1      46.337  26.001  34.381  1.00  0.00     0.040 A 
ATOM     90  C   UNL A   1      44.203  26.973  33.863  1.00  0.00     0.040 A 
ATOM     91  F   UNL A   1      43.332  26.812  31.691  1.00  0.00    -0.206 F 
ATOM     92  C   UNL A   1      45.210  26.709  34.787  1.00  0.00     0.006 A 
ENDBRANCH  68  85
ENDBRANCH  42  43
ENDBRANCH  34  37
ENDBRANCH  32  33
ENDBRANCH  31  32
ENDBRANCH  30  31
ENDBRANCH   1  30
TORSDOF 15
ENDMDL
MODEL 3
REMARK VINA RESULT:     -12.5      2.522      7.553
REMARK SMILES Cc1cc2nc(NC(=O)[C@H]3[C@@H](C(=O)NCCCCCCNC(=O)c4ccc(-c5c6nc(c(-c7c(F)cccc7F)c7ccc([nH]7)c(-c7c(F)cccc7F)c7nc(c(-c8c(F)cccc8F)c8ccc5[nH]8)C=C7)C=C6)cc4)[C@@H]4C=C[C@H]3C4)sc2cc1C
REMARK SMILES IDX 17 1 16 2 15 3 14 4 12 5 13 6 11 8 10 9 81 10 78 11 80 12
REMARK SMILES IDX 82 13 79 14 8 15 7 16 9 18 6 19 1 20 2 21 3 22 86 23 4 24
REMARK SMILES IDX 85 25 87 26 5 27 84 28 83 29 18 30 19 31 20 32 21 33 22 34
REMARK SMILES IDX 23 36 24 37 25 38 77 39 26 40 76 41 27 42 28 43 29 44 70 45
REMARK SMILES IDX 30 46 75 47 69 48 71 49 31 50 74 51 68 52 67 53 32 55 58 56
REMARK SMILES IDX 41 57 57 58 42 59 45 60 56 61 72 62 43 63 44 64 55 66 73 67
REMARK SMILES IDX 46 68 33 69 34 70 39 71 35 72 36 73 38 74 40 75 37 76 59 77
REMARK SMILES IDX 60 78 65 79 61 80 62 81 64 82 66 83 63 84 47 85 48 86 53 87
REMARK SMILES IDX 49 88 50 89 52 90 54 91 51 92
REMARK H PARENT 14 7 7 17 21 35 71 54 45 65
REMARK Flexibility Score: inf
ROOT
ATOM      1  C   UNL A   1      39.747  21.065  25.932  1.00  0.00     0.002 C 
ENDROOT
BRANCH   1   2
ATOM      2  C   UNL A   1      38.523  21.971  26.032  1.00  0.00     0.021 C 
BRANCH   2   3
ATOM      3  C   UNL A   1      37.272  21.508  25.303  1.00  0.00     0.116 C 
BRANCH   3   4
ATOM      4  N   UNL A   1      36.913  22.336  24.180  1.00  0.00    -0.356 N 
ATOM      5  C   UNL A   1      35.722  22.625  23.608  1.00  0.00     0.224 C 
ATOM      6  O   UNL A   1      35.785  23.336  22.595  1.00  0.00    -0.275 OA
ATOM      7  H   UNL A   1      37.680  22.775  23.747  1.00  0.00     0.163 HD
BRANCH   5   8
ATOM      8  C   UNL A   1      34.348  22.181  24.111  1.00  0.00     0.098 C 
ATOM      9  C   UNL A   1      33.613  23.079  25.170  1.00  0.00     0.099 C 
ATOM     10  C   UNL A   1      33.026  22.029  26.141  1.00  0.00     0.025 C 
ATOM     11  C   UNL A   1      34.141  20.748  24.661  1.00  0.00     0.025 C 
ATOM     12  C   UNL A   1      32.001  21.190  25.387  1.00  0.00    -0.027 C 
ATOM     13  C   UNL A   1      34.115  20.957  26.174  1.00  0.00     0.017 C 
ATOM     14  C   UNL A   1      32.670  20.416  24.515  1.00  0.00    -0.027 C 
BRANCH   9  15
ATOM     15  C   UNL A   1      34.374  24.350  25.577  1.00  0.00     0.230 C 
ATOM     16  N   UNL A   1      34.060  25.645  25.375  1.00  0.00    -0.302 N 
ATOM     17  H   UNL A   1      34.621  26.283  25.874  1.00  0.00     0.172 HD
ATOM     18  O   UNL A   1      35.401  24.189  26.262  1.00  0.00    -0.274 OA
BRANCH  16  19
ATOM     19  C   UNL A   1      33.107  26.222  24.603  1.00  0.00     0.190 A 
ATOM     20  C   UNL A   1      27.711  28.291  23.181  1.00  0.00     0.044 C 
ATOM     21  C   UNL A   1      29.211  28.184  23.136  1.00  0.00    -0.046 A 
ATOM     22  C   UNL A   1      29.790  27.070  23.764  1.00  0.00     0.033 A 
ATOM     23  C   UNL A   1      30.041  29.109  22.478  1.00  0.00    -0.047 A 
ATOM     24  C   UNL A   1      31.185  26.938  23.845  1.00  0.00     0.084 A 
ATOM     25  C   UNL A   1      31.448  28.978  22.545  1.00  0.00     0.025 A 
ATOM     26  C   UNL A   1      29.495  30.284  21.710  1.00  0.00     0.044 C 
ATOM     27  N   UNL A   1      31.844  25.939  24.525  1.00  0.00    -0.220 NA
ATOM     28  C   UNL A   1      31.998  27.904  23.262  1.00  0.00     0.057 A 
ATOM     29  S   UNL A   1      33.644  27.518  23.626  1.00  0.00    -0.097 S 
ENDBRANCH  16  19
ENDBRANCH   9  15
ENDBRANCH   5   8
ENDBRANCH   3   4
ENDBRANCH   2   3
ENDBRANCH   1   2
BRANCH   1  30
ATOM     30  C   UNL A   1      40.582  20.892  27.202  1.00  0.00     0.002 C 
BRANCH  30  31
ATOM     31  C   UNL A   1      42.076  20.597  27.021  1.00  0.00     0.021 C 
BRANCH  31  32
ATOM     32  C   UNL A   1      42.434  19.374  26.176  1.00  0.00     0.116 C 
BRANCH  32  33
ATOM     33  N   UNL A   1      43.339  19.640  25.083  1.00  0.00    -0.352 N 
ATOM     34  C   UNL A   1      44.139  20.685  24.715  1.00  0.00     0.251 C 
ATOM     35  H   UNL A   1      43.393  18.888  24.450  1.00  0.00     0.163 HD
ATOM     36  O   UNL A   1      44.877  20.491  23.755  1.00  0.00    -0.269 OA
BRANCH  34  37
ATOM     37  C   UNL A   1      44.128  22.029  25.354  1.00  0.00     0.039 A 
ATOM     38  C   UNL A   1      44.921  22.433  26.428  1.00  0.00     0.014 A 
ATOM     39  C   UNL A   1      43.187  22.939  24.834  1.00  0.00     0.014 A 
ATOM     40  C   UNL A   1      44.714  23.667  27.034  1.00  0.00     0.010 A 
ATOM     41  C   UNL A   1      42.992  24.183  25.420  1.00  0.00     0.010 A 
ATOM     42  C   UNL A   1      43.720  24.521  26.557  1.00  0.00    -0.014 A 
BRANCH  42  43
ATOM     43  C   UNL A   1      43.500  25.773  27.276  1.00  0.00     0.031 A 
ATOM     44  C   UNL A   1      44.500  26.859  27.049  1.00  0.00     0.074 A 
ATOM     45  C   UNL A   1      42.396  25.995  28.016  1.00  0.00     0.049 A 
ATOM     46  N   UNL A   1      45.203  27.512  27.920  1.00  0.00    -0.248 NA
ATOM     47  C   UNL A   1      44.784  27.228  25.653  1.00  0.00     0.031 C 
ATOM     48  C   UNL A   1      41.183  25.176  28.100  1.00  0.00     0.029 A 
ATOM     49  N   UNL A   1      42.086  27.085  28.770  1.00  0.00    -0.354 N 
ATOM     50  C   UNL A   1      45.905  28.481  27.202  1.00  0.00     0.074 A 
ATOM     51  C   UNL A   1      45.682  28.201  25.807  1.00  0.00     0.031 C 
ATOM     52  C   UNL A   1      40.195  25.906  28.661  1.00  0.00     0.029 A 
ATOM     53  C   UNL A   1      40.741  27.182  29.092  1.00  0.00     0.049 A 
ATOM     54  H   UNL A   1      42.756  27.745  29.061  1.00  0.00     0.167 HD
ATOM     55  C   UNL A   1      46.505  29.553  27.791  1.00  0.00     0.037 A 
ATOM     56  C   UNL A   1      40.111  28.270  29.593  1.00  0.00     0.037 A 
ATOM     57  C   UNL A   1      46.714  29.361  29.197  1.00  0.00     0.049 A 
ATOM     58  C   UNL A   1      41.137  29.176  30.163  1.00  0.00     0.074 A 
ATOM     59  C   UNL A   1      47.442  28.469  29.961  1.00  0.00     0.029 A 
ATOM     60  N   UNL A   1      45.878  29.997  30.079  1.00  0.00    -0.354 N 
ATOM     61  N   UNL A   1      41.824  28.931  31.242  1.00  0.00    -0.248 NA
ATOM     62  C   UNL A   1      41.686  30.206  29.294  1.00  0.00     0.031 C 
ATOM     63  C   UNL A   1      46.662  28.265  31.135  1.00  0.00     0.029 A 
ATOM     64  C   UNL A   1      45.525  29.063  31.019  1.00  0.00     0.049 A 
ATOM     65  H   UNL A   1      45.590  30.939  30.045  1.00  0.00     0.167 HD
ATOM     66  C   UNL A   1      43.080  29.463  30.992  1.00  0.00     0.074 A 
ATOM     67  C   UNL A   1      42.904  30.322  29.825  1.00  0.00     0.031 C 
ATOM     68  C   UNL A   1      44.200  28.949  31.580  1.00  0.00     0.037 A 
BRANCH  55  69
ATOM     69  C   UNL A   1      46.663  30.897  27.133  1.00  0.00     0.057 A 
ATOM     70  C   UNL A   1      47.927  31.508  27.059  1.00  0.00     0.134 A 
ATOM     71  C   UNL A   1      45.571  31.726  26.807  1.00  0.00     0.134 A 
ATOM     72  F   UNL A   1      49.039  30.832  27.383  1.00  0.00    -0.206 F 
ATOM     73  C   UNL A   1      48.087  32.858  26.717  1.00  0.00     0.040 A 
ATOM     74  C   UNL A   1      45.723  33.060  26.417  1.00  0.00     0.040 A 
ATOM     75  F   UNL A   1      44.305  31.311  26.942  1.00  0.00    -0.206 F 
ATOM     76  C   UNL A   1      46.983  33.638  26.395  1.00  0.00     0.006 A 
ENDBRANCH  55  69
BRANCH  56  77
ATOM     77  C   UNL A   1      38.731  28.726  29.318  1.00  0.00     0.057 A 
ATOM     78  C   UNL A   1      37.780  28.805  30.343  1.00  0.00     0.134 A 
ATOM     79  C   UNL A   1      38.390  29.354  28.107  1.00  0.00     0.134 A 
ATOM     80  F   UNL A   1      38.032  28.274  31.548  1.00  0.00    -0.206 F 
ATOM     81  C   UNL A   1      36.569  29.491  30.182  1.00  0.00     0.040 A 
ATOM     82  C   UNL A   1      37.180  30.031  27.928  1.00  0.00     0.040 A 
ATOM     83  F   UNL A   1      39.256  29.411  27.084  1.00  0.00    -0.206 F 
ATOM     84  C   UNL A   1      36.271  30.115  28.974  1.00  0.00     0.006 A 
ENDBRANCH  56  77
BRANCH  68  85
ATOM     85  C   UNL A   1      44.021  27.965  32.700  1.00  0.00     0.057 A 
ATOM     86  C   UNL A   1      43.919  26.579  32.510  1.00  0.00     0.134 A 
ATOM     87  C   UNL A   1      44.109  28.417  34.022  1.00  0.00     0.134 A 
ATOM     88  F   UNL A   1      43.940  26.044  31.282  1.00  0.00    -0.206 F 
ATOM     89  C   UNL A   1      43.854  25.690  33.586  1.00  0.00     0.040 A 
ATOM     90  C   UNL A   1      44.082  27.536  35.106  1.00  0.00     0.040 A 
ATOM     91  F   UNL A   1      44.274  29.724  34.281  1.00  0.00    -0.206 F 
ATOM     92  C   UNL A   1      43.941  26.168  34.890  1.00  0.00     0.006 A 
ENDBRANCH  68  85
ENDBRANCH  42  43
ENDBRANCH  34  37
ENDBRANCH  32  33
ENDBRANCH  31  32
ENDBRANCH  30  31
ENDBRANCH   1  30
TORSDOF 15
ENDMDL
