MODEL 1
REMARK VINA RESULT:     -11.5      0.000      0.000
REMARK SMILES C[C@H]1CC[C@@](Nc2ccc(C(N)=O)nn2)(C(=O)NCCCCCCNC(=O)c2ccc(-c3c4nc(c(-c5c(F)cccc5F)c5ccc([nH]5)c(-c5c(F)cccc5F)c5nc(c(-c6c(F)cccc6F)c6ccc3[nH]6)C=C5)C=C4)cc2)CC1
REMARK SMILES IDX 21 1 20 2 19 3 18 4 16 5 17 6 5 8 1 9 2 10 83 11 3 12 82 13
REMARK SMILES IDX 4 14 6 15 7 17 8 18 15 19 9 20 14 21 10 22 11 23 12 24 13 25
REMARK SMILES IDX 22 28 23 29 24 30 25 31 26 32 27 34 28 35 29 36 81 37 30 38
REMARK SMILES IDX 80 39 31 40 32 41 33 42 74 43 34 44 79 45 73 46 75 47 35 48
REMARK SMILES IDX 78 49 72 50 71 51 36 53 62 54 45 55 61 56 46 57 49 58 60 59
REMARK SMILES IDX 76 60 47 61 48 62 59 64 77 65 50 66 37 67 38 68 43 69 39 70
REMARK SMILES IDX 40 71 42 72 44 73 41 74 63 75 64 76 69 77 65 78 66 79 68 80
REMARK SMILES IDX 70 81 67 82 51 83 52 84 57 85 53 86 54 87 56 88 58 89 55 90
REMARK H PARENT 18 7 6 16 12 26 12 27 25 33 75 52 49 63
REMARK Flexibility Score: inf
ROOT
ATOM      1  C   UNL A   1      38.374  22.304  25.947  1.00  0.00     0.002 C 
ENDROOT
BRANCH   1   2
ATOM      2  C   UNL A   1      37.635  23.645  26.037  1.00  0.00     0.021 C 
BRANCH   2   3
ATOM      3  C   UNL A   1      36.209  23.575  25.508  1.00  0.00     0.116 C 
BRANCH   3   4
ATOM      4  N   UNL A   1      35.296  23.196  26.567  1.00  0.00    -0.354 N 
ATOM      5  C   UNL A   1      33.950  22.993  26.559  1.00  0.00     0.245 C 
ATOM      6  O   UNL A   1      33.473  22.542  27.606  1.00  0.00    -0.272 OA
ATOM      7  H   UNL A   1      35.723  23.064  27.444  1.00  0.00     0.163 HD
BRANCH   5   8
ATOM      8  C   UNL A   1      33.070  23.254  25.284  1.00  0.00     0.118 C 
ATOM      9  C   UNL A   1      31.666  27.084  26.933  1.00  0.00     0.007 C 
ATOM     10  C   UNL A   1      31.809  25.930  25.941  1.00  0.00    -0.014 C 
ATOM     11  C   UNL A   1      31.268  24.624  26.539  1.00  0.00     0.006 C 
ATOM     12  C   UNL A   1      33.268  25.794  25.508  1.00  0.00     0.006 C 
ATOM     13  C   UNL A   1      31.576  23.382  25.684  1.00  0.00     0.039 C 
ATOM     14  C   UNL A   1      33.458  24.589  24.594  1.00  0.00     0.039 C 
BRANCH   8  15
ATOM     15  N   UNL A   1      33.182  22.153  24.280  1.00  0.00    -0.354 N 
ATOM     16  H   UNL A   1      33.160  22.390  23.325  1.00  0.00     0.163 HD
BRANCH  15  17
ATOM     17  C   UNL A   1      33.317  20.821  24.621  1.00  0.00     0.149 A 
ATOM     18  C   UNL A   1      34.525  20.140  24.608  1.00  0.00     0.051 A 
ATOM     19  N   UNL A   1      32.169  20.144  24.860  1.00  0.00    -0.132 NA
ATOM     20  C   UNL A   1      34.537  18.749  24.711  1.00  0.00     0.040 A 
ATOM     21  N   UNL A   1      32.160  18.770  24.948  1.00  0.00    -0.143 NA
ATOM     22  C   UNL A   1      33.328  18.096  24.844  1.00  0.00     0.150 A 
BRANCH  22  23
ATOM     23  C   UNL A   1      33.248  16.609  24.794  1.00  0.00     0.269 C 
ATOM     24  N   UNL A   1      32.128  16.038  25.335  1.00  0.00    -0.364 N 
ATOM     25  O   UNL A   1      34.120  15.925  24.267  1.00  0.00    -0.268 OA
ATOM     26  H   UNL A   1      31.439  16.604  25.753  1.00  0.00     0.160 HD
ATOM     27  H   UNL A   1      32.010  15.061  25.305  1.00  0.00     0.160 HD
ENDBRANCH  22  23
ENDBRANCH  15  17
ENDBRANCH   8  15
ENDBRANCH   5   8
ENDBRANCH   3   4
ENDBRANCH   2   3
ENDBRANCH   1   2
BRANCH   1  28
ATOM     28  C   UNL A   1      37.843  21.352  24.869  1.00  0.00     0.002 C 
BRANCH  28  29
ATOM     29  C   UNL A   1      38.441  19.942  24.906  1.00  0.00     0.021 C 
BRANCH  29  30
ATOM     30  C   UNL A   1      39.239  19.630  26.169  1.00  0.00     0.116 C 
BRANCH  30  31
ATOM     31  N   UNL A   1      40.520  19.018  25.862  1.00  0.00    -0.352 N 
ATOM     32  C   UNL A   1      41.774  19.564  25.862  1.00  0.00     0.251 C 
ATOM     33  H   UNL A   1      40.479  18.065  25.618  1.00  0.00     0.163 HD
ATOM     34  O   UNL A   1      42.712  18.934  25.380  1.00  0.00    -0.269 OA
BRANCH  32  35
ATOM     35  C   UNL A   1      42.004  20.911  26.422  1.00  0.00     0.039 A 
ATOM     36  C   UNL A   1      41.941  21.070  27.808  1.00  0.00     0.014 A 
ATOM     37  C   UNL A   1      42.239  22.018  25.599  1.00  0.00     0.014 A 
ATOM     38  C   UNL A   1      42.150  22.330  28.370  1.00  0.00     0.010 A 
ATOM     39  C   UNL A   1      42.520  23.259  26.165  1.00  0.00     0.010 A 
ATOM     40  C   UNL A   1      42.467  23.430  27.555  1.00  0.00    -0.014 A 
BRANCH  40  41
ATOM     41  C   UNL A   1      42.751  24.750  28.168  1.00  0.00     0.031 A 
ATOM     42  C   UNL A   1      44.147  25.130  28.572  1.00  0.00     0.074 A 
ATOM     43  C   UNL A   1      41.733  25.610  28.368  1.00  0.00     0.049 A 
ATOM     44  N   UNL A   1      44.587  26.265  29.054  1.00  0.00    -0.248 NA
ATOM     45  C   UNL A   1      45.185  24.095  28.438  1.00  0.00     0.031 C 
ATOM     46  C   UNL A   1      40.325  25.331  28.079  1.00  0.00     0.029 A 
ATOM     47  N   UNL A   1      41.726  26.895  28.846  1.00  0.00    -0.354 N 
ATOM     48  C   UNL A   1      45.945  26.082  29.280  1.00  0.00     0.074 A 
ATOM     49  C   UNL A   1      46.247  24.709  28.940  1.00  0.00     0.031 C 
ATOM     50  C   UNL A   1      39.597  26.428  28.342  1.00  0.00     0.029 A 
ATOM     51  C   UNL A   1      40.481  27.475  28.842  1.00  0.00     0.049 A 
ATOM     52  H   UNL A   1      42.536  27.358  29.160  1.00  0.00     0.167 HD
ATOM     53  C   UNL A   1      46.862  26.984  29.705  1.00  0.00     0.037 A 
ATOM     54  C   UNL A   1      40.098  28.717  29.189  1.00  0.00     0.037 A 
ATOM     55  C   UNL A   1      46.559  28.355  30.029  1.00  0.00     0.049 A 
ATOM     56  C   UNL A   1      41.137  29.703  29.643  1.00  0.00     0.074 A 
ATOM     57  C   UNL A   1      47.425  29.364  30.411  1.00  0.00     0.029 A 
ATOM     58  N   UNL A   1      45.286  28.907  30.013  1.00  0.00    -0.354 N 
ATOM     59  N   UNL A   1      42.432  29.541  29.768  1.00  0.00    -0.248 NA
ATOM     60  C   UNL A   1      40.661  31.048  29.992  1.00  0.00     0.031 C 
ATOM     61  C   UNL A   1      46.672  30.514  30.673  1.00  0.00     0.029 A 
ATOM     62  C   UNL A   1      45.341  30.235  30.403  1.00  0.00     0.049 A 
ATOM     63  H   UNL A   1      44.465  28.426  29.762  1.00  0.00     0.167 HD
ATOM     64  C   UNL A   1      42.929  30.767  30.192  1.00  0.00     0.074 A 
ATOM     65  C   UNL A   1      41.797  31.669  30.272  1.00  0.00     0.031 C 
ATOM     66  C   UNL A   1      44.204  31.116  30.492  1.00  0.00     0.037 A 
BRANCH  53  67
ATOM     67  C   UNL A   1      48.283  26.516  29.837  1.00  0.00     0.057 A 
ATOM     68  C   UNL A   1      49.217  26.687  28.806  1.00  0.00     0.134 A 
ATOM     69  C   UNL A   1      48.736  25.921  31.022  1.00  0.00     0.134 A 
ATOM     70  F   UNL A   1      48.848  27.240  27.640  1.00  0.00    -0.206 F 
ATOM     71  C   UNL A   1      50.539  26.259  28.936  1.00  0.00     0.040 A 
ATOM     72  C   UNL A   1      50.062  25.514  31.176  1.00  0.00     0.040 A 
ATOM     73  F   UNL A   1      47.898  25.733  32.052  1.00  0.00    -0.206 F 
ATOM     74  C   UNL A   1      50.967  25.677  30.128  1.00  0.00     0.006 A 
ENDBRANCH  53  67
BRANCH  54  75
ATOM     75  C   UNL A   1      38.671  29.110  29.082  1.00  0.00     0.057 A 
ATOM     76  C   UNL A   1      37.822  29.060  30.194  1.00  0.00     0.134 A 
ATOM     77  C   UNL A   1      38.119  29.538  27.869  1.00  0.00     0.134 A 
ATOM     78  F   UNL A   1      38.288  28.643  31.381  1.00  0.00    -0.206 F 
ATOM     79  C   UNL A   1      36.472  29.401  30.100  1.00  0.00     0.040 A 
ATOM     80  C   UNL A   1      36.777  29.907  27.766  1.00  0.00     0.040 A 
ATOM     81  F   UNL A   1      38.882  29.617  26.769  1.00  0.00    -0.206 F 
ATOM     82  C   UNL A   1      35.948  29.830  28.882  1.00  0.00     0.006 A 
ENDBRANCH  54  75
BRANCH  66  83
ATOM     83  C   UNL A   1      44.435  32.536  30.920  1.00  0.00     0.057 A 
ATOM     84  C   UNL A   1      44.703  33.553  29.993  1.00  0.00     0.134 A 
ATOM     85  C   UNL A   1      44.388  32.892  32.274  1.00  0.00     0.134 A 
ATOM     86  F   UNL A   1      44.775  33.276  28.683  1.00  0.00    -0.206 F 
ATOM     87  C   UNL A   1      44.954  34.864  30.400  1.00  0.00     0.040 A 
ATOM     88  C   UNL A   1      44.607  34.206  32.690  1.00  0.00     0.040 A 
ATOM     89  F   UNL A   1      44.127  31.971  33.212  1.00  0.00    -0.206 F 
ATOM     90  C   UNL A   1      44.902  35.194  31.753  1.00  0.00     0.006 A 
ENDBRANCH  66  83
ENDBRANCH  40  41
ENDBRANCH  32  35
ENDBRANCH  30  31
ENDBRANCH  29  30
ENDBRANCH  28  29
ENDBRANCH   1  28
TORSDOF 16
ENDMDL
MODEL 2
REMARK VINA RESULT:     -11.2      1.674      2.586
REMARK SMILES C[C@H]1CC[C@@](Nc2ccc(C(N)=O)nn2)(C(=O)NCCCCCCNC(=O)c2ccc(-c3c4nc(c(-c5c(F)cccc5F)c5ccc([nH]5)c(-c5c(F)cccc5F)c5nc(c(-c6c(F)cccc6F)c6ccc3[nH]6)C=C5)C=C4)cc2)CC1
REMARK SMILES IDX 21 1 20 2 19 3 18 4 16 5 17 6 5 8 1 9 2 10 83 11 3 12 82 13
REMARK SMILES IDX 4 14 6 15 7 17 8 18 15 19 9 20 14 21 10 22 11 23 12 24 13 25
REMARK SMILES IDX 22 28 23 29 24 30 25 31 26 32 27 34 28 35 29 36 81 37 30 38
REMARK SMILES IDX 80 39 31 40 32 41 33 42 74 43 34 44 79 45 73 46 75 47 35 48
REMARK SMILES IDX 78 49 72 50 71 51 36 53 62 54 45 55 61 56 46 57 49 58 60 59
REMARK SMILES IDX 76 60 47 61 48 62 59 64 77 65 50 66 37 67 38 68 43 69 39 70
REMARK SMILES IDX 40 71 42 72 44 73 41 74 63 75 64 76 69 77 65 78 66 79 68 80
REMARK SMILES IDX 70 81 67 82 51 83 52 84 57 85 53 86 54 87 56 88 58 89 55 90
REMARK H PARENT 18 7 6 16 12 26 12 27 25 33 75 52 49 63
REMARK Flexibility Score: inf
ROOT
ATOM      1  C   UNL A   1      37.946  22.990  26.052  1.00  0.00     0.002 C 
ENDROOT
BRANCH   1   2
ATOM      2  C   UNL A   1      37.091  22.767  24.799  1.00  0.00     0.021 C 
BRANCH   2   3
ATOM      3  C   UNL A   1      36.246  21.502  24.873  1.00  0.00     0.116 C 
BRANCH   3   4
ATOM      4  N   UNL A   1      35.436  21.505  26.074  1.00  0.00    -0.354 N 
ATOM      5  C   UNL A   1      34.087  21.564  26.244  1.00  0.00     0.245 C 
ATOM      6  O   UNL A   1      33.689  21.413  27.405  1.00  0.00    -0.272 OA
ATOM      7  H   UNL A   1      35.950  21.456  26.912  1.00  0.00     0.163 HD
BRANCH   5   8
ATOM      8  C   UNL A   1      33.097  21.752  25.038  1.00  0.00     0.118 C 
ATOM      9  C   UNL A   1      32.108  25.827  26.373  1.00  0.00     0.007 C 
ATOM     10  C   UNL A   1      32.077  24.567  25.508  1.00  0.00    -0.014 C 
ATOM     11  C   UNL A   1      31.522  23.374  26.299  1.00  0.00     0.006 C 
ATOM     12  C   UNL A   1      33.472  24.281  24.955  1.00  0.00     0.006 C 
ATOM     13  C   UNL A   1      31.663  22.029  25.564  1.00  0.00     0.039 C 
ATOM     14  C   UNL A   1      33.493  22.975  24.169  1.00  0.00     0.039 C 
BRANCH   8  15
ATOM     15  N   UNL A   1      33.037  20.546  24.159  1.00  0.00    -0.354 N 
ATOM     16  H   UNL A   1      32.865  20.678  23.199  1.00  0.00     0.163 HD
BRANCH  15  17
ATOM     17  C   UNL A   1      33.212  19.255  24.621  1.00  0.00     0.149 A 
ATOM     18  C   UNL A   1      34.272  18.441  24.251  1.00  0.00     0.051 A 
ATOM     19  N   UNL A   1      32.211  18.750  25.382  1.00  0.00    -0.132 NA
ATOM     20  C   UNL A   1      34.236  17.079  24.553  1.00  0.00     0.040 A 
ATOM     21  N   UNL A   1      32.152  17.406  25.674  1.00  0.00    -0.143 NA
ATOM     22  C   UNL A   1      33.139  16.592  25.236  1.00  0.00     0.150 A 
BRANCH  22  23
ATOM     23  C   UNL A   1      32.953  15.129  25.447  1.00  0.00     0.269 C 
ATOM     24  N   UNL A   1      31.675  14.704  25.690  1.00  0.00    -0.364 N 
ATOM     25  O   UNL A   1      33.886  14.334  25.376  1.00  0.00    -0.268 OA
ATOM     26  H   UNL A   1      30.940  15.358  25.743  1.00  0.00     0.160 HD
ATOM     27  H   UNL A   1      31.490  13.744  25.810  1.00  0.00     0.160 HD
ENDBRANCH  22  23
ENDBRANCH  15  17
ENDBRANCH   8  15
ENDBRANCH   5   8
ENDBRANCH   3   4
ENDBRANCH   2   3
ENDBRANCH   1   2
BRANCH   1  28
ATOM     28  C   UNL A   1      39.320  22.309  26.018  1.00  0.00     0.002 C 
BRANCH  28  29
ATOM     29  C   UNL A   1      39.328  20.855  26.501  1.00  0.00     0.021 C 
BRANCH  29  30
ATOM     30  C   UNL A   1      39.552  19.826  25.396  1.00  0.00     0.116 C 
BRANCH  30  31
ATOM     31  N   UNL A   1      40.585  18.870  25.749  1.00  0.00    -0.352 N 
ATOM     32  C   UNL A   1      41.869  19.082  26.172  1.00  0.00     0.251 C 
ATOM     33  H   UNL A   1      40.322  17.924  25.672  1.00  0.00     0.163 HD
ATOM     34  O   UNL A   1      42.655  18.140  26.230  1.00  0.00    -0.269 OA
BRANCH  32  35
ATOM     35  C   UNL A   1      42.319  20.439  26.544  1.00  0.00     0.039 A 
ATOM     36  C   UNL A   1      42.799  21.276  25.535  1.00  0.00     0.014 A 
ATOM     37  C   UNL A   1      42.310  20.876  27.873  1.00  0.00     0.014 A 
ATOM     38  C   UNL A   1      43.235  22.562  25.853  1.00  0.00     0.010 A 
ATOM     39  C   UNL A   1      42.676  22.185  28.178  1.00  0.00     0.010 A 
ATOM     40  C   UNL A   1      43.153  23.036  27.173  1.00  0.00    -0.014 A 
BRANCH  40  41
ATOM     41  C   UNL A   1      43.559  24.428  27.488  1.00  0.00     0.031 A 
ATOM     42  C   UNL A   1      44.990  24.865  27.352  1.00  0.00     0.074 A 
ATOM     43  C   UNL A   1      42.623  25.302  27.907  1.00  0.00     0.049 A 
ATOM     44  N   UNL A   1      45.508  26.057  27.516  1.00  0.00    -0.248 NA
ATOM     45  C   UNL A   1      45.975  23.828  27.010  1.00  0.00     0.031 C 
ATOM     46  C   UNL A   1      41.214  24.980  28.141  1.00  0.00     0.029 A 
ATOM     47  N   UNL A   1      42.711  26.639  28.196  1.00  0.00    -0.354 N 
ATOM     48  C   UNL A   1      46.871  25.913  27.297  1.00  0.00     0.074 A 
ATOM     49  C   UNL A   1      47.111  24.507  27.049  1.00  0.00     0.031 C 
ATOM     50  C   UNL A   1      40.561  26.099  28.493  1.00  0.00     0.029 A 
ATOM     51  C   UNL A   1      41.508  27.207  28.535  1.00  0.00     0.049 A 
ATOM     52  H   UNL A   1      43.556  27.144  28.163  1.00  0.00     0.167 HD
ATOM     53  C   UNL A   1      47.832  26.868  27.276  1.00  0.00     0.037 A 
ATOM     54  C   UNL A   1      41.199  28.483  28.834  1.00  0.00     0.037 A 
ATOM     55  C   UNL A   1      47.585  28.267  27.510  1.00  0.00     0.049 A 
ATOM     56  C   UNL A   1      42.280  29.525  28.790  1.00  0.00     0.074 A 
ATOM     57  C   UNL A   1      48.479  29.323  27.453  1.00  0.00     0.029 A 
ATOM     58  N   UNL A   1      46.354  28.806  27.851  1.00  0.00    -0.354 N 
ATOM     59  N   UNL A   1      43.551  29.389  28.495  1.00  0.00    -0.248 NA
ATOM     60  C   UNL A   1      41.881  30.902  29.107  1.00  0.00     0.031 C 
ATOM     61  C   UNL A   1      47.799  30.494  27.807  1.00  0.00     0.029 A 
ATOM     62  C   UNL A   1      46.469  30.175  28.033  1.00  0.00     0.049 A 
ATOM     63  H   UNL A   1      45.520  28.292  27.950  1.00  0.00     0.167 HD
ATOM     64  C   UNL A   1      44.098  30.662  28.573  1.00  0.00     0.074 A 
ATOM     65  C   UNL A   1      43.013  31.561  28.913  1.00  0.00     0.031 C 
ATOM     66  C   UNL A   1      45.383  31.055  28.385  1.00  0.00     0.037 A 
BRANCH  53  67
ATOM     67  C   UNL A   1      49.239  26.429  26.984  1.00  0.00     0.057 A 
ATOM     68  C   UNL A   1      50.107  26.007  28.000  1.00  0.00     0.134 A 
ATOM     69  C   UNL A   1      49.720  26.392  25.669  1.00  0.00     0.134 A 
ATOM     70  F   UNL A   1      49.714  26.027  29.283  1.00  0.00    -0.206 F 
ATOM     71  C   UNL A   1      51.411  25.590  27.723  1.00  0.00     0.040 A 
ATOM     72  C   UNL A   1      51.012  25.951  25.376  1.00  0.00     0.040 A 
ATOM     73  F   UNL A   1      48.941  26.775  24.647  1.00  0.00    -0.206 F 
ATOM     74  C   UNL A   1      51.864  25.555  26.406  1.00  0.00     0.006 A 
ENDBRANCH  53  67
BRANCH  54  75
ATOM     75  C   UNL A   1      39.799  28.851  29.161  1.00  0.00     0.057 A 
ATOM     76  C   UNL A   1      38.910  29.269  28.165  1.00  0.00     0.134 A 
ATOM     77  C   UNL A   1      39.319  28.800  30.474  1.00  0.00     0.134 A 
ATOM     78  F   UNL A   1      39.316  29.353  26.889  1.00  0.00    -0.206 F 
ATOM     79  C   UNL A   1      37.599  29.643  28.464  1.00  0.00     0.040 A 
ATOM     80  C   UNL A   1      38.003  29.146  30.786  1.00  0.00     0.040 A 
ATOM     81  F   UNL A   1      40.119  28.399  31.473  1.00  0.00    -0.206 F 
ATOM     82  C   UNL A   1      37.142  29.577  29.780  1.00  0.00     0.006 A 
ENDBRANCH  54  75
BRANCH  66  83
ATOM     83  C   UNL A   1      45.672  32.520  28.532  1.00  0.00     0.057 A 
ATOM     84  C   UNL A   1      46.063  33.076  29.758  1.00  0.00     0.134 A 
ATOM     85  C   UNL A   1      45.560  33.386  27.436  1.00  0.00     0.134 A 
ATOM     86  F   UNL A   1      46.177  32.304  30.849  1.00  0.00    -0.206 F 
ATOM     87  C   UNL A   1      46.294  34.446  29.897  1.00  0.00     0.040 A 
ATOM     88  C   UNL A   1      45.818  34.751  27.556  1.00  0.00     0.040 A 
ATOM     89  F   UNL A   1      45.199  32.918  26.232  1.00  0.00    -0.206 F 
ATOM     90  C   UNL A   1      46.175  35.286  28.792  1.00  0.00     0.006 A 
ENDBRANCH  66  83
ENDBRANCH  40  41
ENDBRANCH  32  35
ENDBRANCH  30  31
ENDBRANCH  29  30
ENDBRANCH  28  29
ENDBRANCH   1  28
TORSDOF 16
ENDMDL
MODEL 3
REMARK VINA RESULT:     -11.2      5.052      9.909
REMARK SMILES C[C@H]1CC[C@@](Nc2ccc(C(N)=O)nn2)(C(=O)NCCCCCCNC(=O)c2ccc(-c3c4nc(c(-c5c(F)cccc5F)c5ccc([nH]5)c(-c5c(F)cccc5F)c5nc(c(-c6c(F)cccc6F)c6ccc3[nH]6)C=C5)C=C4)cc2)CC1
REMARK SMILES IDX 21 1 20 2 19 3 18 4 16 5 17 6 5 8 1 9 2 10 83 11 3 12 82 13
REMARK SMILES IDX 4 14 6 15 7 17 8 18 15 19 9 20 14 21 10 22 11 23 12 24 13 25
REMARK SMILES IDX 22 28 23 29 24 30 25 31 26 32 27 34 28 35 29 36 81 37 30 38
REMARK SMILES IDX 80 39 31 40 32 41 33 42 74 43 34 44 79 45 73 46 75 47 35 48
REMARK SMILES IDX 78 49 72 50 71 51 36 53 62 54 45 55 61 56 46 57 49 58 60 59
REMARK SMILES IDX 76 60 47 61 48 62 59 64 77 65 50 66 37 67 38 68 43 69 39 70
REMARK SMILES IDX 40 71 42 72 44 73 41 74 63 75 64 76 69 77 65 78 66 79 68 80
REMARK SMILES IDX 70 81 67 82 51 83 52 84 57 85 53 86 54 87 56 88 58 89 55 90
REMARK H PARENT 18 7 6 16 12 26 12 27 25 33 75 52 49 63
REMARK Flexibility Score: inf
ROOT
ATOM      1  C   UNL A   1      33.384  30.154  27.422  1.00  0.00     0.002 C 
ENDROOT
BRANCH   1   2
ATOM      2  C   UNL A   1      34.246  29.360  26.433  1.00  0.00     0.021 C 
BRANCH   2   3
ATOM      3  C   UNL A   1      33.478  28.245  25.737  1.00  0.00     0.116 C 
BRANCH   3   4
ATOM      4  N   UNL A   1      33.790  28.224  24.323  1.00  0.00    -0.354 N 
ATOM      5  C   UNL A   1      33.263  27.496  23.300  1.00  0.00     0.245 C 
ATOM      6  O   UNL A   1      33.655  27.805  22.169  1.00  0.00    -0.272 OA
ATOM      7  H   UNL A   1      34.507  28.843  24.055  1.00  0.00     0.163 HD
BRANCH   5   8
ATOM      8  C   UNL A   1      32.183  26.379  23.535  1.00  0.00     0.118 C 
ATOM      9  C   UNL A   1      35.255  23.238  23.290  1.00  0.00     0.007 C 
ATOM     10  C   UNL A   1      33.869  23.862  23.453  1.00  0.00    -0.014 C 
ATOM     11  C   UNL A   1      33.433  24.574  22.165  1.00  0.00     0.006 C 
ATOM     12  C   UNL A   1      33.863  24.808  24.653  1.00  0.00     0.006 C 
ATOM     13  C   UNL A   1      32.150  25.407  22.326  1.00  0.00     0.039 C 
ATOM     14  C   UNL A   1      32.521  25.521  24.783  1.00  0.00     0.039 C 
BRANCH   8  15
ATOM     15  N   UNL A   1      30.811  26.943  23.707  1.00  0.00    -0.354 N 
ATOM     16  H   UNL A   1      30.127  26.380  24.137  1.00  0.00     0.163 HD
BRANCH  15  17
ATOM     17  C   UNL A   1      30.450  28.212  23.297  1.00  0.00     0.149 A 
ATOM     18  C   UNL A   1      30.357  29.301  24.151  1.00  0.00     0.051 A 
ATOM     19  N   UNL A   1      30.058  28.337  22.007  1.00  0.00    -0.132 NA
ATOM     20  C   UNL A   1      29.741  30.474  23.713  1.00  0.00     0.040 A 
ATOM     21  N   UNL A   1      29.434  29.481  21.562  1.00  0.00    -0.143 NA
ATOM     22  C   UNL A   1      29.260  30.512  22.419  1.00  0.00     0.150 A 
BRANCH  22  23
ATOM     23  C   UNL A   1      28.448  31.664  21.935  1.00  0.00     0.269 C 
ATOM     24  N   UNL A   1      28.549  31.966  20.604  1.00  0.00    -0.364 N 
ATOM     25  O   UNL A   1      27.700  32.294  22.677  1.00  0.00    -0.268 OA
ATOM     26  H   UNL A   1      29.155  31.448  20.026  1.00  0.00     0.160 HD
ATOM     27  H   UNL A   1      28.014  32.701  20.224  1.00  0.00     0.160 HD
ENDBRANCH  22  23
ENDBRANCH  15  17
ENDBRANCH   8  15
ENDBRANCH   5   8
ENDBRANCH   3   4
ENDBRANCH   2   3
ENDBRANCH   1   2
BRANCH   1  28
ATOM     28  C   UNL A   1      31.963  30.458  26.931  1.00  0.00     0.002 C 
BRANCH  28  29
ATOM     29  C   UNL A   1      31.600  31.946  26.898  1.00  0.00     0.021 C 
BRANCH  29  30
ATOM     30  C   UNL A   1      32.801  32.887  26.901  1.00  0.00     0.116 C 
BRANCH  30  31
ATOM     31  N   UNL A   1      32.522  34.120  27.616  1.00  0.00    -0.352 N 
ATOM     32  C   UNL A   1      33.106  34.631  28.742  1.00  0.00     0.251 C 
ATOM     33  H   UNL A   1      31.802  34.671  27.231  1.00  0.00     0.163 HD
ATOM     34  O   UNL A   1      32.596  35.593  29.310  1.00  0.00    -0.269 OA
BRANCH  32  35
ATOM     35  C   UNL A   1      34.338  34.025  29.287  1.00  0.00     0.039 A 
ATOM     36  C   UNL A   1      34.210  32.983  30.209  1.00  0.00     0.014 A 
ATOM     37  C   UNL A   1      35.607  34.495  28.932  1.00  0.00     0.014 A 
ATOM     38  C   UNL A   1      35.353  32.391  30.745  1.00  0.00     0.010 A 
ATOM     39  C   UNL A   1      36.747  33.854  29.412  1.00  0.00     0.010 A 
ATOM     40  C   UNL A   1      36.631  32.804  30.332  1.00  0.00    -0.014 A 
BRANCH  40  41
ATOM     41  C   UNL A   1      37.838  32.122  30.861  1.00  0.00     0.031 A 
ATOM     42  C   UNL A   1      38.388  32.465  32.216  1.00  0.00     0.074 A 
ATOM     43  C   UNL A   1      38.444  31.188  30.102  1.00  0.00     0.049 A 
ATOM     44  N   UNL A   1      39.388  31.921  32.863  1.00  0.00    -0.248 NA
ATOM     45  C   UNL A   1      37.748  33.579  32.933  1.00  0.00     0.031 C 
ATOM     46  C   UNL A   1      38.045  30.815  28.744  1.00  0.00     0.029 A 
ATOM     47  N   UNL A   1      39.515  30.374  30.369  1.00  0.00    -0.354 N 
ATOM     48  C   UNL A   1      39.496  32.622  34.056  1.00  0.00     0.074 A 
ATOM     49  C   UNL A   1      38.501  33.671  34.019  1.00  0.00     0.031 C 
ATOM     50  C   UNL A   1      38.830  29.814  28.315  1.00  0.00     0.029 A 
ATOM     51  C   UNL A   1      39.802  29.495  29.354  1.00  0.00     0.049 A 
ATOM     52  H   UNL A   1      40.028  30.416  31.209  1.00  0.00     0.167 HD
ATOM     53  C   UNL A   1      40.331  32.396  35.099  1.00  0.00     0.037 A 
ATOM     54  C   UNL A   1      40.737  28.530  29.276  1.00  0.00     0.037 A 
ATOM     55  C   UNL A   1      41.311  31.341  35.136  1.00  0.00     0.049 A 
ATOM     56  C   UNL A   1      41.640  28.289  30.452  1.00  0.00     0.074 A 
ATOM     57  C   UNL A   1      42.163  30.990  36.169  1.00  0.00     0.029 A 
ATOM     58  N   UNL A   1      41.574  30.470  34.089  1.00  0.00    -0.354 N 
ATOM     59  N   UNL A   1      41.672  28.904  31.610  1.00  0.00    -0.248 NA
ATOM     60  C   UNL A   1      42.627  27.211  30.314  1.00  0.00     0.031 C 
ATOM     61  C   UNL A   1      42.975  29.938  35.730  1.00  0.00     0.029 A 
ATOM     62  C   UNL A   1      42.592  29.599  34.442  1.00  0.00     0.049 A 
ATOM     63  H   UNL A   1      41.106  30.470  33.223  1.00  0.00     0.167 HD
ATOM     64  C   UNL A   1      42.669  28.276  32.345  1.00  0.00     0.074 A 
ATOM     65  C   UNL A   1      43.194  27.214  31.511  1.00  0.00     0.031 C 
ATOM     66  C   UNL A   1      43.114  28.555  33.596  1.00  0.00     0.037 A 
BRANCH  53  67
ATOM     67  C   UNL A   1      40.212  33.304  36.290  1.00  0.00     0.057 A 
ATOM     68  C   UNL A   1      40.990  34.463  36.415  1.00  0.00     0.134 A 
ATOM     69  C   UNL A   1      39.286  33.038  37.306  1.00  0.00     0.134 A 
ATOM     70  F   UNL A   1      41.905  34.773  35.484  1.00  0.00    -0.206 F 
ATOM     71  C   UNL A   1      40.870  35.310  37.519  1.00  0.00     0.040 A 
ATOM     72  C   UNL A   1      39.136  33.890  38.401  1.00  0.00     0.040 A 
ATOM     73  F   UNL A   1      38.505  31.949  37.247  1.00  0.00    -0.206 F 
ATOM     74  C   UNL A   1      39.935  35.027  38.513  1.00  0.00     0.006 A 
ENDBRANCH  53  67
BRANCH  54  75
ATOM     75  C   UNL A   1      40.838  27.693  28.054  1.00  0.00     0.057 A 
ATOM     76  C   UNL A   1      40.173  26.466  27.961  1.00  0.00     0.134 A 
ATOM     77  C   UNL A   1      41.605  28.095  26.955  1.00  0.00     0.134 A 
ATOM     78  F   UNL A   1      39.435  26.018  28.988  1.00  0.00    -0.206 F 
ATOM     79  C   UNL A   1      40.282  25.658  26.828  1.00  0.00     0.040 A 
ATOM     80  C   UNL A   1      41.704  27.311  25.805  1.00  0.00     0.040 A 
ATOM     81  F   UNL A   1      42.260  29.266  26.978  1.00  0.00    -0.206 F 
ATOM     82  C   UNL A   1      41.047  26.084  25.743  1.00  0.00     0.006 A 
ENDBRANCH  54  75
BRANCH  66  83
ATOM     83  C   UNL A   1      44.212  27.686  34.133  1.00  0.00     0.057 A 
ATOM     84  C   UNL A   1      43.944  26.476  34.789  1.00  0.00     0.134 A 
ATOM     85  C   UNL A   1      45.555  28.059  33.993  1.00  0.00     0.134 A 
ATOM     86  F   UNL A   1      42.679  26.067  34.968  1.00  0.00    -0.206 F 
ATOM     87  C   UNL A   1      44.968  25.690  35.320  1.00  0.00     0.040 A 
ATOM     88  C   UNL A   1      46.589  27.267  34.492  1.00  0.00     0.040 A 
ATOM     89  F   UNL A   1      45.883  29.199  33.368  1.00  0.00    -0.206 F 
ATOM     90  C   UNL A   1      46.296  26.084  35.168  1.00  0.00     0.006 A 
ENDBRANCH  66  83
ENDBRANCH  40  41
ENDBRANCH  32  35
ENDBRANCH  30  31
ENDBRANCH  29  30
ENDBRANCH  28  29
ENDBRANCH   1  28
TORSDOF 16
ENDMDL
