MODEL 1
REMARK VINA RESULT:      -9.1      0.000      0.000
REMARK SMILES CC[NH+](CC)CCS[C@H](F)C(=O)NCCCCCCNC(=O)c1ccc(-c2c3nc(c(-c4c(F)cccc4F)c4ccc([nH]4)c(-c4c(F)cccc4F)c4nc(c(-c5c(F)cccc5F)c5ccc2[nH]5)C=C4)C=C3)cc1
REMARK SMILES IDX 15 1 14 2 13 3 11 4 12 5 9 7 10 8 8 9 7 10 6 11 3 12 2 14
REMARK SMILES IDX 1 15 4 16 5 17 16 18 17 19 18 20 19 21 20 22 21 23 22 25
REMARK SMILES IDX 23 26 24 27 76 28 25 29 75 30 26 31 27 32 28 33 69 34 29 35
REMARK SMILES IDX 74 36 68 37 70 38 30 39 73 40 67 41 66 42 31 44 57 45 40 46
REMARK SMILES IDX 56 47 41 48 44 49 55 50 71 51 42 52 43 53 54 55 72 56 45 57
REMARK SMILES IDX 32 58 33 59 38 60 34 61 35 62 37 63 39 64 36 65 58 66 59 67
REMARK SMILES IDX 64 68 60 69 61 70 63 71 65 72 62 73 46 74 47 75 52 76 48 77
REMARK SMILES IDX 49 78 51 79 53 80 50 81
REMARK H PARENT 13 6 3 13 20 24 70 43 44 54
REMARK Flexibility Score: inf
ROOT
ATOM      1  C   UNL A   1      36.108  22.897  23.479  1.00  0.00     0.021 C 
ENDROOT
BRANCH   1   2
ATOM      2  C   UNL A   1      34.991  23.843  23.904  1.00  0.00     0.116 C 
BRANCH   2   3
ATOM      3  N   UNL A   1      34.320  24.470  22.785  1.00  0.00    -0.353 N 
ATOM      4  C   UNL A   1      33.622  25.648  22.753  1.00  0.00     0.265 C 
ATOM      5  O   UNL A   1      33.137  25.980  21.665  1.00  0.00    -0.271 OA
ATOM      6  H   UNL A   1      34.372  23.984  21.931  1.00  0.00     0.163 HD
BRANCH   4   7
ATOM      7  C   UNL A   1      33.471  26.530  23.998  1.00  0.00     0.313 C 
ATOM      8  F   UNL A   1      34.390  27.530  24.105  1.00  0.00    -0.225 F 
BRANCH   7   9
ATOM      9  S   UNL A   1      31.802  27.236  24.155  1.00  0.00    -0.110 SA
BRANCH   9  10
ATOM     10  C   UNL A   1      31.311  26.639  25.809  1.00  0.00     0.134 C 
BRANCH  10  11
ATOM     11  C   UNL A   1      30.820  25.173  25.930  1.00  0.00     0.273 C 
BRANCH  11  12
ATOM     12  N   UNL A   1      31.721  24.027  25.761  1.00  0.00    -0.335 N 
ATOM     13  H   UNL A   1      32.565  24.511  25.453  1.00  0.00     0.348 HD
BRANCH  12  14
ATOM     14  C   UNL A   1      32.154  23.340  26.978  1.00  0.00     0.258 C 
ATOM     15  C   UNL A   1      33.307  22.369  26.738  1.00  0.00     0.071 C 
ENDBRANCH  12  14
BRANCH  12  16
ATOM     16  C   UNL A   1      31.392  23.112  24.665  1.00  0.00     0.258 C 
ATOM     17  C   UNL A   1      30.662  23.700  23.466  1.00  0.00     0.071 C 
ENDBRANCH  12  16
ENDBRANCH  11  12
ENDBRANCH  10  11
ENDBRANCH   9  10
ENDBRANCH   7   9
ENDBRANCH   4   7
ENDBRANCH   2   3
ENDBRANCH   1   2
BRANCH   1  18
ATOM     18  C   UNL A   1      36.910  22.249  24.612  1.00  0.00     0.002 C 
BRANCH  18  19
ATOM     19  C   UNL A   1      36.537  20.815  25.000  1.00  0.00     0.002 C 
BRANCH  19  20
ATOM     20  C   UNL A   1      37.663  19.782  24.987  1.00  0.00     0.021 C 
BRANCH  20  21
ATOM     21  C   UNL A   1      38.923  20.148  25.763  1.00  0.00     0.116 C 
BRANCH  21  22
ATOM     22  N   UNL A   1      39.943  19.116  25.745  1.00  0.00    -0.352 N 
ATOM     23  C   UNL A   1      41.289  19.223  26.000  1.00  0.00     0.251 C 
ATOM     24  H   UNL A   1      39.627  18.210  25.518  1.00  0.00     0.163 HD
ATOM     25  O   UNL A   1      42.020  18.244  25.871  1.00  0.00    -0.269 OA
BRANCH  23  26
ATOM     26  C   UNL A   1      41.870  20.529  26.385  1.00  0.00     0.039 A 
ATOM     27  C   UNL A   1      42.352  21.366  25.374  1.00  0.00     0.014 A 
ATOM     28  C   UNL A   1      41.929  20.939  27.720  1.00  0.00     0.014 A 
ATOM     29  C   UNL A   1      42.821  22.642  25.694  1.00  0.00     0.010 A 
ATOM     30  C   UNL A   1      42.328  22.238  28.029  1.00  0.00     0.010 A 
ATOM     31  C   UNL A   1      42.773  23.105  27.020  1.00  0.00    -0.014 A 
BRANCH  31  32
ATOM     32  C   UNL A   1      43.157  24.501  27.356  1.00  0.00     0.031 A 
ATOM     33  C   UNL A   1      44.598  24.927  27.314  1.00  0.00     0.074 A 
ATOM     34  C   UNL A   1      42.210  25.369  27.761  1.00  0.00     0.049 A 
ATOM     35  N   UNL A   1      45.127  26.085  27.624  1.00  0.00    -0.248 NA
ATOM     36  C   UNL A   1      45.577  23.914  26.894  1.00  0.00     0.031 C 
ATOM     37  C   UNL A   1      40.784  25.065  27.892  1.00  0.00     0.029 A 
ATOM     38  N   UNL A   1      42.305  26.684  28.145  1.00  0.00    -0.354 N 
ATOM     39  C   UNL A   1      46.496  25.935  27.446  1.00  0.00     0.074 A 
ATOM     40  C   UNL A   1      46.723  24.561  27.054  1.00  0.00     0.031 C 
ATOM     41  C   UNL A   1      40.135  26.166  28.303  1.00  0.00     0.029 A 
ATOM     42  C   UNL A   1      41.101  27.241  28.505  1.00  0.00     0.049 A 
ATOM     43  H   UNL A   1      43.155  27.181  28.162  1.00  0.00     0.167 HD
ATOM     44  C   UNL A   1      47.473  26.865  27.576  1.00  0.00     0.037 A 
ATOM     45  C   UNL A   1      40.808  28.475  28.956  1.00  0.00     0.037 A 
ATOM     46  C   UNL A   1      47.243  28.236  27.950  1.00  0.00     0.049 A 
ATOM     47  C   UNL A   1      41.912  29.484  29.107  1.00  0.00     0.074 A 
ATOM     48  C   UNL A   1      48.159  29.269  28.045  1.00  0.00     0.029 A 
ATOM     49  N   UNL A   1      46.008  28.764  28.299  1.00  0.00    -0.354 N 
ATOM     50  N   UNL A   1      43.194  29.350  28.861  1.00  0.00    -0.248 NA
ATOM     51  C   UNL A   1      41.531  30.817  29.594  1.00  0.00     0.031 C 
ATOM     52  C   UNL A   1      47.489  30.407  28.506  1.00  0.00     0.029 A 
ATOM     53  C   UNL A   1      46.146  30.101  28.642  1.00  0.00     0.049 A 
ATOM     54  H   UNL A   1      45.161  28.264  28.304  1.00  0.00     0.167 HD
ATOM     55  C   UNL A   1      43.765  30.586  29.137  1.00  0.00     0.074 A 
ATOM     56  C   UNL A   1      42.689  31.461  29.553  1.00  0.00     0.031 C 
ATOM     57  C   UNL A   1      45.066  30.960  29.056  1.00  0.00     0.037 A 
BRANCH  44  58
ATOM     58  C   UNL A   1      48.886  26.427  27.314  1.00  0.00     0.057 A 
ATOM     59  C   UNL A   1      49.464  26.506  26.039  1.00  0.00     0.134 A 
ATOM     60  C   UNL A   1      49.694  25.955  28.358  1.00  0.00     0.134 A 
ATOM     61  F   UNL A   1      48.744  26.941  24.993  1.00  0.00    -0.206 F 
ATOM     62  C   UNL A   1      50.780  26.106  25.806  1.00  0.00     0.040 A 
ATOM     63  C   UNL A   1      51.021  25.579  28.143  1.00  0.00     0.040 A 
ATOM     64  F   UNL A   1      49.209  25.860  29.605  1.00  0.00    -0.206 F 
ATOM     65  C   UNL A   1      51.565  25.647  26.861  1.00  0.00     0.006 A 
ENDBRANCH  44  58
BRANCH  45  66
ATOM     66  C   UNL A   1      39.404  28.832  29.287  1.00  0.00     0.057 A 
ATOM     67  C   UNL A   1      38.540  29.344  28.313  1.00  0.00     0.134 A 
ATOM     68  C   UNL A   1      38.896  28.675  30.582  1.00  0.00     0.134 A 
ATOM     69  F   UNL A   1      38.973  29.537  27.059  1.00  0.00    -0.206 F 
ATOM     70  C   UNL A   1      37.227  29.707  28.618  1.00  0.00     0.040 A 
ATOM     71  C   UNL A   1      37.577  29.007  30.896  1.00  0.00     0.040 A 
ATOM     72  F   UNL A   1      39.670  28.181  31.559  1.00  0.00    -0.206 F 
ATOM     73  C   UNL A   1      36.741  29.533  29.912  1.00  0.00     0.006 A 
ENDBRANCH  45  66
BRANCH  57  74
ATOM     74  C   UNL A   1      45.392  32.385  29.397  1.00  0.00     0.057 A 
ATOM     75  C   UNL A   1      45.803  32.764  30.682  1.00  0.00     0.134 A 
ATOM     76  C   UNL A   1      45.330  33.386  28.418  1.00  0.00     0.134 A 
ATOM     77  F   UNL A   1      45.872  31.858  31.669  1.00  0.00    -0.206 F 
ATOM     78  C   UNL A   1      46.114  34.091  30.987  1.00  0.00     0.040 A 
ATOM     79  C   UNL A   1      45.668  34.710  28.704  1.00  0.00     0.040 A 
ATOM     80  F   UNL A   1      44.953  33.091  27.165  1.00  0.00    -0.206 F 
ATOM     81  C   UNL A   1      46.055  35.066  29.994  1.00  0.00     0.006 A 
ENDBRANCH  57  74
ENDBRANCH  31  32
ENDBRANCH  23  26
ENDBRANCH  21  22
ENDBRANCH  20  21
ENDBRANCH  19  20
ENDBRANCH  18  19
ENDBRANCH   1  18
TORSDOF 19
ENDMDL
MODEL 2
REMARK VINA RESULT:      -9.0      0.518      6.452
REMARK SMILES CC[NH+](CC)CCS[C@H](F)C(=O)NCCCCCCNC(=O)c1ccc(-c2c3nc(c(-c4c(F)cccc4F)c4ccc([nH]4)c(-c4c(F)cccc4F)c4nc(c(-c5c(F)cccc5F)c5ccc2[nH]5)C=C4)C=C3)cc1
REMARK SMILES IDX 15 1 14 2 13 3 11 4 12 5 9 7 10 8 8 9 7 10 6 11 3 12 2 14
REMARK SMILES IDX 1 15 4 16 5 17 16 18 17 19 18 20 19 21 20 22 21 23 22 25
REMARK SMILES IDX 23 26 24 27 76 28 25 29 75 30 26 31 27 32 28 33 69 34 29 35
REMARK SMILES IDX 74 36 68 37 70 38 30 39 73 40 67 41 66 42 31 44 57 45 40 46
REMARK SMILES IDX 56 47 41 48 44 49 55 50 71 51 42 52 43 53 54 55 72 56 45 57
REMARK SMILES IDX 32 58 33 59 38 60 34 61 35 62 37 63 39 64 36 65 58 66 59 67
REMARK SMILES IDX 64 68 60 69 61 70 63 71 65 72 62 73 46 74 47 75 52 76 48 77
REMARK SMILES IDX 49 78 51 79 53 80 50 81
REMARK H PARENT 13 6 3 13 20 24 70 43 44 54
REMARK Flexibility Score: inf
ROOT
ATOM      1  C   UNL A   1      36.201  23.003  23.525  1.00  0.00     0.021 C 
ENDROOT
BRANCH   1   2
ATOM      2  C   UNL A   1      35.085  23.907  24.035  1.00  0.00     0.116 C 
BRANCH   2   3
ATOM      3  N   UNL A   1      34.392  24.607  22.975  1.00  0.00    -0.353 N 
ATOM      4  C   UNL A   1      33.576  25.704  23.061  1.00  0.00     0.265 C 
ATOM      5  O   UNL A   1      33.097  26.128  22.003  1.00  0.00    -0.271 OA
ATOM      6  H   UNL A   1      34.524  24.247  22.069  1.00  0.00     0.163 HD
BRANCH   4   7
ATOM      7  C   UNL A   1      33.290  26.394  24.400  1.00  0.00     0.313 C 
ATOM      8  F   UNL A   1      34.109  27.442  24.690  1.00  0.00    -0.225 F 
BRANCH   7   9
ATOM      9  S   UNL A   1      31.558  26.930  24.554  1.00  0.00    -0.110 SA
BRANCH   9  10
ATOM     10  C   UNL A   1      31.076  26.150  26.132  1.00  0.00     0.134 C 
BRANCH  10  11
ATOM     11  C   UNL A   1      30.787  24.627  26.126  1.00  0.00     0.273 C 
BRANCH  11  12
ATOM     12  N   UNL A   1      31.851  23.626  25.989  1.00  0.00    -0.335 N 
ATOM     13  H   UNL A   1      32.638  24.236  25.768  1.00  0.00     0.348 HD
BRANCH  12  14
ATOM     14  C   UNL A   1      32.285  22.950  27.212  1.00  0.00     0.258 C 
ATOM     15  C   UNL A   1      33.563  22.136  27.024  1.00  0.00     0.071 C 
ENDBRANCH  12  14
BRANCH  12  16
ATOM     16  C   UNL A   1      31.738  22.726  24.838  1.00  0.00     0.258 C 
ATOM     17  C   UNL A   1      31.032  23.265  23.603  1.00  0.00     0.071 C 
ENDBRANCH  12  16
ENDBRANCH  11  12
ENDBRANCH  10  11
ENDBRANCH   9  10
ENDBRANCH   7   9
ENDBRANCH   4   7
ENDBRANCH   2   3
ENDBRANCH   1   2
BRANCH   1  18
ATOM     18  C   UNL A   1      37.078  22.344  24.596  1.00  0.00     0.002 C 
BRANCH  18  19
ATOM     19  C   UNL A   1      36.691  20.932  25.042  1.00  0.00     0.002 C 
BRANCH  19  20
ATOM     20  C   UNL A   1      37.791  19.870  25.000  1.00  0.00     0.021 C 
BRANCH  20  21
ATOM     21  C   UNL A   1      39.075  20.199  25.752  1.00  0.00     0.116 C 
BRANCH  21  22
ATOM     22  N   UNL A   1      40.045  19.120  25.756  1.00  0.00    -0.352 N 
ATOM     23  C   UNL A   1      41.393  19.167  26.020  1.00  0.00     0.251 C 
ATOM     24  H   UNL A   1      39.688  18.227  25.539  1.00  0.00     0.163 HD
ATOM     25  O   UNL A   1      42.078  18.153  25.909  1.00  0.00    -0.269 OA
BRANCH  23  26
ATOM     26  C   UNL A   1      42.033  20.449  26.392  1.00  0.00     0.039 A 
ATOM     27  C   UNL A   1      42.567  21.244  25.374  1.00  0.00     0.014 A 
ATOM     28  C   UNL A   1      42.095  20.878  27.720  1.00  0.00     0.014 A 
ATOM     29  C   UNL A   1      43.095  22.501  25.679  1.00  0.00     0.010 A 
ATOM     30  C   UNL A   1      42.554  22.161  28.014  1.00  0.00     0.010 A 
ATOM     31  C   UNL A   1      43.053  22.988  26.996  1.00  0.00    -0.014 A 
BRANCH  31  32
ATOM     32  C   UNL A   1      43.501  24.369  27.315  1.00  0.00     0.031 A 
ATOM     33  C   UNL A   1      42.512  25.409  27.762  1.00  0.00     0.074 A 
ATOM     34  C   UNL A   1      44.795  24.701  27.142  1.00  0.00     0.049 A 
ATOM     35  N   UNL A   1      42.710  26.674  28.034  1.00  0.00    -0.248 NA
ATOM     36  C   UNL A   1      41.113  24.978  27.897  1.00  0.00     0.031 C 
ATOM     37  C   UNL A   1      45.845  23.798  26.667  1.00  0.00     0.029 A 
ATOM     38  N   UNL A   1      45.448  25.893  27.338  1.00  0.00    -0.354 N 
ATOM     39  C   UNL A   1      41.463  27.191  28.361  1.00  0.00     0.074 A 
ATOM     40  C   UNL A   1      40.507  26.116  28.201  1.00  0.00     0.031 C 
ATOM     41  C   UNL A   1      47.013  24.460  26.629  1.00  0.00     0.029 A 
ATOM     42  C   UNL A   1      46.788  25.843  27.037  1.00  0.00     0.049 A 
ATOM     43  H   UNL A   1      45.000  26.707  27.662  1.00  0.00     0.167 HD
ATOM     44  C   UNL A   1      41.147  28.441  28.777  1.00  0.00     0.037 A 
ATOM     45  C   UNL A   1      47.731  26.804  27.077  1.00  0.00     0.037 A 
ATOM     46  C   UNL A   1      42.102  29.503  28.951  1.00  0.00     0.049 A 
ATOM     47  C   UNL A   1      47.351  28.187  27.528  1.00  0.00     0.074 A 
ATOM     48  C   UNL A   1      41.890  30.784  29.431  1.00  0.00     0.029 A 
ATOM     49  N   UNL A   1      43.452  29.411  28.644  1.00  0.00    -0.354 N 
ATOM     50  N   UNL A   1      46.181  28.641  27.908  1.00  0.00    -0.248 NA
ATOM     51  C   UNL A   1      48.424  29.192  27.560  1.00  0.00     0.031 C 
ATOM     52  C   UNL A   1      43.099  31.484  29.361  1.00  0.00     0.029 A 
ATOM     53  C   UNL A   1      44.077  30.623  28.893  1.00  0.00     0.049 A 
ATOM     54  H   UNL A   1      43.899  28.605  28.300  1.00  0.00     0.167 HD
ATOM     55  C   UNL A   1      46.381  29.973  28.248  1.00  0.00     0.074 A 
ATOM     56  C   UNL A   1      47.789  30.249  28.046  1.00  0.00     0.031 C 
ATOM     57  C   UNL A   1      45.479  30.885  28.686  1.00  0.00     0.037 A 
BRANCH  44  58
ATOM     58  C   UNL A   1      39.702  28.729  29.071  1.00  0.00     0.057 A 
ATOM     59  C   UNL A   1      39.166  28.598  30.361  1.00  0.00     0.134 A 
ATOM     60  C   UNL A   1      38.842  29.179  28.061  1.00  0.00     0.134 A 
ATOM     61  F   UNL A   1      39.931  28.162  31.373  1.00  0.00    -0.206 F 
ATOM     62  C   UNL A   1      37.825  28.876  30.627  1.00  0.00     0.040 A 
ATOM     63  C   UNL A   1      37.506  29.490  28.321  1.00  0.00     0.040 A 
ATOM     64  F   UNL A   1      39.289  29.335  26.805  1.00  0.00    -0.206 F 
ATOM     65  C   UNL A   1      36.992  29.330  29.607  1.00  0.00     0.006 A 
ENDBRANCH  44  58
BRANCH  45  66
ATOM     66  C   UNL A   1      49.130  26.490  26.690  1.00  0.00     0.057 A 
ATOM     67  C   UNL A   1      50.036  25.962  27.617  1.00  0.00     0.134 A 
ATOM     68  C   UNL A   1      49.596  26.713  25.389  1.00  0.00     0.134 A 
ATOM     69  F   UNL A   1      49.655  25.744  28.885  1.00  0.00    -0.206 F 
ATOM     70  C   UNL A   1      51.360  25.687  27.272  1.00  0.00     0.040 A 
ATOM     71  C   UNL A   1      50.910  26.416  25.021  1.00  0.00     0.040 A 
ATOM     72  F   UNL A   1      48.776  27.209  24.451  1.00  0.00    -0.206 F 
ATOM     73  C   UNL A   1      51.798  25.909  25.968  1.00  0.00     0.006 A 
ENDBRANCH  45  66
BRANCH  57  74
ATOM     74  C   UNL A   1      45.993  32.260  29.004  1.00  0.00     0.057 A 
ATOM     75  C   UNL A   1      46.481  32.594  30.274  1.00  0.00     0.134 A 
ATOM     76  C   UNL A   1      46.032  33.252  28.015  1.00  0.00     0.134 A 
ATOM     77  F   UNL A   1      46.460  31.694  31.268  1.00  0.00    -0.206 F 
ATOM     78  C   UNL A   1      46.966  33.872  30.556  1.00  0.00     0.040 A 
ATOM     79  C   UNL A   1      46.542  34.525  28.278  1.00  0.00     0.040 A 
ATOM     80  F   UNL A   1      45.588  32.998  26.775  1.00  0.00    -0.206 F 
ATOM     81  C   UNL A   1      47.005  34.839  29.554  1.00  0.00     0.006 A 
ENDBRANCH  57  74
ENDBRANCH  31  32
ENDBRANCH  23  26
ENDBRANCH  21  22
ENDBRANCH  20  21
ENDBRANCH  19  20
ENDBRANCH  18  19
ENDBRANCH   1  18
TORSDOF 19
ENDMDL
MODEL 3
REMARK VINA RESULT:      -9.0      1.882      6.831
REMARK SMILES CC[NH+](CC)CCS[C@H](F)C(=O)NCCCCCCNC(=O)c1ccc(-c2c3nc(c(-c4c(F)cccc4F)c4ccc([nH]4)c(-c4c(F)cccc4F)c4nc(c(-c5c(F)cccc5F)c5ccc2[nH]5)C=C4)C=C3)cc1
REMARK SMILES IDX 15 1 14 2 13 3 11 4 12 5 9 7 10 8 8 9 7 10 6 11 3 12 2 14
REMARK SMILES IDX 1 15 4 16 5 17 16 18 17 19 18 20 19 21 20 22 21 23 22 25
REMARK SMILES IDX 23 26 24 27 76 28 25 29 75 30 26 31 27 32 28 33 69 34 29 35
REMARK SMILES IDX 74 36 68 37 70 38 30 39 73 40 67 41 66 42 31 44 57 45 40 46
REMARK SMILES IDX 56 47 41 48 44 49 55 50 71 51 42 52 43 53 54 55 72 56 45 57
REMARK SMILES IDX 32 58 33 59 38 60 34 61 35 62 37 63 39 64 36 65 58 66 59 67
REMARK SMILES IDX 64 68 60 69 61 70 63 71 65 72 62 73 46 74 47 75 52 76 48 77
REMARK SMILES IDX 49 78 51 79 53 80 50 81
REMARK H PARENT 13 6 3 13 20 24 70 43 44 54
REMARK Flexibility Score: inf
ROOT
ATOM      1  C   UNL A   1      33.560  21.089  24.054  1.00  0.00     0.021 C 
ENDROOT
BRANCH   1   2
ATOM      2  C   UNL A   1      32.266  21.716  24.558  1.00  0.00     0.116 C 
BRANCH   2   3
ATOM      3  N   UNL A   1      32.226  21.861  25.997  1.00  0.00    -0.353 N 
ATOM      4  C   UNL A   1      32.149  23.007  26.743  1.00  0.00     0.265 C 
ATOM      5  O   UNL A   1      32.124  22.873  27.972  1.00  0.00    -0.271 OA
ATOM      6  H   UNL A   1      32.260  21.023  26.510  1.00  0.00     0.163 HD
BRANCH   4   7
ATOM      7  C   UNL A   1      32.067  24.391  26.088  1.00  0.00     0.313 C 
ATOM      8  F   UNL A   1      31.278  25.288  26.742  1.00  0.00    -0.225 F 
BRANCH   7   9
ATOM      9  S   UNL A   1      33.706  25.131  25.811  1.00  0.00    -0.110 SA
BRANCH   9  10
ATOM     10  C   UNL A   1      33.776  25.185  23.988  1.00  0.00     0.134 C 
BRANCH  10  11
ATOM     11  C   UNL A   1      32.746  26.081  23.252  1.00  0.00     0.273 C 
BRANCH  11  12
ATOM     12  N   UNL A   1      32.144  27.263  23.880  1.00  0.00    -0.335 N 
ATOM     13  H   UNL A   1      32.074  26.933  24.843  1.00  0.00     0.348 HD
BRANCH  12  14
ATOM     14  C   UNL A   1      32.988  28.453  23.995  1.00  0.00     0.258 C 
ATOM     15  C   UNL A   1      33.922  28.640  22.802  1.00  0.00     0.071 C 
ENDBRANCH  12  14
BRANCH  12  16
ATOM     16  C   UNL A   1      30.766  27.564  23.484  1.00  0.00     0.258 C 
ATOM     17  C   UNL A   1      29.666  26.707  24.092  1.00  0.00     0.071 C 
ENDBRANCH  12  16
ENDBRANCH  11  12
ENDBRANCH  10  11
ENDBRANCH   9  10
ENDBRANCH   7   9
ENDBRANCH   4   7
ENDBRANCH   2   3
ENDBRANCH   1   2
BRANCH   1  18
ATOM     18  C   UNL A   1      34.859  21.681  24.613  1.00  0.00     0.002 C 
BRANCH  18  19
ATOM     19  C   UNL A   1      35.845  20.708  25.264  1.00  0.00     0.002 C 
BRANCH  19  20
ATOM     20  C   UNL A   1      37.256  20.662  24.677  1.00  0.00     0.021 C 
BRANCH  20  21
ATOM     21  C   UNL A   1      38.404  20.816  25.668  1.00  0.00     0.116 C 
BRANCH  21  22
ATOM     22  N   UNL A   1      39.396  19.759  25.585  1.00  0.00    -0.352 N 
ATOM     23  C   UNL A   1      40.717  19.779  25.963  1.00  0.00     0.251 C 
ATOM     24  H   UNL A   1      39.078  18.908  25.203  1.00  0.00     0.163 HD
ATOM     25  O   UNL A   1      41.432  18.802  25.754  1.00  0.00    -0.269 OA
BRANCH  23  26
ATOM     26  C   UNL A   1      41.295  20.994  26.580  1.00  0.00     0.039 A 
ATOM     27  C   UNL A   1      41.899  21.940  25.746  1.00  0.00     0.014 A 
ATOM     28  C   UNL A   1      41.233  21.217  27.958  1.00  0.00     0.014 A 
ATOM     29  C   UNL A   1      42.372  23.139  26.284  1.00  0.00     0.010 A 
ATOM     30  C   UNL A   1      41.637  22.443  28.482  1.00  0.00     0.010 A 
ATOM     31  C   UNL A   1      42.205  23.419  27.650  1.00  0.00    -0.014 A 
BRANCH  31  32
ATOM     32  C   UNL A   1      42.595  24.738  28.213  1.00  0.00     0.031 A 
ATOM     33  C   UNL A   1      41.565  25.813  28.423  1.00  0.00     0.074 A 
ATOM     34  C   UNL A   1      43.892  24.988  28.478  1.00  0.00     0.049 A 
ATOM     35  N   UNL A   1      41.726  27.040  28.854  1.00  0.00    -0.248 NA
ATOM     36  C   UNL A   1      40.175  25.476  28.080  1.00  0.00     0.031 C 
ATOM     37  C   UNL A   1      44.994  24.047  28.272  1.00  0.00     0.029 A 
ATOM     38  N   UNL A   1      44.505  26.114  28.971  1.00  0.00    -0.354 N 
ATOM     39  C   UNL A   1      40.465  27.620  28.824  1.00  0.00     0.074 A 
ATOM     40  C   UNL A   1      39.558  26.631  28.282  1.00  0.00     0.031 C 
ATOM     41  C   UNL A   1      46.144  24.624  28.656  1.00  0.00     0.029 A 
ATOM     42  C   UNL A   1      45.868  25.988  29.095  1.00  0.00     0.049 A 
ATOM     43  H   UNL A   1      44.016  26.933  29.211  1.00  0.00     0.167 HD
ATOM     44  C   UNL A   1      40.093  28.858  29.231  1.00  0.00     0.037 A 
ATOM     45  C   UNL A   1      46.794  26.874  29.509  1.00  0.00     0.037 A 
ATOM     46  C   UNL A   1      40.994  29.834  29.785  1.00  0.00     0.049 A 
ATOM     47  C   UNL A   1      46.358  28.246  29.942  1.00  0.00     0.074 A 
ATOM     48  C   UNL A   1      40.703  31.090  30.287  1.00  0.00     0.029 A 
ATOM     49  N   UNL A   1      42.367  29.666  29.903  1.00  0.00    -0.354 N 
ATOM     50  N   UNL A   1      45.150  28.755  29.980  1.00  0.00    -0.248 NA
ATOM     51  C   UNL A   1      47.412  29.166  30.392  1.00  0.00     0.031 C 
ATOM     52  C   UNL A   1      41.903  31.704  30.657  1.00  0.00     0.029 A 
ATOM     53  C   UNL A   1      42.938  30.810  30.440  1.00  0.00     0.049 A 
ATOM     54  H   UNL A   1      42.861  28.856  29.643  1.00  0.00     0.167 HD
ATOM     55  C   UNL A   1      45.295  30.042  30.482  1.00  0.00     0.074 A 
ATOM     56  C   UNL A   1      46.706  30.229  30.749  1.00  0.00     0.031 C 
ATOM     57  C   UNL A   1      44.345  30.984  30.699  1.00  0.00     0.037 A 
BRANCH  44  58
ATOM     58  C   UNL A   1      38.644  29.228  29.089  1.00  0.00     0.057 A 
ATOM     59  C   UNL A   1      37.753  29.170  30.171  1.00  0.00     0.134 A 
ATOM     60  C   UNL A   1      38.139  29.685  27.865  1.00  0.00     0.134 A 
ATOM     61  F   UNL A   1      38.169  28.733  31.370  1.00  0.00    -0.206 F 
ATOM     62  C   UNL A   1      36.411  29.525  30.033  1.00  0.00     0.040 A 
ATOM     63  C   UNL A   1      36.805  30.070  27.721  1.00  0.00     0.040 A 
ATOM     64  F   UNL A   1      38.936  29.773  26.789  1.00  0.00    -0.206 F 
ATOM     65  C   UNL A   1      35.934  29.983  28.806  1.00  0.00     0.006 A 
ENDBRANCH  44  58
BRANCH  45  66
ATOM     66  C   UNL A   1      48.228  26.487  29.546  1.00  0.00     0.057 A 
ATOM     67  C   UNL A   1      48.789  25.898  30.685  1.00  0.00     0.134 A 
ATOM     68  C   UNL A   1      49.072  26.701  28.450  1.00  0.00     0.134 A 
ATOM     69  F   UNL A   1      48.037  25.685  31.775  1.00  0.00    -0.206 F 
ATOM     70  C   UNL A   1      50.140  25.554  30.741  1.00  0.00     0.040 A 
ATOM     71  C   UNL A   1      50.419  26.336  28.481  1.00  0.00     0.040 A 
ATOM     72  F   UNL A   1      48.595  27.253  27.325  1.00  0.00    -0.206 F 
ATOM     73  C   UNL A   1      50.958  25.769  29.634  1.00  0.00     0.006 A 
ENDBRANCH  45  66
BRANCH  57  74
ATOM     74  C   UNL A   1      44.796  32.293  31.280  1.00  0.00     0.057 A 
ATOM     75  C   UNL A   1      44.883  32.500  32.664  1.00  0.00     0.134 A 
ATOM     76  C   UNL A   1      45.184  33.349  30.444  1.00  0.00     0.134 A 
ATOM     77  F   UNL A   1      44.515  31.534  33.519  1.00  0.00    -0.206 F 
ATOM     78  C   UNL A   1      45.315  33.717  33.193  1.00  0.00     0.040 A 
ATOM     79  C   UNL A   1      45.645  34.560  30.963  1.00  0.00     0.040 A 
ATOM     80  F   UNL A   1      45.134  33.216  29.110  1.00  0.00    -0.206 F 
ATOM     81  C   UNL A   1      45.705  34.748  32.342  1.00  0.00     0.006 A 
ENDBRANCH  57  74
ENDBRANCH  31  32
ENDBRANCH  23  26
ENDBRANCH  21  22
ENDBRANCH  20  21
ENDBRANCH  19  20
ENDBRANCH  18  19
ENDBRANCH   1  18
TORSDOF 19
ENDMDL
