MODEL 1
REMARK VINA RESULT:     -11.9      0.000      0.000
REMARK SMILES COc1c(C(=O)NCCCCCCNC(=O)c2ccc(-c3c4nc(c(-c5c(F)cccc5F)c5ccc([nH]5)c(-c5c(F)cccc5F)c5nc(c(-c6c(F)cccc6F)c6ccc3[nH]6)C=C5)C=C4)cc2)cccc1-c1cc(C)ccc1C
REMARK SMILES IDX 11 1 10 2 9 3 8 4 7 5 5 6 6 7 4 9 3 10 74 11 71 12 73 13
REMARK SMILES IDX 72 14 2 15 1 16 75 17 76 18 81 19 77 20 80 21 82 22 78 23
REMARK SMILES IDX 79 24 12 25 13 26 14 27 15 28 16 30 17 31 18 32 70 33 19 34
REMARK SMILES IDX 69 35 20 36 21 37 22 38 63 39 23 40 68 41 62 42 64 43 24 44
REMARK SMILES IDX 67 45 61 46 60 47 25 49 51 50 34 51 50 52 35 53 38 54 49 55
REMARK SMILES IDX 65 56 36 57 37 58 48 60 66 61 39 62 26 63 27 64 32 65 28 66
REMARK SMILES IDX 29 67 31 68 33 69 30 70 52 71 53 72 58 73 54 74 55 75 57 76
REMARK SMILES IDX 59 77 56 78 40 79 41 80 46 81 42 82 43 83 45 84 47 85 44 86
REMARK H PARENT 7 8 14 29 64 48 38 59
REMARK Flexibility Score: inf
ROOT
ATOM      1  C   UNL A   1      31.513  30.118  25.492  1.00  0.00     0.002 C 
ENDROOT
BRANCH   1   2
ATOM      2  C   UNL A   1      30.676  29.889  24.229  1.00  0.00     0.002 C 
BRANCH   2   3
ATOM      3  C   UNL A   1      30.283  28.455  23.884  1.00  0.00     0.021 C 
BRANCH   3   4
ATOM      4  C   UNL A   1      30.863  27.870  22.610  1.00  0.00     0.116 C 
BRANCH   4   5
ATOM      5  N   UNL A   1      32.130  28.345  22.146  1.00  0.00    -0.352 N 
ATOM      6  C   UNL A   1      33.370  27.798  22.418  1.00  0.00     0.255 C 
ATOM      7  O   UNL A   1      34.332  28.246  21.789  1.00  0.00    -0.269 OA
ATOM      8  H   UNL A   1      32.118  29.145  21.573  1.00  0.00     0.163 HD
BRANCH   6   9
ATOM      9  C   UNL A   1      33.629  26.797  23.512  1.00  0.00     0.082 A 
ATOM     10  C   UNL A   1      33.882  25.407  23.392  1.00  0.00     0.139 A 
ATOM     11  C   UNL A   1      34.115  24.620  24.561  1.00  0.00     0.025 A 
ATOM     12  C   UNL A   1      33.636  27.378  24.799  1.00  0.00     0.018 A 
ATOM     13  C   UNL A   1      34.098  25.253  25.821  1.00  0.00     0.012 A 
ATOM     14  C   UNL A   1      33.868  26.618  25.941  1.00  0.00     0.002 A 
BRANCH  10  15
ATOM     15  O   UNL A   1      34.027  24.866  22.132  1.00  0.00    -0.495 OA
ATOM     16  C   UNL A   1      32.807  24.498  21.467  1.00  0.00     0.278 C 
ENDBRANCH  10  15
BRANCH  11  17
ATOM     17  C   UNL A   1      34.325  23.154  24.536  1.00  0.00    -0.011 A 
ATOM     18  C   UNL A   1      35.656  22.681  24.592  1.00  0.00     0.012 A 
ATOM     19  C   UNL A   1      33.274  22.209  24.558  1.00  0.00    -0.043 A 
ATOM     20  C   UNL A   1      35.955  21.323  24.751  1.00  0.00    -0.050 A 
ATOM     21  C   UNL A   1      33.582  20.849  24.744  1.00  0.00     0.004 A 
ATOM     22  C   UNL A   1      31.820  22.603  24.530  1.00  0.00     0.045 C 
ATOM     23  C   UNL A   1      37.385  20.878  24.834  1.00  0.00     0.044 C 
ATOM     24  C   UNL A   1      34.904  20.413  24.849  1.00  0.00     0.004 A 
ENDBRANCH  11  17
ENDBRANCH   6   9
ENDBRANCH   4   5
ENDBRANCH   3   4
ENDBRANCH   2   3
ENDBRANCH   1   2
BRANCH   1  25
ATOM     25  C   UNL A   1      31.299  31.419  26.271  1.00  0.00     0.021 C 
BRANCH  25  26
ATOM     26  C   UNL A   1      32.527  32.039  26.929  1.00  0.00     0.116 C 
BRANCH  26  27
ATOM     27  N   UNL A   1      32.336  33.428  27.302  1.00  0.00    -0.352 N 
ATOM     28  C   UNL A   1      33.031  34.209  28.193  1.00  0.00     0.251 C 
ATOM     29  H   UNL A   1      31.593  33.883  26.844  1.00  0.00     0.163 HD
ATOM     30  O   UNL A   1      32.631  35.338  28.457  1.00  0.00    -0.269 OA
BRANCH  28  31
ATOM     31  C   UNL A   1      34.246  33.689  28.862  1.00  0.00     0.039 A 
ATOM     32  C   UNL A   1      34.095  32.732  29.871  1.00  0.00     0.014 A 
ATOM     33  C   UNL A   1      35.521  34.151  28.525  1.00  0.00     0.014 A 
ATOM     34  C   UNL A   1      35.223  32.193  30.496  1.00  0.00     0.010 A 
ATOM     35  C   UNL A   1      36.647  33.563  29.099  1.00  0.00     0.010 A 
ATOM     36  C   UNL A   1      36.511  32.578  30.090  1.00  0.00    -0.014 A 
BRANCH  36  37
ATOM     37  C   UNL A   1      37.725  31.958  30.686  1.00  0.00     0.031 A 
ATOM     38  C   UNL A   1      38.446  30.854  29.959  1.00  0.00     0.074 A 
ATOM     39  C   UNL A   1      38.139  32.342  31.911  1.00  0.00     0.049 A 
ATOM     40  N   UNL A   1      39.463  30.131  30.357  1.00  0.00    -0.248 NA
ATOM     41  C   UNL A   1      37.945  30.498  28.622  1.00  0.00     0.031 C 
ATOM     42  C   UNL A   1      37.507  33.375  32.734  1.00  0.00     0.029 A 
ATOM     43  N   UNL A   1      39.182  31.896  32.686  1.00  0.00    -0.354 N 
ATOM     44  C   UNL A   1      39.707  29.224  29.332  1.00  0.00     0.074 A 
ATOM     45  C   UNL A   1      38.709  29.462  28.310  1.00  0.00     0.031 C 
ATOM     46  C   UNL A   1      38.181  33.492  33.889  1.00  0.00     0.029 A 
ATOM     47  C   UNL A   1      39.266  32.516  33.909  1.00  0.00     0.049 A 
ATOM     48  H   UNL A   1      39.812  31.198  32.391  1.00  0.00     0.167 HD
ATOM     49  C   UNL A   1      40.683  28.291  29.244  1.00  0.00     0.037 A 
ATOM     50  C   UNL A   1      40.110  32.309  34.940  1.00  0.00     0.037 A 
ATOM     51  C   UNL A   1      41.698  28.083  30.243  1.00  0.00     0.049 A 
ATOM     52  C   UNL A   1      41.177  31.254  34.814  1.00  0.00     0.074 A 
ATOM     53  C   UNL A   1      42.776  27.215  30.204  1.00  0.00     0.029 A 
ATOM     54  N   UNL A   1      41.761  28.747  31.457  1.00  0.00    -0.354 N 
ATOM     55  N   UNL A   1      41.443  30.462  33.805  1.00  0.00    -0.248 NA
ATOM     56  C   UNL A   1      42.065  31.068  35.971  1.00  0.00     0.031 C 
ATOM     57  C   UNL A   1      43.458  27.312  31.419  1.00  0.00     0.029 A 
ATOM     58  C   UNL A   1      42.842  28.283  32.190  1.00  0.00     0.049 A 
ATOM     59  H   UNL A   1      41.133  29.442  31.755  1.00  0.00     0.167 HD
ATOM     60  C   UNL A   1      42.550  29.715  34.188  1.00  0.00     0.074 A 
ATOM     61  C   UNL A   1      42.913  30.156  35.518  1.00  0.00     0.031 C 
ATOM     62  C   UNL A   1      43.207  28.750  33.502  1.00  0.00     0.037 A 
BRANCH  49  63
ATOM     63  C   UNL A   1      40.714  27.412  28.027  1.00  0.00     0.057 A 
ATOM     64  C   UNL A   1      41.454  27.751  26.887  1.00  0.00     0.134 A 
ATOM     65  C   UNL A   1      40.068  26.169  28.032  1.00  0.00     0.134 A 
ATOM     66  F   UNL A   1      42.090  28.930  26.815  1.00  0.00    -0.206 F 
ATOM     67  C   UNL A   1      41.541  26.889  25.792  1.00  0.00     0.040 A 
ATOM     68  C   UNL A   1      40.169  25.288  26.954  1.00  0.00     0.040 A 
ATOM     69  F   UNL A   1      39.349  25.779  29.095  1.00  0.00    -0.206 F 
ATOM     70  C   UNL A   1      40.907  25.648  25.829  1.00  0.00     0.006 A 
ENDBRANCH  49  63
BRANCH  50  71
ATOM     71  C   UNL A   1      39.991  33.105  36.189  1.00  0.00     0.057 A 
ATOM     72  C   UNL A   1      39.094  32.736  37.200  1.00  0.00     0.134 A 
ATOM     73  C   UNL A   1      40.723  34.283  36.380  1.00  0.00     0.134 A 
ATOM     74  F   UNL A   1      38.349  31.628  37.070  1.00  0.00    -0.206 F 
ATOM     75  C   UNL A   1      38.901  33.527  38.334  1.00  0.00     0.040 A 
ATOM     76  C   UNL A   1      40.563  35.068  37.524  1.00  0.00     0.040 A 
ATOM     77  F   UNL A   1      41.604  34.691  35.456  1.00  0.00    -0.206 F 
ATOM     78  C   UNL A   1      39.638  34.697  38.498  1.00  0.00     0.006 A 
ENDBRANCH  50  71
BRANCH  62  79
ATOM     79  C   UNL A   1      44.421  28.144  34.146  1.00  0.00     0.057 A 
ATOM     80  C   UNL A   1      45.692  28.717  34.024  1.00  0.00     0.134 A 
ATOM     81  C   UNL A   1      44.302  26.995  34.941  1.00  0.00     0.134 A 
ATOM     82  F   UNL A   1      45.877  29.809  33.268  1.00  0.00    -0.206 F 
ATOM     83  C   UNL A   1      46.807  28.155  34.650  1.00  0.00     0.040 A 
ATOM     84  C   UNL A   1      45.402  26.444  35.596  1.00  0.00     0.040 A 
ATOM     85  F   UNL A   1      43.110  26.403  35.109  1.00  0.00    -0.206 F 
ATOM     86  C   UNL A   1      46.661  27.021  35.446  1.00  0.00     0.006 A 
ENDBRANCH  62  79
ENDBRANCH  36  37
ENDBRANCH  28  31
ENDBRANCH  26  27
ENDBRANCH  25  26
ENDBRANCH   1  25
TORSDOF 15
ENDMDL
MODEL 2
REMARK VINA RESULT:     -11.8      1.504      6.328
REMARK SMILES COc1c(C(=O)NCCCCCCNC(=O)c2ccc(-c3c4nc(c(-c5c(F)cccc5F)c5ccc([nH]5)c(-c5c(F)cccc5F)c5nc(c(-c6c(F)cccc6F)c6ccc3[nH]6)C=C5)C=C4)cc2)cccc1-c1cc(C)ccc1C
REMARK SMILES IDX 11 1 10 2 9 3 8 4 7 5 5 6 6 7 4 9 3 10 74 11 71 12 73 13
REMARK SMILES IDX 72 14 2 15 1 16 75 17 76 18 81 19 77 20 80 21 82 22 78 23
REMARK SMILES IDX 79 24 12 25 13 26 14 27 15 28 16 30 17 31 18 32 70 33 19 34
REMARK SMILES IDX 69 35 20 36 21 37 22 38 63 39 23 40 68 41 62 42 64 43 24 44
REMARK SMILES IDX 67 45 61 46 60 47 25 49 51 50 34 51 50 52 35 53 38 54 49 55
REMARK SMILES IDX 65 56 36 57 37 58 48 60 66 61 39 62 26 63 27 64 32 65 28 66
REMARK SMILES IDX 29 67 31 68 33 69 30 70 52 71 53 72 58 73 54 74 55 75 57 76
REMARK SMILES IDX 59 77 56 78 40 79 41 80 46 81 42 82 43 83 45 84 47 85 44 86
REMARK H PARENT 7 8 14 29 64 48 38 59
REMARK Flexibility Score: inf
ROOT
ATOM      1  C   UNL A   1      31.372  30.074  25.508  1.00  0.00     0.002 C 
ENDROOT
BRANCH   1   2
ATOM      2  C   UNL A   1      30.761  29.785  24.133  1.00  0.00     0.002 C 
BRANCH   2   3
ATOM      3  C   UNL A   1      30.244  28.374  23.864  1.00  0.00     0.021 C 
BRANCH   3   4
ATOM      4  C   UNL A   1      30.793  27.660  22.644  1.00  0.00     0.116 C 
BRANCH   4   5
ATOM      5  N   UNL A   1      32.035  28.101  22.086  1.00  0.00    -0.352 N 
ATOM      6  C   UNL A   1      33.293  27.603  22.365  1.00  0.00     0.255 C 
ATOM      7  O   UNL A   1      34.223  27.996  21.657  1.00  0.00    -0.269 OA
ATOM      8  H   UNL A   1      31.988  28.837  21.435  1.00  0.00     0.163 HD
BRANCH   6   9
ATOM      9  C   UNL A   1      33.610  26.724  23.546  1.00  0.00     0.082 A 
ATOM     10  C   UNL A   1      33.911  25.338  23.556  1.00  0.00     0.139 A 
ATOM     11  C   UNL A   1      34.195  24.678  24.791  1.00  0.00     0.025 A 
ATOM     12  C   UNL A   1      33.619  27.427  24.769  1.00  0.00     0.018 A 
ATOM     13  C   UNL A   1      34.178  25.431  25.983  1.00  0.00     0.012 A 
ATOM     14  C   UNL A   1      33.901  26.792  25.975  1.00  0.00     0.002 A 
BRANCH  10  15
ATOM     15  O   UNL A   1      34.052  24.681  22.352  1.00  0.00    -0.495 OA
ATOM     16  C   UNL A   1      32.839  24.179  21.769  1.00  0.00     0.278 C 
ENDBRANCH  10  15
BRANCH  11  17
ATOM     17  C   UNL A   1      34.458  23.225  24.904  1.00  0.00    -0.011 A 
ATOM     18  C   UNL A   1      33.343  22.359  24.960  1.00  0.00     0.012 A 
ATOM     19  C   UNL A   1      35.750  22.655  24.862  1.00  0.00    -0.043 A 
ATOM     20  C   UNL A   1      33.479  20.967  24.890  1.00  0.00    -0.050 A 
ATOM     21  C   UNL A   1      35.878  21.257  24.767  1.00  0.00     0.004 A 
ATOM     22  C   UNL A   1      37.006  23.482  24.774  1.00  0.00     0.045 C 
ATOM     23  C   UNL A   1      32.259  20.095  24.924  1.00  0.00     0.044 C 
ATOM     24  C   UNL A   1      34.757  20.425  24.771  1.00  0.00     0.004 A 
ENDBRANCH  11  17
ENDBRANCH   6   9
ENDBRANCH   4   5
ENDBRANCH   3   4
ENDBRANCH   2   3
ENDBRANCH   1   2
BRANCH   1  25
ATOM     25  C   UNL A   1      31.237  31.491  26.072  1.00  0.00     0.021 C 
BRANCH  25  26
ATOM     26  C   UNL A   1      32.366  31.987  26.970  1.00  0.00     0.116 C 
BRANCH  26  27
ATOM     27  N   UNL A   1      32.191  33.361  27.401  1.00  0.00    -0.352 N 
ATOM     28  C   UNL A   1      32.976  34.139  28.217  1.00  0.00     0.251 C 
ATOM     29  H   UNL A   1      31.385  33.807  27.054  1.00  0.00     0.163 HD
ATOM     30  O   UNL A   1      32.588  35.251  28.560  1.00  0.00    -0.269 OA
BRANCH  28  31
ATOM     31  C   UNL A   1      34.279  33.636  28.712  1.00  0.00     0.039 A 
ATOM     32  C   UNL A   1      34.312  32.960  29.935  1.00  0.00     0.014 A 
ATOM     33  C   UNL A   1      35.462  33.845  27.999  1.00  0.00     0.014 A 
ATOM     34  C   UNL A   1      35.518  32.439  30.413  1.00  0.00     0.010 A 
ATOM     35  C   UNL A   1      36.651  33.266  28.441  1.00  0.00     0.010 A 
ATOM     36  C   UNL A   1      36.692  32.556  29.652  1.00  0.00    -0.014 A 
BRANCH  36  37
ATOM     37  C   UNL A   1      37.969  31.940  30.103  1.00  0.00     0.031 A 
ATOM     38  C   UNL A   1      38.866  32.675  31.063  1.00  0.00     0.074 A 
ATOM     39  C   UNL A   1      38.353  30.751  29.596  1.00  0.00     0.049 A 
ATOM     40  N   UNL A   1      40.056  32.344  31.498  1.00  0.00    -0.248 NA
ATOM     41  C   UNL A   1      38.375  33.961  31.583  1.00  0.00     0.031 C 
ATOM     42  C   UNL A   1      37.592  29.954  28.631  1.00  0.00     0.029 A 
ATOM     43  N   UNL A   1      39.490  30.010  29.811  1.00  0.00    -0.354 N 
ATOM     44  C   UNL A   1      40.462  33.387  32.322  1.00  0.00     0.074 A 
ATOM     45  C   UNL A   1      39.409  34.380  32.297  1.00  0.00     0.031 C 
ATOM     46  C   UNL A   1      38.274  28.833  28.349  1.00  0.00     0.029 A 
ATOM     47  C   UNL A   1      39.539  28.849  29.076  1.00  0.00     0.049 A 
ATOM     48  H   UNL A   1      40.202  30.284  30.433  1.00  0.00     0.167 HD
ATOM     49  C   UNL A   1      41.600  33.499  33.046  1.00  0.00     0.037 A 
ATOM     50  C   UNL A   1      40.504  27.912  28.984  1.00  0.00     0.037 A 
ATOM     51  C   UNL A   1      42.628  32.493  33.100  1.00  0.00     0.049 A 
ATOM     52  C   UNL A   1      41.763  28.073  29.793  1.00  0.00     0.074 A 
ATOM     53  C   UNL A   1      43.780  32.483  33.869  1.00  0.00     0.029 A 
ATOM     54  N   UNL A   1      42.630  31.322  32.360  1.00  0.00    -0.354 N 
ATOM     55  N   UNL A   1      42.094  29.026  30.629  1.00  0.00    -0.248 NA
ATOM     56  C   UNL A   1      42.783  27.023  29.649  1.00  0.00     0.031 C 
ATOM     57  C   UNL A   1      44.507  31.333  33.550  1.00  0.00     0.029 A 
ATOM     58  C   UNL A   1      43.780  30.598  32.629  1.00  0.00     0.049 A 
ATOM     59  H   UNL A   1      41.921  31.047  31.735  1.00  0.00     0.167 HD
ATOM     60  C   UNL A   1      43.337  28.671  31.139  1.00  0.00     0.074 A 
ATOM     61  C   UNL A   1      43.696  27.410  30.527  1.00  0.00     0.031 C 
ATOM     62  C   UNL A   1      44.112  29.331  32.033  1.00  0.00     0.037 A 
BRANCH  49  63
ATOM     63  C   UNL A   1      41.810  34.752  33.845  1.00  0.00     0.057 A 
ATOM     64  C   UNL A   1      41.414  34.852  35.185  1.00  0.00     0.134 A 
ATOM     65  C   UNL A   1      42.500  35.840  33.293  1.00  0.00     0.134 A 
ATOM     66  F   UNL A   1      40.743  33.849  35.771  1.00  0.00    -0.206 F 
ATOM     67  C   UNL A   1      41.685  35.992  35.943  1.00  0.00     0.040 A 
ATOM     68  C   UNL A   1      42.800  36.975  34.048  1.00  0.00     0.040 A 
ATOM     69  F   UNL A   1      42.915  35.807  32.018  1.00  0.00    -0.206 F 
ATOM     70  C   UNL A   1      42.391  37.053  35.377  1.00  0.00     0.006 A 
ENDBRANCH  49  63
BRANCH  50  71
ATOM     71  C   UNL A   1      40.334  26.734  28.093  1.00  0.00     0.057 A 
ATOM     72  C   UNL A   1      40.895  26.710  26.810  1.00  0.00     0.134 A 
ATOM     73  C   UNL A   1      39.561  25.631  28.477  1.00  0.00     0.134 A 
ATOM     74  F   UNL A   1      41.629  27.745  26.375  1.00  0.00    -0.206 F 
ATOM     75  C   UNL A   1      40.661  25.654  25.927  1.00  0.00     0.040 A 
ATOM     76  C   UNL A   1      39.345  24.553  27.615  1.00  0.00     0.040 A 
ATOM     77  F   UNL A   1      39.001  25.585  29.694  1.00  0.00    -0.206 F 
ATOM     78  C   UNL A   1      39.885  24.571  26.330  1.00  0.00     0.006 A 
ENDBRANCH  50  71
BRANCH  62  79
ATOM     79  C   UNL A   1      45.398  28.677  32.451  1.00  0.00     0.057 A 
ATOM     80  C   UNL A   1      45.459  27.771  33.517  1.00  0.00     0.134 A 
ATOM     81  C   UNL A   1      46.582  28.925  31.743  1.00  0.00     0.134 A 
ATOM     82  F   UNL A   1      44.365  27.500  34.244  1.00  0.00    -0.206 F 
ATOM     83  C   UNL A   1      46.658  27.153  33.878  1.00  0.00     0.040 A 
ATOM     84  C   UNL A   1      47.778  28.289  32.075  1.00  0.00     0.040 A 
ATOM     85  F   UNL A   1      46.589  29.773  30.704  1.00  0.00    -0.206 F 
ATOM     86  C   UNL A   1      47.819  27.405  33.150  1.00  0.00     0.006 A 
ENDBRANCH  62  79
ENDBRANCH  36  37
ENDBRANCH  28  31
ENDBRANCH  26  27
ENDBRANCH  25  26
ENDBRANCH   1  25
TORSDOF 15
ENDMDL
MODEL 3
REMARK VINA RESULT:     -11.7      3.593      8.168
REMARK SMILES COc1c(C(=O)NCCCCCCNC(=O)c2ccc(-c3c4nc(c(-c5c(F)cccc5F)c5ccc([nH]5)c(-c5c(F)cccc5F)c5nc(c(-c6c(F)cccc6F)c6ccc3[nH]6)C=C5)C=C4)cc2)cccc1-c1cc(C)ccc1C
REMARK SMILES IDX 11 1 10 2 9 3 8 4 7 5 5 6 6 7 4 9 3 10 74 11 71 12 73 13
REMARK SMILES IDX 72 14 2 15 1 16 75 17 76 18 81 19 77 20 80 21 82 22 78 23
REMARK SMILES IDX 79 24 12 25 13 26 14 27 15 28 16 30 17 31 18 32 70 33 19 34
REMARK SMILES IDX 69 35 20 36 21 37 22 38 63 39 23 40 68 41 62 42 64 43 24 44
REMARK SMILES IDX 67 45 61 46 60 47 25 49 51 50 34 51 50 52 35 53 38 54 49 55
REMARK SMILES IDX 65 56 36 57 37 58 48 60 66 61 39 62 26 63 27 64 32 65 28 66
REMARK SMILES IDX 29 67 31 68 33 69 30 70 52 71 53 72 58 73 54 74 55 75 57 76
REMARK SMILES IDX 59 77 56 78 40 79 41 80 46 81 42 82 43 83 45 84 47 85 44 86
REMARK H PARENT 7 8 14 29 64 48 38 59
REMARK Flexibility Score: inf
ROOT
ATOM      1  C   UNL A   1      31.771  27.090  26.485  1.00  0.00     0.002 C 
ENDROOT
BRANCH   1   2
ATOM      2  C   UNL A   1      31.970  25.572  26.506  1.00  0.00     0.002 C 
BRANCH   2   3
ATOM      3  C   UNL A   1      33.313  25.022  26.030  1.00  0.00     0.021 C 
BRANCH   3   4
ATOM      4  C   UNL A   1      34.079  25.854  25.020  1.00  0.00     0.116 C 
BRANCH   4   5
ATOM      5  N   UNL A   1      34.108  25.428  23.654  1.00  0.00    -0.352 N 
ATOM      6  C   UNL A   1      33.243  25.811  22.648  1.00  0.00     0.255 C 
ATOM      7  O   UNL A   1      33.532  25.472  21.498  1.00  0.00    -0.269 OA
ATOM      8  H   UNL A   1      34.820  24.796  23.405  1.00  0.00     0.163 HD
BRANCH   6   9
ATOM      9  C   UNL A   1      31.923  26.495  22.885  1.00  0.00     0.082 A 
ATOM     10  C   UNL A   1      31.610  27.873  22.763  1.00  0.00     0.139 A 
ATOM     11  C   UNL A   1      30.282  28.330  23.026  1.00  0.00     0.025 A 
ATOM     12  C   UNL A   1      30.895  25.597  23.247  1.00  0.00     0.018 A 
ATOM     13  C   UNL A   1      29.301  27.388  23.395  1.00  0.00     0.012 A 
ATOM     14  C   UNL A   1      29.599  26.035  23.498  1.00  0.00     0.002 A 
BRANCH  10  15
ATOM     15  O   UNL A   1      32.569  28.729  22.263  1.00  0.00    -0.495 OA
ATOM     16  C   UNL A   1      33.603  29.113  23.184  1.00  0.00     0.278 C 
ENDBRANCH  10  15
BRANCH  11  17
ATOM     17  C   UNL A   1      29.880  29.755  22.984  1.00  0.00    -0.011 A 
ATOM     18  C   UNL A   1      29.160  30.200  21.853  1.00  0.00     0.012 A 
ATOM     19  C   UNL A   1      30.090  30.662  24.048  1.00  0.00    -0.043 A 
ATOM     20  C   UNL A   1      28.584  31.475  21.794  1.00  0.00    -0.050 A 
ATOM     21  C   UNL A   1      29.486  31.932  23.992  1.00  0.00     0.004 A 
ATOM     22  C   UNL A   1      30.819  30.285  25.311  1.00  0.00     0.045 C 
ATOM     23  C   UNL A   1      27.805  31.887  20.580  1.00  0.00     0.044 C 
ATOM     24  C   UNL A   1      28.735  32.329  22.884  1.00  0.00     0.004 A 
ENDBRANCH  11  17
ENDBRANCH   6   9
ENDBRANCH   4   5
ENDBRANCH   3   4
ENDBRANCH   2   3
ENDBRANCH   1   2
BRANCH   1  25
ATOM     25  C   UNL A   1      32.405  27.915  27.608  1.00  0.00     0.021 C 
BRANCH  25  26
ATOM     26  C   UNL A   1      33.684  28.675  27.271  1.00  0.00     0.116 C 
BRANCH  26  27
ATOM     27  N   UNL A   1      33.666  30.053  27.722  1.00  0.00    -0.352 N 
ATOM     28  C   UNL A   1      34.642  30.793  28.345  1.00  0.00     0.251 C 
ATOM     29  H   UNL A   1      32.824  30.535  27.555  1.00  0.00     0.163 HD
ATOM     30  O   UNL A   1      34.385  31.919  28.758  1.00  0.00    -0.269 OA
BRANCH  28  31
ATOM     31  C   UNL A   1      35.998  30.232  28.549  1.00  0.00     0.039 A 
ATOM     32  C   UNL A   1      36.899  30.256  27.480  1.00  0.00     0.014 A 
ATOM     33  C   UNL A   1      36.378  29.663  29.767  1.00  0.00     0.014 A 
ATOM     34  C   UNL A   1      38.198  29.770  27.650  1.00  0.00     0.010 A 
ATOM     35  C   UNL A   1      37.694  29.242  29.957  1.00  0.00     0.010 A 
ATOM     36  C   UNL A   1      38.618  29.291  28.902  1.00  0.00    -0.014 A 
BRANCH  36  37
ATOM     37  C   UNL A   1      40.019  28.844  29.126  1.00  0.00     0.031 A 
ATOM     38  C   UNL A   1      41.028  29.786  29.727  1.00  0.00     0.074 A 
ATOM     39  C   UNL A   1      40.399  27.613  28.727  1.00  0.00     0.049 A 
ATOM     40  N   UNL A   1      42.312  29.610  29.914  1.00  0.00    -0.248 NA
ATOM     41  C   UNL A   1      40.536  31.107  30.150  1.00  0.00     0.031 C 
ATOM     42  C   UNL A   1      39.527  26.618  28.099  1.00  0.00     0.029 A 
ATOM     43  N   UNL A   1      41.625  26.993  28.776  1.00  0.00    -0.354 N 
ATOM     44  C   UNL A   1      42.782  30.801  30.454  1.00  0.00     0.074 A 
ATOM     45  C   UNL A   1      41.655  31.706  30.530  1.00  0.00     0.031 C 
ATOM     46  C   UNL A   1      40.240  25.511  27.834  1.00  0.00     0.029 A 
ATOM     47  C   UNL A   1      41.627  25.731  28.232  1.00  0.00     0.049 A 
ATOM     48  H   UNL A   1      42.425  27.414  29.165  1.00  0.00     0.167 HD
ATOM     49  C   UNL A   1      44.036  31.107  30.864  1.00  0.00     0.037 A 
ATOM     50  C   UNL A   1      42.637  24.855  28.057  1.00  0.00     0.037 A 
ATOM     51  C   UNL A   1      45.147  30.192  30.825  1.00  0.00     0.049 A 
ATOM     52  C   UNL A   1      44.022  25.231  28.513  1.00  0.00     0.074 A 
ATOM     53  C   UNL A   1      46.435  30.386  31.293  1.00  0.00     0.029 A 
ATOM     54  N   UNL A   1      45.103  28.916  30.288  1.00  0.00    -0.354 N 
ATOM     55  N   UNL A   1      44.432  26.331  29.095  1.00  0.00    -0.248 NA
ATOM     56  C   UNL A   1      45.085  24.240  28.292  1.00  0.00     0.031 C 
ATOM     57  C   UNL A   1      47.186  29.248  30.987  1.00  0.00     0.029 A 
ATOM     58  C   UNL A   1      46.351  28.322  30.384  1.00  0.00     0.049 A 
ATOM     59  H   UNL A   1      44.304  28.494  29.896  1.00  0.00     0.167 HD
ATOM     60  C   UNL A   1      45.786  26.148  29.345  1.00  0.00     0.074 A 
ATOM     61  C   UNL A   1      46.126  24.827  28.862  1.00  0.00     0.031 C 
ATOM     62  C   UNL A   1      46.669  26.997  29.922  1.00  0.00     0.037 A 
BRANCH  49  63
ATOM     63  C   UNL A   1      44.290  32.487  31.395  1.00  0.00     0.057 A 
ATOM     64  C   UNL A   1      44.187  32.788  32.759  1.00  0.00     0.134 A 
ATOM     65  C   UNL A   1      44.732  33.507  30.540  1.00  0.00     0.134 A 
ATOM     66  F   UNL A   1      43.761  31.859  33.628  1.00  0.00    -0.206 F 
ATOM     67  C   UNL A   1      44.503  34.054  33.253  1.00  0.00     0.040 A 
ATOM     68  C   UNL A   1      45.076  34.769  31.026  1.00  0.00     0.040 A 
ATOM     69  F   UNL A   1      44.861  33.284  29.224  1.00  0.00    -0.206 F 
ATOM     70  C   UNL A   1      44.961  35.046  32.386  1.00  0.00     0.006 A 
ENDBRANCH  49  63
BRANCH  50  71
ATOM     71  C   UNL A   1      42.394  23.535  27.418  1.00  0.00     0.057 A 
ATOM     72  C   UNL A   1      42.092  22.404  28.186  1.00  0.00     0.134 A 
ATOM     73  C   UNL A   1      42.514  23.359  26.034  1.00  0.00     0.134 A 
ATOM     74  F   UNL A   1      41.982  22.503  29.519  1.00  0.00    -0.206 F 
ATOM     75  C   UNL A   1      41.958  21.140  27.608  1.00  0.00     0.040 A 
ATOM     76  C   UNL A   1      42.352  22.105  25.439  1.00  0.00     0.040 A 
ATOM     77  F   UNL A   1      42.795  24.401  25.239  1.00  0.00    -0.206 F 
ATOM     78  C   UNL A   1      42.087  20.989  26.230  1.00  0.00     0.006 A 
ENDBRANCH  50  71
BRANCH  62  79
ATOM     79  C   UNL A   1      48.075  26.507  30.119  1.00  0.00     0.057 A 
ATOM     80  C   UNL A   1      49.078  26.724  29.165  1.00  0.00     0.134 A 
ATOM     81  C   UNL A   1      48.438  25.851  31.303  1.00  0.00     0.134 A 
ATOM     82  F   UNL A   1      48.794  27.334  28.005  1.00  0.00    -0.206 F 
ATOM     83  C   UNL A   1      50.387  26.285  29.374  1.00  0.00     0.040 A 
ATOM     84  C   UNL A   1      49.749  25.436  31.535  1.00  0.00     0.040 A 
ATOM     85  F   UNL A   1      47.528  25.623  32.261  1.00  0.00    -0.206 F 
ATOM     86  C   UNL A   1      50.727  25.647  30.565  1.00  0.00     0.006 A 
ENDBRANCH  62  79
ENDBRANCH  36  37
ENDBRANCH  28  31
ENDBRANCH  26  27
ENDBRANCH  25  26
ENDBRANCH   1  25
TORSDOF 15
ENDMDL
