MODEL 1
REMARK VINA RESULT:     -11.3      0.000      0.000
REMARK SMILES COc1cc(C(=O)NCCCCCCNC(=O)c2ccc(-c3c4nc(c(-c5c(F)cccc5F)c5ccc([nH]5)c(-c5c(F)cccc5F)c5nc(c(-c6c(F)cccc6F)c6ccc3[nH]6)C=C5)C=C4)cc2)ccc1OCC(=O)N[C@H]1CCCC[C@H]1C
REMARK SMILES IDX 10 1 9 2 8 3 6 4 7 5 5 7 3 8 4 9 74 10 73 11 72 12 2 13 1 14
REMARK SMILES IDX 75 15 76 16 77 17 78 18 79 19 80 21 81 22 85 23 82 24 84 25
REMARK SMILES IDX 86 26 83 27 11 28 12 29 13 30 14 31 15 32 16 33 17 35 18 36
REMARK SMILES IDX 19 37 71 38 20 39 70 40 21 41 22 42 23 43 64 44 24 45 69 46
REMARK SMILES IDX 63 47 65 48 25 49 68 50 62 51 61 52 26 54 52 55 35 56 51 57
REMARK SMILES IDX 36 58 39 59 50 60 66 61 37 62 38 63 49 65 67 66 40 67 27 68
REMARK SMILES IDX 28 69 33 70 29 71 30 72 32 73 34 74 31 75 53 76 54 77 59 78
REMARK SMILES IDX 55 79 56 80 58 81 60 82 57 83 41 84 42 85 47 86 43 87 44 88
REMARK SMILES IDX 46 89 48 90 45 91
REMARK H PARENT 8 6 79 20 15 34 65 53 39 64
REMARK Flexibility Score: inf
ROOT
ATOM      1  C   UNL A   1      35.613  23.168  24.199  1.00  0.00     0.021 C 
ENDROOT
BRANCH   1   2
ATOM      2  C   UNL A   1      34.368  22.559  23.566  1.00  0.00     0.116 C 
BRANCH   2   3
ATOM      3  N   UNL A   1      33.853  23.297  22.425  1.00  0.00    -0.352 N 
ATOM      4  C   UNL A   1      33.237  24.526  22.323  1.00  0.00     0.251 C 
ATOM      5  O   UNL A   1      32.872  24.912  21.214  1.00  0.00    -0.269 OA
ATOM      6  H   UNL A   1      33.964  22.832  21.564  1.00  0.00     0.163 HD
BRANCH   4   7
ATOM      7  C   UNL A   1      32.963  25.381  23.510  1.00  0.00     0.043 A 
ATOM      8  C   UNL A   1      31.549  25.879  25.434  1.00  0.00     0.161 A 
ATOM      9  C   UNL A   1      31.800  25.147  24.263  1.00  0.00     0.064 A 
ATOM     10  C   UNL A   1      32.486  26.809  25.888  1.00  0.00     0.161 A 
ATOM     11  C   UNL A   1      33.629  27.045  25.122  1.00  0.00     0.051 A 
ATOM     12  C   UNL A   1      33.821  26.405  23.900  1.00  0.00     0.018 A 
BRANCH   8  13
ATOM     13  O   UNL A   1      30.458  25.570  26.199  1.00  0.00    -0.493 OA
ATOM     14  C   UNL A   1      30.389  24.170  26.480  1.00  0.00     0.278 C 
ENDBRANCH   8  13
BRANCH  10  15
ATOM     15  O   UNL A   1      32.462  27.492  27.067  1.00  0.00    -0.480 OA
BRANCH  15  16
ATOM     16  C   UNL A   1      31.820  28.751  27.105  1.00  0.00     0.329 C 
BRANCH  16  17
ATOM     17  C   UNL A   1      32.236  29.912  26.184  1.00  0.00     0.258 C 
ATOM     18  O   UNL A   1      33.365  30.410  26.290  1.00  0.00    -0.271 OA
ATOM     19  N   UNL A   1      31.464  30.422  25.190  1.00  0.00    -0.350 N 
ATOM     20  H   UNL A   1      31.827  31.269  24.843  1.00  0.00     0.163 HD
BRANCH  19  21
ATOM     21  C   UNL A   1      30.226  30.037  24.500  1.00  0.00     0.085 C 
ATOM     22  C   UNL A   1      29.390  31.164  23.902  1.00  0.00     0.025 C 
ATOM     23  C   UNL A   1      30.460  28.823  23.552  1.00  0.00     0.008 C 
ATOM     24  C   UNL A   1      28.129  30.664  23.213  1.00  0.00     0.002 C 
ATOM     25  C   UNL A   1      29.189  28.442  22.770  1.00  0.00     0.005 C 
ATOM     26  C   UNL A   1      31.659  28.961  22.604  1.00  0.00     0.010 C 
ATOM     27  C   UNL A   1      28.487  29.644  22.143  1.00  0.00     0.000 C 
ENDBRANCH  19  21
ENDBRANCH  16  17
ENDBRANCH  15  16
ENDBRANCH  10  15
ENDBRANCH   4   7
ENDBRANCH   2   3
ENDBRANCH   1   2
BRANCH   1  28
ATOM     28  C   UNL A   1      36.830  22.252  24.321  1.00  0.00     0.002 C 
BRANCH  28  29
ATOM     29  C   UNL A   1      36.575  20.858  24.897  1.00  0.00     0.002 C 
BRANCH  29  30
ATOM     30  C   UNL A   1      37.769  19.900  24.908  1.00  0.00     0.021 C 
BRANCH  30  31
ATOM     31  C   UNL A   1      38.968  20.350  25.734  1.00  0.00     0.116 C 
BRANCH  31  32
ATOM     32  N   UNL A   1      40.013  19.343  25.804  1.00  0.00    -0.352 N 
ATOM     33  C   UNL A   1      41.343  19.477  26.121  1.00  0.00     0.251 C 
ATOM     34  H   UNL A   1      39.724  18.426  25.594  1.00  0.00     0.163 HD
ATOM     35  O   UNL A   1      42.108  18.531  25.973  1.00  0.00    -0.269 OA
BRANCH  33  36
ATOM     36  C   UNL A   1      41.865  20.771  26.616  1.00  0.00     0.039 A 
ATOM     37  C   UNL A   1      42.387  21.681  25.695  1.00  0.00     0.014 A 
ATOM     38  C   UNL A   1      41.856  21.082  27.979  1.00  0.00     0.014 A 
ATOM     39  C   UNL A   1      42.841  22.927  26.130  1.00  0.00     0.010 A 
ATOM     40  C   UNL A   1      42.238  22.352  28.403  1.00  0.00     0.010 A 
ATOM     41  C   UNL A   1      42.738  23.288  27.484  1.00  0.00    -0.014 A 
BRANCH  41  42
ATOM     42  C   UNL A   1      43.135  24.641  27.950  1.00  0.00     0.031 A 
ATOM     43  C   UNL A   1      42.094  25.689  28.228  1.00  0.00     0.074 A 
ATOM     44  C   UNL A   1      44.442  24.952  28.050  1.00  0.00     0.049 A 
ATOM     45  N   UNL A   1      42.251  26.938  28.586  1.00  0.00    -0.248 NA
ATOM     46  C   UNL A   1      40.690  25.287  28.050  1.00  0.00     0.031 C 
ATOM     47  C   UNL A   1      45.550  24.045  27.748  1.00  0.00     0.029 A 
ATOM     48  N   UNL A   1      45.059  26.122  28.416  1.00  0.00    -0.354 N 
ATOM     49  C   UNL A   1      40.972  27.475  28.658  1.00  0.00     0.074 A 
ATOM     50  C   UNL A   1      40.056  26.432  28.252  1.00  0.00     0.031 C 
ATOM     51  C   UNL A   1      46.710  24.686  27.954  1.00  0.00     0.029 A 
ATOM     52  C   UNL A   1      46.429  26.059  28.365  1.00  0.00     0.049 A 
ATOM     53  H   UNL A   1      44.565  26.929  28.690  1.00  0.00     0.167 HD
ATOM     54  C   UNL A   1      40.595  28.718  29.044  1.00  0.00     0.037 A 
ATOM     55  C   UNL A   1      47.358  27.002  28.609  1.00  0.00     0.037 A 
ATOM     56  C   UNL A   1      41.512  29.747  29.461  1.00  0.00     0.049 A 
ATOM     57  C   UNL A   1      46.922  28.372  29.045  1.00  0.00     0.074 A 
ATOM     58  C   UNL A   1      41.226  31.010  29.951  1.00  0.00     0.029 A 
ATOM     59  N   UNL A   1      42.894  29.638  29.422  1.00  0.00    -0.354 N 
ATOM     60  N   UNL A   1      45.707  28.840  29.198  1.00  0.00    -0.248 NA
ATOM     61  C   UNL A   1      47.983  29.341  29.350  1.00  0.00     0.031 C 
ATOM     62  C   UNL A   1      42.435  31.686  30.149  1.00  0.00     0.029 A 
ATOM     63  C   UNL A   1      43.476  30.824  29.842  1.00  0.00     0.049 A 
ATOM     64  H   UNL A   1      43.390  28.836  29.138  1.00  0.00     0.167 HD
ATOM     65  C   UNL A   1      45.855  30.150  29.636  1.00  0.00     0.074 A 
ATOM     66  C   UNL A   1      47.279  30.396  29.738  1.00  0.00     0.031 C 
ATOM     67  C   UNL A   1      44.896  31.063  29.928  1.00  0.00     0.037 A 
BRANCH  54  68
ATOM     68  C   UNL A   1      39.124  29.031  29.013  1.00  0.00     0.057 A 
ATOM     69  C   UNL A   1      38.307  28.895  30.145  1.00  0.00     0.134 A 
ATOM     70  C   UNL A   1      38.516  29.477  27.832  1.00  0.00     0.134 A 
ATOM     71  F   UNL A   1      38.821  28.464  31.306  1.00  0.00    -0.206 F 
ATOM     72  C   UNL A   1      36.934  29.144  30.090  1.00  0.00     0.040 A 
ATOM     73  C   UNL A   1      37.151  29.762  27.774  1.00  0.00     0.040 A 
ATOM     74  F   UNL A   1      39.237  29.640  26.713  1.00  0.00    -0.206 F 
ATOM     75  C   UNL A   1      36.353  29.583  28.903  1.00  0.00     0.006 A 
ENDBRANCH  54  68
BRANCH  55  76
ATOM     76  C   UNL A   1      48.796  26.664  28.457  1.00  0.00     0.057 A 
ATOM     77  C   UNL A   1      49.476  26.906  27.258  1.00  0.00     0.134 A 
ATOM     78  C   UNL A   1      49.533  26.129  29.521  1.00  0.00     0.134 A 
ATOM     79  F   UNL A   1      48.821  27.402  26.199  1.00  0.00    -0.206 F 
ATOM     80  C   UNL A   1      50.836  26.625  27.120  1.00  0.00     0.040 A 
ATOM     81  C   UNL A   1      50.899  25.865  29.405  1.00  0.00     0.040 A 
ATOM     82  F   UNL A   1      48.941  25.884  30.699  1.00  0.00    -0.206 F 
ATOM     83  C   UNL A   1      51.553  26.110  28.200  1.00  0.00     0.006 A 
ENDBRANCH  55  76
BRANCH  67  84
ATOM     84  C   UNL A   1      45.354  32.412  30.404  1.00  0.00     0.057 A 
ATOM     85  C   UNL A   1      45.559  33.481  29.521  1.00  0.00     0.134 A 
ATOM     86  C   UNL A   1      45.553  32.657  31.769  1.00  0.00     0.134 A 
ATOM     87  F   UNL A   1      45.398  33.311  28.200  1.00  0.00    -0.206 F 
ATOM     88  C   UNL A   1      45.966  34.736  29.976  1.00  0.00     0.040 A 
ATOM     89  C   UNL A   1      45.932  33.916  32.239  1.00  0.00     0.040 A 
ATOM     90  F   UNL A   1      45.367  31.682  32.670  1.00  0.00    -0.206 F 
ATOM     91  C   UNL A   1      46.146  34.958  31.340  1.00  0.00     0.006 A 
ENDBRANCH  67  84
ENDBRANCH  41  42
ENDBRANCH  33  36
ENDBRANCH  31  32
ENDBRANCH  30  31
ENDBRANCH  29  30
ENDBRANCH  28  29
ENDBRANCH   1  28
TORSDOF 18
ENDMDL
MODEL 2
REMARK VINA RESULT:     -11.1      1.536      6.529
REMARK SMILES COc1cc(C(=O)NCCCCCCNC(=O)c2ccc(-c3c4nc(c(-c5c(F)cccc5F)c5ccc([nH]5)c(-c5c(F)cccc5F)c5nc(c(-c6c(F)cccc6F)c6ccc3[nH]6)C=C5)C=C4)cc2)ccc1OCC(=O)N[C@H]1CCCC[C@H]1C
REMARK SMILES IDX 10 1 9 2 8 3 6 4 7 5 5 7 3 8 4 9 74 10 73 11 72 12 2 13 1 14
REMARK SMILES IDX 75 15 76 16 77 17 78 18 79 19 80 21 81 22 85 23 82 24 84 25
REMARK SMILES IDX 86 26 83 27 11 28 12 29 13 30 14 31 15 32 16 33 17 35 18 36
REMARK SMILES IDX 19 37 71 38 20 39 70 40 21 41 22 42 23 43 64 44 24 45 69 46
REMARK SMILES IDX 63 47 65 48 25 49 68 50 62 51 61 52 26 54 52 55 35 56 51 57
REMARK SMILES IDX 36 58 39 59 50 60 66 61 37 62 38 63 49 65 67 66 40 67 27 68
REMARK SMILES IDX 28 69 33 70 29 71 30 72 32 73 34 74 31 75 53 76 54 77 59 78
REMARK SMILES IDX 55 79 56 80 58 81 60 82 57 83 41 84 42 85 47 86 43 87 44 88
REMARK SMILES IDX 46 89 48 90 45 91
REMARK H PARENT 8 6 79 20 15 34 65 53 39 64
REMARK Flexibility Score: inf
ROOT
ATOM      1  C   UNL A   1      34.383  20.014  24.900  1.00  0.00     0.021 C 
ENDROOT
BRANCH   1   2
ATOM      2  C   UNL A   1      32.964  20.415  25.283  1.00  0.00     0.116 C 
BRANCH   2   3
ATOM      3  N   UNL A   1      32.855  21.079  26.572  1.00  0.00    -0.352 N 
ATOM      4  C   UNL A   1      32.499  22.364  26.919  1.00  0.00     0.251 C 
ATOM      5  O   UNL A   1      32.511  22.678  28.109  1.00  0.00    -0.269 OA
ATOM      6  H   UNL A   1      33.078  20.504  27.339  1.00  0.00     0.163 HD
BRANCH   4   7
ATOM      7  C   UNL A   1      32.139  23.393  25.907  1.00  0.00     0.043 A 
ATOM      8  C   UNL A   1      32.644  24.496  23.790  1.00  0.00     0.161 A 
ATOM      9  C   UNL A   1      32.990  23.592  24.807  1.00  0.00     0.064 A 
ATOM     10  C   UNL A   1      31.420  25.165  23.841  1.00  0.00     0.161 A 
ATOM     11  C   UNL A   1      30.590  24.973  24.948  1.00  0.00     0.051 A 
ATOM     12  C   UNL A   1      30.988  24.167  26.013  1.00  0.00     0.018 A 
BRANCH   8  13
ATOM     13  O   UNL A   1      33.443  24.603  22.685  1.00  0.00    -0.493 OA
ATOM     14  C   UNL A   1      34.118  23.376  22.400  1.00  0.00     0.278 C 
ENDBRANCH   8  13
BRANCH  10  15
ATOM     15  O   UNL A   1      30.876  25.959  22.876  1.00  0.00    -0.480 OA
BRANCH  15  16
ATOM     16  C   UNL A   1      29.959  26.963  23.264  1.00  0.00     0.329 C 
BRANCH  16  17
ATOM     17  C   UNL A   1      30.181  28.449  22.928  1.00  0.00     0.258 C 
ATOM     18  O   UNL A   1      29.534  28.978  22.014  1.00  0.00    -0.271 OA
ATOM     19  N   UNL A   1      31.015  29.276  23.609  1.00  0.00    -0.350 N 
ATOM     20  H   UNL A   1      31.156  30.126  23.131  1.00  0.00     0.163 HD
BRANCH  19  21
ATOM     21  C   UNL A   1      31.763  29.230  24.872  1.00  0.00     0.085 C 
ATOM     22  C   UNL A   1      31.232  28.294  25.954  1.00  0.00     0.025 C 
ATOM     23  C   UNL A   1      33.297  29.133  24.619  1.00  0.00     0.008 C 
ATOM     24  C   UNL A   1      32.072  28.320  27.222  1.00  0.00     0.002 C 
ATOM     25  C   UNL A   1      34.097  29.019  25.931  1.00  0.00     0.005 C 
ATOM     26  C   UNL A   1      33.724  28.043  23.627  1.00  0.00     0.010 C 
ATOM     27  C   UNL A   1      33.521  27.988  26.897  1.00  0.00     0.000 C 
ENDBRANCH  19  21
ENDBRANCH  16  17
ENDBRANCH  15  16
ENDBRANCH  10  15
ENDBRANCH   4   7
ENDBRANCH   2   3
ENDBRANCH   1   2
BRANCH   1  28
ATOM     28  C   UNL A   1      35.503  20.929  25.393  1.00  0.00     0.002 C 
BRANCH  28  29
ATOM     29  C   UNL A   1      36.796  20.920  24.575  1.00  0.00     0.002 C 
BRANCH  29  30
ATOM     30  C   UNL A   1      37.809  19.825  24.920  1.00  0.00     0.021 C 
BRANCH  30  31
ATOM     31  C   UNL A   1      38.934  20.239  25.862  1.00  0.00     0.116 C 
BRANCH  31  32
ATOM     32  N   UNL A   1      40.075  19.342  25.806  1.00  0.00    -0.352 N 
ATOM     33  C   UNL A   1      41.403  19.593  26.049  1.00  0.00     0.251 C 
ATOM     34  H   UNL A   1      39.864  18.414  25.555  1.00  0.00     0.163 HD
ATOM     35  O   UNL A   1      42.246  18.740  25.796  1.00  0.00    -0.269 OA
BRANCH  33  36
ATOM     36  C   UNL A   1      41.827  20.902  26.593  1.00  0.00     0.039 A 
ATOM     37  C   UNL A   1      42.296  21.877  25.709  1.00  0.00     0.014 A 
ATOM     38  C   UNL A   1      41.779  21.167  27.965  1.00  0.00     0.014 A 
ATOM     39  C   UNL A   1      42.657  23.137  26.191  1.00  0.00     0.010 A 
ATOM     40  C   UNL A   1      42.066  22.447  28.434  1.00  0.00     0.010 A 
ATOM     41  C   UNL A   1      42.511  23.445  27.554  1.00  0.00    -0.014 A 
BRANCH  41  42
ATOM     42  C   UNL A   1      42.807  24.806  28.068  1.00  0.00     0.031 A 
ATOM     43  C   UNL A   1      44.201  25.174  28.494  1.00  0.00     0.074 A 
ATOM     44  C   UNL A   1      41.803  25.690  28.224  1.00  0.00     0.049 A 
ATOM     45  N   UNL A   1      44.638  26.291  29.018  1.00  0.00    -0.248 NA
ATOM     46  C   UNL A   1      45.234  24.139  28.337  1.00  0.00     0.031 C 
ATOM     47  C   UNL A   1      40.397  25.434  27.909  1.00  0.00     0.029 A 
ATOM     48  N   UNL A   1      41.808  26.976  28.704  1.00  0.00    -0.354 N 
ATOM     49  C   UNL A   1      45.989  26.087  29.271  1.00  0.00     0.074 A 
ATOM     50  C   UNL A   1      46.284  24.722  28.894  1.00  0.00     0.031 C 
ATOM     51  C   UNL A   1      39.678  26.531  28.189  1.00  0.00     0.029 A 
ATOM     52  C   UNL A   1      40.563  27.553  28.740  1.00  0.00     0.049 A 
ATOM     53  H   UNL A   1      42.627  27.440  28.994  1.00  0.00     0.167 HD
ATOM     54  C   UNL A   1      46.903  26.962  29.755  1.00  0.00     0.037 A 
ATOM     55  C   UNL A   1      40.172  28.765  29.178  1.00  0.00     0.037 A 
ATOM     56  C   UNL A   1      46.605  28.325  30.115  1.00  0.00     0.049 A 
ATOM     57  C   UNL A   1      41.200  29.726  29.704  1.00  0.00     0.074 A 
ATOM     58  C   UNL A   1      47.475  29.316  30.534  1.00  0.00     0.029 A 
ATOM     59  N   UNL A   1      45.335  28.884  30.112  1.00  0.00    -0.354 N 
ATOM     60  N   UNL A   1      42.492  29.552  29.851  1.00  0.00    -0.248 NA
ATOM     61  C   UNL A   1      40.721  31.052  30.115  1.00  0.00     0.031 C 
ATOM     62  C   UNL A   1      46.724  30.455  30.845  1.00  0.00     0.029 A 
ATOM     63  C   UNL A   1      45.392  30.194  30.559  1.00  0.00     0.049 A 
ATOM     64  H   UNL A   1      44.514  28.418  29.833  1.00  0.00     0.167 HD
ATOM     65  C   UNL A   1      42.983  30.750  30.353  1.00  0.00     0.074 A 
ATOM     66  C   UNL A   1      41.851  31.648  30.469  1.00  0.00     0.031 C 
ATOM     67  C   UNL A   1      44.257  31.076  30.684  1.00  0.00     0.037 A 
BRANCH  54  68
ATOM     68  C   UNL A   1      48.307  26.458  29.939  1.00  0.00     0.057 A 
ATOM     69  C   UNL A   1      49.287  26.594  28.945  1.00  0.00     0.134 A 
ATOM     70  C   UNL A   1      48.687  25.828  31.132  1.00  0.00     0.134 A 
ATOM     71  F   UNL A   1      48.990  27.180  27.775  1.00  0.00    -0.206 F 
ATOM     72  C   UNL A   1      50.575  26.081  29.110  1.00  0.00     0.040 A 
ATOM     73  C   UNL A   1      49.981  25.341  31.323  1.00  0.00     0.040 A 
ATOM     74  F   UNL A   1      47.806  25.671  32.131  1.00  0.00    -0.206 F 
ATOM     75  C   UNL A   1      50.926  25.455  30.304  1.00  0.00     0.006 A 
ENDBRANCH  54  68
BRANCH  55  76
ATOM     76  C   UNL A   1      38.735  29.131  29.118  1.00  0.00     0.057 A 
ATOM     77  C   UNL A   1      37.911  29.029  30.245  1.00  0.00     0.134 A 
ATOM     78  C   UNL A   1      38.161  29.632  27.942  1.00  0.00     0.134 A 
ATOM     79  F   UNL A   1      38.400  28.542  31.395  1.00  0.00    -0.206 F 
ATOM     80  C   UNL A   1      36.569  29.407  30.205  1.00  0.00     0.040 A 
ATOM     81  C   UNL A   1      36.826  30.036  27.894  1.00  0.00     0.040 A 
ATOM     82  F   UNL A   1      38.901  29.764  26.831  1.00  0.00    -0.206 F 
ATOM     83  C   UNL A   1      36.025  29.921  29.028  1.00  0.00     0.006 A 
ENDBRANCH  55  76
BRANCH  67  84
ATOM     84  C   UNL A   1      44.502  32.469  31.189  1.00  0.00     0.057 A 
ATOM     85  C   UNL A   1      44.766  33.538  30.322  1.00  0.00     0.134 A 
ATOM     86  C   UNL A   1      44.432  32.753  32.560  1.00  0.00     0.134 A 
ATOM     87  F   UNL A   1      44.859  33.333  28.999  1.00  0.00    -0.206 F 
ATOM     88  C   UNL A   1      44.973  34.833  30.801  1.00  0.00     0.040 A 
ATOM     89  C   UNL A   1      44.609  34.049  33.048  1.00  0.00     0.040 A 
ATOM     90  F   UNL A   1      44.175  31.779  33.445  1.00  0.00    -0.206 F 
ATOM     91  C   UNL A   1      44.887  35.092  32.168  1.00  0.00     0.006 A 
ENDBRANCH  67  84
ENDBRANCH  41  42
ENDBRANCH  33  36
ENDBRANCH  31  32
ENDBRANCH  30  31
ENDBRANCH  29  30
ENDBRANCH  28  29
ENDBRANCH   1  28
TORSDOF 18
ENDMDL
MODEL 3
REMARK VINA RESULT:     -11.1      2.255      7.149
REMARK SMILES COc1cc(C(=O)NCCCCCCNC(=O)c2ccc(-c3c4nc(c(-c5c(F)cccc5F)c5ccc([nH]5)c(-c5c(F)cccc5F)c5nc(c(-c6c(F)cccc6F)c6ccc3[nH]6)C=C5)C=C4)cc2)ccc1OCC(=O)N[C@H]1CCCC[C@H]1C
REMARK SMILES IDX 10 1 9 2 8 3 6 4 7 5 5 7 3 8 4 9 74 10 73 11 72 12 2 13 1 14
REMARK SMILES IDX 75 15 76 16 77 17 78 18 79 19 80 21 81 22 85 23 82 24 84 25
REMARK SMILES IDX 86 26 83 27 11 28 12 29 13 30 14 31 15 32 16 33 17 35 18 36
REMARK SMILES IDX 19 37 71 38 20 39 70 40 21 41 22 42 23 43 64 44 24 45 69 46
REMARK SMILES IDX 63 47 65 48 25 49 68 50 62 51 61 52 26 54 52 55 35 56 51 57
REMARK SMILES IDX 36 58 39 59 50 60 66 61 37 62 38 63 49 65 67 66 40 67 27 68
REMARK SMILES IDX 28 69 33 70 29 71 30 72 32 73 34 74 31 75 53 76 54 77 59 78
REMARK SMILES IDX 55 79 56 80 58 81 60 82 57 83 41 84 42 85 47 86 43 87 44 88
REMARK SMILES IDX 46 89 48 90 45 91
REMARK H PARENT 8 6 79 20 15 34 65 53 39 64
REMARK Flexibility Score: inf
ROOT
ATOM      1  C   UNL A   1      40.061  22.927  27.159  1.00  0.00     0.021 C 
ENDROOT
BRANCH   1   2
ATOM      2  C   UNL A   1      38.822  22.679  26.306  1.00  0.00     0.116 C 
BRANCH   2   3
ATOM      3  N   UNL A   1      38.724  21.333  25.768  1.00  0.00    -0.352 N 
ATOM      4  C   UNL A   1      37.759  20.713  25.003  1.00  0.00     0.251 C 
ATOM      5  O   UNL A   1      37.918  19.532  24.697  1.00  0.00    -0.269 OA
ATOM      6  H   UNL A   1      39.489  20.754  25.993  1.00  0.00     0.163 HD
BRANCH   4   7
ATOM      7  C   UNL A   1      36.518  21.409  24.569  1.00  0.00     0.043 A 
ATOM      8  C   UNL A   1      34.080  21.495  24.547  1.00  0.00     0.161 A 
ATOM      9  C   UNL A   1      35.273  20.829  24.868  1.00  0.00     0.064 A 
ATOM     10  C   UNL A   1      34.126  22.768  23.975  1.00  0.00     0.161 A 
ATOM     11  C   UNL A   1      35.368  23.326  23.667  1.00  0.00     0.051 A 
ATOM     12  C   UNL A   1      36.547  22.616  23.877  1.00  0.00     0.018 A 
BRANCH   8  13
ATOM     13  O   UNL A   1      32.884  20.953  24.929  1.00  0.00    -0.493 OA
ATOM     14  C   UNL A   1      33.031  19.597  25.358  1.00  0.00     0.278 C 
ENDBRANCH   8  13
BRANCH  10  15
ATOM     15  O   UNL A   1      33.073  23.600  23.735  1.00  0.00    -0.480 OA
BRANCH  15  16
ATOM     16  C   UNL A   1      32.895  24.105  22.427  1.00  0.00     0.329 C 
BRANCH  16  17
ATOM     17  C   UNL A   1      33.171  25.577  22.072  1.00  0.00     0.258 C 
ATOM     18  O   UNL A   1      33.278  25.917  20.885  1.00  0.00    -0.271 OA
ATOM     19  N   UNL A   1      33.257  26.585  22.978  1.00  0.00    -0.350 N 
ATOM     20  H   UNL A   1      33.619  27.408  22.576  1.00  0.00     0.163 HD
BRANCH  19  21
ATOM     21  C   UNL A   1      32.951  26.764  24.403  1.00  0.00     0.085 C 
ATOM     22  C   UNL A   1      33.657  27.909  25.121  1.00  0.00     0.025 C 
ATOM     23  C   UNL A   1      31.418  26.672  24.669  1.00  0.00     0.008 C 
ATOM     24  C   UNL A   1      33.276  28.010  26.591  1.00  0.00     0.002 C 
ATOM     25  C   UNL A   1      31.069  26.920  26.148  1.00  0.00     0.005 C 
ATOM     26  C   UNL A   1      30.547  27.541  23.753  1.00  0.00     0.010 C 
ATOM     27  C   UNL A   1      31.768  28.144  26.733  1.00  0.00     0.000 C 
ENDBRANCH  19  21
ENDBRANCH  16  17
ENDBRANCH  15  16
ENDBRANCH  10  15
ENDBRANCH   4   7
ENDBRANCH   2   3
ENDBRANCH   1   2
BRANCH   1  28
ATOM     28  C   UNL A   1      41.334  22.198  26.734  1.00  0.00     0.002 C 
BRANCH  28  29
ATOM     29  C   UNL A   1      41.923  21.214  27.749  1.00  0.00     0.002 C 
BRANCH  29  30
ATOM     30  C   UNL A   1      42.216  19.803  27.234  1.00  0.00     0.021 C 
BRANCH  30  31
ATOM     31  C   UNL A   1      42.013  19.590  25.738  1.00  0.00     0.116 C 
BRANCH  31  32
ATOM     32  N   UNL A   1      43.166  18.987  25.093  1.00  0.00    -0.352 N 
ATOM     33  C   UNL A   1      44.341  19.563  24.676  1.00  0.00     0.251 C 
ATOM     34  H   UNL A   1      43.094  18.019  24.930  1.00  0.00     0.163 HD
ATOM     35  O   UNL A   1      45.138  18.917  24.005  1.00  0.00    -0.269 OA
BRANCH  33  36
ATOM     36  C   UNL A   1      44.641  20.973  25.012  1.00  0.00     0.039 A 
ATOM     37  C   UNL A   1      44.144  21.980  24.181  1.00  0.00     0.014 A 
ATOM     38  C   UNL A   1      45.417  21.304  26.126  1.00  0.00     0.014 A 
ATOM     39  C   UNL A   1      44.372  23.320  24.502  1.00  0.00     0.010 A 
ATOM     40  C   UNL A   1      45.578  22.639  26.488  1.00  0.00     0.010 A 
ATOM     41  C   UNL A   1      45.060  23.662  25.678  1.00  0.00    -0.014 A 
BRANCH  41  42
ATOM     42  C   UNL A   1      45.235  25.081  26.079  1.00  0.00     0.031 A 
ATOM     43  C   UNL A   1      46.595  25.719  26.057  1.00  0.00     0.074 A 
ATOM     44  C   UNL A   1      44.176  25.778  26.538  1.00  0.00     0.049 A 
ATOM     45  N   UNL A   1      46.952  26.924  26.423  1.00  0.00    -0.248 NA
ATOM     46  C   UNL A   1      47.709  24.880  25.589  1.00  0.00     0.031 C 
ATOM     47  C   UNL A   1      42.815  25.254  26.669  1.00  0.00     0.029 A 
ATOM     48  N   UNL A   1      44.083  27.068  26.995  1.00  0.00    -0.354 N 
ATOM     49  C   UNL A   1      48.328  26.982  26.249  1.00  0.00     0.074 A 
ATOM     50  C   UNL A   1      48.749  25.673  25.797  1.00  0.00     0.031 C 
ATOM     51  C   UNL A   1      42.021  26.217  27.160  1.00  0.00     0.029 A 
ATOM     52  C   UNL A   1      42.821  27.412  27.413  1.00  0.00     0.049 A 
ATOM     53  H   UNL A   1      44.847  27.688  27.021  1.00  0.00     0.167 HD
ATOM     54  C   UNL A   1      49.163  28.033  26.430  1.00  0.00     0.037 A 
ATOM     55  C   UNL A   1      42.359  28.556  27.952  1.00  0.00     0.037 A 
ATOM     56  C   UNL A   1      48.736  29.338  26.867  1.00  0.00     0.049 A 
ATOM     57  C   UNL A   1      43.297  29.715  28.139  1.00  0.00     0.074 A 
ATOM     58  C   UNL A   1      49.488  30.492  27.000  1.00  0.00     0.029 A 
ATOM     59  N   UNL A   1      47.443  29.657  27.255  1.00  0.00    -0.354 N 
ATOM     60  N   UNL A   1      44.581  29.786  27.882  1.00  0.00    -0.248 NA
ATOM     61  C   UNL A   1      42.722  30.953  28.680  1.00  0.00     0.031 C 
ATOM     62  C   UNL A   1      48.664  31.492  27.529  1.00  0.00     0.029 A 
ATOM     63  C   UNL A   1      47.383  30.980  27.666  1.00  0.00     0.049 A 
ATOM     64  H   UNL A   1      46.679  29.036  27.241  1.00  0.00     0.167 HD
ATOM     65  C   UNL A   1      44.965  31.079  28.211  1.00  0.00     0.074 A 
ATOM     66  C   UNL A   1      43.773  31.763  28.671  1.00  0.00     0.031 C 
ATOM     67  C   UNL A   1      46.194  31.648  28.135  1.00  0.00     0.037 A 
BRANCH  54  68
ATOM     68  C   UNL A   1      50.627  27.803  26.173  1.00  0.00     0.057 A 
ATOM     69  C   UNL A   1      51.184  27.898  24.890  1.00  0.00     0.134 A 
ATOM     70  C   UNL A   1      51.492  27.481  27.227  1.00  0.00     0.134 A 
ATOM     71  F   UNL A   1      50.412  28.195  23.834  1.00  0.00    -0.206 F 
ATOM     72  C   UNL A   1      52.536  27.636  24.658  1.00  0.00     0.040 A 
ATOM     73  C   UNL A   1      52.852  27.250  27.012  1.00  0.00     0.040 A 
ATOM     74  F   UNL A   1      51.032  27.381  28.483  1.00  0.00    -0.206 F 
ATOM     75  C   UNL A   1      53.375  27.314  25.722  1.00  0.00     0.006 A 
ENDBRANCH  54  68
BRANCH  55  76
ATOM     76  C   UNL A   1      40.929  28.653  28.337  1.00  0.00     0.057 A 
ATOM     77  C   UNL A   1      40.512  28.410  29.651  1.00  0.00     0.134 A 
ATOM     78  C   UNL A   1      39.950  29.031  27.410  1.00  0.00     0.134 A 
ATOM     79  F   UNL A   1      41.400  28.028  30.581  1.00  0.00    -0.206 F 
ATOM     80  C   UNL A   1      39.175  28.536  30.028  1.00  0.00     0.040 A 
ATOM     81  C   UNL A   1      38.613  29.185  27.778  1.00  0.00     0.040 A 
ATOM     82  F   UNL A   1      40.288  29.288  26.137  1.00  0.00    -0.206 F 
ATOM     83  C   UNL A   1      38.222  28.933  29.091  1.00  0.00     0.006 A 
ENDBRANCH  55  76
BRANCH  67  84
ATOM     84  C   UNL A   1      46.311  33.089  28.543  1.00  0.00     0.057 A 
ATOM     85  C   UNL A   1      46.636  33.465  29.854  1.00  0.00     0.134 A 
ATOM     86  C   UNL A   1      46.138  34.113  27.603  1.00  0.00     0.134 A 
ATOM     87  F   UNL A   1      46.803  32.534  30.806  1.00  0.00    -0.206 F 
ATOM     88  C   UNL A   1      46.761  34.806  30.219  1.00  0.00     0.040 A 
ATOM     89  C   UNL A   1      46.289  35.457  27.949  1.00  0.00     0.040 A 
ATOM     90  F   UNL A   1      45.834  33.824  26.329  1.00  0.00    -0.206 F 
ATOM     91  C   UNL A   1      46.595  35.806  29.262  1.00  0.00     0.006 A 
ENDBRANCH  67  84
ENDBRANCH  41  42
ENDBRANCH  33  36
ENDBRANCH  31  32
ENDBRANCH  30  31
ENDBRANCH  29  30
ENDBRANCH  28  29
ENDBRANCH   1  28
TORSDOF 18
ENDMDL
