MODEL 1
REMARK VINA RESULT:     -10.0      0.000      0.000
REMARK SMILES C[C@@H](Oc1ccc(/C=C2\C(=O)[NH+]=C(NCCCCCCNC(=O)c3ccc(-c4c5nc(c(-c6c(F)cccc6F)c6ccc([nH]6)c(-c6c(F)cccc6F)c6nc(c(-c7c(F)cccc7F)c7ccc4[nH]7)C=C6)C=C5)cc3)N(c3ccc4c(c3)OCO4)C2=O)cc1)C(=O)[O-]
REMARK SMILES IDX 17 1 16 2 15 3 14 4 8 5 9 6 10 7 88 8 11 9 12 10 78 11 89 12
REMARK SMILES IDX 13 13 7 16 4 17 5 18 91 19 6 20 90 21 3 22 2 23 1 24 92 25
REMARK SMILES IDX 93 26 94 27 79 28 80 29 84 30 81 31 83 32 82 33 85 34 87 35
REMARK SMILES IDX 86 36 18 37 19 38 20 39 21 40 22 41 23 43 24 44 25 45 77 46
REMARK SMILES IDX 26 47 76 48 27 49 28 50 29 51 70 52 30 53 75 54 69 55 71 56
REMARK SMILES IDX 31 57 74 58 68 59 67 60 32 62 58 63 41 64 57 65 42 66 45 67
REMARK SMILES IDX 56 68 72 69 43 70 44 71 55 73 73 74 46 75 33 76 34 77 39 78
REMARK SMILES IDX 35 79 36 80 38 81 40 82 37 83 59 84 60 85 65 86 61 87 62 88
REMARK SMILES IDX 64 89 66 90 63 91 47 92 48 93 53 94 49 95 50 96 52 97 54 98
REMARK SMILES IDX 51 99
REMARK H PARENT 12 14 14 15 21 42 71 61 45 72
REMARK Flexibility Score: inf
ROOT
ATOM      1  C   UNL A   1      45.709  25.395  33.197  1.00  0.00     0.003 C 
ENDROOT
BRANCH   1   2
ATOM      2  C   UNL A   1      46.005  25.443  31.693  1.00  0.00     0.037 C 
BRANCH   2   3
ATOM      3  C   UNL A   1      47.000  26.530  31.295  1.00  0.00     0.197 C 
BRANCH   3   4
ATOM      4  N   UNL A   1      46.385  27.424  30.337  1.00  0.00    -0.277 N 
ATOM      5  C   UNL A   1      44.362  25.758  25.768  1.00  0.00     0.031 C 
ATOM      6  C   UNL A   1      45.253  26.303  26.614  1.00  0.00     0.138 C 
ATOM      7  C   UNL A   1      46.352  25.587  27.283  1.00  0.00     0.321 C 
ATOM      8  C   UNL A   1      45.109  27.733  26.935  1.00  0.00     0.328 C 
ATOM      9  O   UNL A   1      47.025  24.742  26.722  1.00  0.00    -0.250 OA
ATOM     10  N   UNL A   1      46.525  25.940  28.591  1.00  0.00    -0.210 N 
ATOM     11  N   UNL A   1      45.639  28.074  28.175  1.00  0.00    -0.162 N 
ATOM     12  O   UNL A   1      44.536  28.505  26.168  1.00  0.00    -0.249 OA
ATOM     13  C   UNL A   1      46.203  27.121  29.014  1.00  0.00     0.366 C 
ATOM     14  H   UNL A   1      46.901  25.285  29.223  1.00  0.00     0.270 HD
ATOM     15  H   UNL A   1      46.079  28.302  30.656  1.00  0.00     0.260 HD
BRANCH   5  16
ATOM     16  C   UNL A   1      44.229  24.346  25.390  1.00  0.00    -0.024 A 
ATOM     17  C   UNL A   1      43.977  21.608  24.824  1.00  0.00     0.120 A 
ATOM     18  C   UNL A   1      44.906  22.379  24.131  1.00  0.00     0.047 A 
ATOM     19  C   UNL A   1      43.214  22.188  25.834  1.00  0.00     0.047 A 
ATOM     20  C   UNL A   1      45.041  23.739  24.422  1.00  0.00     0.012 A 
ATOM     21  C   UNL A   1      43.331  23.552  26.108  1.00  0.00     0.012 A 
BRANCH  17  22
ATOM     22  O   UNL A   1      43.966  20.264  24.583  1.00  0.00    -0.485 OA
BRANCH  22  23
ATOM     23  C   UNL A   1      45.204  19.730  24.094  1.00  0.00     0.216 C 
ATOM     24  C   UNL A   1      45.019  18.923  22.812  1.00  0.00     0.059 C 
BRANCH  23  25
ATOM     25  C   UNL A   1      45.752  18.780  25.153  1.00  0.00     0.082 C 
ATOM     26  O   UNL A   1      46.919  18.698  25.507  1.00  0.00    -0.546 OA
ATOM     27  O   UNL A   1      44.835  17.923  25.651  1.00  0.00    -0.546 OA
ENDBRANCH  23  25
ENDBRANCH  22  23
ENDBRANCH  17  22
ENDBRANCH   5  16
BRANCH  11  28
ATOM     28  C   UNL A   1      45.472  29.421  28.587  1.00  0.00     0.115 A 
ATOM     29  C   UNL A   1      46.355  30.414  28.109  1.00  0.00     0.048 A 
ATOM     30  C   UNL A   1      44.343  29.763  29.340  1.00  0.00     0.094 A 
ATOM     31  C   UNL A   1      46.075  31.767  28.329  1.00  0.00     0.054 A 
ATOM     32  C   UNL A   1      44.090  31.100  29.520  1.00  0.00     0.169 A 
ATOM     33  C   UNL A   1      44.918  32.075  29.012  1.00  0.00     0.166 A 
ATOM     34  O   UNL A   1      42.990  31.619  30.132  1.00  0.00    -0.453 OA
ATOM     35  O   UNL A   1      44.419  33.324  29.224  1.00  0.00    -0.454 OA
ATOM     36  C   UNL A   1      43.101  32.993  29.712  1.00  0.00     0.468 C 
ENDBRANCH  11  28
ENDBRANCH   3   4
ENDBRANCH   2   3
ENDBRANCH   1   2
BRANCH   1  37
ATOM     37  C   UNL A   1      45.800  24.003  33.833  1.00  0.00     0.002 C 
BRANCH  37  38
ATOM     38  C   UNL A   1      46.798  23.889  34.988  1.00  0.00     0.021 C 
BRANCH  38  39
ATOM     39  C   UNL A   1      47.732  25.084  35.132  1.00  0.00     0.116 C 
BRANCH  39  40
ATOM     40  N   UNL A   1      47.704  25.641  36.475  1.00  0.00    -0.352 N 
ATOM     41  C   UNL A   1      46.974  26.699  36.958  1.00  0.00     0.251 C 
ATOM     42  H   UNL A   1      48.290  25.198  37.130  1.00  0.00     0.163 HD
ATOM     43  O   UNL A   1      47.212  27.162  38.069  1.00  0.00    -0.269 OA
BRANCH  41  44
ATOM     44  C   UNL A   1      45.913  27.297  36.120  1.00  0.00     0.039 A 
ATOM     45  C   UNL A   1      44.613  26.794  36.211  1.00  0.00     0.014 A 
ATOM     46  C   UNL A   1      46.198  28.358  35.256  1.00  0.00     0.014 A 
ATOM     47  C   UNL A   1      43.586  27.397  35.482  1.00  0.00     0.010 A 
ATOM     48  C   UNL A   1      45.161  29.005  34.590  1.00  0.00     0.010 A 
ATOM     49  C   UNL A   1      43.845  28.531  34.694  1.00  0.00    -0.014 A 
BRANCH  49  50
ATOM     50  C   UNL A   1      42.756  29.235  33.969  1.00  0.00     0.031 A 
ATOM     51  C   UNL A   1      42.025  30.373  34.628  1.00  0.00     0.074 A 
ATOM     52  C   UNL A   1      42.376  28.804  32.748  1.00  0.00     0.049 A 
ATOM     53  N   UNL A   1      40.987  31.048  34.201  1.00  0.00    -0.248 NA
ATOM     54  C   UNL A   1      42.507  30.794  35.954  1.00  0.00     0.031 C 
ATOM     55  C   UNL A   1      42.977  27.685  32.018  1.00  0.00     0.029 A 
ATOM     56  N   UNL A   1      41.381  29.247  31.912  1.00  0.00    -0.354 N 
ATOM     57  C   UNL A   1      40.683  31.953  35.209  1.00  0.00     0.074 A 
ATOM     58  C   UNL A   1      41.615  31.715  36.289  1.00  0.00     0.031 C 
ATOM     59  C   UNL A   1      42.348  27.539  30.841  1.00  0.00     0.029 A 
ATOM     60  C   UNL A   1      41.271  28.521  30.750  1.00  0.00     0.049 A 
ATOM     61  H   UNL A   1      40.800  30.013  32.125  1.00  0.00     0.167 HD
ATOM     62  C   UNL A   1      39.725  32.909  35.225  1.00  0.00     0.037 A 
ATOM     63  C   UNL A   1      40.391  28.621  29.735  1.00  0.00     0.037 A 
ATOM     64  C   UNL A   1      38.821  33.165  34.136  1.00  0.00     0.049 A 
ATOM     65  C   UNL A   1      39.327  29.686  29.789  1.00  0.00     0.074 A 
ATOM     66  C   UNL A   1      37.863  34.160  34.031  1.00  0.00     0.029 A 
ATOM     67  N   UNL A   1      38.759  32.424  32.967  1.00  0.00    -0.354 N 
ATOM     68  N   UNL A   1      39.103  30.586  30.716  1.00  0.00    -0.248 NA
ATOM     69  C   UNL A   1      38.395  29.752  28.655  1.00  0.00     0.031 C 
ATOM     70  C   UNL A   1      37.182  33.984  32.824  1.00  0.00     0.029 A 
ATOM     71  C   UNL A   1      37.759  32.921  32.149  1.00  0.00     0.049 A 
ATOM     72  H   UNL A   1      39.338  31.658  32.752  1.00  0.00     0.167 HD
ATOM     73  C   UNL A   1      38.035  31.347  30.257  1.00  0.00     0.074 A 
ATOM     74  C   UNL A   1      37.664  30.812  28.965  1.00  0.00     0.031 C 
ATOM     75  C   UNL A   1      37.416  32.395  30.853  1.00  0.00     0.037 A 
BRANCH  62  76
ATOM     76  C   UNL A   1      39.596  33.759  36.455  1.00  0.00     0.057 A 
ATOM     77  C   UNL A   1      40.214  35.012  36.556  1.00  0.00     0.134 A 
ATOM     78  C   UNL A   1      38.773  33.357  37.516  1.00  0.00     0.134 A 
ATOM     79  F   UNL A   1      41.023  35.453  35.580  1.00  0.00    -0.206 F 
ATOM     80  C   UNL A   1      40.027  35.830  37.672  1.00  0.00     0.040 A 
ATOM     81  C   UNL A   1      38.556  34.178  38.623  1.00  0.00     0.040 A 
ATOM     82  F   UNL A   1      38.146  32.172  37.479  1.00  0.00    -0.206 F 
ATOM     83  C   UNL A   1      39.184  35.418  38.704  1.00  0.00     0.006 A 
ENDBRANCH  62  76
BRANCH  63  84
ATOM     84  C   UNL A   1      40.460  27.691  28.577  1.00  0.00     0.057 A 
ATOM     85  C   UNL A   1      41.148  28.038  27.407  1.00  0.00     0.134 A 
ATOM     86  C   UNL A   1      39.794  26.459  28.587  1.00  0.00     0.134 A 
ATOM     87  F   UNL A   1      41.792  29.212  27.326  1.00  0.00    -0.206 F 
ATOM     88  C   UNL A   1      41.135  27.217  26.278  1.00  0.00     0.040 A 
ATOM     89  C   UNL A   1      39.801  25.613  27.477  1.00  0.00     0.040 A 
ATOM     90  F   UNL A   1      39.124  26.061  29.678  1.00  0.00    -0.206 F 
ATOM     91  C   UNL A   1      40.461  25.999  26.313  1.00  0.00     0.006 A 
ENDBRANCH  63  84
BRANCH  75  92
ATOM     92  C   UNL A   1      36.315  33.075  30.092  1.00  0.00     0.057 A 
ATOM     93  C   UNL A   1      36.574  33.952  29.032  1.00  0.00     0.134 A 
ATOM     94  C   UNL A   1      34.974  32.804  30.394  1.00  0.00     0.134 A 
ATOM     95  F   UNL A   1      37.835  34.263  28.698  1.00  0.00    -0.206 F 
ATOM     96  C   UNL A   1      35.538  34.555  28.316  1.00  0.00     0.040 A 
ATOM     97  C   UNL A   1      33.931  33.376  29.666  1.00  0.00     0.040 A 
ATOM     98  F   UNL A   1      34.655  31.964  31.391  1.00  0.00    -0.206 F 
ATOM     99  C   UNL A   1      34.212  34.260  28.627  1.00  0.00     0.006 A 
ENDBRANCH  75  92
ENDBRANCH  49  50
ENDBRANCH  41  44
ENDBRANCH  39  40
ENDBRANCH  38  39
ENDBRANCH  37  38
ENDBRANCH   1  37
TORSDOF 17
ENDMDL
MODEL 2
REMARK VINA RESULT:     -10.0      0.391      5.733
REMARK SMILES C[C@@H](Oc1ccc(/C=C2\C(=O)[NH+]=C(NCCCCCCNC(=O)c3ccc(-c4c5nc(c(-c6c(F)cccc6F)c6ccc([nH]6)c(-c6c(F)cccc6F)c6nc(c(-c7c(F)cccc7F)c7ccc4[nH]7)C=C6)C=C5)cc3)N(c3ccc4c(c3)OCO4)C2=O)cc1)C(=O)[O-]
REMARK SMILES IDX 17 1 16 2 15 3 14 4 8 5 9 6 10 7 88 8 11 9 12 10 78 11 89 12
REMARK SMILES IDX 13 13 7 16 4 17 5 18 91 19 6 20 90 21 3 22 2 23 1 24 92 25
REMARK SMILES IDX 93 26 94 27 79 28 80 29 84 30 81 31 83 32 82 33 85 34 87 35
REMARK SMILES IDX 86 36 18 37 19 38 20 39 21 40 22 41 23 43 24 44 25 45 77 46
REMARK SMILES IDX 26 47 76 48 27 49 28 50 29 51 70 52 30 53 75 54 69 55 71 56
REMARK SMILES IDX 31 57 74 58 68 59 67 60 32 62 58 63 41 64 57 65 42 66 45 67
REMARK SMILES IDX 56 68 72 69 43 70 44 71 55 73 73 74 46 75 33 76 34 77 39 78
REMARK SMILES IDX 35 79 36 80 38 81 40 82 37 83 59 84 60 85 65 86 61 87 62 88
REMARK SMILES IDX 64 89 66 90 63 91 47 92 48 93 53 94 49 95 50 96 52 97 54 98
REMARK SMILES IDX 51 99
REMARK H PARENT 12 14 14 15 21 42 71 61 45 72
REMARK Flexibility Score: inf
ROOT
ATOM      1  C   UNL A   1      45.201  25.270  33.085  1.00  0.00     0.003 C 
ENDROOT
BRANCH   1   2
ATOM      2  C   UNL A   1      45.651  25.428  31.628  1.00  0.00     0.037 C 
BRANCH   2   3
ATOM      3  C   UNL A   1      46.627  26.581  31.406  1.00  0.00     0.197 C 
BRANCH   3   4
ATOM      4  N   UNL A   1      46.113  27.460  30.377  1.00  0.00    -0.277 N 
ATOM      5  C   UNL A   1      44.273  25.693  25.768  1.00  0.00     0.031 C 
ATOM      6  C   UNL A   1      45.140  26.232  26.642  1.00  0.00     0.138 C 
ATOM      7  C   UNL A   1      46.162  25.494  27.405  1.00  0.00     0.321 C 
ATOM      8  C   UNL A   1      45.050  27.679  26.895  1.00  0.00     0.328 C 
ATOM      9  O   UNL A   1      46.822  24.593  26.920  1.00  0.00    -0.250 OA
ATOM     10  N   UNL A   1      46.277  25.895  28.704  1.00  0.00    -0.210 N 
ATOM     11  N   UNL A   1      45.525  28.050  28.150  1.00  0.00    -0.162 N 
ATOM     12  O   UNL A   1      44.561  28.444  26.065  1.00  0.00    -0.249 OA
ATOM     13  C   UNL A   1      45.992  27.108  29.059  1.00  0.00     0.366 C 
ATOM     14  H   UNL A   1      46.583  25.251  29.385  1.00  0.00     0.270 HD
ATOM     15  H   UNL A   1      45.834  28.365  30.641  1.00  0.00     0.260 HD
BRANCH   5  16
ATOM     16  C   UNL A   1      44.091  24.273  25.442  1.00  0.00    -0.024 A 
ATOM     17  C   UNL A   1      43.774  21.525  24.972  1.00  0.00     0.120 A 
ATOM     18  C   UNL A   1      44.549  22.293  24.109  1.00  0.00     0.047 A 
ATOM     19  C   UNL A   1      43.202  22.114  26.096  1.00  0.00     0.047 A 
ATOM     20  C   UNL A   1      44.718  23.659  24.350  1.00  0.00     0.012 A 
ATOM     21  C   UNL A   1      43.350  23.483  26.325  1.00  0.00     0.012 A 
BRANCH  17  22
ATOM     22  O   UNL A   1      43.735  20.177  24.757  1.00  0.00    -0.485 OA
BRANCH  22  23
ATOM     23  C   UNL A   1      44.991  19.590  24.388  1.00  0.00     0.216 C 
ATOM     24  C   UNL A   1      44.980  19.051  22.961  1.00  0.00     0.059 C 
BRANCH  23  25
ATOM     25  C   UNL A   1      45.244  18.409  25.318  1.00  0.00     0.082 C 
ATOM     26  O   UNL A   1      46.268  17.744  25.370  1.00  0.00    -0.546 OA
ATOM     27  O   UNL A   1      44.177  18.062  26.070  1.00  0.00    -0.546 OA
ENDBRANCH  23  25
ENDBRANCH  22  23
ENDBRANCH  17  22
ENDBRANCH   5  16
BRANCH  11  28
ATOM     28  C   UNL A   1      45.403  29.420  28.495  1.00  0.00     0.115 A 
ATOM     29  C   UNL A   1      46.433  30.322  28.151  1.00  0.00     0.048 A 
ATOM     30  C   UNL A   1      44.196  29.875  29.037  1.00  0.00     0.094 A 
ATOM     31  C   UNL A   1      46.232  31.701  28.287  1.00  0.00     0.054 A 
ATOM     32  C   UNL A   1      44.027  31.234  29.139  1.00  0.00     0.169 A 
ATOM     33  C   UNL A   1      45.006  32.122  28.757  1.00  0.00     0.166 A 
ATOM     34  O   UNL A   1      42.887  31.858  29.543  1.00  0.00    -0.453 OA
ATOM     35  O   UNL A   1      44.584  33.413  28.851  1.00  0.00    -0.454 OA
ATOM     36  C   UNL A   1      43.179  33.203  29.114  1.00  0.00     0.468 C 
ENDBRANCH  11  28
ENDBRANCH   3   4
ENDBRANCH   2   3
ENDBRANCH   1   2
BRANCH   1  37
ATOM     37  C   UNL A   1      45.474  23.893  33.703  1.00  0.00     0.002 C 
BRANCH  37  38
ATOM     38  C   UNL A   1      46.541  23.881  34.799  1.00  0.00     0.021 C 
BRANCH  38  39
ATOM     39  C   UNL A   1      47.539  25.029  34.719  1.00  0.00     0.116 C 
BRANCH  39  40
ATOM     40  N   UNL A   1      47.715  25.692  36.000  1.00  0.00    -0.352 N 
ATOM     41  C   UNL A   1      47.087  26.809  36.491  1.00  0.00     0.251 C 
ATOM     42  H   UNL A   1      48.379  25.282  36.601  1.00  0.00     0.163 HD
ATOM     43  O   UNL A   1      47.491  27.350  37.515  1.00  0.00    -0.269 OA
BRANCH  41  44
ATOM     44  C   UNL A   1      45.930  27.375  35.764  1.00  0.00     0.039 A 
ATOM     45  C   UNL A   1      44.644  26.936  36.089  1.00  0.00     0.014 A 
ATOM     46  C   UNL A   1      46.115  28.343  34.772  1.00  0.00     0.014 A 
ATOM     47  C   UNL A   1      43.538  27.515  35.462  1.00  0.00     0.010 A 
ATOM     48  C   UNL A   1      45.009  28.971  34.207  1.00  0.00     0.010 A 
ATOM     49  C   UNL A   1      43.710  28.563  34.544  1.00  0.00    -0.014 A 
BRANCH  49  50
ATOM     50  C   UNL A   1      42.546  29.245  33.921  1.00  0.00     0.031 A 
ATOM     51  C   UNL A   1      42.054  28.811  32.567  1.00  0.00     0.074 A 
ATOM     52  C   UNL A   1      41.979  30.301  34.540  1.00  0.00     0.049 A 
ATOM     53  N   UNL A   1      41.119  29.339  31.818  1.00  0.00    -0.248 NA
ATOM     54  C   UNL A   1      42.715  27.642  31.963  1.00  0.00     0.031 C 
ATOM     55  C   UNL A   1      42.389  30.846  35.836  1.00  0.00     0.029 A 
ATOM     56  N   UNL A   1      40.943  31.115  34.153  1.00  0.00    -0.354 N 
ATOM     57  C   UNL A   1      41.095  28.584  30.653  1.00  0.00     0.074 A 
ATOM     58  C   UNL A   1      42.137  27.587  30.772  1.00  0.00     0.031 C 
ATOM     59  C   UNL A   1      41.607  31.894  36.141  1.00  0.00     0.029 A 
ATOM     60  C   UNL A   1      40.670  32.125  35.045  1.00  0.00     0.049 A 
ATOM     61  H   UNL A   1      40.443  30.989  33.314  1.00  0.00     0.167 HD
ATOM     62  C   UNL A   1      40.267  28.699  29.588  1.00  0.00     0.037 A 
ATOM     63  C   UNL A   1      39.780  33.135  34.980  1.00  0.00     0.037 A 
ATOM     64  C   UNL A   1      39.210  29.670  29.488  1.00  0.00     0.049 A 
ATOM     65  C   UNL A   1      38.883  33.244  33.775  1.00  0.00     0.074 A 
ATOM     66  C   UNL A   1      38.273  29.818  28.479  1.00  0.00     0.029 A 
ATOM     67  N   UNL A   1      38.952  30.659  30.424  1.00  0.00    -0.354 N 
ATOM     68  N   UNL A   1      38.821  32.473  32.716  1.00  0.00    -0.248 NA
ATOM     69  C   UNL A   1      37.930  34.363  33.756  1.00  0.00     0.031 C 
ATOM     70  C   UNL A   1      37.484  30.932  28.776  1.00  0.00     0.029 A 
ATOM     71  C   UNL A   1      37.888  31.439  30.001  1.00  0.00     0.049 A 
ATOM     72  H   UNL A   1      39.450  30.787  31.263  1.00  0.00     0.167 HD
ATOM     73  C   UNL A   1      37.798  32.989  31.930  1.00  0.00     0.074 A 
ATOM     74  C   UNL A   1      37.260  34.129  32.638  1.00  0.00     0.031 C 
ATOM     75  C   UNL A   1      37.345  32.556  30.729  1.00  0.00     0.037 A 
BRANCH  62  76
ATOM     76  C   UNL A   1      40.459  27.754  28.439  1.00  0.00     0.057 A 
ATOM     77  C   UNL A   1      39.878  26.479  28.424  1.00  0.00     0.134 A 
ATOM     78  C   UNL A   1      41.161  28.157  27.295  1.00  0.00     0.134 A 
ATOM     79  F   UNL A   1      39.201  26.028  29.491  1.00  0.00    -0.206 F 
ATOM     80  C   UNL A   1      39.998  25.636  27.318  1.00  0.00     0.040 A 
ATOM     81  C   UNL A   1      41.264  27.335  26.173  1.00  0.00     0.040 A 
ATOM     82  F   UNL A   1      41.736  29.368  27.241  1.00  0.00    -0.206 F 
ATOM     83  C   UNL A   1      40.682  26.069  26.183  1.00  0.00     0.006 A 
ENDBRANCH  62  76
BRANCH  63  84
ATOM     84  C   UNL A   1      39.685  34.133  36.076  1.00  0.00     0.057 A 
ATOM     85  C   UNL A   1      40.368  35.355  36.007  1.00  0.00     0.134 A 
ATOM     86  C   UNL A   1      38.960  33.871  37.245  1.00  0.00     0.134 A 
ATOM     87  F   UNL A   1      41.096  35.660  34.923  1.00  0.00    -0.206 F 
ATOM     88  C   UNL A   1      40.367  36.257  37.073  1.00  0.00     0.040 A 
ATOM     89  C   UNL A   1      38.923  34.778  38.305  1.00  0.00     0.040 A 
ATOM     90  F   UNL A   1      38.276  32.724  37.374  1.00  0.00    -0.206 F 
ATOM     91  C   UNL A   1      39.642  35.969  38.226  1.00  0.00     0.006 A 
ENDBRANCH  63  84
BRANCH  75  92
ATOM     92  C   UNL A   1      36.172  33.276  30.128  1.00  0.00     0.057 A 
ATOM     93  C   UNL A   1      36.322  34.215  29.100  1.00  0.00     0.134 A 
ATOM     94  C   UNL A   1      34.869  32.985  30.553  1.00  0.00     0.134 A 
ATOM     95  F   UNL A   1      37.543  34.549  28.655  1.00  0.00    -0.206 F 
ATOM     96  C   UNL A   1      35.219  34.856  28.533  1.00  0.00     0.040 A 
ATOM     97  C   UNL A   1      33.758  33.595  29.971  1.00  0.00     0.040 A 
ATOM     98  F   UNL A   1      34.654  32.087  31.526  1.00  0.00    -0.206 F 
ATOM     99  C   UNL A   1      33.931  34.539  28.962  1.00  0.00     0.006 A 
ENDBRANCH  75  92
ENDBRANCH  49  50
ENDBRANCH  41  44
ENDBRANCH  39  40
ENDBRANCH  38  39
ENDBRANCH  37  38
ENDBRANCH   1  37
TORSDOF 17
ENDMDL
MODEL 3
REMARK VINA RESULT:      -9.9      6.048     12.242
REMARK SMILES C[C@@H](Oc1ccc(/C=C2\C(=O)[NH+]=C(NCCCCCCNC(=O)c3ccc(-c4c5nc(c(-c6c(F)cccc6F)c6ccc([nH]6)c(-c6c(F)cccc6F)c6nc(c(-c7c(F)cccc7F)c7ccc4[nH]7)C=C6)C=C5)cc3)N(c3ccc4c(c3)OCO4)C2=O)cc1)C(=O)[O-]
REMARK SMILES IDX 17 1 16 2 15 3 14 4 8 5 9 6 10 7 88 8 11 9 12 10 78 11 89 12
REMARK SMILES IDX 13 13 7 16 4 17 5 18 91 19 6 20 90 21 3 22 2 23 1 24 92 25
REMARK SMILES IDX 93 26 94 27 79 28 80 29 84 30 81 31 83 32 82 33 85 34 87 35
REMARK SMILES IDX 86 36 18 37 19 38 20 39 21 40 22 41 23 43 24 44 25 45 77 46
REMARK SMILES IDX 26 47 76 48 27 49 28 50 29 51 70 52 30 53 75 54 69 55 71 56
REMARK SMILES IDX 31 57 74 58 68 59 67 60 32 62 58 63 41 64 57 65 42 66 45 67
REMARK SMILES IDX 56 68 72 69 43 70 44 71 55 73 73 74 46 75 33 76 34 77 39 78
REMARK SMILES IDX 35 79 36 80 38 81 40 82 37 83 59 84 60 85 65 86 61 87 62 88
REMARK SMILES IDX 64 89 66 90 63 91 47 92 48 93 53 94 49 95 50 96 52 97 54 98
REMARK SMILES IDX 51 99
REMARK H PARENT 12 14 14 15 21 42 71 61 45 72
REMARK Flexibility Score: inf
ROOT
ATOM      1  C   UNL A   1      38.936  28.056  29.498  1.00  0.00     0.003 C 
ENDROOT
BRANCH   1   2
ATOM      2  C   UNL A   1      38.066  29.318  29.472  1.00  0.00     0.037 C 
BRANCH   2   3
ATOM      3  C   UNL A   1      37.575  29.699  28.078  1.00  0.00     0.197 C 
BRANCH   3   4
ATOM      4  N   UNL A   1      36.368  30.492  28.189  1.00  0.00    -0.277 N 
ATOM      5  C   UNL A   1      31.693  28.840  26.411  1.00  0.00     0.031 C 
ATOM      6  C   UNL A   1      32.857  29.512  26.424  1.00  0.00     0.138 C 
ATOM      7  C   UNL A   1      34.122  29.050  25.828  1.00  0.00     0.321 C 
ATOM      8  C   UNL A   1      32.895  30.807  27.123  1.00  0.00     0.328 C 
ATOM      9  O   UNL A   1      34.173  28.481  24.752  1.00  0.00    -0.250 OA
ATOM     10  N   UNL A   1      35.220  29.295  26.601  1.00  0.00    -0.210 N 
ATOM     11  N   UNL A   1      34.162  31.145  27.589  1.00  0.00    -0.162 N 
ATOM     12  O   UNL A   1      31.875  31.475  27.287  1.00  0.00    -0.249 OA
ATOM     13  C   UNL A   1      35.248  30.294  27.425  1.00  0.00     0.366 C 
ATOM     14  H   UNL A   1      36.003  28.701  26.533  1.00  0.00     0.270 HD
ATOM     15  H   UNL A   1      36.352  31.217  28.853  1.00  0.00     0.260 HD
BRANCH   5  16
ATOM     16  C   UNL A   1      31.438  27.493  25.887  1.00  0.00    -0.024 A 
ATOM     17  C   UNL A   1      31.104  24.880  24.921  1.00  0.00     0.120 A 
ATOM     18  C   UNL A   1      30.654  25.961  24.170  1.00  0.00     0.047 A 
ATOM     19  C   UNL A   1      31.766  25.102  26.125  1.00  0.00     0.047 A 
ATOM     20  C   UNL A   1      30.832  27.263  24.645  1.00  0.00     0.012 A 
ATOM     21  C   UNL A   1      31.922  26.401  26.612  1.00  0.00     0.012 A 
BRANCH  17  22
ATOM     22  O   UNL A   1      31.008  23.638  24.361  1.00  0.00    -0.485 OA
BRANCH  22  23
ATOM     23  C   UNL A   1      32.261  22.962  24.179  1.00  0.00     0.216 C 
ATOM     24  C   UNL A   1      32.875  23.241  22.811  1.00  0.00     0.059 C 
BRANCH  23  25
ATOM     25  C   UNL A   1      31.996  21.463  24.261  1.00  0.00     0.082 C 
ATOM     26  O   UNL A   1      31.680  20.845  25.267  1.00  0.00    -0.546 OA
ATOM     27  O   UNL A   1      32.227  20.799  23.108  1.00  0.00    -0.546 OA
ENDBRANCH  23  25
ENDBRANCH  22  23
ENDBRANCH  17  22
ENDBRANCH   5  16
BRANCH  11  28
ATOM     28  C   UNL A   1      34.264  32.345  28.336  1.00  0.00     0.115 A 
ATOM     29  C   UNL A   1      34.021  33.585  27.706  1.00  0.00     0.048 A 
ATOM     30  C   UNL A   1      34.456  32.266  29.720  1.00  0.00     0.094 A 
ATOM     31  C   UNL A   1      33.903  34.751  28.472  1.00  0.00     0.054 A 
ATOM     32  C   UNL A   1      34.315  33.425  30.441  1.00  0.00     0.169 A 
ATOM     33  C   UNL A   1      34.026  34.629  29.840  1.00  0.00     0.166 A 
ATOM     34  O   UNL A   1      34.363  33.521  31.798  1.00  0.00    -0.453 OA
ATOM     35  O   UNL A   1      33.832  35.619  30.754  1.00  0.00    -0.454 OA
ATOM     36  C   UNL A   1      33.813  34.842  31.971  1.00  0.00     0.468 C 
ENDBRANCH  11  28
ENDBRANCH   3   4
ENDBRANCH   2   3
ENDBRANCH   1   2
BRANCH   1  37
ATOM     37  C   UNL A   1      39.426  27.577  28.126  1.00  0.00     0.002 C 
BRANCH  37  38
ATOM     38  C   UNL A   1      39.665  26.069  28.020  1.00  0.00     0.021 C 
BRANCH  38  39
ATOM     39  C   UNL A   1      39.889  25.566  26.600  1.00  0.00     0.116 C 
BRANCH  39  40
ATOM     40  N   UNL A   1      40.359  24.191  26.574  1.00  0.00    -0.352 N 
ATOM     41  C   UNL A   1      41.636  23.715  26.412  1.00  0.00     0.251 C 
ATOM     42  H   UNL A   1      39.663  23.503  26.688  1.00  0.00     0.163 HD
ATOM     43  O   UNL A   1      41.834  22.519  26.221  1.00  0.00    -0.269 OA
BRANCH  41  44
ATOM     44  C   UNL A   1      42.776  24.657  26.443  1.00  0.00     0.039 A 
ATOM     45  C   UNL A   1      43.236  25.205  25.244  1.00  0.00     0.014 A 
ATOM     46  C   UNL A   1      43.381  25.005  27.654  1.00  0.00     0.014 A 
ATOM     47  C   UNL A   1      44.263  26.151  25.265  1.00  0.00     0.010 A 
ATOM     48  C   UNL A   1      44.349  26.003  27.681  1.00  0.00     0.010 A 
ATOM     49  C   UNL A   1      44.802  26.586  26.487  1.00  0.00    -0.014 A 
BRANCH  49  50
ATOM     50  C   UNL A   1      45.841  27.647  26.541  1.00  0.00     0.031 A 
ATOM     51  C   UNL A   1      45.438  29.091  26.666  1.00  0.00     0.074 A 
ATOM     52  C   UNL A   1      47.142  27.317  26.404  1.00  0.00     0.049 A 
ATOM     53  N   UNL A   1      46.186  30.165  26.633  1.00  0.00    -0.248 NA
ATOM     54  C   UNL A   1      44.001  29.369  26.826  1.00  0.00     0.031 C 
ATOM     55  C   UNL A   1      47.660  25.958  26.234  1.00  0.00     0.029 A 
ATOM     56  N   UNL A   1      48.266  28.105  26.369  1.00  0.00    -0.354 N 
ATOM     57  C   UNL A   1      45.313  31.239  26.746  1.00  0.00     0.074 A 
ATOM     58  C   UNL A   1      43.975  30.694  26.805  1.00  0.00     0.031 C 
ATOM     59  C   UNL A   1      48.998  26.006  26.127  1.00  0.00     0.029 A 
ATOM     60  C   UNL A   1      49.430  27.400  26.173  1.00  0.00     0.049 A 
ATOM     61  H   UNL A   1      48.242  29.084  26.474  1.00  0.00     0.167 HD
ATOM     62  C   UNL A   1      45.603  32.559  26.814  1.00  0.00     0.037 A 
ATOM     63  C   UNL A   1      50.699  27.827  26.029  1.00  0.00     0.037 A 
ATOM     64  C   UNL A   1      46.937  33.096  26.789  1.00  0.00     0.049 A 
ATOM     65  C   UNL A   1      50.987  29.305  26.094  1.00  0.00     0.074 A 
ATOM     66  C   UNL A   1      47.334  34.416  26.924  1.00  0.00     0.029 A 
ATOM     67  N   UNL A   1      48.089  32.346  26.615  1.00  0.00    -0.354 N 
ATOM     68  N   UNL A   1      50.157  30.302  26.281  1.00  0.00    -0.248 NA
ATOM     69  C   UNL A   1      52.388  29.716  25.932  1.00  0.00     0.031 C 
ATOM     70  C   UNL A   1      48.722  34.472  26.773  1.00  0.00     0.029 A 
ATOM     71  C   UNL A   1      49.195  33.180  26.609  1.00  0.00     0.049 A 
ATOM     72  H   UNL A   1      48.117  31.369  26.510  1.00  0.00     0.167 HD
ATOM     73  C   UNL A   1      50.940  31.450  26.299  1.00  0.00     0.074 A 
ATOM     74  C   UNL A   1      52.311  31.025  26.118  1.00  0.00     0.031 C 
ATOM     75  C   UNL A   1      50.558  32.741  26.453  1.00  0.00     0.037 A 
BRANCH  62  76
ATOM     76  C   UNL A   1      44.462  33.528  26.925  1.00  0.00     0.057 A 
ATOM     77  C   UNL A   1      43.973  33.955  28.166  1.00  0.00     0.134 A 
ATOM     78  C   UNL A   1      43.904  34.105  25.777  1.00  0.00     0.134 A 
ATOM     79  F   UNL A   1      44.456  33.435  29.305  1.00  0.00    -0.206 F 
ATOM     80  C   UNL A   1      42.963  34.914  28.261  1.00  0.00     0.040 A 
ATOM     81  C   UNL A   1      42.914  35.085  25.859  1.00  0.00     0.040 A 
ATOM     82  F   UNL A   1      44.332  33.746  24.557  1.00  0.00    -0.206 F 
ATOM     83  C   UNL A   1      42.440  35.491  27.104  1.00  0.00     0.006 A 
ENDBRANCH  62  76
BRANCH  63  84
ATOM     84  C   UNL A   1      51.804  26.860  25.800  1.00  0.00     0.057 A 
ATOM     85  C   UNL A   1      52.184  26.484  24.505  1.00  0.00     0.134 A 
ATOM     86  C   UNL A   1      52.468  26.242  26.867  1.00  0.00     0.134 A 
ATOM     87  F   UNL A   1      51.574  27.025  23.440  1.00  0.00    -0.206 F 
ATOM     88  C   UNL A   1      53.150  25.502  24.280  1.00  0.00     0.040 A 
ATOM     89  C   UNL A   1      53.460  25.283  26.656  1.00  0.00     0.040 A 
ATOM     90  F   UNL A   1      52.160  26.562  28.133  1.00  0.00    -0.206 F 
ATOM     91  C   UNL A   1      53.792  24.900  25.359  1.00  0.00     0.006 A 
ENDBRANCH  63  84
BRANCH  75  92
ATOM     92  C   UNL A   1      51.636  33.784  26.494  1.00  0.00     0.057 A 
ATOM     93  C   UNL A   1      52.272  34.152  27.686  1.00  0.00     0.134 A 
ATOM     94  C   UNL A   1      52.079  34.392  25.311  1.00  0.00     0.134 A 
ATOM     95  F   UNL A   1      51.889  33.617  28.855  1.00  0.00    -0.206 F 
ATOM     96  C   UNL A   1      53.293  35.104  27.703  1.00  0.00     0.040 A 
ATOM     97  C   UNL A   1      53.120  35.321  25.312  1.00  0.00     0.040 A 
ATOM     98  F   UNL A   1      51.521  34.077  24.132  1.00  0.00    -0.206 F 
ATOM     99  C   UNL A   1      53.726  35.684  26.512  1.00  0.00     0.006 A 
ENDBRANCH  75  92
ENDBRANCH  49  50
ENDBRANCH  41  44
ENDBRANCH  39  40
ENDBRANCH  38  39
ENDBRANCH  37  38
ENDBRANCH   1  37
TORSDOF 17
ENDMDL
