MODEL 1
REMARK VINA RESULT:     -13.6      0.000      0.000
REMARK SMILES Cc1ccccc1[C@@H]1[NH2+][C@@H](C(=O)NCCCCCCNC(=O)c2ccc(-c3c4nc(c(-c5c(F)cccc5F)c5ccc([nH]5)c(-c5c(F)cccc5F)c5nc(c(-c6c(F)cccc6F)c6ccc3[nH]6)C=C5)C=C4)cc2)CC2=c3ccccc3=N[C@H]21
REMARK SMILES IDX 17 1 16 2 15 3 14 4 13 5 11 6 12 7 10 9 8 10 9 11 86 12
REMARK SMILES IDX 78 15 85 16 77 17 79 18 84 19 80 20 83 21 81 22 82 23 7 24
REMARK SMILES IDX 1 25 2 26 3 27 4 28 6 29 5 30 18 31 19 32 20 33 21 34 22 36
REMARK SMILES IDX 23 37 24 38 76 39 25 40 75 41 26 42 27 43 28 44 69 45 29 46
REMARK SMILES IDX 74 47 68 48 70 49 30 50 73 51 67 52 66 53 31 55 57 56 40 57
REMARK SMILES IDX 56 58 41 59 44 60 55 61 71 62 42 63 43 64 54 66 72 67 45 68
REMARK SMILES IDX 32 69 33 70 38 71 34 72 35 73 37 74 39 75 36 76 58 77 59 78
REMARK SMILES IDX 64 79 60 80 61 81 63 82 65 83 62 84 46 85 47 86 52 87 48 88
REMARK SMILES IDX 49 89 51 90 53 91 50 92
REMARK H PARENT 13 8 9 13 9 14 20 35 70 54 44 65
REMARK Flexibility Score: inf
ROOT
ATOM      1  C   UNL A   1      33.977  28.379  26.756  1.00  0.00     0.002 C 
ENDROOT
BRANCH   1   2
ATOM      2  C   UNL A   1      32.681  28.249  25.933  1.00  0.00     0.002 C 
BRANCH   2   3
ATOM      3  C   UNL A   1      31.580  27.324  26.478  1.00  0.00     0.021 C 
BRANCH   3   4
ATOM      4  C   UNL A   1      31.940  25.840  26.578  1.00  0.00     0.116 C 
BRANCH   4   5
ATOM      5  N   UNL A   1      30.837  24.924  26.802  1.00  0.00    -0.351 N 
ATOM      6  C   UNL A   1      30.790  23.557  26.804  1.00  0.00     0.278 C 
ATOM      7  O   UNL A   1      29.937  23.046  27.544  1.00  0.00    -0.268 OA
ATOM      8  H   UNL A   1      29.974  25.363  26.984  1.00  0.00     0.163 HD
BRANCH   6   9
ATOM      9  C   UNL A   1      31.586  22.674  25.796  1.00  0.00     0.277 C 
ATOM     10  C   UNL A   1      34.047  23.239  25.249  1.00  0.00     0.243 C 
ATOM     11  N   UNL A   1      33.036  22.660  26.173  1.00  0.00    -0.327 N 
ATOM     12  C   UNL A   1      33.653  23.454  23.753  1.00  0.00     0.196 C 
ATOM     13  H   UNL A   1      33.116  23.168  27.055  1.00  0.00     0.347 HD
ATOM     14  H   UNL A   1      33.267  21.666  26.183  1.00  0.00     0.347 HD
ATOM     15  C   UNL A   1      32.212  23.833  23.694  1.00  0.00    -0.024 C 
ATOM     16  N   UNL A   1      34.371  24.605  23.123  1.00  0.00    -0.270 NA
ATOM     17  C   UNL A   1      31.301  22.843  24.304  1.00  0.00     0.109 C 
ATOM     18  C   UNL A   1      32.035  25.039  23.175  1.00  0.00     0.002 A 
ATOM     19  C   UNL A   1      33.411  25.420  22.808  1.00  0.00     0.066 A 
ATOM     20  C   UNL A   1      30.934  25.925  22.993  1.00  0.00     0.010 A 
ATOM     21  C   UNL A   1      33.563  26.710  22.105  1.00  0.00     0.028 A 
ATOM     22  C   UNL A   1      31.159  27.115  22.413  1.00  0.00     0.001 A 
ATOM     23  C   UNL A   1      32.479  27.485  21.929  1.00  0.00     0.002 A 
BRANCH  10  24
ATOM     24  C   UNL A   1      35.345  22.418  25.312  1.00  0.00     0.015 A 
ATOM     25  C   UNL A   1      34.226  20.186  24.658  1.00  0.00     0.045 C 
ATOM     26  C   UNL A   1      35.418  21.035  25.007  1.00  0.00    -0.042 A 
ATOM     27  C   UNL A   1      36.678  20.407  24.951  1.00  0.00     0.004 A 
ATOM     28  C   UNL A   1      37.848  21.106  25.237  1.00  0.00     0.000 A 
ATOM     29  C   UNL A   1      36.543  23.097  25.621  1.00  0.00     0.010 A 
ATOM     30  C   UNL A   1      37.779  22.446  25.589  1.00  0.00     0.001 A 
ENDBRANCH  10  24
ENDBRANCH   6   9
ENDBRANCH   4   5
ENDBRANCH   3   4
ENDBRANCH   2   3
ENDBRANCH   1   2
BRANCH   1  31
ATOM     31  C   UNL A   1      34.028  29.502  27.796  1.00  0.00     0.021 C 
BRANCH  31  32
ATOM     32  C   UNL A   1      34.604  30.820  27.291  1.00  0.00     0.116 C 
BRANCH  32  33
ATOM     33  N   UNL A   1      35.366  31.568  28.286  1.00  0.00    -0.352 N 
ATOM     34  C   UNL A   1      36.429  31.169  29.084  1.00  0.00     0.251 C 
ATOM     35  H   UNL A   1      35.080  32.501  28.410  1.00  0.00     0.163 HD
ATOM     36  O   UNL A   1      36.890  31.944  29.905  1.00  0.00    -0.269 OA
BRANCH  34  37
ATOM     37  C   UNL A   1      37.105  29.866  28.836  1.00  0.00     0.039 A 
ATOM     38  C   UNL A   1      37.225  28.983  29.918  1.00  0.00     0.014 A 
ATOM     39  C   UNL A   1      37.801  29.613  27.660  1.00  0.00     0.014 A 
ATOM     40  C   UNL A   1      38.251  28.041  29.923  1.00  0.00     0.010 A 
ATOM     41  C   UNL A   1      38.883  28.761  27.702  1.00  0.00     0.010 A 
ATOM     42  C   UNL A   1      39.157  28.038  28.866  1.00  0.00    -0.014 A 
BRANCH  42  43
ATOM     43  C   UNL A   1      40.485  27.441  28.939  1.00  0.00     0.031 A 
ATOM     44  C   UNL A   1      40.699  26.026  28.584  1.00  0.00     0.074 A 
ATOM     45  C   UNL A   1      41.542  28.250  29.172  1.00  0.00     0.049 A 
ATOM     46  N   UNL A   1      41.765  25.357  28.864  1.00  0.00    -0.248 NA
ATOM     47  C   UNL A   1      39.689  25.235  27.894  1.00  0.00     0.031 C 
ATOM     48  C   UNL A   1      42.956  27.955  28.960  1.00  0.00     0.029 A 
ATOM     49  N   UNL A   1      41.544  29.471  29.862  1.00  0.00    -0.354 N 
ATOM     50  C   UNL A   1      41.709  24.162  28.185  1.00  0.00     0.074 A 
ATOM     51  C   UNL A   1      40.372  24.115  27.637  1.00  0.00     0.031 C 
ATOM     52  C   UNL A   1      43.687  28.768  29.738  1.00  0.00     0.029 A 
ATOM     53  C   UNL A   1      42.763  29.506  30.580  1.00  0.00     0.049 A 
ATOM     54  H   UNL A   1      40.842  30.160  29.849  1.00  0.00     0.167 HD
ATOM     55  C   UNL A   1      42.843  23.408  28.080  1.00  0.00     0.037 A 
ATOM     56  C   UNL A   1      42.753  29.479  31.945  1.00  0.00     0.037 A 
ATOM     57  C   UNL A   1      43.931  23.974  28.880  1.00  0.00     0.049 A 
ATOM     58  C   UNL A   1      43.376  28.240  32.557  1.00  0.00     0.074 A 
ATOM     59  C   UNL A   1      45.032  24.769  28.605  1.00  0.00     0.029 A 
ATOM     60  N   UNL A   1      43.800  23.974  30.257  1.00  0.00    -0.354 N 
ATOM     61  N   UNL A   1      43.860  27.241  31.870  1.00  0.00    -0.248 NA
ATOM     62  C   UNL A   1      43.425  27.993  34.001  1.00  0.00     0.031 C 
ATOM     63  C   UNL A   1      45.522  25.290  29.838  1.00  0.00     0.029 A 
ATOM     64  C   UNL A   1      44.727  24.801  30.858  1.00  0.00     0.049 A 
ATOM     65  H   UNL A   1      43.128  23.448  30.748  1.00  0.00     0.167 HD
ATOM     66  C   UNL A   1      44.206  26.229  32.722  1.00  0.00     0.074 A 
ATOM     67  C   UNL A   1      43.936  26.749  34.049  1.00  0.00     0.031 C 
ATOM     68  C   UNL A   1      44.647  25.015  32.292  1.00  0.00     0.037 A 
BRANCH  55  69
ATOM     69  C   UNL A   1      43.039  22.280  27.088  1.00  0.00     0.057 A 
ATOM     70  C   UNL A   1      42.277  21.097  27.190  1.00  0.00     0.134 A 
ATOM     71  C   UNL A   1      43.981  22.263  26.046  1.00  0.00     0.134 A 
ATOM     72  F   UNL A   1      41.263  20.983  28.057  1.00  0.00    -0.206 F 
ATOM     73  C   UNL A   1      42.517  19.961  26.403  1.00  0.00     0.040 A 
ATOM     74  C   UNL A   1      44.271  21.118  25.290  1.00  0.00     0.040 A 
ATOM     75  F   UNL A   1      44.620  23.370  25.656  1.00  0.00    -0.206 F 
ATOM     76  C   UNL A   1      43.545  19.954  25.476  1.00  0.00     0.006 A 
ENDBRANCH  55  69
BRANCH  56  77
ATOM     77  C   UNL A   1      41.612  30.240  32.517  1.00  0.00     0.057 A 
ATOM     78  C   UNL A   1      41.691  31.645  32.536  1.00  0.00     0.134 A 
ATOM     79  C   UNL A   1      40.343  29.672  32.656  1.00  0.00     0.134 A 
ATOM     80  F   UNL A   1      42.881  32.254  32.408  1.00  0.00    -0.206 F 
ATOM     81  C   UNL A   1      40.549  32.449  32.559  1.00  0.00     0.040 A 
ATOM     82  C   UNL A   1      39.193  30.468  32.696  1.00  0.00     0.040 A 
ATOM     83  F   UNL A   1      40.185  28.341  32.625  1.00  0.00    -0.206 F 
ATOM     84  C   UNL A   1      39.292  31.856  32.602  1.00  0.00     0.006 A 
ENDBRANCH  56  77
BRANCH  68  85
ATOM     85  C   UNL A   1      45.047  23.922  33.229  1.00  0.00     0.057 A 
ATOM     86  C   UNL A   1      44.140  22.941  33.646  1.00  0.00     0.134 A 
ATOM     87  C   UNL A   1      46.310  23.909  33.848  1.00  0.00     0.134 A 
ATOM     88  F   UNL A   1      42.902  22.885  33.129  1.00  0.00    -0.206 F 
ATOM     89  C   UNL A   1      44.470  21.998  34.625  1.00  0.00     0.040 A 
ATOM     90  C   UNL A   1      46.637  23.000  34.854  1.00  0.00     0.040 A 
ATOM     91  F   UNL A   1      47.272  24.771  33.485  1.00  0.00    -0.206 F 
ATOM     92  C   UNL A   1      45.715  22.038  35.245  1.00  0.00     0.006 A 
ENDBRANCH  68  85
ENDBRANCH  42  43
ENDBRANCH  34  37
ENDBRANCH  32  33
ENDBRANCH  31  32
ENDBRANCH   1  31
TORSDOF 14
ENDMDL
MODEL 2
REMARK VINA RESULT:     -13.0      1.553      2.841
REMARK SMILES Cc1ccccc1[C@@H]1[NH2+][C@@H](C(=O)NCCCCCCNC(=O)c2ccc(-c3c4nc(c(-c5c(F)cccc5F)c5ccc([nH]5)c(-c5c(F)cccc5F)c5nc(c(-c6c(F)cccc6F)c6ccc3[nH]6)C=C5)C=C4)cc2)CC2=c3ccccc3=N[C@H]21
REMARK SMILES IDX 17 1 16 2 15 3 14 4 13 5 11 6 12 7 10 9 8 10 9 11 86 12
REMARK SMILES IDX 78 15 85 16 77 17 79 18 84 19 80 20 83 21 81 22 82 23 7 24
REMARK SMILES IDX 1 25 2 26 3 27 4 28 6 29 5 30 18 31 19 32 20 33 21 34 22 36
REMARK SMILES IDX 23 37 24 38 76 39 25 40 75 41 26 42 27 43 28 44 69 45 29 46
REMARK SMILES IDX 74 47 68 48 70 49 30 50 73 51 67 52 66 53 31 55 57 56 40 57
REMARK SMILES IDX 56 58 41 59 44 60 55 61 71 62 42 63 43 64 54 66 72 67 45 68
REMARK SMILES IDX 32 69 33 70 38 71 34 72 35 73 37 74 39 75 36 76 58 77 59 78
REMARK SMILES IDX 64 79 60 80 61 81 63 82 65 83 62 84 46 85 47 86 52 87 48 88
REMARK SMILES IDX 49 89 51 90 53 91 50 92
REMARK H PARENT 13 8 9 13 9 14 20 35 70 54 44 65
REMARK Flexibility Score: inf
ROOT
ATOM      1  C   UNL A   1      31.859  29.463  26.577  1.00  0.00     0.002 C 
ENDROOT
BRANCH   1   2
ATOM      2  C   UNL A   1      31.945  28.105  27.300  1.00  0.00     0.002 C 
BRANCH   2   3
ATOM      3  C   UNL A   1      32.452  26.899  26.494  1.00  0.00     0.021 C 
BRANCH   3   4
ATOM      4  C   UNL A   1      31.415  25.818  26.183  1.00  0.00     0.116 C 
BRANCH   4   5
ATOM      5  N   UNL A   1      31.482  24.612  26.987  1.00  0.00    -0.351 N 
ATOM      6  C   UNL A   1      32.213  23.465  26.830  1.00  0.00     0.278 C 
ATOM      7  O   UNL A   1      32.521  22.873  27.874  1.00  0.00    -0.268 OA
ATOM      8  H   UNL A   1      30.903  24.620  27.784  1.00  0.00     0.163 HD
BRANCH   6   9
ATOM      9  C   UNL A   1      32.468  22.800  25.444  1.00  0.00     0.277 C 
ATOM     10  C   UNL A   1      33.658  20.510  25.312  1.00  0.00     0.243 C 
ATOM     11  N   UNL A   1      32.434  21.308  25.587  1.00  0.00    -0.327 N 
ATOM     12  C   UNL A   1      34.806  21.167  24.482  1.00  0.00     0.196 C 
ATOM     13  H   UNL A   1      32.163  21.111  26.551  1.00  0.00     0.347 HD
ATOM     14  H   UNL A   1      31.791  21.016  24.851  1.00  0.00     0.347 HD
ATOM     15  C   UNL A   1      34.862  22.619  24.821  1.00  0.00    -0.024 C 
ATOM     16  N   UNL A   1      36.159  20.643  24.845  1.00  0.00    -0.270 NA
ATOM     17  C   UNL A   1      33.600  23.347  24.575  1.00  0.00     0.109 C 
ATOM     18  C   UNL A   1      36.023  22.959  25.363  1.00  0.00     0.002 A 
ATOM     19  C   UNL A   1      36.775  21.694  25.296  1.00  0.00     0.066 A 
ATOM     20  C   UNL A   1      36.567  24.129  25.966  1.00  0.00     0.010 A 
ATOM     21  C   UNL A   1      38.180  21.748  25.751  1.00  0.00     0.028 A 
ATOM     22  C   UNL A   1      37.828  24.084  26.427  1.00  0.00     0.001 A 
ATOM     23  C   UNL A   1      38.648  22.893  26.276  1.00  0.00     0.002 A 
BRANCH  10  24
ATOM     24  C   UNL A   1      33.275  19.170  24.662  1.00  0.00     0.015 A 
ATOM     25  C   UNL A   1      32.155  20.240  22.597  1.00  0.00     0.045 C 
ATOM     26  C   UNL A   1      32.621  19.061  23.408  1.00  0.00    -0.042 A 
ATOM     27  C   UNL A   1      32.446  17.789  22.831  1.00  0.00     0.004 A 
ATOM     28  C   UNL A   1      32.858  16.632  23.489  1.00  0.00     0.000 A 
ATOM     29  C   UNL A   1      33.662  17.982  25.319  1.00  0.00     0.010 A 
ATOM     30  C   UNL A   1      33.451  16.728  24.740  1.00  0.00     0.001 A 
ENDBRANCH  10  24
ENDBRANCH   6   9
ENDBRANCH   4   5
ENDBRANCH   3   4
ENDBRANCH   2   3
ENDBRANCH   1   2
BRANCH   1  31
ATOM     31  C   UNL A   1      32.779  30.578  27.082  1.00  0.00     0.021 C 
BRANCH  31  32
ATOM     32  C   UNL A   1      34.100  30.102  27.676  1.00  0.00     0.116 C 
BRANCH  32  33
ATOM     33  N   UNL A   1      34.839  31.126  28.407  1.00  0.00    -0.352 N 
ATOM     34  C   UNL A   1      36.068  31.058  29.046  1.00  0.00     0.251 C 
ATOM     35  H   UNL A   1      34.393  32.002  28.455  1.00  0.00     0.163 HD
ATOM     36  O   UNL A   1      36.484  32.026  29.660  1.00  0.00    -0.269 OA
BRANCH  34  37
ATOM     37  C   UNL A   1      36.947  29.871  28.855  1.00  0.00     0.039 A 
ATOM     38  C   UNL A   1      37.108  29.003  29.945  1.00  0.00     0.014 A 
ATOM     39  C   UNL A   1      37.764  29.735  27.740  1.00  0.00     0.014 A 
ATOM     40  C   UNL A   1      38.259  28.223  30.035  1.00  0.00     0.010 A 
ATOM     41  C   UNL A   1      38.953  29.051  27.871  1.00  0.00     0.010 A 
ATOM     42  C   UNL A   1      39.236  28.364  29.054  1.00  0.00    -0.014 A 
BRANCH  42  43
ATOM     43  C   UNL A   1      40.628  27.968  29.235  1.00  0.00     0.031 A 
ATOM     44  C   UNL A   1      41.153  26.741  28.608  1.00  0.00     0.074 A 
ATOM     45  C   UNL A   1      41.469  28.833  29.844  1.00  0.00     0.049 A 
ATOM     46  N   UNL A   1      42.273  26.185  28.920  1.00  0.00    -0.248 NA
ATOM     47  C   UNL A   1      40.421  26.020  27.577  1.00  0.00     0.031 C 
ATOM     48  C   UNL A   1      42.928  28.812  29.838  1.00  0.00     0.029 A 
ATOM     49  N   UNL A   1      41.142  29.819  30.786  1.00  0.00    -0.354 N 
ATOM     50  C   UNL A   1      42.542  25.213  27.985  1.00  0.00     0.074 A 
ATOM     51  C   UNL A   1      41.332  25.117  27.200  1.00  0.00     0.031 C 
ATOM     52  C   UNL A   1      43.373  29.491  30.907  1.00  0.00     0.029 A 
ATOM     53  C   UNL A   1      42.214  29.842  31.709  1.00  0.00     0.049 A 
ATOM     54  H   UNL A   1      40.332  30.378  30.802  1.00  0.00     0.167 HD
ATOM     55  C   UNL A   1      43.800  24.685  27.922  1.00  0.00     0.037 A 
ATOM     56  C   UNL A   1      42.011  29.459  33.004  1.00  0.00     0.037 A 
ATOM     57  C   UNL A   1      44.634  25.175  29.022  1.00  0.00     0.049 A 
ATOM     58  C   UNL A   1      42.759  28.207  33.417  1.00  0.00     0.074 A 
ATOM     59  C   UNL A   1      45.595  26.165  29.151  1.00  0.00     0.029 A 
ATOM     60  N   UNL A   1      44.306  24.797  30.311  1.00  0.00    -0.354 N 
ATOM     61  N   UNL A   1      43.516  27.503  32.620  1.00  0.00    -0.248 NA
ATOM     62  C   UNL A   1      42.643  27.602  34.746  1.00  0.00     0.031 C 
ATOM     63  C   UNL A   1      45.794  26.412  30.540  1.00  0.00     0.029 A 
ATOM     64  C   UNL A   1      44.964  25.564  31.250  1.00  0.00     0.049 A 
ATOM     65  H   UNL A   1      43.680  24.069  30.531  1.00  0.00     0.167 HD
ATOM     66  C   UNL A   1      43.918  26.366  33.264  1.00  0.00     0.074 A 
ATOM     67  C   UNL A   1      43.365  26.477  34.599  1.00  0.00     0.031 C 
ATOM     68  C   UNL A   1      44.638  25.383  32.654  1.00  0.00     0.037 A 
BRANCH  55  69
ATOM     69  C   UNL A   1      44.346  23.896  26.751  1.00  0.00     0.057 A 
ATOM     70  C   UNL A   1      43.844  22.611  26.457  1.00  0.00     0.134 A 
ATOM     71  C   UNL A   1      45.390  24.307  25.904  1.00  0.00     0.134 A 
ATOM     72  F   UNL A   1      42.780  22.107  27.094  1.00  0.00    -0.206 F 
ATOM     73  C   UNL A   1      44.409  21.770  25.488  1.00  0.00     0.040 A 
ATOM     74  C   UNL A   1      46.002  23.459  24.971  1.00  0.00     0.040 A 
ATOM     75  F   UNL A   1      45.824  25.571  25.883  1.00  0.00    -0.206 F 
ATOM     76  C   UNL A   1      45.521  22.177  24.768  1.00  0.00     0.006 A 
ENDBRANCH  55  69
BRANCH  56  77
ATOM     77  C   UNL A   1      40.676  29.870  33.511  1.00  0.00     0.057 A 
ATOM     78  C   UNL A   1      40.490  31.216  33.880  1.00  0.00     0.134 A 
ATOM     79  C   UNL A   1      39.528  29.113  33.265  1.00  0.00     0.134 A 
ATOM     80  F   UNL A   1      41.552  31.998  34.132  1.00  0.00    -0.206 F 
ATOM     81  C   UNL A   1      39.229  31.815  33.876  1.00  0.00     0.040 A 
ATOM     82  C   UNL A   1      38.258  29.699  33.273  1.00  0.00     0.040 A 
ATOM     83  F   UNL A   1      39.627  27.830  32.887  1.00  0.00    -0.206 F 
ATOM     84  C   UNL A   1      38.110  31.061  33.535  1.00  0.00     0.006 A 
ENDBRANCH  56  77
BRANCH  68  85
ATOM     85  C   UNL A   1      45.094  24.154  33.369  1.00  0.00     0.057 A 
ATOM     86  C   UNL A   1      44.246  23.057  33.566  1.00  0.00     0.134 A 
ATOM     87  C   UNL A   1      46.348  24.095  34.005  1.00  0.00     0.134 A 
ATOM     88  F   UNL A   1      43.022  23.029  33.017  1.00  0.00    -0.206 F 
ATOM     89  C   UNL A   1      44.624  21.962  34.349  1.00  0.00     0.040 A 
ATOM     90  C   UNL A   1      46.720  23.028  34.823  1.00  0.00     0.040 A 
ATOM     91  F   UNL A   1      47.258  25.068  33.841  1.00  0.00    -0.206 F 
ATOM     92  C   UNL A   1      45.856  21.954  34.996  1.00  0.00     0.006 A 
ENDBRANCH  68  85
ENDBRANCH  42  43
ENDBRANCH  34  37
ENDBRANCH  32  33
ENDBRANCH  31  32
ENDBRANCH   1  31
TORSDOF 14
ENDMDL
MODEL 3
REMARK VINA RESULT:     -12.8      3.426      9.023
REMARK SMILES Cc1ccccc1[C@@H]1[NH2+][C@@H](C(=O)NCCCCCCNC(=O)c2ccc(-c3c4nc(c(-c5c(F)cccc5F)c5ccc([nH]5)c(-c5c(F)cccc5F)c5nc(c(-c6c(F)cccc6F)c6ccc3[nH]6)C=C5)C=C4)cc2)CC2=c3ccccc3=N[C@H]21
REMARK SMILES IDX 17 1 16 2 15 3 14 4 13 5 11 6 12 7 10 9 8 10 9 11 86 12
REMARK SMILES IDX 78 15 85 16 77 17 79 18 84 19 80 20 83 21 81 22 82 23 7 24
REMARK SMILES IDX 1 25 2 26 3 27 4 28 6 29 5 30 18 31 19 32 20 33 21 34 22 36
REMARK SMILES IDX 23 37 24 38 76 39 25 40 75 41 26 42 27 43 28 44 69 45 29 46
REMARK SMILES IDX 74 47 68 48 70 49 30 50 73 51 67 52 66 53 31 55 57 56 40 57
REMARK SMILES IDX 56 58 41 59 44 60 55 61 71 62 42 63 43 64 54 66 72 67 45 68
REMARK SMILES IDX 32 69 33 70 38 71 34 72 35 73 37 74 39 75 36 76 58 77 59 78
REMARK SMILES IDX 64 79 60 80 61 81 63 82 65 83 62 84 46 85 47 86 52 87 48 88
REMARK SMILES IDX 49 89 51 90 53 91 50 92
REMARK H PARENT 13 8 9 13 9 14 20 35 70 54 44 65
REMARK Flexibility Score: inf
ROOT
ATOM      1  C   UNL A   1      36.483  21.978  25.761  1.00  0.00     0.002 C 
ENDROOT
BRANCH   1   2
ATOM      2  C   UNL A   1      35.574  20.843  25.252  1.00  0.00     0.002 C 
BRANCH   2   3
ATOM      3  C   UNL A   1      34.080  20.915  25.602  1.00  0.00     0.021 C 
BRANCH   3   4
ATOM      4  C   UNL A   1      33.744  21.409  27.010  1.00  0.00     0.116 C 
BRANCH   4   5
ATOM      5  N   UNL A   1      32.546  22.216  27.141  1.00  0.00    -0.351 N 
ATOM      6  C   UNL A   1      32.218  23.433  26.606  1.00  0.00     0.278 C 
ATOM      7  O   UNL A   1      31.011  23.625  26.398  1.00  0.00    -0.268 OA
ATOM      8  H   UNL A   1      31.848  21.821  27.712  1.00  0.00     0.163 HD
BRANCH   6   9
ATOM      9  C   UNL A   1      33.236  24.603  26.461  1.00  0.00     0.277 C 
ATOM     10  C   UNL A   1      32.506  26.819  25.350  1.00  0.00     0.243 C 
ATOM     11  N   UNL A   1      32.512  25.913  26.530  1.00  0.00    -0.327 N 
ATOM     12  C   UNL A   1      33.583  26.604  24.240  1.00  0.00     0.196 C 
ATOM     13  H   UNL A   1      31.538  25.700  26.744  1.00  0.00     0.347 HD
ATOM     14  H   UNL A   1      33.041  26.438  27.227  1.00  0.00     0.347 HD
ATOM     15  C   UNL A   1      33.850  25.142  24.119  1.00  0.00    -0.024 C 
ATOM     16  N   UNL A   1      33.106  27.013  22.883  1.00  0.00    -0.270 NA
ATOM     17  C   UNL A   1      34.304  24.504  25.372  1.00  0.00     0.109 C 
ATOM     18  C   UNL A   1      33.543  24.677  22.916  1.00  0.00     0.002 A 
ATOM     19  C   UNL A   1      33.139  25.905  22.207  1.00  0.00     0.066 A 
ATOM     20  C   UNL A   1      33.481  23.395  22.299  1.00  0.00     0.010 A 
ATOM     21  C   UNL A   1      32.810  25.750  20.775  1.00  0.00     0.028 A 
ATOM     22  C   UNL A   1      33.101  23.321  21.012  1.00  0.00     0.001 A 
ATOM     23  C   UNL A   1      32.806  24.518  20.240  1.00  0.00     0.002 A 
BRANCH  10  24
ATOM     24  C   UNL A   1      32.552  28.284  25.815  1.00  0.00     0.015 A 
ATOM     25  C   UNL A   1      30.657  29.072  24.250  1.00  0.00     0.045 C 
ATOM     26  C   UNL A   1      31.681  29.293  25.330  1.00  0.00    -0.042 A 
ATOM     27  C   UNL A   1      31.705  30.569  25.925  1.00  0.00     0.004 A 
ATOM     28  C   UNL A   1      32.601  30.874  26.947  1.00  0.00     0.000 A 
ATOM     29  C   UNL A   1      33.467  28.626  26.835  1.00  0.00     0.010 A 
ATOM     30  C   UNL A   1      33.493  29.908  27.390  1.00  0.00     0.001 A 
ENDBRANCH  10  24
ENDBRANCH   6   9
ENDBRANCH   4   5
ENDBRANCH   3   4
ENDBRANCH   2   3
ENDBRANCH   1   2
BRANCH   1  31
ATOM     31  C   UNL A   1      37.993  21.721  25.740  1.00  0.00     0.021 C 
BRANCH  31  32
ATOM     32  C   UNL A   1      38.854  22.963  25.545  1.00  0.00     0.116 C 
BRANCH  32  33
ATOM     33  N   UNL A   1      40.092  22.968  26.317  1.00  0.00    -0.352 N 
ATOM     34  C   UNL A   1      40.744  24.013  26.957  1.00  0.00     0.251 C 
ATOM     35  H   UNL A   1      40.535  22.093  26.393  1.00  0.00     0.163 HD
ATOM     36  O   UNL A   1      41.816  23.811  27.502  1.00  0.00    -0.269 OA
BRANCH  34  37
ATOM     37  C   UNL A   1      40.071  25.332  27.114  1.00  0.00     0.039 A 
ATOM     38  C   UNL A   1      40.593  26.414  26.392  1.00  0.00     0.014 A 
ATOM     39  C   UNL A   1      39.120  25.556  28.101  1.00  0.00     0.014 A 
ATOM     40  C   UNL A   1      40.390  27.711  26.860  1.00  0.00     0.010 A 
ATOM     41  C   UNL A   1      39.004  26.823  28.632  1.00  0.00     0.010 A 
ATOM     42  C   UNL A   1      39.708  27.885  28.061  1.00  0.00    -0.014 A 
BRANCH  42  43
ATOM     43  C   UNL A   1      39.798  29.091  28.876  1.00  0.00     0.031 A 
ATOM     44  C   UNL A   1      38.765  30.141  28.790  1.00  0.00     0.074 A 
ATOM     45  C   UNL A   1      40.751  29.152  29.832  1.00  0.00     0.049 A 
ATOM     46  N   UNL A   1      38.895  31.331  29.266  1.00  0.00    -0.248 NA
ATOM     47  C   UNL A   1      37.489  29.925  28.122  1.00  0.00     0.031 C 
ATOM     48  C   UNL A   1      40.825  30.074  30.960  1.00  0.00     0.029 A 
ATOM     49  N   UNL A   1      41.987  28.491  29.845  1.00  0.00    -0.354 N 
ATOM     50  C   UNL A   1      37.667  31.949  29.213  1.00  0.00     0.074 A 
ATOM     51  C   UNL A   1      36.838  31.046  28.445  1.00  0.00     0.031 C 
ATOM     52  C   UNL A   1      42.100  30.152  31.370  1.00  0.00     0.029 A 
ATOM     53  C   UNL A   1      42.905  29.398  30.424  1.00  0.00     0.049 A 
ATOM     54  H   UNL A   1      42.177  27.582  29.517  1.00  0.00     0.167 HD
ATOM     55  C   UNL A   1      37.474  33.100  29.921  1.00  0.00     0.037 A 
ATOM     56  C   UNL A   1      43.924  29.914  29.676  1.00  0.00     0.037 A 
ATOM     57  C   UNL A   1      38.725  33.568  30.521  1.00  0.00     0.049 A 
ATOM     58  C   UNL A   1      43.845  31.410  29.447  1.00  0.00     0.074 A 
ATOM     59  C   UNL A   1      39.297  33.477  31.780  1.00  0.00     0.029 A 
ATOM     60  N   UNL A   1      39.733  34.000  29.679  1.00  0.00    -0.354 N 
ATOM     61  N   UNL A   1      42.881  32.174  29.882  1.00  0.00    -0.248 NA
ATOM     62  C   UNL A   1      44.812  32.152  28.633  1.00  0.00     0.031 C 
ATOM     63  C   UNL A   1      40.678  33.809  31.665  1.00  0.00     0.029 A 
ATOM     64  C   UNL A   1      40.939  34.111  30.341  1.00  0.00     0.049 A 
ATOM     65  H   UNL A   1      39.606  34.204  28.724  1.00  0.00     0.167 HD
ATOM     66  C   UNL A   1      43.038  33.436  29.379  1.00  0.00     0.074 A 
ATOM     67  C   UNL A   1      44.271  33.383  28.618  1.00  0.00     0.031 C 
ATOM     68  C   UNL A   1      42.130  34.432  29.576  1.00  0.00     0.037 A 
BRANCH  55  69
ATOM     69  C   UNL A   1      36.120  33.690  30.254  1.00  0.00     0.057 A 
ATOM     70  C   UNL A   1      35.293  34.205  29.234  1.00  0.00     0.134 A 
ATOM     71  C   UNL A   1      35.585  33.831  31.546  1.00  0.00     0.134 A 
ATOM     72  F   UNL A   1      35.597  34.059  27.938  1.00  0.00    -0.206 F 
ATOM     73  C   UNL A   1      34.102  34.901  29.490  1.00  0.00     0.040 A 
ATOM     74  C   UNL A   1      34.427  34.572  31.823  1.00  0.00     0.040 A 
ATOM     75  F   UNL A   1      36.112  33.200  32.600  1.00  0.00    -0.206 F 
ATOM     76  C   UNL A   1      33.686  35.123  30.792  1.00  0.00     0.006 A 
ENDBRANCH  55  69
BRANCH  56  77
ATOM     77  C   UNL A   1      44.472  28.924  28.712  1.00  0.00     0.057 A 
ATOM     78  C   UNL A   1      45.283  27.888  29.213  1.00  0.00     0.134 A 
ATOM     79  C   UNL A   1      43.913  28.740  27.445  1.00  0.00     0.134 A 
ATOM     80  F   UNL A   1      45.852  28.003  30.424  1.00  0.00    -0.206 F 
ATOM     81  C   UNL A   1      45.425  26.672  28.541  1.00  0.00     0.040 A 
ATOM     82  C   UNL A   1      44.061  27.531  26.756  1.00  0.00     0.040 A 
ATOM     83  F   UNL A   1      43.112  29.673  26.912  1.00  0.00    -0.206 F 
ATOM     84  C   UNL A   1      44.780  26.479  27.323  1.00  0.00     0.006 A 
ENDBRANCH  56  77
BRANCH  68  85
ATOM     85  C   UNL A   1      42.321  35.815  29.044  1.00  0.00     0.057 A 
ATOM     86  C   UNL A   1      41.758  36.220  27.827  1.00  0.00     0.134 A 
ATOM     87  C   UNL A   1      43.190  36.729  29.665  1.00  0.00     0.134 A 
ATOM     88  F   UNL A   1      40.933  35.408  27.148  1.00  0.00    -0.206 F 
ATOM     89  C   UNL A   1      42.044  37.467  27.261  1.00  0.00     0.040 A 
ATOM     90  C   UNL A   1      43.515  37.958  29.090  1.00  0.00     0.040 A 
ATOM     91  F   UNL A   1      43.742  36.464  30.860  1.00  0.00    -0.206 F 
ATOM     92  C   UNL A   1      42.939  38.331  27.883  1.00  0.00     0.006 A 
ENDBRANCH  68  85
ENDBRANCH  42  43
ENDBRANCH  34  37
ENDBRANCH  32  33
ENDBRANCH  31  32
ENDBRANCH   1  31
TORSDOF 14
ENDMDL
