MODEL 1
REMARK VINA RESULT:     -11.6      0.000      0.000
REMARK SMILES COc1cccc(NC(=O)[C@@H]2[C@@H](C(=O)NCCCCCCNC(=O)c3ccc(-c4c5nc(c(-c6c(F)cccc6F)c6ccc([nH]6)c(-c6c(F)cccc6F)c6nc(c(-c7c(F)cccc7F)c7ccc4[nH]7)C=C6)C=C5)cc3)[C@H]3C=C[C@@H]2C3)c1
REMARK SMILES IDX 18 1 17 2 16 3 15 4 13 5 14 6 12 8 11 9 82 10 79 11 81 12
REMARK SMILES IDX 83 13 80 14 9 15 8 16 10 18 7 19 3 20 4 21 84 22 5 23 6 24
REMARK SMILES IDX 2 25 1 26 19 27 20 28 21 29 22 30 23 31 24 33 25 34 26 35
REMARK SMILES IDX 78 36 27 37 77 38 28 39 29 40 30 41 71 42 31 43 76 44 70 45
REMARK SMILES IDX 72 46 32 47 75 48 69 49 68 50 33 52 59 53 42 54 58 55 43 56
REMARK SMILES IDX 46 57 57 58 73 59 44 60 45 61 56 63 74 64 47 65 34 66 35 67
REMARK SMILES IDX 40 68 36 69 37 70 39 71 41 72 38 73 60 74 61 75 66 76 62 77
REMARK SMILES IDX 63 78 65 79 67 80 64 81 48 82 49 83 54 84 50 85 51 86 53 87
REMARK SMILES IDX 55 88 52 89
REMARK H PARENT 15 7 8 17 22 32 72 51 46 62
REMARK Flexibility Score: inf
ROOT
ATOM      1  C   UNL A   1      36.898  22.324  24.504  1.00  0.00     0.002 C 
ENDROOT
BRANCH   1   2
ATOM      2  C   UNL A   1      36.702  23.218  25.737  1.00  0.00     0.021 C 
BRANCH   2   3
ATOM      3  C   UNL A   1      35.328  23.883  25.837  1.00  0.00     0.116 C 
BRANCH   3   4
ATOM      4  N   UNL A   1      34.944  24.510  24.586  1.00  0.00    -0.356 N 
ATOM      5  C   UNL A   1      33.923  25.368  24.308  1.00  0.00     0.224 C 
ATOM      6  O   UNL A   1      33.780  25.734  23.141  1.00  0.00    -0.275 OA
ATOM      7  H   UNL A   1      35.513  24.279  23.816  1.00  0.00     0.163 HD
BRANCH   5   8
ATOM      8  C   UNL A   1      33.055  25.873  25.445  1.00  0.00     0.098 C 
ATOM      9  C   UNL A   1      31.599  26.294  25.052  1.00  0.00     0.099 C 
ATOM     10  C   UNL A   1      31.536  27.759  25.591  1.00  0.00     0.025 C 
ATOM     11  C   UNL A   1      33.653  27.189  26.020  1.00  0.00     0.025 C 
ATOM     12  C   UNL A   1      32.410  28.599  24.687  1.00  0.00    -0.027 C 
ATOM     13  C   UNL A   1      32.460  27.714  26.817  1.00  0.00     0.017 C 
ATOM     14  C   UNL A   1      33.682  28.258  24.946  1.00  0.00    -0.027 C 
BRANCH   9  15
ATOM     15  C   UNL A   1      30.567  25.415  25.744  1.00  0.00     0.228 C 
ATOM     16  N   UNL A   1      30.558  24.055  25.662  1.00  0.00    -0.326 N 
ATOM     17  H   UNL A   1      29.903  23.651  26.275  1.00  0.00     0.169 HD
ATOM     18  O   UNL A   1      29.712  25.911  26.488  1.00  0.00    -0.274 OA
BRANCH  16  19
ATOM     19  C   UNL A   1      31.251  23.087  24.915  1.00  0.00     0.044 A 
ATOM     20  C   UNL A   1      32.617  21.070  25.000  1.00  0.00     0.120 A 
ATOM     21  C   UNL A   1      32.769  21.094  23.620  1.00  0.00     0.046 A 
ATOM     22  C   UNL A   1      31.881  22.067  25.648  1.00  0.00     0.072 A 
ATOM     23  C   UNL A   1      32.112  22.071  22.883  1.00  0.00     0.006 A 
ATOM     24  C   UNL A   1      31.336  23.041  23.528  1.00  0.00     0.026 A 
BRANCH  20  25
ATOM     25  O   UNL A   1      33.269  20.076  25.678  1.00  0.00    -0.497 OA
ATOM     26  C   UNL A   1      32.859  18.778  25.246  1.00  0.00     0.278 C 
ENDBRANCH  20  25
ENDBRANCH  16  19
ENDBRANCH   9  15
ENDBRANCH   5   8
ENDBRANCH   3   4
ENDBRANCH   2   3
ENDBRANCH   1   2
BRANCH   1  27
ATOM     27  C   UNL A   1      36.589  20.837  24.707  1.00  0.00     0.002 C 
BRANCH  27  28
ATOM     28  C   UNL A   1      37.803  19.905  24.723  1.00  0.00     0.021 C 
BRANCH  28  29
ATOM     29  C   UNL A   1      38.797  20.147  25.855  1.00  0.00     0.116 C 
BRANCH  29  30
ATOM     30  N   UNL A   1      39.980  19.309  25.750  1.00  0.00    -0.352 N 
ATOM     31  C   UNL A   1      41.295  19.606  25.996  1.00  0.00     0.251 C 
ATOM     32  H   UNL A   1      39.810  18.385  25.458  1.00  0.00     0.163 HD
ATOM     33  O   UNL A   1      42.167  18.787  25.698  1.00  0.00    -0.269 OA
BRANCH  31  34
ATOM     34  C   UNL A   1      41.691  20.903  26.588  1.00  0.00     0.039 A 
ATOM     35  C   UNL A   1      42.119  21.923  25.732  1.00  0.00     0.014 A 
ATOM     36  C   UNL A   1      41.682  21.117  27.970  1.00  0.00     0.014 A 
ATOM     37  C   UNL A   1      42.479  23.167  26.253  1.00  0.00     0.010 A 
ATOM     38  C   UNL A   1      41.979  22.380  28.485  1.00  0.00     0.010 A 
ATOM     39  C   UNL A   1      42.382  23.419  27.632  1.00  0.00    -0.014 A 
BRANCH  39  40
ATOM     40  C   UNL A   1      42.674  24.769  28.175  1.00  0.00     0.031 A 
ATOM     41  C   UNL A   1      44.069  25.154  28.582  1.00  0.00     0.074 A 
ATOM     42  C   UNL A   1      41.663  25.647  28.335  1.00  0.00     0.049 A 
ATOM     43  N   UNL A   1      44.504  26.290  29.066  1.00  0.00    -0.248 NA
ATOM     44  C   UNL A   1      45.108  24.122  28.451  1.00  0.00     0.031 C 
ATOM     45  C   UNL A   1      40.256  25.379  28.034  1.00  0.00     0.029 A 
ATOM     46  N   UNL A   1      41.665  26.942  28.791  1.00  0.00    -0.354 N 
ATOM     47  C   UNL A   1      45.861  26.110  29.300  1.00  0.00     0.074 A 
ATOM     48  C   UNL A   1      46.168  24.738  28.954  1.00  0.00     0.031 C 
ATOM     49  C   UNL A   1      39.535  26.484  28.282  1.00  0.00     0.029 A 
ATOM     50  C   UNL A   1      40.422  27.528  28.784  1.00  0.00     0.049 A 
ATOM     51  H   UNL A   1      42.479  27.406  29.093  1.00  0.00     0.167 HD
ATOM     52  C   UNL A   1      46.774  27.009  29.740  1.00  0.00     0.037 A 
ATOM     53  C   UNL A   1      40.041  28.769  29.139  1.00  0.00     0.037 A 
ATOM     54  C   UNL A   1      46.473  28.381  30.067  1.00  0.00     0.049 A 
ATOM     55  C   UNL A   1      41.074  29.751  29.614  1.00  0.00     0.074 A 
ATOM     56  C   UNL A   1      47.342  29.384  30.461  1.00  0.00     0.029 A 
ATOM     57  N   UNL A   1      45.205  28.939  30.040  1.00  0.00    -0.354 N 
ATOM     58  N   UNL A   1      42.366  29.587  29.757  1.00  0.00    -0.248 NA
ATOM     59  C   UNL A   1      40.594  31.094  29.968  1.00  0.00     0.031 C 
ATOM     60  C   UNL A   1      46.593  30.540  30.712  1.00  0.00     0.029 A 
ATOM     61  C   UNL A   1      45.264  30.268  30.432  1.00  0.00     0.049 A 
ATOM     62  H   UNL A   1      44.383  28.463  29.781  1.00  0.00     0.167 HD
ATOM     63  C   UNL A   1      42.856  30.808  30.198  1.00  0.00     0.074 A 
ATOM     64  C   UNL A   1      41.726  31.710  30.277  1.00  0.00     0.031 C 
ATOM     65  C   UNL A   1      44.130  31.151  30.514  1.00  0.00     0.037 A 
BRANCH  52  66
ATOM     66  C   UNL A   1      48.192  26.540  29.888  1.00  0.00     0.057 A 
ATOM     67  C   UNL A   1      48.643  25.915  31.058  1.00  0.00     0.134 A 
ATOM     68  C   UNL A   1      49.107  26.678  28.837  1.00  0.00     0.134 A 
ATOM     69  F   UNL A   1      47.821  25.760  32.107  1.00  0.00    -0.206 F 
ATOM     70  C   UNL A   1      49.959  25.467  31.186  1.00  0.00     0.040 A 
ATOM     71  C   UNL A   1      50.418  26.211  28.944  1.00  0.00     0.040 A 
ATOM     72  F   UNL A   1      48.740  27.260  27.686  1.00  0.00    -0.206 F 
ATOM     73  C   UNL A   1      50.849  25.608  30.124  1.00  0.00     0.006 A 
ENDBRANCH  52  66
BRANCH  53  74
ATOM     74  C   UNL A   1      38.615  29.167  29.025  1.00  0.00     0.057 A 
ATOM     75  C   UNL A   1      37.762  29.117  30.133  1.00  0.00     0.134 A 
ATOM     76  C   UNL A   1      38.073  29.601  27.809  1.00  0.00     0.134 A 
ATOM     77  F   UNL A   1      38.219  28.692  31.319  1.00  0.00    -0.206 F 
ATOM     78  C   UNL A   1      36.414  29.467  30.032  1.00  0.00     0.040 A 
ATOM     79  C   UNL A   1      36.733  29.976  27.700  1.00  0.00     0.040 A 
ATOM     80  F   UNL A   1      38.842  29.678  26.713  1.00  0.00    -0.206 F 
ATOM     81  C   UNL A   1      35.898  29.902  28.813  1.00  0.00     0.006 A 
ENDBRANCH  53  74
BRANCH  65  82
ATOM     82  C   UNL A   1      44.361  32.566  30.958  1.00  0.00     0.057 A 
ATOM     83  C   UNL A   1      44.320  32.931  32.310  1.00  0.00     0.134 A 
ATOM     84  C   UNL A   1      44.636  33.573  30.024  1.00  0.00     0.134 A 
ATOM     85  F   UNL A   1      44.046  32.017  33.253  1.00  0.00    -0.206 F 
ATOM     86  C   UNL A   1      44.515  34.253  32.714  1.00  0.00     0.040 A 
ATOM     87  C   UNL A   1      44.858  34.893  30.419  1.00  0.00     0.040 A 
ATOM     88  F   UNL A   1      44.698  33.289  28.714  1.00  0.00    -0.206 F 
ATOM     89  C   UNL A   1      44.788  35.237  31.767  1.00  0.00     0.006 A 
ENDBRANCH  65  82
ENDBRANCH  39  40
ENDBRANCH  31  34
ENDBRANCH  29  30
ENDBRANCH  28  29
ENDBRANCH  27  28
ENDBRANCH   1  27
TORSDOF 16
ENDMDL
MODEL 2
REMARK VINA RESULT:     -11.5      1.302      2.268
REMARK SMILES COc1cccc(NC(=O)[C@@H]2[C@@H](C(=O)NCCCCCCNC(=O)c3ccc(-c4c5nc(c(-c6c(F)cccc6F)c6ccc([nH]6)c(-c6c(F)cccc6F)c6nc(c(-c7c(F)cccc7F)c7ccc4[nH]7)C=C6)C=C5)cc3)[C@H]3C=C[C@@H]2C3)c1
REMARK SMILES IDX 18 1 17 2 16 3 15 4 13 5 14 6 12 8 11 9 82 10 79 11 81 12
REMARK SMILES IDX 83 13 80 14 9 15 8 16 10 18 7 19 3 20 4 21 84 22 5 23 6 24
REMARK SMILES IDX 2 25 1 26 19 27 20 28 21 29 22 30 23 31 24 33 25 34 26 35
REMARK SMILES IDX 78 36 27 37 77 38 28 39 29 40 30 41 71 42 31 43 76 44 70 45
REMARK SMILES IDX 72 46 32 47 75 48 69 49 68 50 33 52 59 53 42 54 58 55 43 56
REMARK SMILES IDX 46 57 57 58 73 59 44 60 45 61 56 63 74 64 47 65 34 66 35 67
REMARK SMILES IDX 40 68 36 69 37 70 39 71 41 72 38 73 60 74 61 75 66 76 62 77
REMARK SMILES IDX 63 78 65 79 67 80 64 81 48 82 49 83 54 84 50 85 51 86 53 87
REMARK SMILES IDX 55 88 52 89
REMARK H PARENT 15 7 8 17 22 32 72 51 46 62
REMARK Flexibility Score: inf
ROOT
ATOM      1  C   UNL A   1      38.486  22.253  25.865  1.00  0.00     0.002 C 
ENDROOT
BRANCH   1   2
ATOM      2  C   UNL A   1      37.757  23.598  25.986  1.00  0.00     0.021 C 
BRANCH   2   3
ATOM      3  C   UNL A   1      36.240  23.494  26.153  1.00  0.00     0.116 C 
BRANCH   3   4
ATOM      4  N   UNL A   1      35.541  24.440  25.303  1.00  0.00    -0.356 N 
ATOM      5  C   UNL A   1      34.207  24.679  25.161  1.00  0.00     0.224 C 
ATOM      6  O   UNL A   1      33.858  25.518  24.331  1.00  0.00    -0.275 OA
ATOM      7  H   UNL A   1      36.124  24.998  24.739  1.00  0.00     0.163 HD
BRANCH   5   8
ATOM      8  C   UNL A   1      33.229  23.950  26.063  1.00  0.00     0.098 C 
ATOM      9  C   UNL A   1      32.803  22.520  25.588  1.00  0.00     0.099 C 
ATOM     10  C   UNL A   1      31.247  22.646  25.560  1.00  0.00     0.025 C 
ATOM     11  C   UNL A   1      31.877  24.718  26.103  1.00  0.00     0.025 C 
ATOM     12  C   UNL A   1      30.897  23.533  24.387  1.00  0.00    -0.027 C 
ATOM     13  C   UNL A   1      30.963  23.645  26.690  1.00  0.00     0.017 C 
ATOM     14  C   UNL A   1      31.274  24.779  24.714  1.00  0.00    -0.027 C 
BRANCH   9  15
ATOM     15  C   UNL A   1      33.246  21.456  26.582  1.00  0.00     0.228 C 
ATOM     16  N   UNL A   1      33.401  20.141  26.260  1.00  0.00    -0.326 N 
ATOM     17  H   UNL A   1      33.817  19.628  26.989  1.00  0.00     0.169 HD
ATOM     18  O   UNL A   1      33.561  21.764  27.738  1.00  0.00    -0.274 OA
BRANCH  16  19
ATOM     19  C   UNL A   1      33.111  19.336  25.145  1.00  0.00     0.044 A 
ATOM     20  C   UNL A   1      33.153  17.083  24.216  1.00  0.00     0.120 A 
ATOM     21  C   UNL A   1      32.687  17.558  22.997  1.00  0.00     0.046 A 
ATOM     22  C   UNL A   1      33.384  17.964  25.278  1.00  0.00     0.072 A 
ATOM     23  C   UNL A   1      32.370  18.905  22.871  1.00  0.00     0.006 A 
ATOM     24  C   UNL A   1      32.556  19.778  23.949  1.00  0.00     0.026 A 
BRANCH  20  25
ATOM     25  O   UNL A   1      33.431  15.746  24.295  1.00  0.00    -0.497 OA
ATOM     26  C   UNL A   1      32.728  15.117  25.368  1.00  0.00     0.278 C 
ENDBRANCH  20  25
ENDBRANCH  16  19
ENDBRANCH   9  15
ENDBRANCH   5   8
ENDBRANCH   3   4
ENDBRANCH   2   3
ENDBRANCH   1   2
BRANCH   1  27
ATOM     27  C   UNL A   1      37.813  21.211  24.967  1.00  0.00     0.002 C 
BRANCH  27  28
ATOM     28  C   UNL A   1      38.500  19.844  24.910  1.00  0.00     0.021 C 
BRANCH  28  29
ATOM     29  C   UNL A   1      39.296  19.461  26.153  1.00  0.00     0.116 C 
BRANCH  29  30
ATOM     30  N   UNL A   1      40.606  18.918  25.833  1.00  0.00    -0.352 N 
ATOM     31  C   UNL A   1      41.838  19.517  25.857  1.00  0.00     0.251 C 
ATOM     32  H   UNL A   1      40.608  17.973  25.559  1.00  0.00     0.163 HD
ATOM     33  O   UNL A   1      42.813  18.916  25.400  1.00  0.00    -0.269 OA
BRANCH  31  34
ATOM     34  C   UNL A   1      42.017  20.884  26.395  1.00  0.00     0.039 A 
ATOM     35  C   UNL A   1      41.898  21.077  27.775  1.00  0.00     0.014 A 
ATOM     36  C   UNL A   1      42.264  21.979  25.561  1.00  0.00     0.014 A 
ATOM     37  C   UNL A   1      42.082  22.349  28.321  1.00  0.00     0.010 A 
ATOM     38  C   UNL A   1      42.513  23.237  26.112  1.00  0.00     0.010 A 
ATOM     39  C   UNL A   1      42.424  23.435  27.498  1.00  0.00    -0.014 A 
BRANCH  39  40
ATOM     40  C   UNL A   1      42.713  24.767  28.088  1.00  0.00     0.031 A 
ATOM     41  C   UNL A   1      44.106  25.137  28.517  1.00  0.00     0.074 A 
ATOM     42  C   UNL A   1      41.703  25.640  28.269  1.00  0.00     0.049 A 
ATOM     43  N   UNL A   1      44.538  26.256  29.041  1.00  0.00    -0.248 NA
ATOM     44  C   UNL A   1      45.146  24.109  28.359  1.00  0.00     0.031 C 
ATOM     45  C   UNL A   1      40.297  25.384  27.949  1.00  0.00     0.029 A 
ATOM     46  N   UNL A   1      41.702  26.919  28.768  1.00  0.00    -0.354 N 
ATOM     47  C   UNL A   1      45.894  26.067  29.279  1.00  0.00     0.074 A 
ATOM     48  C   UNL A   1      46.202  24.706  28.890  1.00  0.00     0.031 C 
ATOM     49  C   UNL A   1      39.576  26.480  28.228  1.00  0.00     0.029 A 
ATOM     50  C   UNL A   1      40.460  27.506  28.771  1.00  0.00     0.049 A 
ATOM     51  H   UNL A   1      42.514  27.372  29.090  1.00  0.00     0.167 HD
ATOM     52  C   UNL A   1      46.804  26.951  29.755  1.00  0.00     0.037 A 
ATOM     53  C   UNL A   1      40.076  28.735  29.164  1.00  0.00     0.037 A 
ATOM     54  C   UNL A   1      46.502  28.311  30.124  1.00  0.00     0.049 A 
ATOM     55  C   UNL A   1      41.107  29.700  29.679  1.00  0.00     0.074 A 
ATOM     56  C   UNL A   1      47.369  29.299  30.557  1.00  0.00     0.029 A 
ATOM     57  N   UNL A   1      45.234  28.871  30.107  1.00  0.00    -0.354 N 
ATOM     58  N   UNL A   1      42.398  29.531  29.825  1.00  0.00    -0.248 NA
ATOM     59  C   UNL A   1      40.626  31.032  30.073  1.00  0.00     0.031 C 
ATOM     60  C   UNL A   1      46.619  30.447  30.841  1.00  0.00     0.029 A 
ATOM     61  C   UNL A   1      45.292  30.186  30.542  1.00  0.00     0.049 A 
ATOM     62  H   UNL A   1      44.414  28.404  29.826  1.00  0.00     0.167 HD
ATOM     63  C   UNL A   1      42.886  30.736  30.310  1.00  0.00     0.074 A 
ATOM     64  C   UNL A   1      41.755  31.636  30.410  1.00  0.00     0.031 C 
ATOM     65  C   UNL A   1      44.158  31.067  30.646  1.00  0.00     0.037 A 
BRANCH  52  66
ATOM     66  C   UNL A   1      48.221  26.475  29.897  1.00  0.00     0.057 A 
ATOM     67  C   UNL A   1      49.169  26.670  28.884  1.00  0.00     0.134 A 
ATOM     68  C   UNL A   1      48.653  25.850  31.073  1.00  0.00     0.134 A 
ATOM     69  F   UNL A   1      48.818  27.254  27.728  1.00  0.00    -0.206 F 
ATOM     70  C   UNL A   1      50.489  26.239  29.026  1.00  0.00     0.040 A 
ATOM     71  C   UNL A   1      49.977  25.437  31.237  1.00  0.00     0.040 A 
ATOM     72  F   UNL A   1      47.799  25.638  32.086  1.00  0.00    -0.206 F 
ATOM     73  C   UNL A   1      50.898  25.626  30.209  1.00  0.00     0.006 A 
ENDBRANCH  52  66
BRANCH  53  74
ATOM     74  C   UNL A   1      38.652  29.138  29.053  1.00  0.00     0.057 A 
ATOM     75  C   UNL A   1      37.797  29.077  30.159  1.00  0.00     0.134 A 
ATOM     76  C   UNL A   1      38.113  29.589  27.842  1.00  0.00     0.134 A 
ATOM     77  F   UNL A   1      38.252  28.635  31.340  1.00  0.00    -0.206 F 
ATOM     78  C   UNL A   1      36.450  29.431  30.061  1.00  0.00     0.040 A 
ATOM     79  C   UNL A   1      36.774  29.969  27.736  1.00  0.00     0.040 A 
ATOM     80  F   UNL A   1      38.884  29.678  26.748  1.00  0.00    -0.206 F 
ATOM     81  C   UNL A   1      35.937  29.883  28.846  1.00  0.00     0.006 A 
ENDBRANCH  53  74
BRANCH  65  82
ATOM     82  C   UNL A   1      44.386  32.466  31.137  1.00  0.00     0.057 A 
ATOM     83  C   UNL A   1      44.334  32.787  32.500  1.00  0.00     0.134 A 
ATOM     84  C   UNL A   1      44.671  33.502  30.239  1.00  0.00     0.134 A 
ATOM     85  F   UNL A   1      44.050  31.843  33.411  1.00  0.00    -0.206 F 
ATOM     86  C   UNL A   1      44.527  34.095  32.949  1.00  0.00     0.040 A 
ATOM     87  C   UNL A   1      44.892  34.809  30.679  1.00  0.00     0.040 A 
ATOM     88  F   UNL A   1      44.745  33.262  28.921  1.00  0.00    -0.206 F 
ATOM     89  C   UNL A   1      44.810  35.109  32.038  1.00  0.00     0.006 A 
ENDBRANCH  65  82
ENDBRANCH  39  40
ENDBRANCH  31  34
ENDBRANCH  29  30
ENDBRANCH  28  29
ENDBRANCH  27  28
ENDBRANCH   1  27
TORSDOF 16
ENDMDL
MODEL 3
REMARK VINA RESULT:     -11.4      4.362      9.351
REMARK SMILES COc1cccc(NC(=O)[C@@H]2[C@@H](C(=O)NCCCCCCNC(=O)c3ccc(-c4c5nc(c(-c6c(F)cccc6F)c6ccc([nH]6)c(-c6c(F)cccc6F)c6nc(c(-c7c(F)cccc7F)c7ccc4[nH]7)C=C6)C=C5)cc3)[C@H]3C=C[C@@H]2C3)c1
REMARK SMILES IDX 18 1 17 2 16 3 15 4 13 5 14 6 12 8 11 9 82 10 79 11 81 12
REMARK SMILES IDX 83 13 80 14 9 15 8 16 10 18 7 19 3 20 4 21 84 22 5 23 6 24
REMARK SMILES IDX 2 25 1 26 19 27 20 28 21 29 22 30 23 31 24 33 25 34 26 35
REMARK SMILES IDX 78 36 27 37 77 38 28 39 29 40 30 41 71 42 31 43 76 44 70 45
REMARK SMILES IDX 72 46 32 47 75 48 69 49 68 50 33 52 59 53 42 54 58 55 43 56
REMARK SMILES IDX 46 57 57 58 73 59 44 60 45 61 56 63 74 64 47 65 34 66 35 67
REMARK SMILES IDX 40 68 36 69 37 70 39 71 41 72 38 73 60 74 61 75 66 76 62 77
REMARK SMILES IDX 63 78 65 79 67 80 64 81 48 82 49 83 54 84 50 85 51 86 53 87
REMARK SMILES IDX 55 88 52 89
REMARK H PARENT 15 7 8 17 22 32 72 51 46 62
REMARK Flexibility Score: inf
ROOT
ATOM      1  C   UNL A   1      32.313  29.682  25.886  1.00  0.00     0.002 C 
ENDROOT
BRANCH   1   2
ATOM      2  C   UNL A   1      32.164  29.045  27.274  1.00  0.00     0.021 C 
BRANCH   2   3
ATOM      3  C   UNL A   1      32.230  27.516  27.290  1.00  0.00     0.116 C 
BRANCH   3   4
ATOM      4  N   UNL A   1      30.976  26.922  26.865  1.00  0.00    -0.356 N 
ATOM      5  C   UNL A   1      30.654  26.274  25.711  1.00  0.00     0.224 C 
ATOM      6  O   UNL A   1      29.493  25.891  25.570  1.00  0.00    -0.275 OA
ATOM      7  H   UNL A   1      30.240  27.000  27.515  1.00  0.00     0.163 HD
BRANCH   5   8
ATOM      8  C   UNL A   1      31.744  26.004  24.690  1.00  0.00     0.098 C 
ATOM      9  C   UNL A   1      31.272  25.927  23.199  1.00  0.00     0.099 C 
ATOM     10  C   UNL A   1      31.812  24.526  22.767  1.00  0.00     0.025 C 
ATOM     11  C   UNL A   1      32.356  24.595  24.932  1.00  0.00     0.025 C 
ATOM     12  C   UNL A   1      30.962  23.491  23.468  1.00  0.00    -0.027 C 
ATOM     13  C   UNL A   1      33.087  24.376  23.609  1.00  0.00     0.017 C 
ATOM     14  C   UNL A   1      31.290  23.530  24.768  1.00  0.00    -0.027 C 
BRANCH   9  15
ATOM     15  C   UNL A   1      31.902  27.034  22.365  1.00  0.00     0.228 C 
ATOM     16  N   UNL A   1      31.303  28.235  22.131  1.00  0.00    -0.326 N 
ATOM     17  H   UNL A   1      31.909  28.870  21.686  1.00  0.00     0.169 HD
ATOM     18  O   UNL A   1      33.046  26.910  21.912  1.00  0.00    -0.274 OA
BRANCH  16  19
ATOM     19  C   UNL A   1      30.033  28.790  22.366  1.00  0.00     0.044 A 
ATOM     20  C   UNL A   1      28.632  30.776  22.178  1.00  0.00     0.120 A 
ATOM     21  C   UNL A   1      27.591  30.124  22.825  1.00  0.00     0.046 A 
ATOM     22  C   UNL A   1      29.852  30.125  21.966  1.00  0.00     0.072 A 
ATOM     23  C   UNL A   1      27.744  28.790  23.182  1.00  0.00     0.006 A 
ATOM     24  C   UNL A   1      28.949  28.124  22.926  1.00  0.00     0.026 A 
BRANCH  20  25
ATOM     25  O   UNL A   1      28.424  32.083  21.829  1.00  0.00    -0.497 OA
ATOM     26  C   UNL A   1      27.955  32.208  20.486  1.00  0.00     0.278 C 
ENDBRANCH  20  25
ENDBRANCH  16  19
ENDBRANCH   9  15
ENDBRANCH   5   8
ENDBRANCH   3   4
ENDBRANCH   2   3
ENDBRANCH   1   2
BRANCH   1  27
ATOM     27  C   UNL A   1      31.264  30.740  25.525  1.00  0.00     0.002 C 
BRANCH  27  28
ATOM     28  C   UNL A   1      31.147  31.915  26.500  1.00  0.00     0.021 C 
BRANCH  28  29
ATOM     29  C   UNL A   1      32.472  32.523  26.951  1.00  0.00     0.116 C 
BRANCH  29  30
ATOM     30  N   UNL A   1      32.323  33.882  27.446  1.00  0.00    -0.352 N 
ATOM     31  C   UNL A   1      33.027  34.549  28.414  1.00  0.00     0.251 C 
ATOM     32  H   UNL A   1      31.608  34.404  27.018  1.00  0.00     0.163 HD
ATOM     33  O   UNL A   1      32.639  35.657  28.790  1.00  0.00    -0.269 OA
BRANCH  31  34
ATOM     34  C   UNL A   1      34.230  33.952  29.038  1.00  0.00     0.039 A 
ATOM     35  C   UNL A   1      34.056  33.069  30.107  1.00  0.00     0.014 A 
ATOM     36  C   UNL A   1      35.520  34.277  28.609  1.00  0.00     0.014 A 
ATOM     37  C   UNL A   1      35.166  32.470  30.706  1.00  0.00     0.010 A 
ATOM     38  C   UNL A   1      36.626  33.628  29.163  1.00  0.00     0.010 A 
ATOM     39  C   UNL A   1      36.460  32.718  30.218  1.00  0.00    -0.014 A 
BRANCH  39  40
ATOM     40  C   UNL A   1      37.632  32.009  30.791  1.00  0.00     0.031 A 
ATOM     41  C   UNL A   1      38.126  32.326  32.176  1.00  0.00     0.074 A 
ATOM     42  C   UNL A   1      38.278  31.093  30.043  1.00  0.00     0.049 A 
ATOM     43  N   UNL A   1      39.127  31.799  32.835  1.00  0.00    -0.248 NA
ATOM     44  C   UNL A   1      37.420  33.389  32.907  1.00  0.00     0.031 C 
ATOM     45  C   UNL A   1      37.936  30.735  28.665  1.00  0.00     0.029 A 
ATOM     46  N   UNL A   1      39.358  30.297  30.335  1.00  0.00    -0.354 N 
ATOM     47  C   UNL A   1      39.173  32.466  34.053  1.00  0.00     0.074 A 
ATOM     48  C   UNL A   1      38.133  33.472  34.020  1.00  0.00     0.031 C 
ATOM     49  C   UNL A   1      38.767  29.769  28.243  1.00  0.00     0.029 A 
ATOM     50  C   UNL A   1      39.716  29.459  29.307  1.00  0.00     0.049 A 
ATOM     51  H   UNL A   1      39.829  30.324  31.199  1.00  0.00     0.167 HD
ATOM     52  C   UNL A   1      39.991  32.246  35.110  1.00  0.00     0.037 A 
ATOM     53  C   UNL A   1      40.697  28.540  29.231  1.00  0.00     0.037 A 
ATOM     54  C   UNL A   1      41.015  31.232  35.151  1.00  0.00     0.049 A 
ATOM     55  C   UNL A   1      41.584  28.309  30.422  1.00  0.00     0.074 A 
ATOM     56  C   UNL A   1      41.852  30.893  36.201  1.00  0.00     0.029 A 
ATOM     57  N   UNL A   1      41.343  30.398  34.094  1.00  0.00    -0.354 N 
ATOM     58  N   UNL A   1      41.565  28.895  31.594  1.00  0.00    -0.248 NA
ATOM     59  C   UNL A   1      42.622  27.278  30.281  1.00  0.00     0.031 C 
ATOM     60  C   UNL A   1      42.713  29.880  35.765  1.00  0.00     0.029 A 
ATOM     61  C   UNL A   1      42.384  29.559  34.459  1.00  0.00     0.049 A 
ATOM     62  H   UNL A   1      40.901  30.401  33.214  1.00  0.00     0.167 HD
ATOM     63  C   UNL A   1      42.573  28.295  32.334  1.00  0.00     0.074 A 
ATOM     64  C   UNL A   1      43.169  27.282  31.488  1.00  0.00     0.031 C 
ATOM     65  C   UNL A   1      42.973  28.561  33.603  1.00  0.00     0.037 A 
BRANCH  52  66
ATOM     66  C   UNL A   1      39.807  33.117  36.319  1.00  0.00     0.057 A 
ATOM     67  C   UNL A   1      38.938  32.760  37.359  1.00  0.00     0.134 A 
ATOM     68  C   UNL A   1      40.534  34.306  36.465  1.00  0.00     0.134 A 
ATOM     69  F   UNL A   1      38.205  31.640  37.278  1.00  0.00    -0.206 F 
ATOM     70  C   UNL A   1      38.781  33.566  38.488  1.00  0.00     0.040 A 
ATOM     71  C   UNL A   1      40.404  35.106  37.601  1.00  0.00     0.040 A 
ATOM     72  F   UNL A   1      41.388  34.703  35.511  1.00  0.00    -0.206 F 
ATOM     73  C   UNL A   1      39.521  34.740  38.615  1.00  0.00     0.006 A 
ENDBRANCH  52  66
BRANCH  53  74
ATOM     74  C   UNL A   1      40.871  27.742  27.992  1.00  0.00     0.057 A 
ATOM     75  C   UNL A   1      40.254  26.495  27.845  1.00  0.00     0.134 A 
ATOM     76  C   UNL A   1      41.658  28.204  26.930  1.00  0.00     0.134 A 
ATOM     77  F   UNL A   1      39.503  25.992  28.836  1.00  0.00    -0.206 F 
ATOM     78  C   UNL A   1      40.428  25.725  26.694  1.00  0.00     0.040 A 
ATOM     79  C   UNL A   1      41.822  27.455  25.764  1.00  0.00     0.040 A 
ATOM     80  F   UNL A   1      42.269  29.395  27.008  1.00  0.00    -0.206 F 
ATOM     81  C   UNL A   1      41.212  26.208  25.647  1.00  0.00     0.006 A 
ENDBRANCH  53  74
BRANCH  65  82
ATOM     82  C   UNL A   1      44.098  27.731  34.148  1.00  0.00     0.057 A 
ATOM     83  C   UNL A   1      43.870  26.494  34.765  1.00  0.00     0.134 A 
ATOM     84  C   UNL A   1      45.424  28.168  34.046  1.00  0.00     0.134 A 
ATOM     85  F   UNL A   1      42.620  26.026  34.908  1.00  0.00    -0.206 F 
ATOM     86  C   UNL A   1      44.918  25.736  35.290  1.00  0.00     0.040 A 
ATOM     87  C   UNL A   1      46.483  27.406  34.543  1.00  0.00     0.040 A 
ATOM     88  F   UNL A   1      45.713  29.339  33.458  1.00  0.00    -0.206 F 
ATOM     89  C   UNL A   1      46.230  26.190  35.175  1.00  0.00     0.006 A 
ENDBRANCH  65  82
ENDBRANCH  39  40
ENDBRANCH  31  34
ENDBRANCH  29  30
ENDBRANCH  28  29
ENDBRANCH  27  28
ENDBRANCH   1  27
TORSDOF 16
ENDMDL
