MODEL 1
REMARK VINA RESULT:     -11.1      0.000      0.000
REMARK SMILES O=C(/C=C/c1ccc(Br)cc1-n1ccnc1)NCCCCCCNC(=O)c1ccc(-c2c3nc(c(-c4c(F)cccc4F)c4ccc([nH]4)c(-c4c(F)cccc4F)c4nc(c(-c5c(F)cccc5F)c5ccc2[nH]5)C=C4)C=C3)cc1
REMARK SMILES IDX 20 1 19 2 18 3 17 4 1 5 2 6 3 8 4 9 5 10 6 11 11 12 7 13
REMARK SMILES IDX 10 14 8 15 9 16 12 17 13 18 16 19 14 20 15 21 21 22 22 23
REMARK SMILES IDX 23 24 24 25 25 26 26 28 27 29 28 30 80 31 29 32 79 33 30 34
REMARK SMILES IDX 31 35 32 36 73 37 33 38 78 39 72 40 74 41 34 42 77 43 71 44
REMARK SMILES IDX 70 45 35 47 61 48 44 49 60 50 45 51 48 52 59 53 75 54 46 55
REMARK SMILES IDX 47 56 58 58 76 59 49 60 36 61 37 62 42 63 38 64 39 65 41 66
REMARK SMILES IDX 43 67 40 68 62 69 63 70 68 71 64 72 65 73 67 74 69 75 66 76
REMARK SMILES IDX 50 77 51 78 56 79 52 80 53 81 55 82 57 83 54 84
REMARK H PARENT 17 7 24 27 74 46 48 57
REMARK Flexibility Score: inf
ROOT
ATOM      1  C   UNL A   1      35.097  34.302  28.690  1.00  0.00     0.002 C 
ENDROOT
BRANCH   1   2
ATOM      2  C   UNL A   1      35.110  32.931  28.000  1.00  0.00     0.021 C 
BRANCH   2   3
ATOM      3  C   UNL A   1      34.247  31.860  28.670  1.00  0.00     0.116 C 
BRANCH   3   4
ATOM      4  N   UNL A   1      34.351  30.583  27.991  1.00  0.00    -0.353 N 
ATOM      5  O   UNL A   1      32.443  30.798  26.732  1.00  0.00    -0.270 OA
ATOM      6  C   UNL A   1      33.410  30.140  27.102  1.00  0.00     0.244 C 
ATOM      7  H   UNL A   1      35.131  30.013  28.176  1.00  0.00     0.163 HD
BRANCH   6   8
ATOM      8  C   UNL A   1      33.609  28.774  26.546  1.00  0.00     0.072 C 
ATOM      9  C   UNL A   1      32.736  28.099  25.782  1.00  0.00     0.016 C 
BRANCH   9  10
ATOM     10  C   UNL A   1      32.992  26.760  25.210  1.00  0.00    -0.001 A 
ATOM     11  C   UNL A   1      34.027  25.975  25.751  1.00  0.00     0.011 A 
ATOM     12  C   UNL A   1      32.130  26.158  24.266  1.00  0.00     0.055 A 
ATOM     13  C   UNL A   1      34.216  24.649  25.353  1.00  0.00     0.016 A 
ATOM     14  C   UNL A   1      32.298  24.812  23.895  1.00  0.00     0.043 A 
ATOM     15  C   UNL A   1      33.350  24.074  24.429  1.00  0.00     0.020 A 
ATOM     16  Br  UNL A   1      33.615  22.284  23.883  1.00  0.00    -0.051 Br
BRANCH  12  17
ATOM     17  N   UNL A   1      31.093  26.885  23.630  1.00  0.00    -0.306 N 
ATOM     18  C   UNL A   1      29.786  27.011  24.042  1.00  0.00     0.113 A 
ATOM     19  C   UNL A   1      31.208  27.652  22.493  1.00  0.00     0.204 A 
ATOM     20  C   UNL A   1      29.184  27.843  23.128  1.00  0.00     0.131 A 
ATOM     21  N   UNL A   1      30.071  28.221  22.157  1.00  0.00    -0.245 NA
ENDBRANCH  12  17
ENDBRANCH   9  10
ENDBRANCH   6   8
ENDBRANCH   3   4
ENDBRANCH   2   3
ENDBRANCH   1   2
BRANCH   1  22
ATOM     22  C   UNL A   1      34.266  35.403  28.012  1.00  0.00     0.002 C 
BRANCH  22  23
ATOM     23  C   UNL A   1      33.149  36.042  28.850  1.00  0.00     0.021 C 
BRANCH  23  24
ATOM     24  C   UNL A   1      33.622  36.672  30.151  1.00  0.00     0.116 C 
BRANCH  24  25
ATOM     25  N   UNL A   1      32.702  36.450  31.269  1.00  0.00    -0.352 N 
ATOM     26  C   UNL A   1      32.700  35.397  32.172  1.00  0.00     0.251 C 
ATOM     27  H   UNL A   1      32.001  37.130  31.394  1.00  0.00     0.163 HD
ATOM     28  O   UNL A   1      31.705  35.102  32.809  1.00  0.00    -0.269 OA
BRANCH  26  29
ATOM     29  C   UNL A   1      33.955  34.646  32.351  1.00  0.00     0.039 A 
ATOM     30  C   UNL A   1      34.035  33.267  32.140  1.00  0.00     0.014 A 
ATOM     31  C   UNL A   1      35.082  35.387  32.686  1.00  0.00     0.014 A 
ATOM     32  C   UNL A   1      35.289  32.661  32.186  1.00  0.00     0.010 A 
ATOM     33  C   UNL A   1      36.321  34.832  32.532  1.00  0.00     0.010 A 
ATOM     34  C   UNL A   1      36.430  33.458  32.362  1.00  0.00    -0.014 A 
BRANCH  34  35
ATOM     35  C   UNL A   1      37.773  32.898  32.284  1.00  0.00     0.031 A 
ATOM     36  C   UNL A   1      38.529  32.950  33.562  1.00  0.00     0.074 A 
ATOM     37  C   UNL A   1      38.194  32.170  31.224  1.00  0.00     0.049 A 
ATOM     38  N   UNL A   1      39.544  33.693  33.848  1.00  0.00    -0.248 NA
ATOM     39  C   UNL A   1      38.007  32.195  34.714  1.00  0.00     0.031 C 
ATOM     40  C   UNL A   1      37.401  31.731  30.064  1.00  0.00     0.029 A 
ATOM     41  N   UNL A   1      39.398  31.568  31.003  1.00  0.00    -0.354 N 
ATOM     42  C   UNL A   1      39.947  33.305  35.125  1.00  0.00     0.074 A 
ATOM     43  C   UNL A   1      38.850  32.562  35.682  1.00  0.00     0.031 C 
ATOM     44  C   UNL A   1      38.054  30.747  29.408  1.00  0.00     0.029 A 
ATOM     45  C   UNL A   1      39.387  30.641  29.964  1.00  0.00     0.049 A 
ATOM     46  H   UNL A   1      40.204  31.772  31.530  1.00  0.00     0.167 HD
ATOM     47  C   UNL A   1      41.264  33.353  35.472  1.00  0.00     0.037 A 
ATOM     48  C   UNL A   1      40.409  29.845  29.576  1.00  0.00     0.037 A 
ATOM     49  C   UNL A   1      42.016  34.086  34.486  1.00  0.00     0.049 A 
ATOM     50  C   UNL A   1      41.661  30.455  30.070  1.00  0.00     0.074 A 
ATOM     51  C   UNL A   1      42.227  35.404  34.150  1.00  0.00     0.029 A 
ATOM     52  N   UNL A   1      42.375  33.324  33.406  1.00  0.00    -0.354 N 
ATOM     53  N   UNL A   1      42.113  31.603  29.651  1.00  0.00    -0.248 NA
ATOM     54  C   UNL A   1      42.253  29.962  31.309  1.00  0.00     0.031 C 
ATOM     55  C   UNL A   1      42.590  35.410  32.770  1.00  0.00     0.029 A 
ATOM     56  C   UNL A   1      42.637  34.096  32.308  1.00  0.00     0.049 A 
ATOM     57  H   UNL A   1      42.437  32.342  33.419  1.00  0.00     0.167 HD
ATOM     58  C   UNL A   1      42.705  32.162  30.766  1.00  0.00     0.074 A 
ATOM     59  C   UNL A   1      42.924  31.054  31.686  1.00  0.00     0.031 C 
ATOM     60  C   UNL A   1      42.651  33.507  30.988  1.00  0.00     0.037 A 
BRANCH  47  61
ATOM     61  C   UNL A   1      41.974  32.362  36.375  1.00  0.00     0.057 A 
ATOM     62  C   UNL A   1      42.729  32.852  37.461  1.00  0.00     0.134 A 
ATOM     63  C   UNL A   1      42.208  31.009  36.058  1.00  0.00     0.134 A 
ATOM     64  F   UNL A   1      42.612  34.127  37.861  1.00  0.00    -0.206 F 
ATOM     65  C   UNL A   1      43.687  32.076  38.127  1.00  0.00     0.040 A 
ATOM     66  C   UNL A   1      43.128  30.212  36.748  1.00  0.00     0.040 A 
ATOM     67  F   UNL A   1      41.644  30.409  35.004  1.00  0.00    -0.206 F 
ATOM     68  C   UNL A   1      43.894  30.751  37.767  1.00  0.00     0.006 A 
ENDBRANCH  47  61
BRANCH  48  69
ATOM     69  C   UNL A   1      40.363  28.478  29.017  1.00  0.00     0.057 A 
ATOM     70  C   UNL A   1      39.674  27.448  29.673  1.00  0.00     0.134 A 
ATOM     71  C   UNL A   1      40.736  28.229  27.685  1.00  0.00     0.134 A 
ATOM     72  F   UNL A   1      39.255  27.609  30.936  1.00  0.00    -0.206 F 
ATOM     73  C   UNL A   1      39.336  26.252  29.026  1.00  0.00     0.040 A 
ATOM     74  C   UNL A   1      40.405  27.039  27.029  1.00  0.00     0.040 A 
ATOM     75  F   UNL A   1      41.349  29.172  26.955  1.00  0.00    -0.206 F 
ATOM     76  C   UNL A   1      39.686  26.053  27.693  1.00  0.00     0.006 A 
ENDBRANCH  48  69
BRANCH  60  77
ATOM     77  C   UNL A   1      42.432  34.401  29.808  1.00  0.00     0.057 A 
ATOM     78  C   UNL A   1      41.187  34.896  29.397  1.00  0.00     0.134 A 
ATOM     79  C   UNL A   1      43.556  34.842  29.101  1.00  0.00     0.134 A 
ATOM     80  F   UNL A   1      40.064  34.583  30.055  1.00  0.00    -0.206 F 
ATOM     81  C   UNL A   1      41.067  35.768  28.310  1.00  0.00     0.040 A 
ATOM     82  C   UNL A   1      43.453  35.736  28.036  1.00  0.00     0.040 A 
ATOM     83  F   UNL A   1      44.783  34.436  29.464  1.00  0.00    -0.206 F 
ATOM     84  C   UNL A   1      42.204  36.195  27.630  1.00  0.00     0.006 A 
ENDBRANCH  60  77
ENDBRANCH  34  35
ENDBRANCH  26  29
ENDBRANCH  24  25
ENDBRANCH  23  24
ENDBRANCH  22  23
ENDBRANCH   1  22
TORSDOF 15
ENDMDL
MODEL 2
REMARK VINA RESULT:     -11.0      1.783      2.530
REMARK SMILES O=C(/C=C/c1ccc(Br)cc1-n1ccnc1)NCCCCCCNC(=O)c1ccc(-c2c3nc(c(-c4c(F)cccc4F)c4ccc([nH]4)c(-c4c(F)cccc4F)c4nc(c(-c5c(F)cccc5F)c5ccc2[nH]5)C=C4)C=C3)cc1
REMARK SMILES IDX 20 1 19 2 18 3 17 4 1 5 2 6 3 8 4 9 5 10 6 11 11 12 7 13
REMARK SMILES IDX 10 14 8 15 9 16 12 17 13 18 16 19 14 20 15 21 21 22 22 23
REMARK SMILES IDX 23 24 24 25 25 26 26 28 27 29 28 30 80 31 29 32 79 33 30 34
REMARK SMILES IDX 31 35 32 36 73 37 33 38 78 39 72 40 74 41 34 42 77 43 71 44
REMARK SMILES IDX 70 45 35 47 61 48 44 49 60 50 45 51 48 52 59 53 75 54 46 55
REMARK SMILES IDX 47 56 58 58 76 59 49 60 36 61 37 62 42 63 38 64 39 65 41 66
REMARK SMILES IDX 43 67 40 68 62 69 63 70 68 71 64 72 65 73 67 74 69 75 66 76
REMARK SMILES IDX 50 77 51 78 56 79 52 80 53 81 55 82 57 83 54 84
REMARK H PARENT 17 7 24 27 74 46 48 57
REMARK Flexibility Score: inf
ROOT
ATOM      1  C   UNL A   1      34.053  31.995  28.496  1.00  0.00     0.002 C 
ENDROOT
BRANCH   1   2
ATOM      2  C   UNL A   1      34.434  30.931  27.457  1.00  0.00     0.021 C 
BRANCH   2   3
ATOM      3  C   UNL A   1      33.334  29.919  27.131  1.00  0.00     0.116 C 
BRANCH   3   4
ATOM      4  N   UNL A   1      33.877  28.601  26.868  1.00  0.00    -0.353 N 
ATOM      5  O   UNL A   1      32.737  28.233  24.909  1.00  0.00    -0.270 OA
ATOM      6  C   UNL A   1      33.497  27.846  25.791  1.00  0.00     0.244 C 
ATOM      7  H   UNL A   1      34.546  28.233  27.490  1.00  0.00     0.163 HD
BRANCH   6   8
ATOM      8  C   UNL A   1      34.078  26.479  25.697  1.00  0.00     0.072 C 
ATOM      9  C   UNL A   1      33.697  25.519  24.840  1.00  0.00     0.016 C 
BRANCH   9  10
ATOM     10  C   UNL A   1      34.332  24.187  24.747  1.00  0.00    -0.001 A 
ATOM     11  C   UNL A   1      35.614  24.083  24.178  1.00  0.00     0.011 A 
ATOM     12  C   UNL A   1      33.787  23.040  25.368  1.00  0.00     0.055 A 
ATOM     13  C   UNL A   1      36.322  22.877  24.201  1.00  0.00     0.016 A 
ATOM     14  C   UNL A   1      34.517  21.839  25.423  1.00  0.00     0.043 A 
ATOM     15  C   UNL A   1      35.770  21.763  24.825  1.00  0.00     0.020 A 
ATOM     16  Br  UNL A   1      36.725  20.132  24.844  1.00  0.00    -0.051 Br
BRANCH  12  17
ATOM     17  N   UNL A   1      32.483  23.037  25.922  1.00  0.00    -0.306 N 
ATOM     18  C   UNL A   1      31.323  22.595  25.326  1.00  0.00     0.113 A 
ATOM     19  C   UNL A   1      32.131  23.434  27.191  1.00  0.00     0.204 A 
ATOM     20  C   UNL A   1      30.335  22.755  26.269  1.00  0.00     0.131 A 
ATOM     21  N   UNL A   1      30.843  23.296  27.418  1.00  0.00    -0.245 NA
ENDBRANCH  12  17
ENDBRANCH   9  10
ENDBRANCH   6   8
ENDBRANCH   3   4
ENDBRANCH   2   3
ENDBRANCH   1   2
BRANCH   1  22
ATOM     22  C   UNL A   1      34.146  33.460  28.041  1.00  0.00     0.002 C 
BRANCH  22  23
ATOM     23  C   UNL A   1      33.141  34.442  28.659  1.00  0.00     0.021 C 
BRANCH  23  24
ATOM     24  C   UNL A   1      33.775  35.591  29.426  1.00  0.00     0.116 C 
BRANCH  24  25
ATOM     25  N   UNL A   1      33.149  35.833  30.728  1.00  0.00    -0.352 N 
ATOM     26  C   UNL A   1      33.280  35.084  31.888  1.00  0.00     0.251 C 
ATOM     27  H   UNL A   1      32.564  36.623  30.787  1.00  0.00     0.163 HD
ATOM     28  O   UNL A   1      32.455  35.136  32.781  1.00  0.00    -0.269 OA
BRANCH  26  29
ATOM     29  C   UNL A   1      34.469  34.223  32.016  1.00  0.00     0.039 A 
ATOM     30  C   UNL A   1      34.396  32.831  31.914  1.00  0.00     0.014 A 
ATOM     31  C   UNL A   1      35.690  34.867  32.184  1.00  0.00     0.014 A 
ATOM     32  C   UNL A   1      35.585  32.104  31.897  1.00  0.00     0.010 A 
ATOM     33  C   UNL A   1      36.848  34.177  31.966  1.00  0.00     0.010 A 
ATOM     34  C   UNL A   1      36.809  32.790  31.903  1.00  0.00    -0.014 A 
BRANCH  34  35
ATOM     35  C   UNL A   1      38.078  32.090  31.751  1.00  0.00     0.031 A 
ATOM     36  C   UNL A   1      38.787  31.833  33.031  1.00  0.00     0.074 A 
ATOM     37  C   UNL A   1      38.449  31.505  30.589  1.00  0.00     0.049 A 
ATOM     38  N   UNL A   1      39.872  32.386  33.456  1.00  0.00    -0.248 NA
ATOM     39  C   UNL A   1      38.137  30.965  34.028  1.00  0.00     0.031 C 
ATOM     40  C   UNL A   1      37.652  31.369  29.358  1.00  0.00     0.029 A 
ATOM     41  N   UNL A   1      39.580  30.806  30.287  1.00  0.00    -0.354 N 
ATOM     42  C   UNL A   1      40.178  31.742  34.654  1.00  0.00     0.074 A 
ATOM     43  C   UNL A   1      38.982  31.056  35.058  1.00  0.00     0.031 C 
ATOM     44  C   UNL A   1      38.208  30.437  28.553  1.00  0.00     0.029 A 
ATOM     45  C   UNL A   1      39.497  30.075  29.104  1.00  0.00     0.049 A 
ATOM     46  H   UNL A   1      40.385  30.818  30.854  1.00  0.00     0.167 HD
ATOM     47  C   UNL A   1      41.478  31.568  35.026  1.00  0.00     0.037 A 
ATOM     48  C   UNL A   1      40.431  29.236  28.601  1.00  0.00     0.037 A 
ATOM     49  C   UNL A   1      42.347  32.359  34.192  1.00  0.00     0.049 A 
ATOM     50  C   UNL A   1      41.728  29.595  29.213  1.00  0.00     0.074 A 
ATOM     51  C   UNL A   1      42.725  33.678  34.091  1.00  0.00     0.029 A 
ATOM     52  N   UNL A   1      42.654  31.751  33.003  1.00  0.00    -0.354 N 
ATOM     53  N   UNL A   1      42.328  30.734  29.005  1.00  0.00    -0.248 NA
ATOM     54  C   UNL A   1      42.211  28.832  30.358  1.00  0.00     0.031 C 
ATOM     55  C   UNL A   1      43.138  33.873  32.738  1.00  0.00     0.029 A 
ATOM     56  C   UNL A   1      43.045  32.660  32.059  1.00  0.00     0.049 A 
ATOM     57  H   UNL A   1      42.598  30.781  32.848  1.00  0.00     0.167 HD
ATOM     58  C   UNL A   1      42.940  31.020  30.209  1.00  0.00     0.074 A 
ATOM     59  C   UNL A   1      42.992  29.754  30.928  1.00  0.00     0.031 C 
ATOM     60  C   UNL A   1      43.038  32.304  30.658  1.00  0.00     0.037 A 
BRANCH  47  61
ATOM     61  C   UNL A   1      42.032  30.360  35.756  1.00  0.00     0.057 A 
ATOM     62  C   UNL A   1      42.970  30.561  36.790  1.00  0.00     0.134 A 
ATOM     63  C   UNL A   1      41.934  29.030  35.301  1.00  0.00     0.134 A 
ATOM     64  F   UNL A   1      43.172  31.782  37.308  1.00  0.00    -0.206 F 
ATOM     65  C   UNL A   1      43.791  29.535  37.277  1.00  0.00     0.040 A 
ATOM     66  C   UNL A   1      42.716  27.988  35.814  1.00  0.00     0.040 A 
ATOM     67  F   UNL A   1      41.160  28.678  34.267  1.00  0.00    -0.206 F 
ATOM     68  C   UNL A   1      43.670  28.243  36.784  1.00  0.00     0.006 A 
ENDBRANCH  47  61
BRANCH  48  69
ATOM     69  C   UNL A   1      40.244  27.999  27.815  1.00  0.00     0.057 A 
ATOM     70  C   UNL A   1      40.861  27.830  26.569  1.00  0.00     0.134 A 
ATOM     71  C   UNL A   1      39.703  26.844  28.406  1.00  0.00     0.134 A 
ATOM     72  F   UNL A   1      41.429  28.871  25.945  1.00  0.00    -0.206 F 
ATOM     73  C   UNL A   1      40.975  26.572  25.961  1.00  0.00     0.040 A 
ATOM     74  C   UNL A   1      39.808  25.584  27.809  1.00  0.00     0.040 A 
ATOM     75  F   UNL A   1      39.141  26.892  29.623  1.00  0.00    -0.206 F 
ATOM     76  C   UNL A   1      40.462  25.441  26.591  1.00  0.00     0.006 A 
ENDBRANCH  48  69
BRANCH  60  77
ATOM     77  C   UNL A   1      42.970  33.405  29.645  1.00  0.00     0.057 A 
ATOM     78  C   UNL A   1      41.864  34.241  29.443  1.00  0.00     0.134 A 
ATOM     79  C   UNL A   1      44.117  33.675  28.892  1.00  0.00     0.134 A 
ATOM     80  F   UNL A   1      40.746  34.100  30.166  1.00  0.00    -0.206 F 
ATOM     81  C   UNL A   1      41.893  35.281  28.508  1.00  0.00     0.040 A 
ATOM     82  C   UNL A   1      44.170  34.728  27.980  1.00  0.00     0.040 A 
ATOM     83  F   UNL A   1      45.225  32.935  29.061  1.00  0.00    -0.206 F 
ATOM     84  C   UNL A   1      43.051  35.531  27.778  1.00  0.00     0.006 A 
ENDBRANCH  60  77
ENDBRANCH  34  35
ENDBRANCH  26  29
ENDBRANCH  24  25
ENDBRANCH  23  24
ENDBRANCH  22  23
ENDBRANCH   1  22
TORSDOF 15
ENDMDL
MODEL 3
REMARK VINA RESULT:     -11.0      4.636      9.795
REMARK SMILES O=C(/C=C/c1ccc(Br)cc1-n1ccnc1)NCCCCCCNC(=O)c1ccc(-c2c3nc(c(-c4c(F)cccc4F)c4ccc([nH]4)c(-c4c(F)cccc4F)c4nc(c(-c5c(F)cccc5F)c5ccc2[nH]5)C=C4)C=C3)cc1
REMARK SMILES IDX 20 1 19 2 18 3 17 4 1 5 2 6 3 8 4 9 5 10 6 11 11 12 7 13
REMARK SMILES IDX 10 14 8 15 9 16 12 17 13 18 16 19 14 20 15 21 21 22 22 23
REMARK SMILES IDX 23 24 24 25 25 26 26 28 27 29 28 30 80 31 29 32 79 33 30 34
REMARK SMILES IDX 31 35 32 36 73 37 33 38 78 39 72 40 74 41 34 42 77 43 71 44
REMARK SMILES IDX 70 45 35 47 61 48 44 49 60 50 45 51 48 52 59 53 75 54 46 55
REMARK SMILES IDX 47 56 58 58 76 59 49 60 36 61 37 62 42 63 38 64 39 65 41 66
REMARK SMILES IDX 43 67 40 68 62 69 63 70 68 71 64 72 65 73 67 74 69 75 66 76
REMARK SMILES IDX 50 77 51 78 56 79 52 80 53 81 55 82 57 83 54 84
REMARK H PARENT 17 7 24 27 74 46 48 57
REMARK Flexibility Score: inf
ROOT
ATOM      1  C   UNL A   1      38.515  21.307  25.404  1.00  0.00     0.002 C 
ENDROOT
BRANCH   1   2
ATOM      2  C   UNL A   1      37.694  22.601  25.501  1.00  0.00     0.021 C 
BRANCH   2   3
ATOM      3  C   UNL A   1      36.492  22.679  24.558  1.00  0.00     0.116 C 
BRANCH   3   4
ATOM      4  N   UNL A   1      35.661  23.833  24.841  1.00  0.00    -0.353 N 
ATOM      5  O   UNL A   1      34.381  22.843  26.469  1.00  0.00    -0.270 OA
ATOM      6  C   UNL A   1      34.640  23.804  25.752  1.00  0.00     0.244 C 
ATOM      7  H   UNL A   1      35.839  24.672  24.357  1.00  0.00     0.163 HD
BRANCH   6   8
ATOM      8  C   UNL A   1      33.821  25.040  25.875  1.00  0.00     0.072 C 
ATOM      9  C   UNL A   1      34.285  26.299  25.846  1.00  0.00     0.016 C 
BRANCH   9  10
ATOM     10  C   UNL A   1      33.431  27.503  25.925  1.00  0.00    -0.001 A 
ATOM     11  C   UNL A   1      33.394  28.234  27.127  1.00  0.00     0.011 A 
ATOM     12  C   UNL A   1      32.790  28.056  24.793  1.00  0.00     0.055 A 
ATOM     13  C   UNL A   1      32.725  29.458  27.210  1.00  0.00     0.016 A 
ATOM     14  C   UNL A   1      32.150  29.306  24.870  1.00  0.00     0.043 A 
ATOM     15  C   UNL A   1      32.108  29.988  26.082  1.00  0.00     0.020 A 
ATOM     16  Br  UNL A   1      31.194  31.639  26.201  1.00  0.00    -0.051 Br
BRANCH  12  17
ATOM     17  N   UNL A   1      32.732  27.369  23.556  1.00  0.00    -0.306 N 
ATOM     18  C   UNL A   1      31.697  26.601  23.074  1.00  0.00     0.113 A 
ATOM     19  C   UNL A   1      33.690  27.377  22.568  1.00  0.00     0.204 A 
ATOM     20  C   UNL A   1      32.089  26.185  21.824  1.00  0.00     0.131 A 
ATOM     21  N   UNL A   1      33.338  26.656  21.526  1.00  0.00    -0.245 NA
ENDBRANCH  12  17
ENDBRANCH   9  10
ENDBRANCH   6   8
ENDBRANCH   3   4
ENDBRANCH   2   3
ENDBRANCH   1   2
BRANCH   1  22
ATOM     22  C   UNL A   1      39.802  21.248  26.242  1.00  0.00     0.002 C 
BRANCH  22  23
ATOM     23  C   UNL A   1      40.616  19.948  26.170  1.00  0.00     0.021 C 
BRANCH  23  24
ATOM     24  C   UNL A   1      41.917  19.977  26.955  1.00  0.00     0.116 C 
BRANCH  24  25
ATOM     25  N   UNL A   1      43.096  19.690  26.133  1.00  0.00    -0.352 N 
ATOM     26  C   UNL A   1      43.840  20.581  25.373  1.00  0.00     0.251 C 
ATOM     27  H   UNL A   1      43.395  18.752  26.118  1.00  0.00     0.163 HD
ATOM     28  O   UNL A   1      44.544  20.205  24.454  1.00  0.00    -0.269 OA
BRANCH  26  29
ATOM     29  C   UNL A   1      43.766  22.009  25.726  1.00  0.00     0.039 A 
ATOM     30  C   UNL A   1      42.910  22.896  25.066  1.00  0.00     0.014 A 
ATOM     31  C   UNL A   1      44.549  22.430  26.795  1.00  0.00     0.014 A 
ATOM     32  C   UNL A   1      42.792  24.195  25.559  1.00  0.00     0.010 A 
ATOM     33  C   UNL A   1      44.282  23.629  27.391  1.00  0.00     0.010 A 
ATOM     34  C   UNL A   1      43.468  24.545  26.738  1.00  0.00    -0.014 A 
BRANCH  34  35
ATOM     35  C   UNL A   1      43.275  25.843  27.371  1.00  0.00     0.031 A 
ATOM     36  C   UNL A   1      44.261  26.874  26.955  1.00  0.00     0.074 A 
ATOM     37  C   UNL A   1      42.159  26.150  28.070  1.00  0.00     0.049 A 
ATOM     38  N   UNL A   1      45.214  27.384  27.659  1.00  0.00    -0.248 NA
ATOM     39  C   UNL A   1      44.288  27.285  25.541  1.00  0.00     0.031 C 
ATOM     40  C   UNL A   1      40.944  25.333  28.227  1.00  0.00     0.029 A 
ATOM     41  N   UNL A   1      41.818  27.309  28.703  1.00  0.00    -0.354 N 
ATOM     42  C   UNL A   1      45.790  28.368  26.857  1.00  0.00     0.074 A 
ATOM     43  C   UNL A   1      45.339  28.108  25.518  1.00  0.00     0.031 C 
ATOM     44  C   UNL A   1      39.930  26.100  28.681  1.00  0.00     0.029 A 
ATOM     45  C   UNL A   1      40.471  27.392  29.048  1.00  0.00     0.049 A 
ATOM     46  H   UNL A   1      42.466  28.023  28.900  1.00  0.00     0.167 HD
ATOM     47  C   UNL A   1      46.317  29.491  27.422  1.00  0.00     0.037 A 
ATOM     48  C   UNL A   1      39.841  28.448  29.612  1.00  0.00     0.037 A 
ATOM     49  C   UNL A   1      46.423  29.331  28.850  1.00  0.00     0.049 A 
ATOM     50  C   UNL A   1      40.872  29.287  30.260  1.00  0.00     0.074 A 
ATOM     51  C   UNL A   1      47.262  28.693  29.735  1.00  0.00     0.029 A 
ATOM     52  N   UNL A   1      45.255  29.600  29.512  1.00  0.00    -0.354 N 
ATOM     53  N   UNL A   1      41.581  28.891  31.280  1.00  0.00    -0.248 NA
ATOM     54  C   UNL A   1      41.384  30.457  29.556  1.00  0.00     0.031 C 
ATOM     55  C   UNL A   1      46.493  28.459  30.915  1.00  0.00     0.029 A 
ATOM     56  C   UNL A   1      45.220  28.999  30.740  1.00  0.00     0.049 A 
ATOM     57  H   UNL A   1      44.530  30.158  29.149  1.00  0.00     0.167 HD
ATOM     58  C   UNL A   1      42.816  29.475  31.081  1.00  0.00     0.074 A 
ATOM     59  C   UNL A   1      42.586  30.554  30.130  1.00  0.00     0.031 C 
ATOM     60  C   UNL A   1      43.963  28.824  31.431  1.00  0.00     0.037 A 
BRANCH  47  61
ATOM     61  C   UNL A   1      46.269  30.884  26.823  1.00  0.00     0.057 A 
ATOM     62  C   UNL A   1      47.445  31.661  26.816  1.00  0.00     0.134 A 
ATOM     63  C   UNL A   1      45.088  31.601  26.548  1.00  0.00     0.134 A 
ATOM     64  F   UNL A   1      48.639  31.106  27.074  1.00  0.00    -0.206 F 
ATOM     65  C   UNL A   1      47.434  33.049  26.621  1.00  0.00     0.040 A 
ATOM     66  C   UNL A   1      45.071  32.979  26.304  1.00  0.00     0.040 A 
ATOM     67  F   UNL A   1      43.875  31.039  26.602  1.00  0.00    -0.206 F 
ATOM     68  C   UNL A   1      46.242  33.715  26.370  1.00  0.00     0.006 A 
ENDBRANCH  47  61
BRANCH  48  69
ATOM     69  C   UNL A   1      38.450  28.908  29.428  1.00  0.00     0.057 A 
ATOM     70  C   UNL A   1      37.574  29.030  30.515  1.00  0.00     0.134 A 
ATOM     71  C   UNL A   1      38.045  29.521  28.230  1.00  0.00     0.134 A 
ATOM     72  F   UNL A   1      37.892  28.500  31.705  1.00  0.00    -0.206 F 
ATOM     73  C   UNL A   1      36.381  29.759  30.430  1.00  0.00     0.040 A 
ATOM     74  C   UNL A   1      36.856  30.252  28.131  1.00  0.00     0.040 A 
ATOM     75  F   UNL A   1      38.838  29.509  27.148  1.00  0.00    -0.206 F 
ATOM     76  C   UNL A   1      36.028  30.389  29.239  1.00  0.00     0.006 A 
ENDBRANCH  48  69
BRANCH  60  77
ATOM     77  C   UNL A   1      43.869  27.758  32.477  1.00  0.00     0.057 A 
ATOM     78  C   UNL A   1      43.637  27.989  33.839  1.00  0.00     0.134 A 
ATOM     79  C   UNL A   1      43.941  26.423  32.063  1.00  0.00     0.134 A 
ATOM     80  F   UNL A   1      43.486  29.231  34.317  1.00  0.00    -0.206 F 
ATOM     81  C   UNL A   1      43.514  26.936  34.752  1.00  0.00     0.040 A 
ATOM     82  C   UNL A   1      43.789  25.364  32.956  1.00  0.00     0.040 A 
ATOM     83  F   UNL A   1      44.125  26.130  30.765  1.00  0.00    -0.206 F 
ATOM     84  C   UNL A   1      43.584  25.618  34.308  1.00  0.00     0.006 A 
ENDBRANCH  60  77
ENDBRANCH  34  35
ENDBRANCH  26  29
ENDBRANCH  24  25
ENDBRANCH  23  24
ENDBRANCH  22  23
ENDBRANCH   1  22
TORSDOF 15
ENDMDL
