MODEL 1
REMARK VINA RESULT:     -12.6      0.000      0.000
REMARK SMILES CN(C)c1ccc(-c2nnc([C@H]3CC[N@@H+](Cc4ccc(C(=O)NCCCCCCNC(=O)c5ccc(-c6c7nc(c(-c8c(F)cccc8F)c8ccc([nH]8)c(-c8c(F)cccc8F)c8nc(c(-c9c(F)cccc9F)c9ccc6[nH]9)C=C8)C=C7)cc5)cc4)C3)o2)cc1
REMARK SMILES IDX 25 1 24 2 23 3 21 4 22 5 20 7 17 8 18 9 88 10 19 11 87 12
REMARK SMILES IDX 16 13 15 14 12 15 13 16 89 17 14 18 11 20 8 21 9 22 90 23
REMARK SMILES IDX 10 24 7 25 4 26 5 27 92 28 6 29 91 30 2 31 1 32 3 33 26 34
REMARK SMILES IDX 27 35 28 36 29 37 30 38 31 39 32 41 33 42 34 43 86 44 35 45
REMARK SMILES IDX 85 46 36 47 37 48 38 49 79 50 39 51 84 52 78 53 80 54 40 55
REMARK SMILES IDX 83 56 77 57 76 58 41 60 67 61 50 62 66 63 51 64 54 65 65 66
REMARK SMILES IDX 81 67 52 68 53 69 64 71 82 72 55 73 42 74 43 75 48 76 44 77
REMARK SMILES IDX 45 78 47 79 49 80 46 81 68 82 69 83 74 84 70 85 71 86 73 87
REMARK SMILES IDX 75 88 72 89 56 90 57 91 62 92 58 93 59 94 61 95 63 96 60 97
REMARK H PARENT 23 6 15 19 30 40 80 59 54 70
REMARK Flexibility Score: inf
ROOT
ATOM      1  C   UNL A   1      35.137  31.089  27.631  1.00  0.00     0.021 C 
ENDROOT
BRANCH   1   2
ATOM      2  C   UNL A   1      34.556  29.730  27.225  1.00  0.00     0.116 C 
BRANCH   2   3
ATOM      3  N   UNL A   1      33.364  29.868  26.396  1.00  0.00    -0.352 N 
ATOM      4  C   UNL A   1      32.464  28.935  25.932  1.00  0.00     0.251 C 
ATOM      5  O   UNL A   1      31.414  29.325  25.427  1.00  0.00    -0.269 OA
ATOM      6  H   UNL A   1      33.169  30.793  26.117  1.00  0.00     0.163 HD
BRANCH   4   7
ATOM      7  C   UNL A   1      32.705  27.472  26.033  1.00  0.00     0.039 A 
ATOM      8  C   UNL A   1      33.081  24.676  26.216  1.00  0.00     0.006 A 
ATOM      9  C   UNL A   1      31.834  25.250  26.499  1.00  0.00     0.010 A 
ATOM     10  C   UNL A   1      34.104  25.513  25.754  1.00  0.00     0.010 A 
ATOM     11  C   UNL A   1      31.646  26.635  26.402  1.00  0.00     0.014 A 
ATOM     12  C   UNL A   1      33.919  26.899  25.664  1.00  0.00     0.014 A 
BRANCH   8  13
ATOM     13  C   UNL A   1      33.321  23.194  26.428  1.00  0.00     0.299 C 
BRANCH  13  14
ATOM     14  N   UNL A   1      33.222  22.319  25.247  1.00  0.00    -0.330 N 
ATOM     15  C   UNL A   1      33.079  23.131  22.965  1.00  0.00     0.138 C 
ATOM     16  C   UNL A   1      34.538  23.011  23.392  1.00  0.00     0.081 C 
ATOM     17  C   UNL A   1      32.273  22.773  24.218  1.00  0.00     0.276 C 
ATOM     18  C   UNL A   1      34.487  22.045  24.565  1.00  0.00     0.263 C 
ATOM     19  H   UNL A   1      32.879  21.464  25.683  1.00  0.00     0.348 HD
BRANCH  15  20
ATOM     20  C   UNL A   1      32.763  24.446  22.347  1.00  0.00     0.225 A 
ATOM     21  C   UNL A   1      31.787  26.318  22.063  1.00  0.00     0.247 A 
ATOM     22  N   UNL A   1      32.613  26.165  21.047  1.00  0.00    -0.108 NA
ATOM     23  O   UNL A   1      31.824  25.262  22.933  1.00  0.00    -0.420 OA
ATOM     24  N   UNL A   1      33.251  24.959  21.237  1.00  0.00    -0.112 NA
BRANCH  21  25
ATOM     25  C   UNL A   1      30.962  27.468  22.403  1.00  0.00     0.039 A 
ATOM     26  C   UNL A   1      29.053  29.579  22.544  1.00  0.00     0.036 A 
ATOM     27  C   UNL A   1      28.811  28.332  23.124  1.00  0.00     0.027 A 
ATOM     28  C   UNL A   1      30.340  29.788  22.036  1.00  0.00     0.027 A 
ATOM     29  C   UNL A   1      29.726  27.275  23.018  1.00  0.00     0.016 A 
ATOM     30  C   UNL A   1      31.293  28.762  21.999  1.00  0.00     0.016 A 
BRANCH  26  31
ATOM     31  N   UNL A   1      28.089  30.572  22.427  1.00  0.00    -0.378 N 
ATOM     32  C   UNL A   1      27.658  31.203  23.678  1.00  0.00     0.143 C 
ATOM     33  C   UNL A   1      28.023  31.430  21.252  1.00  0.00     0.143 C 
ENDBRANCH  26  31
ENDBRANCH  21  25
ENDBRANCH  15  20
ENDBRANCH  13  14
ENDBRANCH   8  13
ENDBRANCH   4   7
ENDBRANCH   2   3
ENDBRANCH   1   2
BRANCH   1  34
ATOM     34  C   UNL A   1      34.168  32.063  28.317  1.00  0.00     0.002 C 
BRANCH  34  35
ATOM     35  C   UNL A   1      34.766  33.380  28.838  1.00  0.00     0.002 C 
BRANCH  35  36
ATOM     36  C   UNL A   1      34.689  33.648  30.351  1.00  0.00     0.021 C 
BRANCH  36  37
ATOM     37  C   UNL A   1      34.558  32.429  31.274  1.00  0.00     0.116 C 
BRANCH  37  38
ATOM     38  N   UNL A   1      35.095  32.640  32.612  1.00  0.00    -0.352 N 
ATOM     39  C   UNL A   1      36.321  32.326  33.161  1.00  0.00     0.251 C 
ATOM     40  H   UNL A   1      34.474  33.085  33.232  1.00  0.00     0.163 HD
ATOM     41  O   UNL A   1      36.506  32.539  34.357  1.00  0.00    -0.269 OA
BRANCH  39  42
ATOM     42  C   UNL A   1      37.431  31.729  32.366  1.00  0.00     0.039 A 
ATOM     43  C   UNL A   1      37.413  31.836  30.971  1.00  0.00     0.014 A 
ATOM     44  C   UNL A   1      38.450  30.988  32.959  1.00  0.00     0.014 A 
ATOM     45  C   UNL A   1      38.445  31.280  30.197  1.00  0.00     0.010 A 
ATOM     46  C   UNL A   1      39.508  30.467  32.200  1.00  0.00     0.010 A 
ATOM     47  C   UNL A   1      39.524  30.620  30.808  1.00  0.00    -0.014 A 
BRANCH  47  48
ATOM     48  C   UNL A   1      40.699  30.165  30.011  1.00  0.00     0.031 A 
ATOM     49  C   UNL A   1      41.836  31.089  29.672  1.00  0.00     0.074 A 
ATOM     50  C   UNL A   1      40.711  28.907  29.527  1.00  0.00     0.049 A 
ATOM     51  N   UNL A   1      42.935  30.835  29.003  1.00  0.00    -0.248 NA
ATOM     52  C   UNL A   1      41.719  32.482  30.125  1.00  0.00     0.031 C 
ATOM     53  C   UNL A   1      39.646  27.922  29.718  1.00  0.00     0.029 A 
ATOM     54  N   UNL A   1      41.643  28.247  28.765  1.00  0.00    -0.354 N 
ATOM     55  C   UNL A   1      43.644  32.029  28.961  1.00  0.00     0.074 A 
ATOM     56  C   UNL A   1      42.827  33.021  29.633  1.00  0.00     0.031 C 
ATOM     57  C   UNL A   1      39.989  26.781  29.097  1.00  0.00     0.029 A 
ATOM     58  C   UNL A   1      41.288  26.957  28.454  1.00  0.00     0.049 A 
ATOM     59  H   UNL A   1      42.488  28.659  28.469  1.00  0.00     0.167 HD
ATOM     60  C   UNL A   1      44.869  32.274  28.431  1.00  0.00     0.037 A 
ATOM     61  C   UNL A   1      41.931  26.015  27.739  1.00  0.00     0.037 A 
ATOM     62  C   UNL A   1      45.689  31.293  27.765  1.00  0.00     0.049 A 
ATOM     63  C   UNL A   1      43.287  26.309  27.163  1.00  0.00     0.074 A 
ATOM     64  C   UNL A   1      46.975  31.436  27.268  1.00  0.00     0.029 A 
ATOM     65  N   UNL A   1      45.301  29.992  27.489  1.00  0.00    -0.354 N 
ATOM     66  N   UNL A   1      43.989  27.413  27.225  1.00  0.00    -0.248 NA
ATOM     67  C   UNL A   1      43.946  25.218  26.429  1.00  0.00     0.031 C 
ATOM     68  C   UNL A   1      47.349  30.234  26.656  1.00  0.00     0.029 A 
ATOM     69  C   UNL A   1      46.312  29.329  26.807  1.00  0.00     0.049 A 
ATOM     70  H   UNL A   1      44.436  29.595  27.740  1.00  0.00     0.167 HD
ATOM     71  C   UNL A   1      45.181  27.141  26.567  1.00  0.00     0.074 A 
ATOM     72  C   UNL A   1      45.112  25.768  26.118  1.00  0.00     0.031 C 
ATOM     73  C   UNL A   1      46.241  27.962  26.361  1.00  0.00     0.037 A 
BRANCH  60  74
ATOM     74  C   UNL A   1      45.415  33.668  28.560  1.00  0.00     0.057 A 
ATOM     75  C   UNL A   1      45.112  34.662  27.621  1.00  0.00     0.134 A 
ATOM     76  C   UNL A   1      46.191  34.037  29.665  1.00  0.00     0.134 A 
ATOM     77  F   UNL A   1      44.374  34.374  26.539  1.00  0.00    -0.206 F 
ATOM     78  C   UNL A   1      45.582  35.970  27.765  1.00  0.00     0.040 A 
ATOM     79  C   UNL A   1      46.648  35.346  29.831  1.00  0.00     0.040 A 
ATOM     80  F   UNL A   1      46.506  33.137  30.609  1.00  0.00    -0.206 F 
ATOM     81  C   UNL A   1      46.347  36.316  28.877  1.00  0.00     0.006 A 
ENDBRANCH  60  74
BRANCH  61  82
ATOM     82  C   UNL A   1      41.312  24.680  27.563  1.00  0.00     0.057 A 
ATOM     83  C   UNL A   1      41.744  23.582  28.314  1.00  0.00     0.134 A 
ATOM     84  C   UNL A   1      40.271  24.473  26.650  1.00  0.00     0.134 A 
ATOM     85  F   UNL A   1      42.751  23.719  29.189  1.00  0.00    -0.206 F 
ATOM     86  C   UNL A   1      41.170  22.321  28.158  1.00  0.00     0.040 A 
ATOM     87  C   UNL A   1      39.675  23.221  26.498  1.00  0.00     0.040 A 
ATOM     88  F   UNL A   1      39.812  25.489  25.905  1.00  0.00    -0.206 F 
ATOM     89  C   UNL A   1      40.128  22.139  27.251  1.00  0.00     0.006 A 
ENDBRANCH  61  82
BRANCH  73  90
ATOM     90  C   UNL A   1      47.425  27.386  25.642  1.00  0.00     0.057 A 
ATOM     91  C   UNL A   1      47.547  27.456  24.249  1.00  0.00     0.134 A 
ATOM     92  C   UNL A   1      48.466  26.778  26.355  1.00  0.00     0.134 A 
ATOM     93  F   UNL A   1      46.578  28.013  23.508  1.00  0.00    -0.206 F 
ATOM     94  C   UNL A   1      48.655  26.922  23.587  1.00  0.00     0.040 A 
ATOM     95  C   UNL A   1      49.588  26.260  25.706  1.00  0.00     0.040 A 
ATOM     96  F   UNL A   1      48.412  26.682  27.692  1.00  0.00    -0.206 F 
ATOM     97  C   UNL A   1      49.682  26.326  24.318  1.00  0.00     0.006 A 
ENDBRANCH  73  90
ENDBRANCH  47  48
ENDBRANCH  39  42
ENDBRANCH  37  38
ENDBRANCH  36  37
ENDBRANCH  35  36
ENDBRANCH  34  35
ENDBRANCH   1  34
TORSDOF 18
ENDMDL
MODEL 2
REMARK VINA RESULT:     -12.5      4.746      9.868
REMARK SMILES CN(C)c1ccc(-c2nnc([C@H]3CC[N@@H+](Cc4ccc(C(=O)NCCCCCCNC(=O)c5ccc(-c6c7nc(c(-c8c(F)cccc8F)c8ccc([nH]8)c(-c8c(F)cccc8F)c8nc(c(-c9c(F)cccc9F)c9ccc6[nH]9)C=C8)C=C7)cc5)cc4)C3)o2)cc1
REMARK SMILES IDX 25 1 24 2 23 3 21 4 22 5 20 7 17 8 18 9 88 10 19 11 87 12
REMARK SMILES IDX 16 13 15 14 12 15 13 16 89 17 14 18 11 20 8 21 9 22 90 23
REMARK SMILES IDX 10 24 7 25 4 26 5 27 92 28 6 29 91 30 2 31 1 32 3 33 26 34
REMARK SMILES IDX 27 35 28 36 29 37 30 38 31 39 32 41 33 42 34 43 86 44 35 45
REMARK SMILES IDX 85 46 36 47 37 48 38 49 79 50 39 51 84 52 78 53 80 54 40 55
REMARK SMILES IDX 83 56 77 57 76 58 41 60 67 61 50 62 66 63 51 64 54 65 65 66
REMARK SMILES IDX 81 67 52 68 53 69 64 71 82 72 55 73 42 74 43 75 48 76 44 77
REMARK SMILES IDX 45 78 47 79 49 80 46 81 68 82 69 83 74 84 70 85 71 86 73 87
REMARK SMILES IDX 75 88 72 89 56 90 57 91 62 92 58 93 59 94 61 95 63 96 60 97
REMARK H PARENT 23 6 15 19 30 40 80 59 54 70
REMARK Flexibility Score: inf
ROOT
ATOM      1  C   UNL A   1      34.621  23.391  22.977  1.00  0.00     0.021 C 
ENDROOT
BRANCH   1   2
ATOM      2  C   UNL A   1      33.155  23.374  22.533  1.00  0.00     0.116 C 
BRANCH   2   3
ATOM      3  N   UNL A   1      32.975  23.964  21.211  1.00  0.00    -0.352 N 
ATOM      4  C   UNL A   1      32.820  25.272  20.811  1.00  0.00     0.251 C 
ATOM      5  O   UNL A   1      32.902  25.540  19.614  1.00  0.00    -0.269 OA
ATOM      6  H   UNL A   1      32.962  23.311  20.474  1.00  0.00     0.163 HD
BRANCH   4   7
ATOM      7  C   UNL A   1      32.572  26.378  21.771  1.00  0.00     0.039 A 
ATOM      8  C   UNL A   1      32.159  28.527  23.562  1.00  0.00     0.006 A 
ATOM      9  C   UNL A   1      33.370  28.397  22.868  1.00  0.00     0.010 A 
ATOM     10  C   UNL A   1      31.132  27.621  23.274  1.00  0.00     0.010 A 
ATOM     11  C   UNL A   1      33.573  27.335  21.976  1.00  0.00     0.014 A 
ATOM     12  C   UNL A   1      31.336  26.555  22.388  1.00  0.00     0.014 A 
BRANCH   8  13
ATOM     13  C   UNL A   1      31.977  29.607  24.610  1.00  0.00     0.299 C 
BRANCH  13  14
ATOM     14  N   UNL A   1      32.406  29.292  25.984  1.00  0.00    -0.330 N 
ATOM     15  C   UNL A   1      32.438  27.053  26.916  1.00  0.00     0.138 C 
ATOM     16  C   UNL A   1      33.741  27.336  26.178  1.00  0.00     0.081 C 
ATOM     17  C   UNL A   1      31.575  28.297  26.680  1.00  0.00     0.276 C 
ATOM     18  C   UNL A   1      33.795  28.854  26.120  1.00  0.00     0.263 C 
ATOM     19  H   UNL A   1      32.294  30.206  26.423  1.00  0.00     0.348 HD
BRANCH  15  20
ATOM     20  C   UNL A   1      31.821  25.756  26.529  1.00  0.00     0.225 A 
ATOM     21  C   UNL A   1      31.707  23.694  26.009  1.00  0.00     0.247 A 
ATOM     22  N   UNL A   1      30.491  24.184  25.877  1.00  0.00    -0.108 NA
ATOM     23  O   UNL A   1      32.611  24.637  26.419  1.00  0.00    -0.420 OA
ATOM     24  N   UNL A   1      30.563  25.516  26.223  1.00  0.00    -0.112 NA
BRANCH  21  25
ATOM     25  C   UNL A   1      32.154  22.315  25.878  1.00  0.00     0.039 A 
ATOM     26  C   UNL A   1      33.428  19.854  25.216  1.00  0.00     0.036 A 
ATOM     27  C   UNL A   1      33.879  20.652  26.269  1.00  0.00     0.027 A 
ATOM     28  C   UNL A   1      32.227  20.242  24.612  1.00  0.00     0.027 A 
ATOM     29  C   UNL A   1      33.286  21.886  26.570  1.00  0.00     0.016 A 
ATOM     30  C   UNL A   1      31.579  21.433  24.962  1.00  0.00     0.016 A 
BRANCH  26  31
ATOM     31  N   UNL A   1      34.119  18.746  24.740  1.00  0.00    -0.378 N 
ATOM     32  C   UNL A   1      35.581  18.862  24.713  1.00  0.00     0.143 C 
ATOM     33  C   UNL A   1      33.614  17.395  24.937  1.00  0.00     0.143 C 
ENDBRANCH  26  31
ENDBRANCH  21  25
ENDBRANCH  15  20
ENDBRANCH  13  14
ENDBRANCH   8  13
ENDBRANCH   4   7
ENDBRANCH   2   3
ENDBRANCH   1   2
BRANCH   1  34
ATOM     34  C   UNL A   1      35.011  24.480  23.988  1.00  0.00     0.002 C 
BRANCH  34  35
ATOM     35  C   UNL A   1      35.778  24.019  25.238  1.00  0.00     0.002 C 
BRANCH  35  36
ATOM     36  C   UNL A   1      37.262  23.651  25.068  1.00  0.00     0.021 C 
BRANCH  36  37
ATOM     37  C   UNL A   1      38.147  23.706  26.320  1.00  0.00     0.116 C 
BRANCH  37  38
ATOM     38  N   UNL A   1      39.575  23.647  26.037  1.00  0.00    -0.352 N 
ATOM     39  C   UNL A   1      40.620  24.446  26.455  1.00  0.00     0.251 C 
ATOM     40  H   UNL A   1      39.841  22.909  25.443  1.00  0.00     0.163 HD
ATOM     41  O   UNL A   1      41.743  24.234  26.004  1.00  0.00    -0.269 OA
BRANCH  39  42
ATOM     42  C   UNL A   1      40.442  25.562  27.425  1.00  0.00     0.039 A 
ATOM     43  C   UNL A   1      39.535  25.418  28.481  1.00  0.00     0.014 A 
ATOM     44  C   UNL A   1      41.088  26.787  27.270  1.00  0.00     0.014 A 
ATOM     45  C   UNL A   1      39.347  26.456  29.409  1.00  0.00     0.010 A 
ATOM     46  C   UNL A   1      40.940  27.813  28.215  1.00  0.00     0.010 A 
ATOM     47  C   UNL A   1      40.075  27.653  29.305  1.00  0.00    -0.014 A 
BRANCH  47  48
ATOM     48  C   UNL A   1      40.000  28.695  30.368  1.00  0.00     0.031 A 
ATOM     49  C   UNL A   1      39.020  29.834  30.297  1.00  0.00     0.074 A 
ATOM     50  C   UNL A   1      40.879  28.649  31.389  1.00  0.00     0.049 A 
ATOM     51  N   UNL A   1      38.823  30.808  31.154  1.00  0.00    -0.248 NA
ATOM     52  C   UNL A   1      38.164  29.902  29.106  1.00  0.00     0.031 C 
ATOM     53  C   UNL A   1      41.928  27.643  31.552  1.00  0.00     0.029 A 
ATOM     54  N   UNL A   1      41.039  29.476  32.474  1.00  0.00    -0.354 N 
ATOM     55  C   UNL A   1      37.818  31.599  30.612  1.00  0.00     0.074 A 
ATOM     56  C   UNL A   1      37.478  31.016  29.328  1.00  0.00     0.031 C 
ATOM     57  C   UNL A   1      42.617  27.905  32.674  1.00  0.00     0.029 A 
ATOM     58  C   UNL A   1      42.069  29.104  33.302  1.00  0.00     0.049 A 
ATOM     59  H   UNL A   1      40.469  30.261  32.643  1.00  0.00     0.167 HD
ATOM     60  C   UNL A   1      37.219  32.696  31.141  1.00  0.00     0.037 A 
ATOM     61  C   UNL A   1      42.524  29.657  34.443  1.00  0.00     0.037 A 
ATOM     62  C   UNL A   1      37.548  33.278  32.418  1.00  0.00     0.049 A 
ATOM     63  C   UNL A   1      41.844  30.870  35.010  1.00  0.00     0.074 A 
ATOM     64  C   UNL A   1      36.939  34.342  33.065  1.00  0.00     0.029 A 
ATOM     65  N   UNL A   1      38.585  32.859  33.237  1.00  0.00    -0.354 N 
ATOM     66  N   UNL A   1      40.824  31.541  34.537  1.00  0.00    -0.248 NA
ATOM     67  C   UNL A   1      42.370  31.392  36.281  1.00  0.00     0.031 C 
ATOM     68  C   UNL A   1      37.631  34.591  34.255  1.00  0.00     0.029 A 
ATOM     69  C   UNL A   1      38.648  33.657  34.370  1.00  0.00     0.049 A 
ATOM     70  H   UNL A   1      39.188  32.106  33.044  1.00  0.00     0.167 HD
ATOM     71  C   UNL A   1      40.568  32.544  35.462  1.00  0.00     0.074 A 
ATOM     72  C   UNL A   1      41.535  32.391  36.528  1.00  0.00     0.031 C 
ATOM     73  C   UNL A   1      39.610  33.503  35.430  1.00  0.00     0.037 A 
BRANCH  60  74
ATOM     74  C   UNL A   1      36.123  33.341  30.342  1.00  0.00     0.057 A 
ATOM     75  C   UNL A   1      36.404  34.144  29.229  1.00  0.00     0.134 A 
ATOM     76  C   UNL A   1      34.776  33.103  30.644  1.00  0.00     0.134 A 
ATOM     77  F   UNL A   1      37.673  34.412  28.886  1.00  0.00    -0.206 F 
ATOM     78  C   UNL A   1      35.384  34.707  28.458  1.00  0.00     0.040 A 
ATOM     79  C   UNL A   1      33.748  33.642  29.868  1.00  0.00     0.040 A 
ATOM     80  F   UNL A   1      34.438  32.331  31.688  1.00  0.00    -0.206 F 
ATOM     81  C   UNL A   1      34.051  34.450  28.774  1.00  0.00     0.006 A 
ENDBRANCH  60  74
BRANCH  61  82
ATOM     82  C   UNL A   1      43.668  29.035  35.152  1.00  0.00     0.057 A 
ATOM     83  C   UNL A   1      43.461  28.072  36.146  1.00  0.00     0.134 A 
ATOM     84  C   UNL A   1      44.990  29.380  34.847  1.00  0.00     0.134 A 
ATOM     85  F   UNL A   1      42.215  27.718  36.491  1.00  0.00    -0.206 F 
ATOM     86  C   UNL A   1      44.528  27.479  36.820  1.00  0.00     0.040 A 
ATOM     87  C   UNL A   1      46.068  28.780  35.500  1.00  0.00     0.040 A 
ATOM     88  F   UNL A   1      45.251  30.293  33.901  1.00  0.00    -0.206 F 
ATOM     89  C   UNL A   1      45.837  27.830  36.493  1.00  0.00     0.006 A 
ENDBRANCH  61  82
BRANCH  73  90
ATOM     90  C   UNL A   1      39.541  34.445  36.595  1.00  0.00     0.057 A 
ATOM     91  C   UNL A   1      38.878  34.105  37.780  1.00  0.00     0.134 A 
ATOM     92  C   UNL A   1      40.167  35.696  36.539  1.00  0.00     0.134 A 
ATOM     93  F   UNL A   1      38.246  32.927  37.893  1.00  0.00    -0.206 F 
ATOM     94  C   UNL A   1      38.823  34.985  38.863  1.00  0.00     0.040 A 
ATOM     95  C   UNL A   1      40.137  36.577  37.622  1.00  0.00     0.040 A 
ATOM     96  F   UNL A   1      40.823  36.082  35.434  1.00  0.00    -0.206 F 
ATOM     97  C   UNL A   1      39.459  36.224  38.787  1.00  0.00     0.006 A 
ENDBRANCH  73  90
ENDBRANCH  47  48
ENDBRANCH  39  42
ENDBRANCH  37  38
ENDBRANCH  36  37
ENDBRANCH  35  36
ENDBRANCH  34  35
ENDBRANCH   1  34
TORSDOF 18
ENDMDL
MODEL 3
REMARK VINA RESULT:     -12.4      2.849      8.360
REMARK SMILES CN(C)c1ccc(-c2nnc([C@H]3CC[N@@H+](Cc4ccc(C(=O)NCCCCCCNC(=O)c5ccc(-c6c7nc(c(-c8c(F)cccc8F)c8ccc([nH]8)c(-c8c(F)cccc8F)c8nc(c(-c9c(F)cccc9F)c9ccc6[nH]9)C=C8)C=C7)cc5)cc4)C3)o2)cc1
REMARK SMILES IDX 25 1 24 2 23 3 21 4 22 5 20 7 17 8 18 9 88 10 19 11 87 12
REMARK SMILES IDX 16 13 15 14 12 15 13 16 89 17 14 18 11 20 8 21 9 22 90 23
REMARK SMILES IDX 10 24 7 25 4 26 5 27 92 28 6 29 91 30 2 31 1 32 3 33 26 34
REMARK SMILES IDX 27 35 28 36 29 37 30 38 31 39 32 41 33 42 34 43 86 44 35 45
REMARK SMILES IDX 85 46 36 47 37 48 38 49 79 50 39 51 84 52 78 53 80 54 40 55
REMARK SMILES IDX 83 56 77 57 76 58 41 60 67 61 50 62 66 63 51 64 54 65 65 66
REMARK SMILES IDX 81 67 52 68 53 69 64 71 82 72 55 73 42 74 43 75 48 76 44 77
REMARK SMILES IDX 45 78 47 79 49 80 46 81 68 82 69 83 74 84 70 85 71 86 73 87
REMARK SMILES IDX 75 88 72 89 56 90 57 91 62 92 58 93 59 94 61 95 63 96 60 97
REMARK H PARENT 23 6 15 19 30 40 80 59 54 70
REMARK Flexibility Score: inf
ROOT
ATOM      1  C   UNL A   1      34.118  23.128  23.167  1.00  0.00     0.021 C 
ENDROOT
BRANCH   1   2
ATOM      2  C   UNL A   1      32.711  23.405  22.626  1.00  0.00     0.116 C 
BRANCH   2   3
ATOM      3  N   UNL A   1      32.743  24.003  21.296  1.00  0.00    -0.352 N 
ATOM      4  C   UNL A   1      32.769  25.319  20.889  1.00  0.00     0.251 C 
ATOM      5  O   UNL A   1      33.012  25.570  19.711  1.00  0.00    -0.269 OA
ATOM      6  H   UNL A   1      32.745  23.351  20.558  1.00  0.00     0.163 HD
BRANCH   4   7
ATOM      7  C   UNL A   1      32.529  26.450  21.822  1.00  0.00     0.039 A 
ATOM      8  C   UNL A   1      32.129  28.647  23.556  1.00  0.00     0.006 A 
ATOM      9  C   UNL A   1      33.307  28.534  22.805  1.00  0.00     0.010 A 
ATOM     10  C   UNL A   1      31.123  27.695  23.354  1.00  0.00     0.010 A 
ATOM     11  C   UNL A   1      33.503  27.448  21.941  1.00  0.00     0.014 A 
ATOM     12  C   UNL A   1      31.321  26.605  22.496  1.00  0.00     0.014 A 
BRANCH   8  13
ATOM     13  C   UNL A   1      31.960  29.757  24.575  1.00  0.00     0.299 C 
BRANCH  13  14
ATOM     14  N   UNL A   1      32.518  29.529  25.919  1.00  0.00    -0.330 N 
ATOM     15  C   UNL A   1      32.597  27.362  27.006  1.00  0.00     0.138 C 
ATOM     16  C   UNL A   1      33.826  27.555  26.124  1.00  0.00     0.081 C 
ATOM     17  C   UNL A   1      31.741  28.610  26.765  1.00  0.00     0.276 C 
ATOM     18  C   UNL A   1      33.905  29.064  25.949  1.00  0.00     0.263 C 
ATOM     19  H   UNL A   1      32.469  30.475  26.298  1.00  0.00     0.348 HD
BRANCH  15  20
ATOM     20  C   UNL A   1      31.919  26.058  26.778  1.00  0.00     0.225 A 
ATOM     21  C   UNL A   1      31.710  23.981  26.358  1.00  0.00     0.247 A 
ATOM     22  N   UNL A   1      30.490  24.477  26.422  1.00  0.00    -0.108 NA
ATOM     23  O   UNL A   1      32.674  24.929  26.572  1.00  0.00    -0.420 OA
ATOM     24  N   UNL A   1      30.626  25.819  26.703  1.00  0.00    -0.112 NA
BRANCH  21  25
ATOM     25  C   UNL A   1      32.123  22.594  26.201  1.00  0.00     0.039 A 
ATOM     26  C   UNL A   1      33.300  20.109  25.455  1.00  0.00     0.036 A 
ATOM     27  C   UNL A   1      33.848  20.905  26.463  1.00  0.00     0.027 A 
ATOM     28  C   UNL A   1      32.061  20.513  24.947  1.00  0.00     0.027 A 
ATOM     29  C   UNL A   1      33.300  22.151  26.803  1.00  0.00     0.016 A 
ATOM     30  C   UNL A   1      31.461  21.717  25.340  1.00  0.00     0.016 A 
BRANCH  26  31
ATOM     31  N   UNL A   1      33.934  18.988  24.932  1.00  0.00    -0.378 N 
ATOM     32  C   UNL A   1      33.142  18.174  24.004  1.00  0.00     0.143 C 
ATOM     33  C   UNL A   1      35.370  18.972  24.690  1.00  0.00     0.143 C 
ENDBRANCH  26  31
ENDBRANCH  21  25
ENDBRANCH  15  20
ENDBRANCH  13  14
ENDBRANCH   8  13
ENDBRANCH   4   7
ENDBRANCH   2   3
ENDBRANCH   1   2
BRANCH   1  34
ATOM     34  C   UNL A   1      34.897  24.346  23.685  1.00  0.00     0.002 C 
BRANCH  34  35
ATOM     35  C   UNL A   1      35.717  24.145  24.970  1.00  0.00     0.002 C 
BRANCH  35  36
ATOM     36  C   UNL A   1      36.945  23.221  24.894  1.00  0.00     0.021 C 
BRANCH  36  37
ATOM     37  C   UNL A   1      37.379  22.523  26.190  1.00  0.00     0.116 C 
BRANCH  37  38
ATOM     38  N   UNL A   1      38.676  21.865  26.100  1.00  0.00    -0.352 N 
ATOM     39  C   UNL A   1      39.954  22.336  26.322  1.00  0.00     0.251 C 
ATOM     40  H   UNL A   1      38.633  20.918  25.835  1.00  0.00     0.163 HD
ATOM     41  O   UNL A   1      40.906  21.593  26.097  1.00  0.00    -0.269 OA
BRANCH  39  42
ATOM     42  C   UNL A   1      40.230  23.715  26.815  1.00  0.00     0.039 A 
ATOM     43  C   UNL A   1      40.567  23.910  28.159  1.00  0.00     0.014 A 
ATOM     44  C   UNL A   1      40.080  24.836  26.001  1.00  0.00     0.014 A 
ATOM     45  C   UNL A   1      40.830  25.200  28.650  1.00  0.00     0.010 A 
ATOM     46  C   UNL A   1      40.382  26.122  26.470  1.00  0.00     0.010 A 
ATOM     47  C   UNL A   1      40.774  26.317  27.800  1.00  0.00    -0.014 A 
BRANCH  47  48
ATOM     48  C   UNL A   1      41.202  27.665  28.271  1.00  0.00     0.031 A 
ATOM     49  C   UNL A   1      42.650  28.071  28.311  1.00  0.00     0.074 A 
ATOM     50  C   UNL A   1      40.269  28.520  28.735  1.00  0.00     0.049 A 
ATOM     51  N   UNL A   1      43.177  29.215  28.679  1.00  0.00    -0.248 NA
ATOM     52  C   UNL A   1      43.636  27.061  27.904  1.00  0.00     0.031 C 
ATOM     53  C   UNL A   1      38.836  28.237  28.820  1.00  0.00     0.029 A 
ATOM     54  N   UNL A   1      40.387  29.794  29.235  1.00  0.00    -0.354 N 
ATOM     55  C   UNL A   1      44.551  29.067  28.540  1.00  0.00     0.074 A 
ATOM     56  C   UNL A   1      44.780  27.705  28.099  1.00  0.00     0.031 C 
ATOM     57  C   UNL A   1      38.208  29.307  29.332  1.00  0.00     0.029 A 
ATOM     58  C   UNL A   1      39.191  30.346  29.624  1.00  0.00     0.049 A 
ATOM     59  H   UNL A   1      41.248  30.268  29.307  1.00  0.00     0.167 HD
ATOM     60  C   UNL A   1      45.531  29.984  28.742  1.00  0.00     0.037 A 
ATOM     61  C   UNL A   1      38.910  31.552  30.152  1.00  0.00     0.037 A 
ATOM     62  C   UNL A   1      45.311  31.341  29.176  1.00  0.00     0.049 A 
ATOM     63  C   UNL A   1      40.011  32.552  30.364  1.00  0.00     0.074 A 
ATOM     64  C   UNL A   1      46.239  32.359  29.331  1.00  0.00     0.029 A 
ATOM     65  N   UNL A   1      44.082  31.868  29.541  1.00  0.00    -0.354 N 
ATOM     66  N   UNL A   1      41.293  32.431  30.127  1.00  0.00    -0.248 NA
ATOM     67  C   UNL A   1      39.621  33.863  30.905  1.00  0.00     0.031 C 
ATOM     68  C   UNL A   1      45.578  33.489  29.826  1.00  0.00     0.029 A 
ATOM     69  C   UNL A   1      44.232  33.188  29.942  1.00  0.00     0.049 A 
ATOM     70  H   UNL A   1      43.229  31.379  29.518  1.00  0.00     0.167 HD
ATOM     71  C   UNL A   1      41.857  33.654  30.460  1.00  0.00     0.074 A 
ATOM     72  C   UNL A   1      40.779  34.507  30.910  1.00  0.00     0.031 C 
ATOM     73  C   UNL A   1      43.157  34.035  30.390  1.00  0.00     0.037 A 
BRANCH  60  74
ATOM     74  C   UNL A   1      46.947  29.556  28.480  1.00  0.00     0.057 A 
ATOM     75  C   UNL A   1      47.536  29.709  27.219  1.00  0.00     0.134 A 
ATOM     76  C   UNL A   1      47.749  29.051  29.511  1.00  0.00     0.134 A 
ATOM     77  F   UNL A   1      46.822  30.186  26.188  1.00  0.00    -0.206 F 
ATOM     78  C   UNL A   1      48.867  29.353  26.986  1.00  0.00     0.040 A 
ATOM     79  C   UNL A   1      49.086  28.713  29.296  1.00  0.00     0.040 A 
ATOM     80  F   UNL A   1      47.251  28.893  30.747  1.00  0.00    -0.206 F 
ATOM     81  C   UNL A   1      49.647  28.860  28.029  1.00  0.00     0.006 A 
ENDBRANCH  60  74
BRANCH  61  82
ATOM     82  C   UNL A   1      37.505  31.898  30.478  1.00  0.00     0.057 A 
ATOM     83  C   UNL A   1      36.679  32.515  29.533  1.00  0.00     0.134 A 
ATOM     84  C   UNL A   1      36.957  31.614  31.734  1.00  0.00     0.134 A 
ATOM     85  F   UNL A   1      37.158  32.828  28.320  1.00  0.00    -0.206 F 
ATOM     86  C   UNL A   1      35.356  32.845  29.827  1.00  0.00     0.040 A 
ATOM     87  C   UNL A   1      35.630  31.921  32.035  1.00  0.00     0.040 A 
ATOM     88  F   UNL A   1      37.700  31.020  32.679  1.00  0.00    -0.206 F 
ATOM     89  C   UNL A   1      34.827  32.543  31.081  1.00  0.00     0.006 A 
ENDBRANCH  61  82
BRANCH  73  90
ATOM     90  C   UNL A   1      43.481  35.446  30.785  1.00  0.00     0.057 A 
ATOM     91  C   UNL A   1      43.774  35.793  32.108  1.00  0.00     0.134 A 
ATOM     92  C   UNL A   1      43.524  36.463  29.823  1.00  0.00     0.134 A 
ATOM     93  F   UNL A   1      43.737  34.868  33.079  1.00  0.00    -0.206 F 
ATOM     94  C   UNL A   1      44.080  37.108  32.467  1.00  0.00     0.040 A 
ATOM     95  C   UNL A   1      43.849  37.777  30.165  1.00  0.00     0.040 A 
ATOM     96  F   UNL A   1      43.256  36.196  28.535  1.00  0.00    -0.206 F 
ATOM     97  C   UNL A   1      44.123  38.103  31.491  1.00  0.00     0.006 A 
ENDBRANCH  73  90
ENDBRANCH  47  48
ENDBRANCH  39  42
ENDBRANCH  37  38
ENDBRANCH  36  37
ENDBRANCH  35  36
ENDBRANCH  34  35
ENDBRANCH   1  34
TORSDOF 18
ENDMDL
