MODEL 1
REMARK VINA RESULT:     -12.1      0.000      0.000
REMARK SMILES Cc1ccc(C(=O)N2CCCC[C@@H]2C(=O)NCCCCCCNC(=O)c2ccc(-c3c4nc(c(-c5c(F)cccc5F)c5ccc([nH]5)c(-c5c(F)cccc5F)c5nc(c(-c6c(F)cccc6F)c6ccc3[nH]6)C=C5)C=C4)cc2)cc1S(=O)(=O)N1CCCCC1
REMARK SMILES IDX 18 1 17 2 16 3 14 4 15 5 13 7 8 8 9 9 10 10 12 11 11 12 6 13
REMARK SMILES IDX 7 14 5 15 1 16 2 17 3 18 81 19 4 20 80 21 82 22 83 23 84 24
REMARK SMILES IDX 85 25 86 26 90 27 87 28 89 29 88 30 19 31 20 32 21 33 22 34
REMARK SMILES IDX 23 35 24 36 25 38 26 39 27 40 79 41 28 42 78 43 29 44 30 45
REMARK SMILES IDX 31 46 72 47 32 48 77 49 71 50 73 51 33 52 76 53 70 54 69 55
REMARK SMILES IDX 34 57 60 58 43 59 59 60 44 61 47 62 58 63 74 64 45 65 46 66
REMARK SMILES IDX 57 68 75 69 48 70 35 71 36 72 41 73 37 74 38 75 40 76 42 77
REMARK SMILES IDX 39 78 61 79 62 80 67 81 63 82 64 83 66 84 68 85 65 86 49 87
REMARK SMILES IDX 50 88 55 89 51 90 52 91 54 92 56 93 53 94
REMARK H PARENT 16 6 23 37 73 56 47 67
REMARK Flexibility Score: inf
ROOT
ATOM      1  C   UNL A   1      33.941  30.155  27.268  1.00  0.00     0.021 C 
ENDROOT
BRANCH   1   2
ATOM      2  C   UNL A   1      33.491  28.695  27.195  1.00  0.00     0.116 C 
BRANCH   2   3
ATOM      3  N   UNL A   1      34.027  28.074  26.002  1.00  0.00    -0.354 N 
ATOM      4  C   UNL A   1      33.401  27.750  24.838  1.00  0.00     0.242 C 
ATOM      5  O   UNL A   1      33.988  26.978  24.077  1.00  0.00    -0.273 OA
ATOM      6  H   UNL A   1      34.986  27.852  26.039  1.00  0.00     0.163 HD
BRANCH   4   7
ATOM      7  C   UNL A   1      31.969  28.243  24.529  1.00  0.00     0.174 C 
ATOM      8  N   UNL A   1      30.943  27.165  24.510  1.00  0.00    -0.327 N 
ATOM      9  C   UNL A   1      29.652  27.505  23.925  1.00  0.00     0.120 C 
ATOM     10  C   UNL A   1      29.781  28.111  22.544  1.00  0.00     0.022 C 
ATOM     11  C   UNL A   1      32.038  29.004  23.182  1.00  0.00     0.035 C 
ATOM     12  C   UNL A   1      30.673  29.341  22.592  1.00  0.00     0.004 C 
BRANCH   8  13
ATOM     13  C   UNL A   1      30.924  26.027  25.323  1.00  0.00     0.254 C 
ATOM     14  O   UNL A   1      30.517  26.069  26.485  1.00  0.00    -0.269 OA
BRANCH  13  15
ATOM     15  C   UNL A   1      31.425  24.722  24.838  1.00  0.00     0.041 A 
ATOM     16  C   UNL A   1      32.310  20.743  23.450  1.00  0.00     0.046 C 
ATOM     17  C   UNL A   1      32.140  22.108  24.029  1.00  0.00    -0.031 A 
ATOM     18  C   UNL A   1      31.232  22.901  23.285  1.00  0.00     0.005 A 
ATOM     19  C   UNL A   1      32.714  22.660  25.188  1.00  0.00     0.086 A 
ATOM     20  C   UNL A   1      30.878  24.188  23.678  1.00  0.00     0.014 A 
ATOM     21  C   UNL A   1      32.313  23.956  25.591  1.00  0.00     0.035 A 
BRANCH  19  22
ATOM     22  S   UNL A   1      33.928  21.986  26.337  1.00  0.00     0.243 S 
ATOM     23  O   UNL A   1      33.910  22.878  27.484  1.00  0.00    -0.207 OA
ATOM     24  O   UNL A   1      33.565  20.594  26.490  1.00  0.00    -0.207 OA
BRANCH  22  25
ATOM     25  N   UNL A   1      35.497  22.019  25.708  1.00  0.00    -0.198 NA
ATOM     26  C   UNL A   1      36.314  23.196  26.058  1.00  0.00     0.102 C 
ATOM     27  C   UNL A   1      36.084  20.723  25.314  1.00  0.00     0.102 C 
ATOM     28  C   UNL A   1      37.730  23.165  25.510  1.00  0.00     0.017 C 
ATOM     29  C   UNL A   1      37.526  20.796  24.835  1.00  0.00     0.017 C 
ATOM     30  C   UNL A   1      38.374  21.794  25.600  1.00  0.00     0.003 C 
ENDBRANCH  22  25
ENDBRANCH  19  22
ENDBRANCH  13  15
ENDBRANCH   8  13
ENDBRANCH   4   7
ENDBRANCH   2   3
ENDBRANCH   1   2
BRANCH   1  31
ATOM     31  C   UNL A   1      35.189  30.382  28.133  1.00  0.00     0.002 C 
BRANCH  31  32
ATOM     32  C   UNL A   1      35.881  31.738  27.942  1.00  0.00     0.002 C 
BRANCH  32  33
ATOM     33  C   UNL A   1      35.542  32.793  28.993  1.00  0.00     0.021 C 
BRANCH  33  34
ATOM     34  C   UNL A   1      34.965  32.217  30.270  1.00  0.00     0.116 C 
BRANCH  34  35
ATOM     35  N   UNL A   1      34.120  33.163  30.984  1.00  0.00    -0.352 N 
ATOM     36  C   UNL A   1      34.289  33.783  32.205  1.00  0.00     0.251 C 
ATOM     37  H   UNL A   1      33.286  33.400  30.516  1.00  0.00     0.163 HD
ATOM     38  O   UNL A   1      33.363  34.446  32.669  1.00  0.00    -0.269 OA
BRANCH  36  39
ATOM     39  C   UNL A   1      35.631  33.852  32.840  1.00  0.00     0.039 A 
ATOM     40  C   UNL A   1      36.591  34.578  32.118  1.00  0.00     0.014 A 
ATOM     41  C   UNL A   1      36.032  32.886  33.749  1.00  0.00     0.014 A 
ATOM     42  C   UNL A   1      37.875  34.070  32.013  1.00  0.00     0.010 A 
ATOM     43  C   UNL A   1      37.234  32.278  33.523  1.00  0.00     0.010 A 
ATOM     44  C   UNL A   1      38.115  32.837  32.596  1.00  0.00    -0.014 A 
BRANCH  44  45
ATOM     45  C   UNL A   1      39.307  32.054  32.389  1.00  0.00     0.031 A 
ATOM     46  C   UNL A   1      39.138  30.803  31.646  1.00  0.00     0.074 A 
ATOM     47  C   UNL A   1      40.497  32.619  32.680  1.00  0.00     0.049 A 
ATOM     48  N   UNL A   1      40.000  29.858  31.625  1.00  0.00    -0.248 NA
ATOM     49  C   UNL A   1      37.929  30.502  30.882  1.00  0.00     0.031 C 
ATOM     50  C   UNL A   1      41.829  32.219  32.248  1.00  0.00     0.029 A 
ATOM     51  N   UNL A   1      40.734  33.616  33.635  1.00  0.00    -0.354 N 
ATOM     52  C   UNL A   1      39.633  29.002  30.611  1.00  0.00     0.074 A 
ATOM     53  C   UNL A   1      38.285  29.374  30.265  1.00  0.00     0.031 C 
ATOM     54  C   UNL A   1      42.730  32.713  33.118  1.00  0.00     0.029 A 
ATOM     55  C   UNL A   1      41.983  33.297  34.219  1.00  0.00     0.049 A 
ATOM     56  H   UNL A   1      40.153  34.379  33.854  1.00  0.00     0.167 HD
ATOM     57  C   UNL A   1      40.597  28.195  30.088  1.00  0.00     0.037 A 
ATOM     58  C   UNL A   1      42.016  32.858  35.515  1.00  0.00     0.037 A 
ATOM     59  C   UNL A   1      41.849  28.376  30.829  1.00  0.00     0.049 A 
ATOM     60  C   UNL A   1      42.433  31.401  35.648  1.00  0.00     0.074 A 
ATOM     61  C   UNL A   1      42.988  29.139  30.630  1.00  0.00     0.029 A 
ATOM     62  N   UNL A   1      41.863  28.025  32.164  1.00  0.00    -0.354 N 
ATOM     63  N   UNL A   1      42.584  30.581  34.641  1.00  0.00    -0.248 NA
ATOM     64  C   UNL A   1      42.655  30.736  36.931  1.00  0.00     0.031 C 
ATOM     65  C   UNL A   1      43.673  29.243  31.879  1.00  0.00     0.029 A 
ATOM     66  C   UNL A   1      42.962  28.528  32.825  1.00  0.00     0.049 A 
ATOM     67  H   UNL A   1      41.168  27.478  32.594  1.00  0.00     0.167 HD
ATOM     68  C   UNL A   1      42.888  29.324  35.096  1.00  0.00     0.074 A 
ATOM     69  C   UNL A   1      42.895  29.470  36.542  1.00  0.00     0.031 C 
ATOM     70  C   UNL A   1      43.084  28.262  34.252  1.00  0.00     0.037 A 
BRANCH  57  71
ATOM     71  C   UNL A   1      40.498  27.445  28.783  1.00  0.00     0.057 A 
ATOM     72  C   UNL A   1      39.702  26.285  28.703  1.00  0.00     0.134 A 
ATOM     73  C   UNL A   1      41.158  27.772  27.585  1.00  0.00     0.134 A 
ATOM     74  F   UNL A   1      38.943  25.878  29.730  1.00  0.00    -0.206 F 
ATOM     75  C   UNL A   1      39.639  25.475  27.563  1.00  0.00     0.040 A 
ATOM     76  C   UNL A   1      41.137  26.950  26.448  1.00  0.00     0.040 A 
ATOM     77  F   UNL A   1      41.811  28.928  27.425  1.00  0.00    -0.206 F 
ATOM     78  C   UNL A   1      40.379  25.791  26.436  1.00  0.00     0.006 A 
ENDBRANCH  57  71
BRANCH  58  79
ATOM     79  C   UNL A   1      40.983  33.556  36.345  1.00  0.00     0.057 A 
ATOM     80  C   UNL A   1      39.819  32.833  36.685  1.00  0.00     0.134 A 
ATOM     81  C   UNL A   1      41.325  34.626  37.177  1.00  0.00     0.134 A 
ATOM     82  F   UNL A   1      39.413  31.810  35.915  1.00  0.00    -0.206 F 
ATOM     83  C   UNL A   1      39.156  33.029  37.900  1.00  0.00     0.040 A 
ATOM     84  C   UNL A   1      40.642  34.853  38.380  1.00  0.00     0.040 A 
ATOM     85  F   UNL A   1      42.408  35.374  36.919  1.00  0.00    -0.206 F 
ATOM     86  C   UNL A   1      39.602  34.012  38.775  1.00  0.00     0.006 A 
ENDBRANCH  58  79
BRANCH  70  87
ATOM     87  C   UNL A   1      43.372  26.849  34.708  1.00  0.00     0.057 A 
ATOM     88  C   UNL A   1      42.365  25.906  34.944  1.00  0.00     0.134 A 
ATOM     89  C   UNL A   1      44.681  26.408  35.020  1.00  0.00     0.134 A 
ATOM     90  F   UNL A   1      41.070  26.232  34.829  1.00  0.00    -0.206 F 
ATOM     91  C   UNL A   1      42.646  24.594  35.346  1.00  0.00     0.040 A 
ATOM     92  C   UNL A   1      44.967  25.123  35.480  1.00  0.00     0.040 A 
ATOM     93  F   UNL A   1      45.760  27.186  34.877  1.00  0.00    -0.206 F 
ATOM     94  C   UNL A   1      43.951  24.197  35.614  1.00  0.00     0.006 A 
ENDBRANCH  70  87
ENDBRANCH  44  45
ENDBRANCH  36  39
ENDBRANCH  34  35
ENDBRANCH  33  34
ENDBRANCH  32  33
ENDBRANCH  31  32
ENDBRANCH   1  31
TORSDOF 17
ENDMDL
MODEL 2
REMARK VINA RESULT:     -11.9      4.411      9.711
REMARK SMILES Cc1ccc(C(=O)N2CCCC[C@@H]2C(=O)NCCCCCCNC(=O)c2ccc(-c3c4nc(c(-c5c(F)cccc5F)c5ccc([nH]5)c(-c5c(F)cccc5F)c5nc(c(-c6c(F)cccc6F)c6ccc3[nH]6)C=C5)C=C4)cc2)cc1S(=O)(=O)N1CCCCC1
REMARK SMILES IDX 18 1 17 2 16 3 14 4 15 5 13 7 8 8 9 9 10 10 12 11 11 12 6 13
REMARK SMILES IDX 7 14 5 15 1 16 2 17 3 18 81 19 4 20 80 21 82 22 83 23 84 24
REMARK SMILES IDX 85 25 86 26 90 27 87 28 89 29 88 30 19 31 20 32 21 33 22 34
REMARK SMILES IDX 23 35 24 36 25 38 26 39 27 40 79 41 28 42 78 43 29 44 30 45
REMARK SMILES IDX 31 46 72 47 32 48 77 49 71 50 73 51 33 52 76 53 70 54 69 55
REMARK SMILES IDX 34 57 60 58 43 59 59 60 44 61 47 62 58 63 74 64 45 65 46 66
REMARK SMILES IDX 57 68 75 69 48 70 35 71 36 72 41 73 37 74 38 75 40 76 42 77
REMARK SMILES IDX 39 78 61 79 62 80 67 81 63 82 64 83 66 84 68 85 65 86 49 87
REMARK SMILES IDX 50 88 55 89 51 90 52 91 54 92 56 93 53 94
REMARK H PARENT 16 6 23 37 73 56 47 67
REMARK Flexibility Score: inf
ROOT
ATOM      1  C   UNL A   1      37.722  22.767  25.406  1.00  0.00     0.021 C 
ENDROOT
BRANCH   1   2
ATOM      2  C   UNL A   1      36.210  22.918  25.238  1.00  0.00     0.116 C 
BRANCH   2   3
ATOM      3  N   UNL A   1      35.523  22.249  26.323  1.00  0.00    -0.354 N 
ATOM      4  C   UNL A   1      34.537  21.313  26.277  1.00  0.00     0.242 C 
ATOM      5  O   UNL A   1      33.914  21.097  27.319  1.00  0.00    -0.273 OA
ATOM      6  H   UNL A   1      35.812  22.511  27.227  1.00  0.00     0.163 HD
BRANCH   4   7
ATOM      7  C   UNL A   1      34.140  20.624  24.952  1.00  0.00     0.174 C 
ATOM      8  N   UNL A   1      32.717  20.824  24.562  1.00  0.00    -0.327 N 
ATOM      9  C   UNL A   1      32.203  19.958  23.509  1.00  0.00     0.120 C 
ATOM     10  C   UNL A   1      32.455  18.491  23.786  1.00  0.00     0.022 C 
ATOM     11  C   UNL A   1      34.497  19.125  25.100  1.00  0.00     0.035 C 
ATOM     12  C   UNL A   1      33.942  18.244  23.987  1.00  0.00     0.004 C 
BRANCH   8  13
ATOM     13  C   UNL A   1      31.951  21.972  24.788  1.00  0.00     0.254 C 
ATOM     14  O   UNL A   1      31.029  21.983  25.606  1.00  0.00    -0.269 OA
BRANCH  13  15
ATOM     15  C   UNL A   1      32.187  23.221  24.031  1.00  0.00     0.041 A 
ATOM     16  C   UNL A   1      33.417  26.860  22.085  1.00  0.00     0.046 C 
ATOM     17  C   UNL A   1      32.842  25.674  22.785  1.00  0.00    -0.031 A 
ATOM     18  C   UNL A   1      33.609  24.501  22.580  1.00  0.00     0.005 A 
ATOM     19  C   UNL A   1      31.709  25.594  23.616  1.00  0.00     0.086 A 
ATOM     20  C   UNL A   1      33.290  23.292  23.189  1.00  0.00     0.014 A 
ATOM     21  C   UNL A   1      31.423  24.365  24.254  1.00  0.00     0.035 A 
BRANCH  19  22
ATOM     22  S   UNL A   1      30.484  26.840  24.058  1.00  0.00     0.243 S 
ATOM     23  O   UNL A   1      30.270  27.617  22.848  1.00  0.00    -0.207 OA
ATOM     24  O   UNL A   1      29.393  26.098  24.650  1.00  0.00    -0.207 OA
BRANCH  22  25
ATOM     25  N   UNL A   1      31.050  27.909  25.238  1.00  0.00    -0.198 NA
ATOM     26  C   UNL A   1      31.405  27.315  26.540  1.00  0.00     0.102 C 
ATOM     27  C   UNL A   1      31.608  29.191  24.762  1.00  0.00     0.102 C 
ATOM     28  C   UNL A   1      31.951  28.303  27.556  1.00  0.00     0.017 C 
ATOM     29  C   UNL A   1      32.181  30.081  25.854  1.00  0.00     0.017 C 
ATOM     30  C   UNL A   1      32.902  29.317  26.950  1.00  0.00     0.003 C 
ENDBRANCH  22  25
ENDBRANCH  19  22
ENDBRANCH  13  15
ENDBRANCH   8  13
ENDBRANCH   4   7
ENDBRANCH   2   3
ENDBRANCH   1   2
BRANCH   1  31
ATOM     31  C   UNL A   1      38.369  23.871  26.255  1.00  0.00     0.002 C 
BRANCH  31  32
ATOM     32  C   UNL A   1      39.453  23.396  27.232  1.00  0.00     0.002 C 
BRANCH  32  33
ATOM     33  C   UNL A   1      40.422  22.357  26.672  1.00  0.00     0.021 C 
BRANCH  33  34
ATOM     34  C   UNL A   1      41.630  22.961  25.984  1.00  0.00     0.116 C 
BRANCH  34  35
ATOM     35  N   UNL A   1      42.477  21.960  25.351  1.00  0.00    -0.352 N 
ATOM     36  C   UNL A   1      43.818  21.984  25.029  1.00  0.00     0.251 C 
ATOM     37  H   UNL A   1      42.013  21.124  25.111  1.00  0.00     0.163 HD
ATOM     38  O   UNL A   1      44.288  21.061  24.366  1.00  0.00    -0.269 OA
BRANCH  36  39
ATOM     39  C   UNL A   1      44.732  22.971  25.662  1.00  0.00     0.039 A 
ATOM     40  C   UNL A   1      44.906  22.814  27.046  1.00  0.00     0.014 A 
ATOM     41  C   UNL A   1      44.958  24.203  25.070  1.00  0.00     0.014 A 
ATOM     42  C   UNL A   1      44.906  23.939  27.853  1.00  0.00     0.010 A 
ATOM     43  C   UNL A   1      44.783  25.311  25.851  1.00  0.00     0.010 A 
ATOM     44  C   UNL A   1      44.682  25.158  27.234  1.00  0.00    -0.014 A 
BRANCH  44  45
ATOM     45  C   UNL A   1      44.415  26.390  27.932  1.00  0.00     0.031 A 
ATOM     46  C   UNL A   1      43.050  26.910  27.828  1.00  0.00     0.074 A 
ATOM     47  C   UNL A   1      45.346  26.846  28.796  1.00  0.00     0.049 A 
ATOM     48  N   UNL A   1      42.713  28.108  28.121  1.00  0.00    -0.248 NA
ATOM     49  C   UNL A   1      41.938  26.100  27.332  1.00  0.00     0.031 C 
ATOM     50  C   UNL A   1      45.199  27.824  29.866  1.00  0.00     0.029 A 
ATOM     51  N   UNL A   1      46.726  26.617  28.731  1.00  0.00    -0.354 N 
ATOM     52  C   UNL A   1      41.337  28.137  28.180  1.00  0.00     0.074 A 
ATOM     53  C   UNL A   1      40.903  26.908  27.566  1.00  0.00     0.031 C 
ATOM     54  C   UNL A   1      46.411  28.339  30.146  1.00  0.00     0.029 A 
ATOM     55  C   UNL A   1      47.334  27.825  29.148  1.00  0.00     0.049 A 
ATOM     56  H   UNL A   1      47.178  25.789  28.452  1.00  0.00     0.167 HD
ATOM     57  C   UNL A   1      40.758  29.136  28.901  1.00  0.00     0.037 A 
ATOM     58  C   UNL A   1      48.000  28.586  28.224  1.00  0.00     0.037 A 
ATOM     59  C   UNL A   1      41.791  30.050  29.400  1.00  0.00     0.049 A 
ATOM     60  C   UNL A   1      47.317  29.912  27.928  1.00  0.00     0.074 A 
ATOM     61  C   UNL A   1      42.478  30.170  30.597  1.00  0.00     0.029 A 
ATOM     62  N   UNL A   1      42.535  30.749  28.471  1.00  0.00    -0.354 N 
ATOM     63  N   UNL A   1      46.130  30.244  28.364  1.00  0.00    -0.248 NA
ATOM     64  C   UNL A   1      47.892  30.945  27.069  1.00  0.00     0.031 C 
ATOM     65  C   UNL A   1      43.652  30.948  30.356  1.00  0.00     0.029 A 
ATOM     66  C   UNL A   1      43.664  31.313  29.022  1.00  0.00     0.049 A 
ATOM     67  H   UNL A   1      42.287  30.834  27.522  1.00  0.00     0.167 HD
ATOM     68  C   UNL A   1      45.767  31.466  27.861  1.00  0.00     0.074 A 
ATOM     69  C   UNL A   1      46.898  31.851  27.033  1.00  0.00     0.031 C 
ATOM     70  C   UNL A   1      44.560  32.051  28.143  1.00  0.00     0.037 A 
BRANCH  57  71
ATOM     71  C   UNL A   1      39.323  29.162  29.365  1.00  0.00     0.057 A 
ATOM     72  C   UNL A   1      38.307  29.559  28.473  1.00  0.00     0.134 A 
ATOM     73  C   UNL A   1      38.862  28.843  30.655  1.00  0.00     0.134 A 
ATOM     74  F   UNL A   1      38.564  29.820  27.184  1.00  0.00    -0.206 F 
ATOM     75  C   UNL A   1      36.969  29.710  28.853  1.00  0.00     0.040 A 
ATOM     76  C   UNL A   1      37.532  29.028  31.062  1.00  0.00     0.040 A 
ATOM     77  F   UNL A   1      39.654  28.283  31.575  1.00  0.00    -0.206 F 
ATOM     78  C   UNL A   1      36.579  29.470  30.160  1.00  0.00     0.006 A 
ENDBRANCH  57  71
BRANCH  58  79
ATOM     79  C   UNL A   1      48.711  27.721  27.229  1.00  0.00     0.057 A 
ATOM     80  C   UNL A   1      48.149  27.613  25.938  1.00  0.00     0.134 A 
ATOM     81  C   UNL A   1      50.079  27.457  27.345  1.00  0.00     0.134 A 
ATOM     82  F   UNL A   1      46.836  27.824  25.756  1.00  0.00    -0.206 F 
ATOM     83  C   UNL A   1      48.944  27.462  24.798  1.00  0.00     0.040 A 
ATOM     84  C   UNL A   1      50.877  27.267  26.210  1.00  0.00     0.040 A 
ATOM     85  F   UNL A   1      50.689  27.524  28.537  1.00  0.00    -0.206 F 
ATOM     86  C   UNL A   1      50.322  27.339  24.932  1.00  0.00     0.006 A 
ENDBRANCH  58  79
BRANCH  70  87
ATOM     87  C   UNL A   1      44.095  33.374  27.573  1.00  0.00     0.057 A 
ATOM     88  C   UNL A   1      43.782  34.477  28.374  1.00  0.00     0.134 A 
ATOM     89  C   UNL A   1      43.852  33.556  26.191  1.00  0.00     0.134 A 
ATOM     90  F   UNL A   1      43.827  34.400  29.712  1.00  0.00    -0.206 F 
ATOM     91  C   UNL A   1      43.372  35.704  27.833  1.00  0.00     0.040 A 
ATOM     92  C   UNL A   1      43.385  34.753  25.646  1.00  0.00     0.040 A 
ATOM     93  F   UNL A   1      44.073  32.598  25.283  1.00  0.00    -0.206 F 
ATOM     94  C   UNL A   1      43.173  35.846  26.465  1.00  0.00     0.006 A 
ENDBRANCH  70  87
ENDBRANCH  44  45
ENDBRANCH  36  39
ENDBRANCH  34  35
ENDBRANCH  33  34
ENDBRANCH  32  33
ENDBRANCH  31  32
ENDBRANCH   1  31
TORSDOF 17
ENDMDL
MODEL 3
REMARK VINA RESULT:     -11.6      1.275      1.989
REMARK SMILES Cc1ccc(C(=O)N2CCCC[C@@H]2C(=O)NCCCCCCNC(=O)c2ccc(-c3c4nc(c(-c5c(F)cccc5F)c5ccc([nH]5)c(-c5c(F)cccc5F)c5nc(c(-c6c(F)cccc6F)c6ccc3[nH]6)C=C5)C=C4)cc2)cc1S(=O)(=O)N1CCCCC1
REMARK SMILES IDX 18 1 17 2 16 3 14 4 15 5 13 7 8 8 9 9 10 10 12 11 11 12 6 13
REMARK SMILES IDX 7 14 5 15 1 16 2 17 3 18 81 19 4 20 80 21 82 22 83 23 84 24
REMARK SMILES IDX 85 25 86 26 90 27 87 28 89 29 88 30 19 31 20 32 21 33 22 34
REMARK SMILES IDX 23 35 24 36 25 38 26 39 27 40 79 41 28 42 78 43 29 44 30 45
REMARK SMILES IDX 31 46 72 47 32 48 77 49 71 50 73 51 33 52 76 53 70 54 69 55
REMARK SMILES IDX 34 57 60 58 43 59 59 60 44 61 47 62 58 63 74 64 45 65 46 66
REMARK SMILES IDX 57 68 75 69 48 70 35 71 36 72 41 73 37 74 38 75 40 76 42 77
REMARK SMILES IDX 39 78 61 79 62 80 67 81 63 82 64 83 66 84 68 85 65 86 49 87
REMARK SMILES IDX 50 88 55 89 51 90 52 91 54 92 56 93 53 94
REMARK H PARENT 16 6 23 37 73 56 47 67
REMARK Flexibility Score: inf
ROOT
ATOM      1  C   UNL A   1      33.191  29.628  27.208  1.00  0.00     0.021 C 
ENDROOT
BRANCH   1   2
ATOM      2  C   UNL A   1      33.000  28.481  26.215  1.00  0.00     0.116 C 
BRANCH   2   3
ATOM      3  N   UNL A   1      33.277  28.941  24.871  1.00  0.00    -0.354 N 
ATOM      4  C   UNL A   1      32.432  29.088  23.814  1.00  0.00     0.242 C 
ATOM      5  O   UNL A   1      32.941  29.223  22.698  1.00  0.00    -0.273 OA
ATOM      6  H   UNL A   1      34.215  29.183  24.695  1.00  0.00     0.163 HD
BRANCH   4   7
ATOM      7  C   UNL A   1      30.900  28.981  23.986  1.00  0.00     0.174 C 
ATOM      8  N   UNL A   1      30.264  27.919  23.160  1.00  0.00    -0.327 N 
ATOM      9  C   UNL A   1      28.814  27.971  23.036  1.00  0.00     0.120 C 
ATOM     10  C   UNL A   1      28.316  29.329  22.590  1.00  0.00     0.022 C 
ATOM     11  C   UNL A   1      30.316  30.383  23.681  1.00  0.00     0.035 C 
ATOM     12  C   UNL A   1      28.797  30.405  23.552  1.00  0.00     0.004 C 
BRANCH   8  13
ATOM     13  C   UNL A   1      30.826  26.681  22.830  1.00  0.00     0.254 C 
ATOM     14  O   UNL A   1      31.177  26.416  21.679  1.00  0.00    -0.269 OA
BRANCH  13  15
ATOM     15  C   UNL A   1      30.994  25.614  23.841  1.00  0.00     0.041 A 
ATOM     16  C   UNL A   1      31.792  22.916  27.101  1.00  0.00     0.046 C 
ATOM     17  C   UNL A   1      31.552  23.723  25.869  1.00  0.00    -0.031 A 
ATOM     18  C   UNL A   1      30.852  24.925  26.137  1.00  0.00     0.005 A 
ATOM     19  C   UNL A   1      31.954  23.465  24.545  1.00  0.00     0.086 A 
ATOM     20  C   UNL A   1      30.574  25.857  25.143  1.00  0.00     0.014 A 
ATOM     21  C   UNL A   1      31.693  24.443  23.556  1.00  0.00     0.035 A 
BRANCH  19  22
ATOM     22  S   UNL A   1      32.799  22.044  23.827  1.00  0.00     0.243 S 
ATOM     23  O   UNL A   1      32.266  20.886  24.524  1.00  0.00    -0.207 OA
ATOM     24  O   UNL A   1      32.619  22.184  22.399  1.00  0.00    -0.207 OA
BRANCH  22  25
ATOM     25  N   UNL A   1      34.464  22.072  24.118  1.00  0.00    -0.198 NA
ATOM     26  C   UNL A   1      35.257  22.992  23.281  1.00  0.00     0.102 C 
ATOM     27  C   UNL A   1      34.917  21.599  25.442  1.00  0.00     0.102 C 
ATOM     28  C   UNL A   1      36.741  23.018  23.606  1.00  0.00     0.017 C 
ATOM     29  C   UNL A   1      36.413  21.723  25.686  1.00  0.00     0.017 C 
ATOM     30  C   UNL A   1      37.026  22.980  25.095  1.00  0.00     0.003 C 
ENDBRANCH  22  25
ENDBRANCH  19  22
ENDBRANCH  13  15
ENDBRANCH   8  13
ENDBRANCH   4   7
ENDBRANCH   2   3
ENDBRANCH   1   2
BRANCH   1  31
ATOM     31  C   UNL A   1      34.654  29.873  27.606  1.00  0.00     0.002 C 
BRANCH  31  32
ATOM     32  C   UNL A   1      35.017  31.334  27.903  1.00  0.00     0.002 C 
BRANCH  32  33
ATOM     33  C   UNL A   1      35.249  31.659  29.376  1.00  0.00     0.021 C 
BRANCH  33  34
ATOM     34  C   UNL A   1      35.098  33.131  29.706  1.00  0.00     0.116 C 
BRANCH  34  35
ATOM     35  N   UNL A   1      34.207  33.367  30.833  1.00  0.00    -0.352 N 
ATOM     36  C   UNL A   1      34.449  33.367  32.191  1.00  0.00     0.251 C 
ATOM     37  H   UNL A   1      33.274  33.560  30.583  1.00  0.00     0.163 HD
ATOM     38  O   UNL A   1      33.497  33.459  32.965  1.00  0.00    -0.269 OA
BRANCH  36  39
ATOM     39  C   UNL A   1      35.834  33.491  32.715  1.00  0.00     0.039 A 
ATOM     40  C   UNL A   1      36.734  34.145  31.859  1.00  0.00     0.014 A 
ATOM     41  C   UNL A   1      36.307  32.613  33.676  1.00  0.00     0.014 A 
ATOM     42  C   UNL A   1      38.008  33.627  31.704  1.00  0.00     0.010 A 
ATOM     43  C   UNL A   1      37.492  31.983  33.417  1.00  0.00     0.010 A 
ATOM     44  C   UNL A   1      38.297  32.452  32.379  1.00  0.00    -0.014 A 
BRANCH  44  45
ATOM     45  C   UNL A   1      39.474  31.651  32.156  1.00  0.00     0.031 A 
ATOM     46  C   UNL A   1      39.284  30.426  31.378  1.00  0.00     0.074 A 
ATOM     47  C   UNL A   1      40.674  32.182  32.470  1.00  0.00     0.049 A 
ATOM     48  N   UNL A   1      40.126  29.464  31.334  1.00  0.00    -0.248 NA
ATOM     49  C   UNL A   1      38.073  30.171  30.599  1.00  0.00     0.031 C 
ATOM     50  C   UNL A   1      42.000  31.767  32.034  1.00  0.00     0.029 A 
ATOM     51  N   UNL A   1      40.926  33.147  33.453  1.00  0.00    -0.354 N 
ATOM     52  C   UNL A   1      39.748  28.644  30.295  1.00  0.00     0.074 A 
ATOM     53  C   UNL A   1      38.410  29.054  29.953  1.00  0.00     0.031 C 
ATOM     54  C   UNL A   1      42.906  32.217  32.922  1.00  0.00     0.029 A 
ATOM     55  C   UNL A   1      42.165  32.786  34.035  1.00  0.00     0.049 A 
ATOM     56  H   UNL A   1      40.359  33.915  33.691  1.00  0.00     0.167 HD
ATOM     57  C   UNL A   1      40.698  27.832  29.754  1.00  0.00     0.037 A 
ATOM     58  C   UNL A   1      42.181  32.310  35.319  1.00  0.00     0.037 A 
ATOM     59  C   UNL A   1      41.949  27.966  30.507  1.00  0.00     0.049 A 
ATOM     60  C   UNL A   1      42.567  30.841  35.413  1.00  0.00     0.074 A 
ATOM     61  C   UNL A   1      43.104  28.711  30.336  1.00  0.00     0.029 A 
ATOM     62  N   UNL A   1      41.948  27.577  31.831  1.00  0.00    -0.354 N 
ATOM     63  N   UNL A   1      42.707  30.048  34.383  1.00  0.00    -0.248 NA
ATOM     64  C   UNL A   1      42.768  30.136  36.677  1.00  0.00     0.031 C 
ATOM     65  C   UNL A   1      43.785  28.765  31.591  1.00  0.00     0.029 A 
ATOM     66  C   UNL A   1      43.053  28.039  32.512  1.00  0.00     0.049 A 
ATOM     67  H   UNL A   1      41.239  27.033  32.243  1.00  0.00     0.167 HD
ATOM     68  C   UNL A   1      42.982  28.772  34.804  1.00  0.00     0.074 A 
ATOM     69  C   UNL A   1      42.983  28.877  36.254  1.00  0.00     0.031 C 
ATOM     70  C   UNL A   1      43.161  27.731  33.932  1.00  0.00     0.037 A 
BRANCH  57  71
ATOM     71  C   UNL A   1      40.591  27.122  28.428  1.00  0.00     0.057 A 
ATOM     72  C   UNL A   1      39.766  25.985  28.310  1.00  0.00     0.134 A 
ATOM     73  C   UNL A   1      41.270  27.464  27.245  1.00  0.00     0.134 A 
ATOM     74  F   UNL A   1      38.988  25.570  29.319  1.00  0.00    -0.206 F 
ATOM     75  C   UNL A   1      39.692  25.209  27.147  1.00  0.00     0.040 A 
ATOM     76  C   UNL A   1      41.237  26.675  26.086  1.00  0.00     0.040 A 
ATOM     77  F   UNL A   1      41.954  28.607  27.123  1.00  0.00    -0.206 F 
ATOM     78  C   UNL A   1      40.450  25.537  26.035  1.00  0.00     0.006 A 
ENDBRANCH  57  71
BRANCH  58  79
ATOM     79  C   UNL A   1      41.158  33.006  36.163  1.00  0.00     0.057 A 
ATOM     80  C   UNL A   1      41.383  34.363  36.476  1.00  0.00     0.134 A 
ATOM     81  C   UNL A   1      39.834  32.560  36.211  1.00  0.00     0.134 A 
ATOM     82  F   UNL A   1      42.633  34.856  36.479  1.00  0.00    -0.206 F 
ATOM     83  C   UNL A   1      40.330  35.273  36.619  1.00  0.00     0.040 A 
ATOM     84  C   UNL A   1      38.774  33.459  36.390  1.00  0.00     0.040 A 
ATOM     85  F   UNL A   1      39.533  31.281  35.940  1.00  0.00    -0.206 F 
ATOM     86  C   UNL A   1      39.018  34.826  36.526  1.00  0.00     0.006 A 
ENDBRANCH  58  79
BRANCH  70  87
ATOM     87  C   UNL A   1      43.417  26.299  34.349  1.00  0.00     0.057 A 
ATOM     88  C   UNL A   1      44.638  25.651  34.130  1.00  0.00     0.134 A 
ATOM     89  C   UNL A   1      42.404  25.481  34.905  1.00  0.00     0.134 A 
ATOM     90  F   UNL A   1      45.640  26.260  33.481  1.00  0.00    -0.206 F 
ATOM     91  C   UNL A   1      44.870  24.331  34.540  1.00  0.00     0.040 A 
ATOM     92  C   UNL A   1      42.605  24.147  35.260  1.00  0.00     0.040 A 
ATOM     93  F   UNL A   1      41.169  25.930  35.159  1.00  0.00    -0.206 F 
ATOM     94  C   UNL A   1      43.852  23.574  35.108  1.00  0.00     0.006 A 
ENDBRANCH  70  87
ENDBRANCH  44  45
ENDBRANCH  36  39
ENDBRANCH  34  35
ENDBRANCH  33  34
ENDBRANCH  32  33
ENDBRANCH  31  32
ENDBRANCH   1  31
TORSDOF 17
ENDMDL
