MODEL 1
REMARK VINA RESULT:      -9.9      0.000      0.000
REMARK SMILES N#CCS(=O)(=O)NC[C@H]1CC[C@H](C(=O)NCCCCCCNC(=O)c2ccc(-c3c4nc(c(-c5c(F)cccc5F)c5ccc([nH]5)c(-c5c(F)cccc5F)c5nc(c(-c6c(F)cccc6F)c6ccc3[nH]6)C=C5)C=C4)cc2)O1
REMARK SMILES IDX 17 1 16 2 15 3 13 4 14 5 12 7 9 8 10 9 79 10 11 11 8 12 7 13
REMARK SMILES IDX 4 15 5 16 6 17 3 18 2 19 1 20 18 21 19 22 20 23 21 24 22 25
REMARK SMILES IDX 23 26 24 28 25 29 26 30 78 31 27 32 77 33 28 34 29 35 30 36
REMARK SMILES IDX 71 37 31 38 76 39 70 40 72 41 32 42 75 43 69 44 68 45 33 47
REMARK SMILES IDX 59 48 42 49 58 50 43 51 46 52 57 53 73 54 44 55 45 56 56 58
REMARK SMILES IDX 74 59 47 60 34 61 35 62 40 63 36 64 37 65 39 66 41 67 38 68
REMARK SMILES IDX 60 69 61 70 66 71 62 72 63 73 65 74 67 75 64 76 48 77 49 78
REMARK SMILES IDX 54 79 50 80 51 81 53 82 55 83 52 84
REMARK H PARENT 15 6 7 14 22 27 72 46 46 57
REMARK Flexibility Score: inf
ROOT
ATOM      1  C   UNL A   1      34.723  31.650  28.390  1.00  0.00     0.021 C 
ENDROOT
BRANCH   1   2
ATOM      2  C   UNL A   1      34.090  30.853  27.259  1.00  0.00     0.116 C 
BRANCH   2   3
ATOM      3  N   UNL A   1      33.126  29.928  27.788  1.00  0.00    -0.354 N 
ATOM      4  C   UNL A   1      32.256  29.137  27.106  1.00  0.00     0.249 C 
ATOM      5  O   UNL A   1      31.395  28.544  27.761  1.00  0.00    -0.272 OA
ATOM      6  H   UNL A   1      33.090  29.858  28.769  1.00  0.00     0.163 HD
BRANCH   4   7
ATOM      7  C   UNL A   1      32.326  29.009  25.570  1.00  0.00     0.207 C 
ATOM      8  C   UNL A   1      30.657  28.795  23.901  1.00  0.00     0.134 C 
ATOM      9  C   UNL A   1      31.215  27.404  24.165  1.00  0.00     0.037 C 
ATOM     10  O   UNL A   1      31.294  29.671  24.839  1.00  0.00    -0.364 OA
ATOM     11  C   UNL A   1      32.445  27.606  25.020  1.00  0.00     0.045 C 
BRANCH   8  12
ATOM     12  C   UNL A   1      30.842  29.273  22.455  1.00  0.00     0.130 C 
BRANCH  12  13
ATOM     13  N   UNL A   1      29.997  30.430  22.062  1.00  0.00    -0.212 NA
ATOM     14  H   UNL A   1      30.263  31.186  22.693  1.00  0.00     0.141 HD
BRANCH  13  15
ATOM     15  S   UNL A   1      28.323  30.441  22.034  1.00  0.00     0.225 S 
ATOM     16  O   UNL A   1      27.821  29.110  22.253  1.00  0.00    -0.211 OA
ATOM     17  O   UNL A   1      28.016  31.092  20.771  1.00  0.00    -0.211 OA
BRANCH  15  18
ATOM     18  C   UNL A   1      27.788  31.565  23.313  1.00  0.00     0.273 C 
BRANCH  18  19
ATOM     19  C   UNL A   1      28.628  32.829  23.222  1.00  0.00     0.080 C 
ATOM     20  N   UNL A   1      29.324  33.878  23.147  1.00  0.00    -0.197 NA
ENDBRANCH  18  19
ENDBRANCH  15  18
ENDBRANCH  13  15
ENDBRANCH  12  13
ENDBRANCH   8  12
ENDBRANCH   4   7
ENDBRANCH   2   3
ENDBRANCH   1   2
BRANCH   1  21
ATOM     21  C   UNL A   1      35.160  33.041  27.933  1.00  0.00     0.002 C 
BRANCH  21  22
ATOM     22  C   UNL A   1      35.318  34.044  29.082  1.00  0.00     0.002 C 
BRANCH  22  23
ATOM     23  C   UNL A   1      34.280  35.172  29.080  1.00  0.00     0.021 C 
BRANCH  23  24
ATOM     24  C   UNL A   1      32.922  34.748  29.630  1.00  0.00     0.116 C 
BRANCH  24  25
ATOM     25  N   UNL A   1      32.503  35.622  30.714  1.00  0.00    -0.352 N 
ATOM     26  C   UNL A   1      32.896  35.630  32.024  1.00  0.00     0.251 C 
ATOM     27  H   UNL A   1      31.840  36.307  30.470  1.00  0.00     0.163 HD
ATOM     28  O   UNL A   1      32.228  36.222  32.867  1.00  0.00    -0.269 OA
BRANCH  26  29
ATOM     29  C   UNL A   1      34.129  34.924  32.418  1.00  0.00     0.039 A 
ATOM     30  C   UNL A   1      34.038  33.603  32.858  1.00  0.00     0.014 A 
ATOM     31  C   UNL A   1      35.366  35.576  32.381  1.00  0.00     0.014 A 
ATOM     32  C   UNL A   1      35.197  32.922  33.225  1.00  0.00     0.010 A 
ATOM     33  C   UNL A   1      36.529  34.870  32.666  1.00  0.00     0.010 A 
ATOM     34  C   UNL A   1      36.454  33.541  33.104  1.00  0.00    -0.014 A 
BRANCH  34  35
ATOM     35  C   UNL A   1      37.693  32.795  33.424  1.00  0.00     0.031 A 
ATOM     36  C   UNL A   1      38.457  33.085  34.685  1.00  0.00     0.074 A 
ATOM     37  C   UNL A   1      38.153  31.883  32.549  1.00  0.00     0.049 A 
ATOM     38  N   UNL A   1      39.556  32.528  35.130  1.00  0.00    -0.248 NA
ATOM     39  C   UNL A   1      37.938  34.159  35.543  1.00  0.00     0.031 C 
ATOM     40  C   UNL A   1      37.537  31.568  31.257  1.00  0.00     0.029 A 
ATOM     41  N   UNL A   1      39.245  31.058  32.607  1.00  0.00    -0.354 N 
ATOM     42  C   UNL A   1      39.857  33.186  36.316  1.00  0.00     0.074 A 
ATOM     43  C   UNL A   1      38.869  34.229  36.481  1.00  0.00     0.031 C 
ATOM     44  C   UNL A   1      38.244  30.598  30.660  1.00  0.00     0.029 A 
ATOM     45  C   UNL A   1      39.381  30.250  31.506  1.00  0.00     0.049 A 
ATOM     46  H   UNL A   1      39.872  31.046  33.366  1.00  0.00     0.167 HD
ATOM     47  C   UNL A   1      40.851  32.926  37.199  1.00  0.00     0.037 A 
ATOM     48  C   UNL A   1      40.320  29.333  31.208  1.00  0.00     0.037 A 
ATOM     49  C   UNL A   1      41.833  31.886  37.022  1.00  0.00     0.049 A 
ATOM     50  C   UNL A   1      41.412  29.057  32.199  1.00  0.00     0.074 A 
ATOM     51  C   UNL A   1      42.847  31.500  37.883  1.00  0.00     0.029 A 
ATOM     52  N   UNL A   1      41.933  31.076  35.900  1.00  0.00    -0.354 N 
ATOM     53  N   UNL A   1      41.637  29.625  33.361  1.00  0.00    -0.248 NA
ATOM     54  C   UNL A   1      42.374  28.006  31.846  1.00  0.00     0.031 C 
ATOM     55  C   UNL A   1      43.596  30.499  37.254  1.00  0.00     0.029 A 
ATOM     56  C   UNL A   1      43.012  30.214  36.029  1.00  0.00     0.049 A 
ATOM     57  H   UNL A   1      41.327  31.108  35.125  1.00  0.00     0.167 HD
ATOM     58  C   UNL A   1      42.756  28.991  33.884  1.00  0.00     0.074 A 
ATOM     59  C   UNL A   1      43.145  27.977  32.923  1.00  0.00     0.031 C 
ATOM     60  C   UNL A   1      43.404  29.227  35.053  1.00  0.00     0.037 A 
BRANCH  47  61
ATOM     61  C   UNL A   1      40.925  33.796  38.424  1.00  0.00     0.057 A 
ATOM     62  C   UNL A   1      41.759  34.923  38.486  1.00  0.00     0.134 A 
ATOM     63  C   UNL A   1      40.158  33.503  39.559  1.00  0.00     0.134 A 
ATOM     64  F   UNL A   1      42.529  35.258  37.439  1.00  0.00    -0.206 F 
ATOM     65  C   UNL A   1      41.864  35.694  39.645  1.00  0.00     0.040 A 
ATOM     66  C   UNL A   1      40.229  34.288  40.712  1.00  0.00     0.040 A 
ATOM     67  F   UNL A   1      39.332  32.446  39.569  1.00  0.00    -0.206 F 
ATOM     68  C   UNL A   1      41.093  35.378  40.762  1.00  0.00     0.006 A 
ENDBRANCH  47  61
BRANCH  48  69
ATOM     69  C   UNL A   1      40.241  28.605  29.917  1.00  0.00     0.057 A 
ATOM     70  C   UNL A   1      39.462  27.452  29.778  1.00  0.00     0.134 A 
ATOM     71  C   UNL A   1      40.914  29.070  28.780  1.00  0.00     0.134 A 
ATOM     72  F   UNL A   1      38.806  26.949  30.834  1.00  0.00    -0.206 F 
ATOM     73  C   UNL A   1      39.362  26.781  28.559  1.00  0.00     0.040 A 
ATOM     74  C   UNL A   1      40.802  28.426  27.549  1.00  0.00     0.040 A 
ATOM     75  F   UNL A   1      41.667  30.179  28.846  1.00  0.00    -0.206 F 
ATOM     76  C   UNL A   1      40.026  27.273  27.436  1.00  0.00     0.006 A 
ENDBRANCH  48  69
BRANCH  60  77
ATOM     77  C   UNL A   1      44.597  28.364  35.354  1.00  0.00     0.057 A 
ATOM     78  C   UNL A   1      45.896  28.742  34.986  1.00  0.00     0.134 A 
ATOM     79  C   UNL A   1      44.448  27.146  36.030  1.00  0.00     0.134 A 
ATOM     80  F   UNL A   1      46.110  29.890  34.325  1.00  0.00    -0.206 F 
ATOM     81  C   UNL A   1      46.996  27.922  35.245  1.00  0.00     0.040 A 
ATOM     82  C   UNL A   1      45.543  26.335  36.324  1.00  0.00     0.040 A 
ATOM     83  F   UNL A   1      43.235  26.729  36.422  1.00  0.00    -0.206 F 
ATOM     84  C   UNL A   1      46.821  26.716  35.922  1.00  0.00     0.006 A 
ENDBRANCH  60  77
ENDBRANCH  34  35
ENDBRANCH  26  29
ENDBRANCH  24  25
ENDBRANCH  23  24
ENDBRANCH  22  23
ENDBRANCH  21  22
ENDBRANCH   1  21
TORSDOF 18
ENDMDL
MODEL 2
REMARK VINA RESULT:      -9.8      0.570      6.406
REMARK SMILES N#CCS(=O)(=O)NC[C@H]1CC[C@H](C(=O)NCCCCCCNC(=O)c2ccc(-c3c4nc(c(-c5c(F)cccc5F)c5ccc([nH]5)c(-c5c(F)cccc5F)c5nc(c(-c6c(F)cccc6F)c6ccc3[nH]6)C=C5)C=C4)cc2)O1
REMARK SMILES IDX 17 1 16 2 15 3 13 4 14 5 12 7 9 8 10 9 79 10 11 11 8 12 7 13
REMARK SMILES IDX 4 15 5 16 6 17 3 18 2 19 1 20 18 21 19 22 20 23 21 24 22 25
REMARK SMILES IDX 23 26 24 28 25 29 26 30 78 31 27 32 77 33 28 34 29 35 30 36
REMARK SMILES IDX 71 37 31 38 76 39 70 40 72 41 32 42 75 43 69 44 68 45 33 47
REMARK SMILES IDX 59 48 42 49 58 50 43 51 46 52 57 53 73 54 44 55 45 56 56 58
REMARK SMILES IDX 74 59 47 60 34 61 35 62 40 63 36 64 37 65 39 66 41 67 38 68
REMARK SMILES IDX 60 69 61 70 66 71 62 72 63 73 65 74 67 75 64 76 48 77 49 78
REMARK SMILES IDX 54 79 50 80 51 81 53 82 55 83 52 84
REMARK H PARENT 15 6 7 14 22 27 72 46 46 57
REMARK Flexibility Score: inf
ROOT
ATOM      1  C   UNL A   1      35.230  31.712  28.496  1.00  0.00     0.021 C 
ENDROOT
BRANCH   1   2
ATOM      2  C   UNL A   1      34.708  30.843  27.362  1.00  0.00     0.116 C 
BRANCH   2   3
ATOM      3  N   UNL A   1      33.588  30.064  27.813  1.00  0.00    -0.354 N 
ATOM      4  C   UNL A   1      32.709  29.343  27.068  1.00  0.00     0.249 C 
ATOM      5  O   UNL A   1      31.716  28.889  27.644  1.00  0.00    -0.272 OA
ATOM      6  H   UNL A   1      33.437  30.052  28.786  1.00  0.00     0.163 HD
BRANCH   4   7
ATOM      7  C   UNL A   1      32.930  29.126  25.558  1.00  0.00     0.207 C 
ATOM      8  C   UNL A   1      31.460  28.558  23.787  1.00  0.00     0.134 C 
ATOM      9  C   UNL A   1      32.185  27.285  24.200  1.00  0.00     0.037 C 
ATOM     10  O   UNL A   1      31.882  29.578  24.699  1.00  0.00    -0.364 OA
ATOM     11  C   UNL A   1      33.295  27.722  25.129  1.00  0.00     0.045 C 
BRANCH   8  12
ATOM     12  C   UNL A   1      31.701  28.961  22.326  1.00  0.00     0.130 C 
BRANCH  12  13
ATOM     13  N   UNL A   1      30.619  29.772  21.710  1.00  0.00    -0.212 NA
ATOM     14  H   UNL A   1      30.933  30.740  21.779  1.00  0.00     0.141 HD
BRANCH  13  15
ATOM     15  S   UNL A   1      29.020  29.786  22.206  1.00  0.00     0.225 S 
ATOM     16  O   UNL A   1      28.634  28.474  22.655  1.00  0.00    -0.211 OA
ATOM     17  O   UNL A   1      28.323  30.354  21.063  1.00  0.00    -0.211 OA
BRANCH  15  18
ATOM     18  C   UNL A   1      28.890  30.994  23.514  1.00  0.00     0.273 C 
BRANCH  18  19
ATOM     19  C   UNL A   1      28.531  32.335  22.894  1.00  0.00     0.080 C 
ATOM     20  N   UNL A   1      28.233  33.447  22.380  1.00  0.00    -0.197 NA
ENDBRANCH  18  19
ENDBRANCH  15  18
ENDBRANCH  13  15
ENDBRANCH  12  13
ENDBRANCH   8  12
ENDBRANCH   4   7
ENDBRANCH   2   3
ENDBRANCH   1   2
BRANCH   1  21
ATOM     21  C   UNL A   1      35.624  33.107  28.012  1.00  0.00     0.002 C 
BRANCH  21  22
ATOM     22  C   UNL A   1      35.487  34.192  29.087  1.00  0.00     0.002 C 
BRANCH  22  23
ATOM     23  C   UNL A   1      34.291  35.129  28.887  1.00  0.00     0.021 C 
BRANCH  23  24
ATOM     24  C   UNL A   1      33.014  34.635  29.558  1.00  0.00     0.116 C 
BRANCH  24  25
ATOM     25  N   UNL A   1      32.571  35.565  30.585  1.00  0.00    -0.352 N 
ATOM     26  C   UNL A   1      32.928  35.635  31.903  1.00  0.00     0.251 C 
ATOM     27  H   UNL A   1      31.921  36.241  30.288  1.00  0.00     0.163 HD
ATOM     28  O   UNL A   1      32.242  36.272  32.697  1.00  0.00    -0.269 OA
BRANCH  26  29
ATOM     29  C   UNL A   1      34.145  34.943  32.366  1.00  0.00     0.039 A 
ATOM     30  C   UNL A   1      34.037  33.634  32.837  1.00  0.00     0.014 A 
ATOM     31  C   UNL A   1      35.382  35.596  32.363  1.00  0.00     0.014 A 
ATOM     32  C   UNL A   1      35.181  32.965  33.269  1.00  0.00     0.010 A 
ATOM     33  C   UNL A   1      36.533  34.900  32.714  1.00  0.00     0.010 A 
ATOM     34  C   UNL A   1      36.441  33.583  33.183  1.00  0.00    -0.014 A 
BRANCH  34  35
ATOM     35  C   UNL A   1      37.667  32.849  33.574  1.00  0.00     0.031 A 
ATOM     36  C   UNL A   1      38.247  31.793  32.676  1.00  0.00     0.074 A 
ATOM     37  C   UNL A   1      38.232  33.107  34.767  1.00  0.00     0.049 A 
ATOM     38  N   UNL A   1      39.314  31.056  32.852  1.00  0.00    -0.248 NA
ATOM     39  C   UNL A   1      37.519  31.507  31.432  1.00  0.00     0.031 C 
ATOM     40  C   UNL A   1      37.717  34.058  35.756  1.00  0.00     0.029 A 
ATOM     41  N   UNL A   1      39.358  32.592  35.354  1.00  0.00    -0.354 N 
ATOM     42  C   UNL A   1      39.382  30.220  31.745  1.00  0.00     0.074 A 
ATOM     43  C   UNL A   1      38.210  30.490  30.942  1.00  0.00     0.031 C 
ATOM     44  C   UNL A   1      38.541  34.078  36.814  1.00  0.00     0.029 A 
ATOM     45  C   UNL A   1      39.618  33.118  36.595  1.00  0.00     0.049 A 
ATOM     46  H   UNL A   1      39.925  31.910  34.927  1.00  0.00     0.167 HD
ATOM     47  C   UNL A   1      40.347  29.327  31.415  1.00  0.00     0.037 A 
ATOM     48  C   UNL A   1      40.612  32.854  37.463  1.00  0.00     0.037 A 
ATOM     49  C   UNL A   1      41.509  29.063  32.225  1.00  0.00     0.049 A 
ATOM     50  C   UNL A   1      41.672  31.864  37.080  1.00  0.00     0.074 A 
ATOM     51  C   UNL A   1      42.576  28.222  31.956  1.00  0.00     0.029 A 
ATOM     52  N   UNL A   1      41.748  29.625  33.471  1.00  0.00    -0.354 N 
ATOM     53  N   UNL A   1      41.775  31.143  35.988  1.00  0.00    -0.248 NA
ATOM     54  C   UNL A   1      42.763  31.660  38.041  1.00  0.00     0.031 C 
ATOM     55  C   UNL A   1      43.429  28.231  33.067  1.00  0.00     0.029 A 
ATOM     56  C   UNL A   1      42.929  29.125  34.000  1.00  0.00     0.049 A 
ATOM     57  H   UNL A   1      41.166  30.283  33.915  1.00  0.00     0.167 HD
ATOM     58  C   UNL A   1      42.946  30.410  36.124  1.00  0.00     0.074 A 
ATOM     59  C   UNL A   1      43.532  30.797  37.393  1.00  0.00     0.031 C 
ATOM     60  C   UNL A   1      43.488  29.499  35.277  1.00  0.00     0.037 A 
BRANCH  47  61
ATOM     61  C   UNL A   1      40.167  28.568  30.129  1.00  0.00     0.057 A 
ATOM     62  C   UNL A   1      39.389  27.403  30.057  1.00  0.00     0.134 A 
ATOM     63  C   UNL A   1      40.785  29.000  28.948  1.00  0.00     0.134 A 
ATOM     64  F   UNL A   1      38.776  26.925  31.150  1.00  0.00    -0.206 F 
ATOM     65  C   UNL A   1      39.272  26.673  28.872  1.00  0.00     0.040 A 
ATOM     66  C   UNL A   1      40.647  28.297  27.750  1.00  0.00     0.040 A 
ATOM     67  F   UNL A   1      41.538  30.111  28.940  1.00  0.00    -0.206 F 
ATOM     68  C   UNL A   1      39.899  27.123  27.713  1.00  0.00     0.006 A 
ENDBRANCH  47  61
BRANCH  48  69
ATOM     69  C   UNL A   1      40.644  33.561  38.768  1.00  0.00     0.057 A 
ATOM     70  C   UNL A   1      41.466  34.674  38.972  1.00  0.00     0.134 A 
ATOM     71  C   UNL A   1      39.823  33.161  39.829  1.00  0.00     0.134 A 
ATOM     72  F   UNL A   1      42.286  35.096  37.998  1.00  0.00    -0.206 F 
ATOM     73  C   UNL A   1      41.478  35.360  40.188  1.00  0.00     0.040 A 
ATOM     74  C   UNL A   1      39.804  33.852  41.040  1.00  0.00     0.040 A 
ATOM     75  F   UNL A   1      39.002  32.108  39.692  1.00  0.00    -0.206 F 
ATOM     76  C   UNL A   1      40.638  34.954  41.224  1.00  0.00     0.006 A 
ENDBRANCH  48  69
BRANCH  60  77
ATOM     77  C   UNL A   1      44.784  28.866  35.698  1.00  0.00     0.057 A 
ATOM     78  C   UNL A   1      44.823  27.645  36.386  1.00  0.00     0.134 A 
ATOM     79  C   UNL A   1      46.009  29.478  35.404  1.00  0.00     0.134 A 
ATOM     80  F   UNL A   1      43.686  27.010  36.712  1.00  0.00    -0.206 F 
ATOM     81  C   UNL A   1      46.030  27.077  36.798  1.00  0.00     0.040 A 
ATOM     82  C   UNL A   1      47.222  28.904  35.781  1.00  0.00     0.040 A 
ATOM     83  F   UNL A   1      46.046  30.643  34.738  1.00  0.00    -0.206 F 
ATOM     84  C   UNL A   1      47.236  27.705  36.490  1.00  0.00     0.006 A 
ENDBRANCH  60  77
ENDBRANCH  34  35
ENDBRANCH  26  29
ENDBRANCH  24  25
ENDBRANCH  23  24
ENDBRANCH  22  23
ENDBRANCH  21  22
ENDBRANCH   1  21
TORSDOF 18
ENDMDL
MODEL 3
REMARK VINA RESULT:      -9.7      4.548      6.301
REMARK SMILES N#CCS(=O)(=O)NC[C@H]1CC[C@H](C(=O)NCCCCCCNC(=O)c2ccc(-c3c4nc(c(-c5c(F)cccc5F)c5ccc([nH]5)c(-c5c(F)cccc5F)c5nc(c(-c6c(F)cccc6F)c6ccc3[nH]6)C=C5)C=C4)cc2)O1
REMARK SMILES IDX 17 1 16 2 15 3 13 4 14 5 12 7 9 8 10 9 79 10 11 11 8 12 7 13
REMARK SMILES IDX 4 15 5 16 6 17 3 18 2 19 1 20 18 21 19 22 20 23 21 24 22 25
REMARK SMILES IDX 23 26 24 28 25 29 26 30 78 31 27 32 77 33 28 34 29 35 30 36
REMARK SMILES IDX 71 37 31 38 76 39 70 40 72 41 32 42 75 43 69 44 68 45 33 47
REMARK SMILES IDX 59 48 42 49 58 50 43 51 46 52 57 53 73 54 44 55 45 56 56 58
REMARK SMILES IDX 74 59 47 60 34 61 35 62 40 63 36 64 37 65 39 66 41 67 38 68
REMARK SMILES IDX 60 69 61 70 66 71 62 72 63 73 65 74 67 75 64 76 48 77 49 78
REMARK SMILES IDX 54 79 50 80 51 81 53 82 55 83 52 84
REMARK H PARENT 15 6 7 14 22 27 72 46 46 57
REMARK Flexibility Score: inf
ROOT
ATOM      1  C   UNL A   1      30.595  26.851  25.024  1.00  0.00     0.021 C 
ENDROOT
BRANCH   1   2
ATOM      2  C   UNL A   1      31.674  26.127  25.818  1.00  0.00     0.116 C 
BRANCH   2   3
ATOM      3  N   UNL A   1      31.072  25.187  26.723  1.00  0.00    -0.354 N 
ATOM      4  C   UNL A   1      31.290  23.849  26.813  1.00  0.00     0.249 C 
ATOM      5  O   UNL A   1      30.539  23.200  27.547  1.00  0.00    -0.272 OA
ATOM      6  H   UNL A   1      30.419  25.559  27.357  1.00  0.00     0.163 HD
BRANCH   4   7
ATOM      7  C   UNL A   1      32.414  23.164  26.008  1.00  0.00     0.207 C 
ATOM      8  C   UNL A   1      33.355  20.991  26.097  1.00  0.00     0.134 C 
ATOM      9  C   UNL A   1      34.295  21.923  26.849  1.00  0.00     0.037 C 
ATOM     10  O   UNL A   1      32.222  21.780  25.716  1.00  0.00    -0.364 OA
ATOM     11  C   UNL A   1      33.817  23.325  26.548  1.00  0.00     0.045 C 
BRANCH   8  12
ATOM     12  C   UNL A   1      34.004  20.301  24.889  1.00  0.00     0.130 C 
BRANCH  12  13
ATOM     13  N   UNL A   1      33.052  19.661  23.944  1.00  0.00    -0.212 NA
ATOM     14  H   UNL A   1      32.136  20.041  24.183  1.00  0.00     0.141 HD
BRANCH  13  15
ATOM     15  S   UNL A   1      32.820  18.012  23.775  1.00  0.00     0.225 S 
ATOM     16  O   UNL A   1      32.537  17.695  22.399  1.00  0.00    -0.211 OA
ATOM     17  O   UNL A   1      31.802  17.716  24.770  1.00  0.00    -0.211 OA
BRANCH  15  18
ATOM     18  C   UNL A   1      34.312  17.214  24.342  1.00  0.00     0.273 C 
BRANCH  18  19
ATOM     19  C   UNL A   1      33.941  15.856  24.916  1.00  0.00     0.080 C 
ATOM     20  N   UNL A   1      33.633  14.730  25.392  1.00  0.00    -0.197 NA
ENDBRANCH  18  19
ENDBRANCH  15  18
ENDBRANCH  13  15
ENDBRANCH  12  13
ENDBRANCH   8  12
ENDBRANCH   4   7
ENDBRANCH   2   3
ENDBRANCH   1   2
BRANCH   1  21
ATOM     21  C   UNL A   1      31.047  28.242  24.583  1.00  0.00     0.002 C 
BRANCH  21  22
ATOM     22  C   UNL A   1      32.480  28.586  25.007  1.00  0.00     0.002 C 
BRANCH  22  23
ATOM     23  C   UNL A   1      32.709  30.072  25.303  1.00  0.00     0.021 C 
BRANCH  23  24
ATOM     24  C   UNL A   1      32.001  30.557  26.563  1.00  0.00     0.116 C 
BRANCH  24  25
ATOM     25  N   UNL A   1      32.030  32.008  26.653  1.00  0.00    -0.352 N 
ATOM     26  C   UNL A   1      32.822  32.813  27.424  1.00  0.00     0.251 C 
ATOM     27  H   UNL A   1      31.387  32.479  26.075  1.00  0.00     0.163 HD
ATOM     28  O   UNL A   1      32.516  33.987  27.610  1.00  0.00    -0.269 OA
BRANCH  26  29
ATOM     29  C   UNL A   1      34.050  32.264  28.028  1.00  0.00     0.039 A 
ATOM     30  C   UNL A   1      35.144  33.108  28.217  1.00  0.00     0.014 A 
ATOM     31  C   UNL A   1      34.128  30.912  28.379  1.00  0.00     0.014 A 
ATOM     32  C   UNL A   1      36.308  32.604  28.796  1.00  0.00     0.010 A 
ATOM     33  C   UNL A   1      35.257  30.431  29.032  1.00  0.00     0.010 A 
ATOM     34  C   UNL A   1      36.362  31.269  29.234  1.00  0.00    -0.014 A 
BRANCH  34  35
ATOM     35  C   UNL A   1      37.571  30.750  29.915  1.00  0.00     0.031 A 
ATOM     36  C   UNL A   1      37.867  31.120  31.340  1.00  0.00     0.074 A 
ATOM     37  C   UNL A   1      38.428  29.976  29.225  1.00  0.00     0.049 A 
ATOM     38  N   UNL A   1      38.872  30.756  32.096  1.00  0.00    -0.248 NA
ATOM     39  C   UNL A   1      36.928  32.043  31.994  1.00  0.00     0.031 C 
ATOM     40  C   UNL A   1      38.285  29.609  27.814  1.00  0.00     0.029 A 
ATOM     41  N   UNL A   1      39.591  29.363  29.613  1.00  0.00    -0.354 N 
ATOM     42  C   UNL A   1      38.686  31.406  33.309  1.00  0.00     0.074 A 
ATOM     43  C   UNL A   1      37.515  32.242  33.164  1.00  0.00     0.031 C 
ATOM     44  C   UNL A   1      39.305  28.812  27.463  1.00  0.00     0.029 A 
ATOM     45  C   UNL A   1      40.191  28.642  28.611  1.00  0.00     0.049 A 
ATOM     46  H   UNL A   1      39.960  29.433  30.522  1.00  0.00     0.167 HD
ATOM     47  C   UNL A   1      39.410  31.294  34.449  1.00  0.00     0.037 A 
ATOM     48  C   UNL A   1      41.331  27.926  28.613  1.00  0.00     0.037 A 
ATOM     49  C   UNL A   1      40.578  30.460  34.582  1.00  0.00     0.049 A 
ATOM     50  C   UNL A   1      42.118  27.813  29.885  1.00  0.00     0.074 A 
ATOM     51  C   UNL A   1      41.351  30.230  35.708  1.00  0.00     0.029 A 
ATOM     52  N   UNL A   1      41.151  29.732  33.549  1.00  0.00    -0.354 N 
ATOM     53  N   UNL A   1      41.885  28.361  31.054  1.00  0.00    -0.248 NA
ATOM     54  C   UNL A   1      43.320  26.972  29.844  1.00  0.00     0.031 C 
ATOM     55  C   UNL A   1      42.425  29.411  35.339  1.00  0.00     0.029 A 
ATOM     56  C   UNL A   1      42.287  29.077  34.001  1.00  0.00     0.049 A 
ATOM     57  H   UNL A   1      40.802  29.685  32.630  1.00  0.00     0.167 HD
ATOM     58  C   UNL A   1      42.901  27.921  31.891  1.00  0.00     0.074 A 
ATOM     59  C   UNL A   1      43.736  27.039  31.101  1.00  0.00     0.031 C 
ATOM     60  C   UNL A   1      43.124  28.221  33.196  1.00  0.00     0.037 A 
BRANCH  47  61
ATOM     61  C   UNL A   1      38.959  32.110  35.630  1.00  0.00     0.057 A 
ATOM     62  C   UNL A   1      39.318  33.458  35.782  1.00  0.00     0.134 A 
ATOM     63  C   UNL A   1      38.163  31.542  36.632  1.00  0.00     0.134 A 
ATOM     64  F   UNL A   1      40.087  34.065  34.866  1.00  0.00    -0.206 F 
ATOM     65  C   UNL A   1      38.942  34.193  36.908  1.00  0.00     0.040 A 
ATOM     66  C   UNL A   1      37.752  32.277  37.745  1.00  0.00     0.040 A 
ATOM     67  F   UNL A   1      37.775  30.260  36.549  1.00  0.00    -0.206 F 
ATOM     68  C   UNL A   1      38.153  33.602  37.892  1.00  0.00     0.006 A 
ENDBRANCH  47  61
BRANCH  48  69
ATOM     69  C   UNL A   1      41.769  27.253  27.366  1.00  0.00     0.057 A 
ATOM     70  C   UNL A   1      42.606  27.894  26.447  1.00  0.00     0.134 A 
ATOM     71  C   UNL A   1      41.391  25.934  27.083  1.00  0.00     0.134 A 
ATOM     72  F   UNL A   1      42.991  29.162  26.655  1.00  0.00    -0.206 F 
ATOM     73  C   UNL A   1      43.045  27.253  25.288  1.00  0.00     0.040 A 
ATOM     74  C   UNL A   1      41.843  25.272  25.942  1.00  0.00     0.040 A 
ATOM     75  F   UNL A   1      40.599  25.260  27.932  1.00  0.00    -0.206 F 
ATOM     76  C   UNL A   1      42.670  25.934  25.037  1.00  0.00     0.006 A 
ENDBRANCH  48  69
BRANCH  60  77
ATOM     77  C   UNL A   1      44.318  27.580  33.846  1.00  0.00     0.057 A 
ATOM     78  C   UNL A   1      45.570  28.209  33.880  1.00  0.00     0.134 A 
ATOM     79  C   UNL A   1      44.212  26.323  34.454  1.00  0.00     0.134 A 
ATOM     80  F   UNL A   1      45.745  29.409  33.305  1.00  0.00    -0.206 F 
ATOM     81  C   UNL A   1      46.681  27.594  34.462  1.00  0.00     0.040 A 
ATOM     82  C   UNL A   1      45.306  25.713  35.068  1.00  0.00     0.040 A 
ATOM     83  F   UNL A   1      43.041  25.669  34.469  1.00  0.00    -0.206 F 
ATOM     84  C   UNL A   1      46.548  26.344  35.063  1.00  0.00     0.006 A 
ENDBRANCH  60  77
ENDBRANCH  34  35
ENDBRANCH  26  29
ENDBRANCH  24  25
ENDBRANCH  23  24
ENDBRANCH  22  23
ENDBRANCH  21  22
ENDBRANCH   1  21
TORSDOF 18
ENDMDL
