MODEL 1
REMARK VINA RESULT:     -10.3      0.000      0.000
REMARK SMILES CCC[C@H](Cc1ccn(-c2ccccc2)n1)C(=O)NCCCCCCNC(=O)c1ccc(-c2c3nc(c(-c4c(F)cccc4F)c4ccc([nH]4)c(-c4c(F)cccc4F)c4nc(c(-c5c(F)cccc5F)c5ccc2[nH]5)C=C4)C=C3)cc1
REMARK SMILES IDX 22 1 21 2 20 3 19 4 17 5 18 6 4 8 3 9 2 10 1 11 5 12 6 13
REMARK SMILES IDX 7 14 16 15 8 16 9 17 10 18 11 19 15 20 12 21 14 22 13 23
REMARK SMILES IDX 23 24 24 25 25 26 26 27 27 28 28 30 29 31 30 32 82 33 31 34
REMARK SMILES IDX 81 35 32 36 33 37 34 38 75 39 35 40 80 41 74 42 76 43 36 44
REMARK SMILES IDX 79 45 73 46 72 47 37 49 63 50 46 51 62 52 47 53 50 54 61 55
REMARK SMILES IDX 77 56 48 57 49 58 60 60 78 61 51 62 38 63 39 64 44 65 40 66
REMARK SMILES IDX 41 67 43 68 45 69 42 70 64 71 65 72 70 73 66 74 67 75 69 76
REMARK SMILES IDX 71 77 68 78 52 79 53 80 58 81 54 82 55 83 57 84 59 85 56 86
REMARK H PARENT 19 7 26 29 76 48 50 59
REMARK Flexibility Score: inf
ROOT
ATOM      1  C   UNL A   1      31.896  26.260  26.258  1.00  0.00     0.002 C 
ENDROOT
BRANCH   1   2
ATOM      2  C   UNL A   1      32.418  24.823  26.261  1.00  0.00     0.021 C 
BRANCH   2   3
ATOM      3  C   UNL A   1      33.921  24.583  26.165  1.00  0.00     0.116 C 
BRANCH   3   4
ATOM      4  N   UNL A   1      34.216  23.162  26.305  1.00  0.00    -0.356 N 
ATOM      5  C   UNL A   1      34.949  22.289  25.564  1.00  0.00     0.223 C 
ATOM      6  O   UNL A   1      34.723  21.088  25.763  1.00  0.00    -0.275 OA
ATOM      7  H   UNL A   1      33.801  22.752  27.098  1.00  0.00     0.163 HD
BRANCH   5   8
ATOM      8  C   UNL A   1      36.058  22.675  24.581  1.00  0.00     0.084 C 
BRANCH   8   9
ATOM      9  C   UNL A   1      37.085  23.703  25.079  1.00  0.00     0.013 C 
BRANCH   9  10
ATOM     10  C   UNL A   1      38.047  23.119  26.127  1.00  0.00    -0.003 C 
ATOM     11  C   UNL A   1      38.579  21.741  25.747  1.00  0.00     0.004 C 
ENDBRANCH   9  10
ENDBRANCH   8   9
BRANCH   8  12
ATOM     12  C   UNL A   1      35.634  22.832  23.121  1.00  0.00     0.071 C 
BRANCH  12  13
ATOM     13  C   UNL A   1      34.322  23.446  22.807  1.00  0.00     0.064 A 
ATOM     14  C   UNL A   1      33.068  22.822  22.631  1.00  0.00     0.046 A 
ATOM     15  N   UNL A   1      34.215  24.776  22.813  1.00  0.00    -0.173 NA
ATOM     16  C   UNL A   1      32.164  23.860  22.626  1.00  0.00     0.115 A 
ATOM     17  N   UNL A   1      32.894  25.028  22.730  1.00  0.00    -0.241 N 
BRANCH  17  18
ATOM     18  C   UNL A   1      32.406  26.350  22.627  1.00  0.00     0.065 A 
ATOM     19  C   UNL A   1      33.287  27.416  22.641  1.00  0.00     0.028 A 
ATOM     20  C   UNL A   1      31.025  26.598  22.608  1.00  0.00     0.028 A 
ATOM     21  C   UNL A   1      32.768  28.702  22.751  1.00  0.00     0.002 A 
ATOM     22  C   UNL A   1      30.531  27.890  22.802  1.00  0.00     0.002 A 
ATOM     23  C   UNL A   1      31.411  28.950  22.892  1.00  0.00     0.000 A 
ENDBRANCH  17  18
ENDBRANCH  12  13
ENDBRANCH   8  12
ENDBRANCH   5   8
ENDBRANCH   3   4
ENDBRANCH   2   3
ENDBRANCH   1   2
BRANCH   1  24
ATOM     24  C   UNL A   1      32.907  27.398  26.442  1.00  0.00     0.002 C 
BRANCH  24  25
ATOM     25  C   UNL A   1      32.374  28.818  26.642  1.00  0.00     0.021 C 
BRANCH  25  26
ATOM     26  C   UNL A   1      33.296  29.976  26.257  1.00  0.00     0.116 C 
BRANCH  26  27
ATOM     27  N   UNL A   1      33.211  31.151  27.110  1.00  0.00    -0.352 N 
ATOM     28  C   UNL A   1      34.104  31.730  28.003  1.00  0.00     0.251 C 
ATOM     29  H   UNL A   1      32.353  31.630  27.040  1.00  0.00     0.163 HD
ATOM     30  O   UNL A   1      33.726  32.718  28.613  1.00  0.00    -0.269 OA
BRANCH  28  31
ATOM     31  C   UNL A   1      35.504  31.237  28.234  1.00  0.00     0.039 A 
ATOM     32  C   UNL A   1      35.765  29.847  28.194  1.00  0.00     0.014 A 
ATOM     33  C   UNL A   1      36.566  32.070  28.527  1.00  0.00     0.014 A 
ATOM     34  C   UNL A   1      37.042  29.318  28.495  1.00  0.00     0.010 A 
ATOM     35  C   UNL A   1      37.803  31.547  28.864  1.00  0.00     0.010 A 
ATOM     36  C   UNL A   1      38.071  30.178  28.858  1.00  0.00    -0.014 A 
BRANCH  36  37
ATOM     37  C   UNL A   1      39.466  29.790  29.139  1.00  0.00     0.031 A 
ATOM     38  C   UNL A   1      39.838  29.753  30.593  1.00  0.00     0.074 A 
ATOM     39  C   UNL A   1      40.263  29.130  28.264  1.00  0.00     0.049 A 
ATOM     40  N   UNL A   1      40.799  30.401  31.175  1.00  0.00    -0.248 NA
ATOM     41  C   UNL A   1      39.019  28.968  31.535  1.00  0.00     0.031 C 
ATOM     42  C   UNL A   1      40.001  28.783  26.869  1.00  0.00     0.029 A 
ATOM     43  N   UNL A   1      41.434  28.461  28.511  1.00  0.00    -0.354 N 
ATOM     44  C   UNL A   1      40.789  29.976  32.501  1.00  0.00     0.074 A 
ATOM     45  C   UNL A   1      39.549  29.293  32.710  1.00  0.00     0.031 C 
ATOM     46  C   UNL A   1      40.783  27.743  26.500  1.00  0.00     0.029 A 
ATOM     47  C   UNL A   1      41.753  27.502  27.553  1.00  0.00     0.049 A 
ATOM     48  H   UNL A   1      41.999  28.642  29.296  1.00  0.00     0.167 HD
ATOM     49  C   UNL A   1      41.907  29.951  33.275  1.00  0.00     0.037 A 
ATOM     50  C   UNL A   1      42.740  26.573  27.604  1.00  0.00     0.037 A 
ATOM     51  C   UNL A   1      42.964  30.745  32.713  1.00  0.00     0.049 A 
ATOM     52  C   UNL A   1      43.735  27.033  28.594  1.00  0.00     0.074 A 
ATOM     53  C   UNL A   1      43.092  32.055  32.295  1.00  0.00     0.029 A 
ATOM     54  N   UNL A   1      44.050  30.084  32.200  1.00  0.00    -0.354 N 
ATOM     55  N   UNL A   1      44.520  28.056  28.420  1.00  0.00    -0.248 NA
ATOM     56  C   UNL A   1      43.641  26.542  29.959  1.00  0.00     0.031 C 
ATOM     57  C   UNL A   1      43.982  32.008  31.182  1.00  0.00     0.029 A 
ATOM     58  C   UNL A   1      44.357  30.677  31.005  1.00  0.00     0.049 A 
ATOM     59  H   UNL A   1      44.522  29.326  32.613  1.00  0.00     0.167 HD
ATOM     60  C   UNL A   1      44.657  28.604  29.682  1.00  0.00     0.074 A 
ATOM     61  C   UNL A   1      44.235  27.552  30.599  1.00  0.00     0.031 C 
ATOM     62  C   UNL A   1      44.809  29.950  29.842  1.00  0.00     0.037 A 
BRANCH  49  63
ATOM     63  C   UNL A   1      42.155  28.920  34.354  1.00  0.00     0.057 A 
ATOM     64  C   UNL A   1      42.494  29.353  35.647  1.00  0.00     0.134 A 
ATOM     65  C   UNL A   1      42.331  27.538  34.125  1.00  0.00     0.134 A 
ATOM     66  F   UNL A   1      42.410  30.650  35.980  1.00  0.00    -0.206 F 
ATOM     67  C   UNL A   1      43.010  28.488  36.619  1.00  0.00     0.040 A 
ATOM     68  C   UNL A   1      42.779  26.653  35.110  1.00  0.00     0.040 A 
ATOM     69  F   UNL A   1      42.179  26.980  32.916  1.00  0.00    -0.206 F 
ATOM     70  C   UNL A   1      43.150  27.131  36.353  1.00  0.00     0.006 A 
ENDBRANCH  49  63
BRANCH  50  71
ATOM     71  C   UNL A   1      42.850  25.247  26.957  1.00  0.00     0.057 A 
ATOM     72  C   UNL A   1      42.006  24.184  27.313  1.00  0.00     0.134 A 
ATOM     73  C   UNL A   1      43.605  25.068  25.785  1.00  0.00     0.134 A 
ATOM     74  F   UNL A   1      41.214  24.274  28.392  1.00  0.00    -0.206 F 
ATOM     75  C   UNL A   1      41.901  23.020  26.541  1.00  0.00     0.040 A 
ATOM     76  C   UNL A   1      43.515  23.908  25.007  1.00  0.00     0.040 A 
ATOM     77  F   UNL A   1      44.383  26.053  25.314  1.00  0.00    -0.206 F 
ATOM     78  C   UNL A   1      42.650  22.883  25.377  1.00  0.00     0.006 A 
ENDBRANCH  50  71
BRANCH  62  79
ATOM     79  C   UNL A   1      45.187  30.763  28.636  1.00  0.00     0.057 A 
ATOM     80  C   UNL A   1      44.268  31.264  27.703  1.00  0.00     0.134 A 
ATOM     81  C   UNL A   1      46.518  31.169  28.493  1.00  0.00     0.134 A 
ATOM     82  F   UNL A   1      42.957  31.017  27.815  1.00  0.00    -0.206 F 
ATOM     83  C   UNL A   1      44.663  32.089  26.646  1.00  0.00     0.040 A 
ATOM     84  C   UNL A   1      46.920  32.021  27.463  1.00  0.00     0.040 A 
ATOM     85  F   UNL A   1      47.443  30.776  29.383  1.00  0.00    -0.206 F 
ATOM     86  C   UNL A   1      45.995  32.475  26.528  1.00  0.00     0.006 A 
ENDBRANCH  62  79
ENDBRANCH  36  37
ENDBRANCH  28  31
ENDBRANCH  26  27
ENDBRANCH  25  26
ENDBRANCH  24  25
ENDBRANCH   1  24
TORSDOF 18
ENDMDL
MODEL 2
REMARK VINA RESULT:     -10.2      2.639      7.783
REMARK SMILES CCC[C@H](Cc1ccn(-c2ccccc2)n1)C(=O)NCCCCCCNC(=O)c1ccc(-c2c3nc(c(-c4c(F)cccc4F)c4ccc([nH]4)c(-c4c(F)cccc4F)c4nc(c(-c5c(F)cccc5F)c5ccc2[nH]5)C=C4)C=C3)cc1
REMARK SMILES IDX 22 1 21 2 20 3 19 4 17 5 18 6 4 8 3 9 2 10 1 11 5 12 6 13
REMARK SMILES IDX 7 14 16 15 8 16 9 17 10 18 11 19 15 20 12 21 14 22 13 23
REMARK SMILES IDX 23 24 24 25 25 26 26 27 27 28 28 30 29 31 30 32 82 33 31 34
REMARK SMILES IDX 81 35 32 36 33 37 34 38 75 39 35 40 80 41 74 42 76 43 36 44
REMARK SMILES IDX 79 45 73 46 72 47 37 49 63 50 46 51 62 52 47 53 50 54 61 55
REMARK SMILES IDX 77 56 48 57 49 58 60 60 78 61 51 62 38 63 39 64 44 65 40 66
REMARK SMILES IDX 41 67 43 68 45 69 42 70 64 71 65 72 70 73 66 74 67 75 69 76
REMARK SMILES IDX 71 77 68 78 52 79 53 80 58 81 54 82 55 83 57 84 59 85 56 86
REMARK H PARENT 19 7 26 29 76 48 50 59
REMARK Flexibility Score: inf
ROOT
ATOM      1  C   UNL A   1      35.082  24.128  24.019  1.00  0.00     0.002 C 
ENDROOT
BRANCH   1   2
ATOM      2  C   UNL A   1      34.810  24.797  25.366  1.00  0.00     0.021 C 
BRANCH   2   3
ATOM      3  C   UNL A   1      33.953  26.058  25.405  1.00  0.00     0.116 C 
BRANCH   3   4
ATOM      4  N   UNL A   1      32.744  25.824  26.186  1.00  0.00    -0.356 N 
ATOM      5  C   UNL A   1      31.585  25.164  25.924  1.00  0.00     0.223 C 
ATOM      6  O   UNL A   1      30.628  25.437  26.661  1.00  0.00    -0.275 OA
ATOM      7  H   UNL A   1      32.774  26.224  27.084  1.00  0.00     0.163 HD
BRANCH   5   8
ATOM      8  C   UNL A   1      31.403  24.079  24.858  1.00  0.00     0.084 C 
BRANCH   8   9
ATOM      9  C   UNL A   1      30.600  24.476  23.610  1.00  0.00     0.013 C 
BRANCH   9  10
ATOM     10  C   UNL A   1      30.967  25.876  23.091  1.00  0.00    -0.003 C 
ATOM     11  C   UNL A   1      31.891  25.841  21.878  1.00  0.00     0.004 C 
ENDBRANCH   9  10
ENDBRANCH   8   9
BRANCH   8  12
ATOM     12  C   UNL A   1      31.141  22.666  25.380  1.00  0.00     0.071 C 
BRANCH  12  13
ATOM     13  C   UNL A   1      31.704  21.505  24.652  1.00  0.00     0.064 A 
ATOM     14  C   UNL A   1      32.037  21.390  23.285  1.00  0.00     0.046 A 
ATOM     15  N   UNL A   1      32.103  20.439  25.348  1.00  0.00    -0.173 NA
ATOM     16  C   UNL A   1      32.756  20.219  23.203  1.00  0.00     0.115 A 
ATOM     17  N   UNL A   1      32.769  19.667  24.468  1.00  0.00    -0.241 N 
BRANCH  17  18
ATOM     18  C   UNL A   1      33.268  18.398  24.840  1.00  0.00     0.065 A 
ATOM     19  C   UNL A   1      34.503  17.978  24.380  1.00  0.00     0.028 A 
ATOM     20  C   UNL A   1      32.479  17.517  25.595  1.00  0.00     0.028 A 
ATOM     21  C   UNL A   1      34.870  16.652  24.586  1.00  0.00     0.002 A 
ATOM     22  C   UNL A   1      32.832  16.171  25.717  1.00  0.00     0.002 A 
ATOM     23  C   UNL A   1      34.030  15.730  25.193  1.00  0.00     0.000 A 
ENDBRANCH  17  18
ENDBRANCH  12  13
ENDBRANCH   8  12
ENDBRANCH   5   8
ENDBRANCH   3   4
ENDBRANCH   2   3
ENDBRANCH   1   2
BRANCH   1  24
ATOM     24  C   UNL A   1      35.431  22.635  24.008  1.00  0.00     0.002 C 
BRANCH  24  25
ATOM     25  C   UNL A   1      36.898  22.230  24.150  1.00  0.00     0.021 C 
BRANCH  25  26
ATOM     26  C   UNL A   1      37.480  22.172  25.563  1.00  0.00     0.116 C 
BRANCH  26  27
ATOM     27  N   UNL A   1      38.745  21.465  25.689  1.00  0.00    -0.352 N 
ATOM     28  C   UNL A   1      39.963  21.813  26.261  1.00  0.00     0.251 C 
ATOM     29  H   UNL A   1      38.736  20.564  25.293  1.00  0.00     0.163 HD
ATOM     30  O   UNL A   1      40.873  21.003  26.179  1.00  0.00    -0.269 OA
BRANCH  28  31
ATOM     31  C   UNL A   1      40.212  23.100  26.995  1.00  0.00     0.039 A 
ATOM     32  C   UNL A   1      39.380  24.215  26.741  1.00  0.00     0.014 A 
ATOM     33  C   UNL A   1      41.248  23.276  27.892  1.00  0.00     0.014 A 
ATOM     34  C   UNL A   1      39.623  25.478  27.332  1.00  0.00     0.010 A 
ATOM     35  C   UNL A   1      41.510  24.523  28.434  1.00  0.00     0.010 A 
ATOM     36  C   UNL A   1      40.717  25.641  28.172  1.00  0.00    -0.014 A 
BRANCH  36  37
ATOM     37  C   UNL A   1      41.068  26.870  28.909  1.00  0.00     0.031 A 
ATOM     38  C   UNL A   1      42.265  27.610  28.384  1.00  0.00     0.074 A 
ATOM     39  C   UNL A   1      40.214  27.541  29.720  1.00  0.00     0.049 A 
ATOM     40  N   UNL A   1      43.338  27.931  29.038  1.00  0.00    -0.248 NA
ATOM     41  C   UNL A   1      42.325  27.981  26.958  1.00  0.00     0.031 C 
ATOM     42  C   UNL A   1      38.868  27.162  30.145  1.00  0.00     0.029 A 
ATOM     43  N   UNL A   1      40.318  28.821  30.199  1.00  0.00    -0.354 N 
ATOM     44  C   UNL A   1      44.112  28.671  28.147  1.00  0.00     0.074 A 
ATOM     45  C   UNL A   1      43.557  28.466  26.844  1.00  0.00     0.031 C 
ATOM     46  C   UNL A   1      38.180  28.264  30.524  1.00  0.00     0.029 A 
ATOM     47  C   UNL A   1      39.102  29.383  30.583  1.00  0.00     0.049 A 
ATOM     48  H   UNL A   1      41.174  29.300  30.266  1.00  0.00     0.167 HD
ATOM     49  C   UNL A   1      44.983  29.633  28.552  1.00  0.00     0.037 A 
ATOM     50  C   UNL A   1      38.856  30.671  30.930  1.00  0.00     0.037 A 
ATOM     51  C   UNL A   1      45.283  29.529  29.954  1.00  0.00     0.049 A 
ATOM     52  C   UNL A   1      40.144  31.284  31.314  1.00  0.00     0.074 A 
ATOM     53  C   UNL A   1      45.754  28.531  30.784  1.00  0.00     0.029 A 
ATOM     54  N   UNL A   1      44.782  30.498  30.784  1.00  0.00    -0.354 N 
ATOM     55  N   UNL A   1      40.806  30.977  32.392  1.00  0.00    -0.248 NA
ATOM     56  C   UNL A   1      40.888  32.032  30.314  1.00  0.00     0.031 C 
ATOM     57  C   UNL A   1      45.097  28.741  32.031  1.00  0.00     0.029 A 
ATOM     58  C   UNL A   1      44.283  29.865  31.890  1.00  0.00     0.049 A 
ATOM     59  H   UNL A   1      44.782  31.468  30.616  1.00  0.00     0.167 HD
ATOM     60  C   UNL A   1      42.134  31.090  32.024  1.00  0.00     0.074 A 
ATOM     61  C   UNL A   1      42.122  31.889  30.804  1.00  0.00     0.031 C 
ATOM     62  C   UNL A   1      43.079  30.275  32.573  1.00  0.00     0.037 A 
BRANCH  49  63
ATOM     63  C   UNL A   1      45.280  30.883  27.752  1.00  0.00     0.057 A 
ATOM     64  C   UNL A   1      46.617  31.205  27.460  1.00  0.00     0.134 A 
ATOM     65  C   UNL A   1      44.349  31.910  27.482  1.00  0.00     0.134 A 
ATOM     66  F   UNL A   1      47.603  30.330  27.709  1.00  0.00    -0.206 F 
ATOM     67  C   UNL A   1      47.000  32.462  26.981  1.00  0.00     0.040 A 
ATOM     68  C   UNL A   1      44.713  33.144  26.937  1.00  0.00     0.040 A 
ATOM     69  F   UNL A   1      43.056  31.819  27.819  1.00  0.00    -0.206 F 
ATOM     70  C   UNL A   1      46.047  33.437  26.714  1.00  0.00     0.006 A 
ENDBRANCH  49  63
BRANCH  50  71
ATOM     71  C   UNL A   1      37.614  31.472  30.847  1.00  0.00     0.057 A 
ATOM     72  C   UNL A   1      37.089  31.885  29.613  1.00  0.00     0.134 A 
ATOM     73  C   UNL A   1      36.767  31.620  31.958  1.00  0.00     0.134 A 
ATOM     74  F   UNL A   1      37.804  31.745  28.486  1.00  0.00    -0.206 F 
ATOM     75  C   UNL A   1      35.791  32.396  29.485  1.00  0.00     0.040 A 
ATOM     76  C   UNL A   1      35.471  32.136  31.847  1.00  0.00     0.040 A 
ATOM     77  F   UNL A   1      37.143  31.184  33.169  1.00  0.00    -0.206 F 
ATOM     78  C   UNL A   1      34.973  32.514  30.604  1.00  0.00     0.006 A 
ENDBRANCH  50  71
BRANCH  62  79
ATOM     79  C   UNL A   1      42.719  29.524  33.824  1.00  0.00     0.057 A 
ATOM     80  C   UNL A   1      42.115  28.259  33.838  1.00  0.00     0.134 A 
ATOM     81  C   UNL A   1      43.125  30.044  35.058  1.00  0.00     0.134 A 
ATOM     82  F   UNL A   1      41.784  27.632  32.702  1.00  0.00    -0.206 F 
ATOM     83  C   UNL A   1      41.879  27.566  35.029  1.00  0.00     0.040 A 
ATOM     84  C   UNL A   1      42.928  29.347  36.251  1.00  0.00     0.040 A 
ATOM     85  F   UNL A   1      43.762  31.224  35.116  1.00  0.00    -0.206 F 
ATOM     86  C   UNL A   1      42.293  28.108  36.241  1.00  0.00     0.006 A 
ENDBRANCH  62  79
ENDBRANCH  36  37
ENDBRANCH  28  31
ENDBRANCH  26  27
ENDBRANCH  25  26
ENDBRANCH  24  25
ENDBRANCH   1  24
TORSDOF 18
ENDMDL
MODEL 3
REMARK VINA RESULT:     -10.2      2.229      7.534
REMARK SMILES CCC[C@H](Cc1ccn(-c2ccccc2)n1)C(=O)NCCCCCCNC(=O)c1ccc(-c2c3nc(c(-c4c(F)cccc4F)c4ccc([nH]4)c(-c4c(F)cccc4F)c4nc(c(-c5c(F)cccc5F)c5ccc2[nH]5)C=C4)C=C3)cc1
REMARK SMILES IDX 22 1 21 2 20 3 19 4 17 5 18 6 4 8 3 9 2 10 1 11 5 12 6 13
REMARK SMILES IDX 7 14 16 15 8 16 9 17 10 18 11 19 15 20 12 21 14 22 13 23
REMARK SMILES IDX 23 24 24 25 25 26 26 27 27 28 28 30 29 31 30 32 82 33 31 34
REMARK SMILES IDX 81 35 32 36 33 37 34 38 75 39 35 40 80 41 74 42 76 43 36 44
REMARK SMILES IDX 79 45 73 46 72 47 37 49 63 50 46 51 62 52 47 53 50 54 61 55
REMARK SMILES IDX 77 56 48 57 49 58 60 60 78 61 51 62 38 63 39 64 44 65 40 66
REMARK SMILES IDX 41 67 43 68 45 69 42 70 64 71 65 72 70 73 66 74 67 75 69 76
REMARK SMILES IDX 71 77 68 78 52 79 53 80 58 81 54 82 55 83 57 84 59 85 56 86
REMARK H PARENT 19 7 26 29 76 48 50 59
REMARK Flexibility Score: inf
ROOT
ATOM      1  C   UNL A   1      34.604  23.501  23.415  1.00  0.00     0.002 C 
ENDROOT
BRANCH   1   2
ATOM      2  C   UNL A   1      33.854  24.830  23.317  1.00  0.00     0.021 C 
BRANCH   2   3
ATOM      3  C   UNL A   1      34.175  25.934  24.318  1.00  0.00     0.116 C 
BRANCH   3   4
ATOM      4  N   UNL A   1      33.567  27.191  23.897  1.00  0.00    -0.356 N 
ATOM      5  C   UNL A   1      32.759  28.086  24.524  1.00  0.00     0.223 C 
ATOM      6  O   UNL A   1      32.145  28.870  23.788  1.00  0.00    -0.275 OA
ATOM      7  H   UNL A   1      33.787  27.442  22.971  1.00  0.00     0.163 HD
BRANCH   5   8
ATOM      8  C   UNL A   1      32.616  28.240  26.041  1.00  0.00     0.084 C 
BRANCH   8   9
ATOM      9  C   UNL A   1      33.919  28.239  26.854  1.00  0.00     0.013 C 
BRANCH   9  10
ATOM     10  C   UNL A   1      34.471  29.655  27.090  1.00  0.00    -0.003 C 
ATOM     11  C   UNL A   1      35.877  29.657  27.681  1.00  0.00     0.004 C 
ENDBRANCH   9  10
ENDBRANCH   8   9
BRANCH   8  12
ATOM     12  C   UNL A   1      31.447  27.491  26.682  1.00  0.00     0.071 C 
BRANCH  12  13
ATOM     13  C   UNL A   1      31.130  26.115  26.233  1.00  0.00     0.064 A 
ATOM     14  C   UNL A   1      30.130  25.682  25.337  1.00  0.00     0.046 A 
ATOM     15  N   UNL A   1      31.951  25.121  26.576  1.00  0.00    -0.173 NA
ATOM     16  C   UNL A   1      30.447  24.368  25.075  1.00  0.00     0.115 A 
ATOM     17  N   UNL A   1      31.550  24.060  25.848  1.00  0.00    -0.241 N 
BRANCH  17  18
ATOM     18  C   UNL A   1      32.146  22.790  26.015  1.00  0.00     0.065 A 
ATOM     19  C   UNL A   1      33.194  22.629  26.902  1.00  0.00     0.028 A 
ATOM     20  C   UNL A   1      31.747  21.708  25.216  1.00  0.00     0.028 A 
ATOM     21  C   UNL A   1      33.893  21.426  26.889  1.00  0.00     0.002 A 
ATOM     22  C   UNL A   1      32.515  20.542  25.162  1.00  0.00     0.002 A 
ATOM     23  C   UNL A   1      33.609  20.407  25.993  1.00  0.00     0.000 A 
ENDBRANCH  17  18
ENDBRANCH  12  13
ENDBRANCH   8  12
ENDBRANCH   5   8
ENDBRANCH   3   4
ENDBRANCH   2   3
ENDBRANCH   1   2
BRANCH   1  24
ATOM     24  C   UNL A   1      36.084  23.532  23.812  1.00  0.00     0.002 C 
BRANCH  24  25
ATOM     25  C   UNL A   1      36.716  22.255  24.368  1.00  0.00     0.021 C 
BRANCH  25  26
ATOM     26  C   UNL A   1      37.506  22.370  25.671  1.00  0.00     0.116 C 
BRANCH  26  27
ATOM     27  N   UNL A   1      38.821  21.748  25.661  1.00  0.00    -0.352 N 
ATOM     28  C   UNL A   1      40.056  22.153  26.151  1.00  0.00     0.251 C 
ATOM     29  H   UNL A   1      38.838  20.866  25.222  1.00  0.00     0.163 HD
ATOM     30  O   UNL A   1      41.008  21.412  25.956  1.00  0.00    -0.269 OA
BRANCH  28  31
ATOM     31  C   UNL A   1      40.281  23.420  26.926  1.00  0.00     0.039 A 
ATOM     32  C   UNL A   1      39.520  24.570  26.610  1.00  0.00     0.014 A 
ATOM     33  C   UNL A   1      41.229  23.545  27.923  1.00  0.00     0.014 A 
ATOM     34  C   UNL A   1      39.751  25.815  27.242  1.00  0.00     0.010 A 
ATOM     35  C   UNL A   1      41.484  24.774  28.507  1.00  0.00     0.010 A 
ATOM     36  C   UNL A   1      40.763  25.925  28.188  1.00  0.00    -0.014 A 
BRANCH  36  37
ATOM     37  C   UNL A   1      41.086  27.130  28.975  1.00  0.00     0.031 A 
ATOM     38  C   UNL A   1      42.290  27.896  28.506  1.00  0.00     0.074 A 
ATOM     39  C   UNL A   1      40.207  27.767  29.786  1.00  0.00     0.049 A 
ATOM     40  N   UNL A   1      43.344  28.201  29.197  1.00  0.00    -0.248 NA
ATOM     41  C   UNL A   1      42.383  28.316  27.095  1.00  0.00     0.031 C 
ATOM     42  C   UNL A   1      38.853  27.365  30.163  1.00  0.00     0.029 A 
ATOM     43  N   UNL A   1      40.289  29.030  30.311  1.00  0.00    -0.354 N 
ATOM     44  C   UNL A   1      44.134  28.976  28.352  1.00  0.00     0.074 A 
ATOM     45  C   UNL A   1      43.614  28.813  27.029  1.00  0.00     0.031 C 
ATOM     46  C   UNL A   1      38.148  28.448  30.562  1.00  0.00     0.029 A 
ATOM     47  C   UNL A   1      39.060  29.571  30.683  1.00  0.00     0.049 A 
ATOM     48  H   UNL A   1      41.139  29.513  30.416  1.00  0.00     0.167 HD
ATOM     49  C   UNL A   1      44.987  29.930  28.812  1.00  0.00     0.037 A 
ATOM     50  C   UNL A   1      38.795  30.844  31.067  1.00  0.00     0.037 A 
ATOM     51  C   UNL A   1      45.253  29.780  30.216  1.00  0.00     0.049 A 
ATOM     52  C   UNL A   1      40.068  31.453  31.505  1.00  0.00     0.074 A 
ATOM     53  C   UNL A   1      45.711  28.758  31.023  1.00  0.00     0.029 A 
ATOM     54  N   UNL A   1      44.724  30.717  31.066  1.00  0.00    -0.354 N 
ATOM     55  N   UNL A   1      40.706  31.114  32.588  1.00  0.00    -0.248 NA
ATOM     56  C   UNL A   1      40.832  32.240  30.550  1.00  0.00     0.031 C 
ATOM     57  C   UNL A   1      45.021  28.920  32.260  1.00  0.00     0.029 A 
ATOM     58  C   UNL A   1      44.202  30.043  32.137  1.00  0.00     0.049 A 
ATOM     59  H   UNL A   1      44.721  31.691  30.931  1.00  0.00     0.167 HD
ATOM     60  C   UNL A   1      42.041  31.248  32.258  1.00  0.00     0.074 A 
ATOM     61  C   UNL A   1      42.054  32.088  31.066  1.00  0.00     0.031 C 
ATOM     62  C   UNL A   1      42.979  30.420  32.803  1.00  0.00     0.037 A 
BRANCH  49  63
ATOM     63  C   UNL A   1      45.295  31.209  28.063  1.00  0.00     0.057 A 
ATOM     64  C   UNL A   1      44.237  32.062  27.705  1.00  0.00     0.134 A 
ATOM     65  C   UNL A   1      46.534  31.511  27.456  1.00  0.00     0.134 A 
ATOM     66  F   UNL A   1      43.000  31.858  28.181  1.00  0.00    -0.206 F 
ATOM     67  C   UNL A   1      44.390  33.103  26.782  1.00  0.00     0.040 A 
ATOM     68  C   UNL A   1      46.714  32.591  26.587  1.00  0.00     0.040 A 
ATOM     69  F   UNL A   1      47.612  30.727  27.585  1.00  0.00    -0.206 F 
ATOM     70  C   UNL A   1      45.633  33.374  26.222  1.00  0.00     0.006 A 
ENDBRANCH  49  63
BRANCH  50  71
ATOM     71  C   UNL A   1      37.550  31.639  30.980  1.00  0.00     0.057 A 
ATOM     72  C   UNL A   1      37.186  32.306  29.800  1.00  0.00     0.134 A 
ATOM     73  C   UNL A   1      36.552  31.541  31.965  1.00  0.00     0.134 A 
ATOM     74  F   UNL A   1      38.054  32.416  28.784  1.00  0.00    -0.206 F 
ATOM     75  C   UNL A   1      35.901  32.827  29.601  1.00  0.00     0.040 A 
ATOM     76  C   UNL A   1      35.267  32.064  31.782  1.00  0.00     0.040 A 
ATOM     77  F   UNL A   1      36.772  30.856  33.097  1.00  0.00    -0.206 F 
ATOM     78  C   UNL A   1      34.933  32.699  30.591  1.00  0.00     0.006 A 
ENDBRANCH  50  71
BRANCH  62  79
ATOM     79  C   UNL A   1      42.592  29.625  34.018  1.00  0.00     0.057 A 
ATOM     80  C   UNL A   1      41.992  28.358  33.973  1.00  0.00     0.134 A 
ATOM     81  C   UNL A   1      42.969  30.101  35.278  1.00  0.00     0.134 A 
ATOM     82  F   UNL A   1      41.689  27.772  32.808  1.00  0.00    -0.206 F 
ATOM     83  C   UNL A   1      41.732  27.623  35.132  1.00  0.00     0.040 A 
ATOM     84  C   UNL A   1      42.748  29.361  36.441  1.00  0.00     0.040 A 
ATOM     85  F   UNL A   1      43.602  31.280  35.393  1.00  0.00    -0.206 F 
ATOM     86  C   UNL A   1      42.117  28.123  36.373  1.00  0.00     0.006 A 
ENDBRANCH  62  79
ENDBRANCH  36  37
ENDBRANCH  28  31
ENDBRANCH  26  27
ENDBRANCH  25  26
ENDBRANCH  24  25
ENDBRANCH   1  24
TORSDOF 18
ENDMDL
