MODEL 1
REMARK VINA RESULT:     -12.4      0.000      0.000
REMARK SMILES Cc1nc(-c2ccc(S(=O)(=O)N3CC[NH2+][C@H](C(=O)NCCCCCCNC(=O)c4ccc(-c5c6nc(c(-c7c(F)cccc7F)c7ccc([nH]7)c(-c7c(F)cccc7F)c7nc(c(-c8c(F)cccc8F)c8ccc5[nH]8)C=C7)C=C6)cc4)C3)s2)cs1
REMARK SMILES IDX 22 1 21 2 20 3 19 4 17 5 18 6 16 8 12 9 13 10 83 11 14 12
REMARK SMILES IDX 15 13 9 16 10 17 11 18 8 19 5 20 6 21 84 22 7 23 4 24 1 25
REMARK SMILES IDX 2 26 3 27 86 28 85 29 23 30 24 31 25 32 26 33 27 34 28 36
REMARK SMILES IDX 29 37 30 38 82 39 31 40 81 41 32 42 33 43 34 44 75 45 35 46
REMARK SMILES IDX 80 47 74 48 76 49 36 50 79 51 73 52 72 53 37 55 63 56 46 57
REMARK SMILES IDX 62 58 47 59 50 60 61 61 77 62 48 63 49 64 60 66 78 67 51 68
REMARK SMILES IDX 38 69 39 70 44 71 40 72 41 73 43 74 45 75 42 76 64 77 65 78
REMARK SMILES IDX 70 79 66 80 67 81 69 82 71 83 68 84 52 85 53 86 58 87 54 88
REMARK SMILES IDX 55 89 57 90 59 91 56 92
REMARK H PARENT 19 7 15 14 15 15 26 35 76 54 50 65
REMARK Flexibility Score: inf
ROOT
ATOM      1  C   UNL A   1      31.930  29.408  26.338  1.00  0.00     0.002 C 
ENDROOT
BRANCH   1   2
ATOM      2  C   UNL A   1      31.505  28.165  27.134  1.00  0.00     0.021 C 
BRANCH   2   3
ATOM      3  C   UNL A   1      31.186  26.976  26.222  1.00  0.00     0.116 C 
BRANCH   3   4
ATOM      4  N   UNL A   1      31.408  25.748  26.956  1.00  0.00    -0.351 N 
ATOM      5  C   UNL A   1      31.364  24.463  26.501  1.00  0.00     0.279 C 
ATOM      6  O   UNL A   1      30.884  23.631  27.281  1.00  0.00    -0.268 OA
ATOM      7  H   UNL A   1      31.620  25.855  27.911  1.00  0.00     0.163 HD
BRANCH   5   8
ATOM      8  C   UNL A   1      32.038  24.031  25.171  1.00  0.00     0.287 C 
ATOM      9  N   UNL A   1      32.111  23.737  22.734  1.00  0.00    -0.185 NA
ATOM     10  C   UNL A   1      32.537  22.328  22.788  1.00  0.00     0.164 C 
ATOM     11  C   UNL A   1      31.231  24.082  23.880  1.00  0.00     0.178 C 
ATOM     12  C   UNL A   1      33.078  21.937  24.177  1.00  0.00     0.278 C 
ATOM     13  N   UNL A   1      32.632  22.669  25.372  1.00  0.00    -0.334 N 
ATOM     14  H   UNL A   1      33.441  22.777  25.984  1.00  0.00     0.347 HD
ATOM     15  H   UNL A   1      31.868  22.107  25.751  1.00  0.00     0.347 HD
BRANCH   9  16
ATOM     16  S   UNL A   1      33.129  24.924  22.072  1.00  0.00     0.253 S 
ATOM     17  O   UNL A   1      33.002  24.815  20.630  1.00  0.00    -0.206 OA
ATOM     18  O   UNL A   1      34.411  24.801  22.728  1.00  0.00    -0.206 OA
BRANCH  16  19
ATOM     19  C   UNL A   1      32.619  26.604  22.441  1.00  0.00     0.135 A 
ATOM     20  C   UNL A   1      31.124  28.577  22.639  1.00  0.00     0.055 A 
ATOM     21  C   UNL A   1      32.438  28.895  22.877  1.00  0.00     0.023 A 
ATOM     22  S   UNL A   1      30.914  26.910  22.359  1.00  0.00    -0.121 S 
ATOM     23  C   UNL A   1      33.282  27.768  22.776  1.00  0.00     0.034 A 
BRANCH  20  24
ATOM     24  C   UNL A   1      30.091  29.655  22.608  1.00  0.00     0.091 A 
ATOM     25  C   UNL A   1      27.966  31.607  20.385  1.00  0.00     0.079 C 
ATOM     26  C   UNL A   1      28.705  31.003  21.527  1.00  0.00     0.090 A 
ATOM     27  N   UNL A   1      29.683  30.144  21.376  1.00  0.00    -0.241 NA
ATOM     28  S   UNL A   1      28.317  31.388  23.156  1.00  0.00    -0.127 S 
ATOM     29  C   UNL A   1      29.469  30.226  23.696  1.00  0.00     0.096 A 
ENDBRANCH  20  24
ENDBRANCH  16  19
ENDBRANCH   9  16
ENDBRANCH   5   8
ENDBRANCH   3   4
ENDBRANCH   2   3
ENDBRANCH   1   2
BRANCH   1  30
ATOM     30  C   UNL A   1      33.348  29.899  26.654  1.00  0.00     0.002 C 
BRANCH  30  31
ATOM     31  C   UNL A   1      33.463  31.410  26.865  1.00  0.00     0.021 C 
BRANCH  31  32
ATOM     32  C   UNL A   1      32.152  32.083  27.253  1.00  0.00     0.116 C 
BRANCH  32  33
ATOM     33  N   UNL A   1      32.311  33.523  27.380  1.00  0.00    -0.352 N 
ATOM     34  C   UNL A   1      33.211  34.223  28.138  1.00  0.00     0.251 C 
ATOM     35  H   UNL A   1      31.686  34.068  26.850  1.00  0.00     0.163 HD
ATOM     36  O   UNL A   1      33.065  35.428  28.322  1.00  0.00    -0.269 OA
BRANCH  34  37
ATOM     37  C   UNL A   1      34.361  33.519  28.738  1.00  0.00     0.039 A 
ATOM     38  C   UNL A   1      34.157  32.731  29.872  1.00  0.00     0.014 A 
ATOM     39  C   UNL A   1      35.643  33.661  28.196  1.00  0.00     0.014 A 
ATOM     40  C   UNL A   1      35.235  32.057  30.447  1.00  0.00     0.010 A 
ATOM     41  C   UNL A   1      36.704  32.938  28.730  1.00  0.00     0.010 A 
ATOM     42  C   UNL A   1      36.513  32.144  29.870  1.00  0.00    -0.014 A 
BRANCH  42  43
ATOM     43  C   UNL A   1      37.670  31.441  30.473  1.00  0.00     0.031 A 
ATOM     44  C   UNL A   1      38.068  31.734  31.893  1.00  0.00     0.074 A 
ATOM     45  C   UNL A   1      38.389  30.580  29.729  1.00  0.00     0.049 A 
ATOM     46  N   UNL A   1      39.077  31.265  32.583  1.00  0.00    -0.248 NA
ATOM     47  C   UNL A   1      37.240  32.706  32.625  1.00  0.00     0.031 C 
ATOM     48  C   UNL A   1      38.129  30.250  28.327  1.00  0.00     0.029 A 
ATOM     49  N   UNL A   1      39.491  29.830  30.050  1.00  0.00    -0.354 N 
ATOM     50  C   UNL A   1      39.013  31.894  33.819  1.00  0.00     0.074 A 
ATOM     51  C   UNL A   1      37.900  32.817  33.769  1.00  0.00     0.031 C 
ATOM     52  C   UNL A   1      39.034  29.348  27.915  1.00  0.00     0.029 A 
ATOM     53  C   UNL A   1      39.951  29.057  29.012  1.00  0.00     0.049 A 
ATOM     54  H   UNL A   1      39.913  29.844  30.939  1.00  0.00     0.167 HD
ATOM     55  C   UNL A   1      39.796  31.704  34.907  1.00  0.00     0.037 A 
ATOM     56  C   UNL A   1      40.996  28.211  28.956  1.00  0.00     0.037 A 
ATOM     57  C   UNL A   1      40.882  30.762  34.964  1.00  0.00     0.049 A 
ATOM     58  C   UNL A   1      41.839  28.003  30.182  1.00  0.00     0.074 A 
ATOM     59  C   UNL A   1      41.698  30.451  36.038  1.00  0.00     0.029 A 
ATOM     60  N   UNL A   1      41.301  29.977  33.901  1.00  0.00    -0.354 N 
ATOM     61  N   UNL A   1      41.730  28.558  31.365  1.00  0.00    -0.248 NA
ATOM     62  C   UNL A   1      42.946  27.044  30.068  1.00  0.00     0.031 C 
ATOM     63  C   UNL A   1      42.633  29.499  35.614  1.00  0.00     0.029 A 
ATOM     64  C   UNL A   1      42.372  29.189  34.288  1.00  0.00     0.049 A 
ATOM     65  H   UNL A   1      40.896  29.977  33.004  1.00  0.00     0.167 HD
ATOM     66  C   UNL A   1      42.734  27.997  32.143  1.00  0.00     0.074 A 
ATOM     67  C   UNL A   1      43.434  27.048  31.301  1.00  0.00     0.031 C 
ATOM     68  C   UNL A   1      43.050  28.246  33.437  1.00  0.00     0.037 A 
BRANCH  55  69
ATOM     69  C   UNL A   1      39.498  32.529  36.124  1.00  0.00     0.057 A 
ATOM     70  C   UNL A   1      40.128  33.759  36.355  1.00  0.00     0.134 A 
ATOM     71  C   UNL A   1      38.555  32.100  37.067  1.00  0.00     0.134 A 
ATOM     72  F   UNL A   1      41.052  34.220  35.497  1.00  0.00    -0.206 F 
ATOM     73  C   UNL A   1      39.853  34.519  37.493  1.00  0.00     0.040 A 
ATOM     74  C   UNL A   1      38.252  32.864  38.195  1.00  0.00     0.040 A 
ATOM     75  F   UNL A   1      37.912  30.934  36.905  1.00  0.00    -0.206 F 
ATOM     76  C   UNL A   1      38.907  34.075  38.413  1.00  0.00     0.006 A 
ENDBRANCH  55  69
BRANCH  56  77
ATOM     77  C   UNL A   1      41.283  27.471  27.703  1.00  0.00     0.057 A 
ATOM     78  C   UNL A   1      40.764  26.189  27.490  1.00  0.00     0.134 A 
ATOM     79  C   UNL A   1      42.084  28.019  26.695  1.00  0.00     0.134 A 
ATOM     80  F   UNL A   1      40.004  25.604  28.428  1.00  0.00    -0.206 F 
ATOM     81  C   UNL A   1      41.044  25.470  26.326  1.00  0.00     0.040 A 
ATOM     82  C   UNL A   1      42.354  27.321  25.517  1.00  0.00     0.040 A 
ATOM     83  F   UNL A   1      42.605  29.247  26.837  1.00  0.00    -0.206 F 
ATOM     84  C   UNL A   1      41.839  26.039  25.334  1.00  0.00     0.006 A 
ENDBRANCH  56  77
BRANCH  68  85
ATOM     85  C   UNL A   1      44.182  27.457  34.025  1.00  0.00     0.057 A 
ATOM     86  C   UNL A   1      45.499  27.932  34.010  1.00  0.00     0.134 A 
ATOM     87  C   UNL A   1      43.943  26.222  34.641  1.00  0.00     0.134 A 
ATOM     88  F   UNL A   1      45.793  29.101  33.423  1.00  0.00    -0.206 F 
ATOM     89  C   UNL A   1      46.545  27.192  34.564  1.00  0.00     0.040 A 
ATOM     90  C   UNL A   1      44.977  25.485  35.221  1.00  0.00     0.040 A 
ATOM     91  F   UNL A   1      42.702  25.716  34.697  1.00  0.00    -0.206 F 
ATOM     92  C   UNL A   1      46.284  25.968  35.177  1.00  0.00     0.006 A 
ENDBRANCH  68  85
ENDBRANCH  42  43
ENDBRANCH  34  37
ENDBRANCH  32  33
ENDBRANCH  31  32
ENDBRANCH  30  31
ENDBRANCH   1  30
TORSDOF 16
ENDMDL
MODEL 2
REMARK VINA RESULT:     -12.3      2.275      4.927
REMARK SMILES Cc1nc(-c2ccc(S(=O)(=O)N3CC[NH2+][C@H](C(=O)NCCCCCCNC(=O)c4ccc(-c5c6nc(c(-c7c(F)cccc7F)c7ccc([nH]7)c(-c7c(F)cccc7F)c7nc(c(-c8c(F)cccc8F)c8ccc5[nH]8)C=C7)C=C6)cc4)C3)s2)cs1
REMARK SMILES IDX 22 1 21 2 20 3 19 4 17 5 18 6 16 8 12 9 13 10 83 11 14 12
REMARK SMILES IDX 15 13 9 16 10 17 11 18 8 19 5 20 6 21 84 22 7 23 4 24 1 25
REMARK SMILES IDX 2 26 3 27 86 28 85 29 23 30 24 31 25 32 26 33 27 34 28 36
REMARK SMILES IDX 29 37 30 38 82 39 31 40 81 41 32 42 33 43 34 44 75 45 35 46
REMARK SMILES IDX 80 47 74 48 76 49 36 50 79 51 73 52 72 53 37 55 63 56 46 57
REMARK SMILES IDX 62 58 47 59 50 60 61 61 77 62 48 63 49 64 60 66 78 67 51 68
REMARK SMILES IDX 38 69 39 70 44 71 40 72 41 73 43 74 45 75 42 76 64 77 65 78
REMARK SMILES IDX 70 79 66 80 67 81 69 82 71 83 68 84 52 85 53 86 58 87 54 88
REMARK SMILES IDX 55 89 57 90 59 91 56 92
REMARK H PARENT 19 7 15 14 15 15 26 35 76 54 50 65
REMARK Flexibility Score: inf
ROOT
ATOM      1  C   UNL A   1      34.424  32.355  28.887  1.00  0.00     0.002 C 
ENDROOT
BRANCH   1   2
ATOM      2  C   UNL A   1      35.007  31.528  27.730  1.00  0.00     0.021 C 
BRANCH   2   3
ATOM      3  C   UNL A   1      34.028  30.458  27.235  1.00  0.00     0.116 C 
BRANCH   3   4
ATOM      4  N   UNL A   1      32.692  31.015  27.222  1.00  0.00    -0.351 N 
ATOM      5  C   UNL A   1      31.759  30.970  26.228  1.00  0.00     0.279 C 
ATOM      6  O   UNL A   1      31.072  31.988  26.086  1.00  0.00    -0.268 OA
ATOM      7  H   UNL A   1      32.420  31.489  28.040  1.00  0.00     0.163 HD
BRANCH   5   8
ATOM      8  C   UNL A   1      31.445  29.666  25.446  1.00  0.00     0.287 C 
ATOM      9  N   UNL A   1      32.000  27.447  24.552  1.00  0.00    -0.185 NA
ATOM     10  C   UNL A   1      31.554  27.746  23.181  1.00  0.00     0.164 C 
ATOM     11  C   UNL A   1      32.560  28.653  25.215  1.00  0.00     0.178 C 
ATOM     12  C   UNL A   1      30.666  29.004  23.119  1.00  0.00     0.278 C 
ATOM     13  N   UNL A   1      30.799  30.048  24.147  1.00  0.00    -0.334 N 
ATOM     14  H   UNL A   1      29.861  30.387  24.362  1.00  0.00     0.347 HD
ATOM     15  H   UNL A   1      31.430  30.737  23.737  1.00  0.00     0.347 HD
BRANCH   9  16
ATOM     16  S   UNL A   1      31.206  26.270  25.484  1.00  0.00     0.253 S 
ATOM     17  O   UNL A   1      29.985  25.939  24.772  1.00  0.00    -0.206 OA
ATOM     18  O   UNL A   1      31.179  26.751  26.847  1.00  0.00    -0.206 OA
BRANCH  16  19
ATOM     19  C   UNL A   1      32.094  24.715  25.596  1.00  0.00     0.135 A 
ATOM     20  C   UNL A   1      32.620  22.318  25.212  1.00  0.00     0.055 A 
ATOM     21  C   UNL A   1      33.438  22.885  26.158  1.00  0.00     0.023 A 
ATOM     22  S   UNL A   1      31.547  23.457  24.536  1.00  0.00    -0.121 S 
ATOM     23  C   UNL A   1      33.144  24.251  26.363  1.00  0.00     0.034 A 
BRANCH  20  24
ATOM     24  C   UNL A   1      32.716  20.856  24.924  1.00  0.00     0.091 A 
ATOM     25  C   UNL A   1      32.274  18.355  22.313  1.00  0.00     0.079 C 
ATOM     26  C   UNL A   1      32.520  19.115  23.569  1.00  0.00     0.090 A 
ATOM     27  N   UNL A   1      32.266  20.395  23.696  1.00  0.00    -0.241 NA
ATOM     28  S   UNL A   1      33.173  18.359  24.966  1.00  0.00    -0.127 S 
ATOM     29  C   UNL A   1      33.229  19.888  25.758  1.00  0.00     0.096 A 
ENDBRANCH  20  24
ENDBRANCH  16  19
ENDBRANCH   9  16
ENDBRANCH   5   8
ENDBRANCH   3   4
ENDBRANCH   2   3
ENDBRANCH   1   2
BRANCH   1  30
ATOM     30  C   UNL A   1      34.501  33.871  28.673  1.00  0.00     0.002 C 
BRANCH  30  31
ATOM     31  C   UNL A   1      33.176  34.608  28.876  1.00  0.00     0.021 C 
BRANCH  31  32
ATOM     32  C   UNL A   1      33.333  36.036  29.385  1.00  0.00     0.116 C 
BRANCH  32  33
ATOM     33  N   UNL A   1      32.520  36.272  30.567  1.00  0.00    -0.352 N 
ATOM     34  C   UNL A   1      32.638  35.718  31.815  1.00  0.00     0.251 C 
ATOM     35  H   UNL A   1      31.784  36.915  30.456  1.00  0.00     0.163 HD
ATOM     36  O   UNL A   1      31.734  35.837  32.637  1.00  0.00    -0.269 OA
BRANCH  34  37
ATOM     37  C   UNL A   1      33.862  34.971  32.166  1.00  0.00     0.039 A 
ATOM     38  C   UNL A   1      33.744  33.665  32.646  1.00  0.00     0.014 A 
ATOM     39  C   UNL A   1      35.120  35.571  32.047  1.00  0.00     0.014 A 
ATOM     40  C   UNL A   1      34.893  32.946  32.978  1.00  0.00     0.010 A 
ATOM     41  C   UNL A   1      36.266  34.832  32.317  1.00  0.00     0.010 A 
ATOM     42  C   UNL A   1      36.162  33.520  32.801  1.00  0.00    -0.014 A 
BRANCH  42  43
ATOM     43  C   UNL A   1      37.392  32.774  33.157  1.00  0.00     0.031 A 
ATOM     44  C   UNL A   1      38.106  33.076  34.446  1.00  0.00     0.074 A 
ATOM     45  C   UNL A   1      37.891  31.862  32.302  1.00  0.00     0.049 A 
ATOM     46  N   UNL A   1      39.220  32.572  34.912  1.00  0.00    -0.248 NA
ATOM     47  C   UNL A   1      37.503  34.104  35.310  1.00  0.00     0.031 C 
ATOM     48  C   UNL A   1      37.314  31.516  31.002  1.00  0.00     0.029 A 
ATOM     49  N   UNL A   1      39.003  31.066  32.397  1.00  0.00    -0.354 N 
ATOM     50  C   UNL A   1      39.459  33.230  36.112  1.00  0.00     0.074 A 
ATOM     51  C   UNL A   1      38.403  34.205  36.278  1.00  0.00     0.031 C 
ATOM     52  C   UNL A   1      38.065  30.562  30.430  1.00  0.00     0.029 A 
ATOM     53  C   UNL A   1      39.189  30.249  31.308  1.00  0.00     0.049 A 
ATOM     54  H   UNL A   1      39.611  31.077  33.171  1.00  0.00     0.167 HD
ATOM     55  C   UNL A   1      40.453  33.025  37.007  1.00  0.00     0.037 A 
ATOM     56  C   UNL A   1      40.157  29.351  31.050  1.00  0.00     0.037 A 
ATOM     57  C   UNL A   1      41.483  32.031  36.854  1.00  0.00     0.049 A 
ATOM     58  C   UNL A   1      41.240  29.127  32.068  1.00  0.00     0.074 A 
ATOM     59  C   UNL A   1      42.501  31.702  37.732  1.00  0.00     0.029 A 
ATOM     60  N   UNL A   1      41.622  31.203  35.751  1.00  0.00    -0.354 N 
ATOM     61  N   UNL A   1      41.419  29.712  33.228  1.00  0.00    -0.248 NA
ATOM     62  C   UNL A   1      42.252  28.113  31.745  1.00  0.00     0.031 C 
ATOM     63  C   UNL A   1      43.276  30.696  37.143  1.00  0.00     0.029 A 
ATOM     64  C   UNL A   1      42.717  30.372  35.918  1.00  0.00     0.049 A 
ATOM     65  H   UNL A   1      41.029  31.205  34.964  1.00  0.00     0.167 HD
ATOM     66  C   UNL A   1      42.544  29.119  33.784  1.00  0.00     0.074 A 
ATOM     67  C   UNL A   1      42.999  28.119  32.839  1.00  0.00     0.031 C 
ATOM     68  C   UNL A   1      43.149  29.379  34.968  1.00  0.00     0.037 A 
BRANCH  55  69
ATOM     69  C   UNL A   1      40.467  33.888  38.233  1.00  0.00     0.057 A 
ATOM     70  C   UNL A   1      39.727  33.557  39.377  1.00  0.00     0.134 A 
ATOM     71  C   UNL A   1      41.243  35.052  38.281  1.00  0.00     0.134 A 
ATOM     72  F   UNL A   1      38.951  32.462  39.390  1.00  0.00    -0.206 F 
ATOM     73  C   UNL A   1      39.737  34.368  40.513  1.00  0.00     0.040 A 
ATOM     74  C   UNL A   1      41.282  35.857  39.421  1.00  0.00     0.040 A 
ATOM     75  F   UNL A   1      41.979  35.425  37.223  1.00  0.00    -0.206 F 
ATOM     76  C   UNL A   1      40.522  35.518  40.540  1.00  0.00     0.006 A 
ENDBRANCH  55  69
BRANCH  56  77
ATOM     77  C   UNL A   1      40.129  28.571  29.789  1.00  0.00     0.057 A 
ATOM     78  C   UNL A   1      39.400  27.380  29.696  1.00  0.00     0.134 A 
ATOM     79  C   UNL A   1      40.828  28.990  28.652  1.00  0.00     0.134 A 
ATOM     80  F   UNL A   1      38.722  26.918  30.758  1.00  0.00    -0.206 F 
ATOM     81  C   UNL A   1      39.382  26.623  28.524  1.00  0.00     0.040 A 
ATOM     82  C   UNL A   1      40.802  28.255  27.466  1.00  0.00     0.040 A 
ATOM     83  F   UNL A   1      41.540  30.127  28.676  1.00  0.00    -0.206 F 
ATOM     84  C   UNL A   1      40.081  27.064  27.402  1.00  0.00     0.006 A 
ENDBRANCH  56  77
BRANCH  68  85
ATOM     85  C   UNL A   1      44.346  28.548  35.319  1.00  0.00     0.057 A 
ATOM     86  C   UNL A   1      45.645  28.943  34.977  1.00  0.00     0.134 A 
ATOM     87  C   UNL A   1      44.198  27.352  36.034  1.00  0.00     0.134 A 
ATOM     88  F   UNL A   1      45.851  30.071  34.281  1.00  0.00    -0.206 F 
ATOM     89  C   UNL A   1      46.755  28.164  35.311  1.00  0.00     0.040 A 
ATOM     90  C   UNL A   1      45.302  26.578  36.396  1.00  0.00     0.040 A 
ATOM     91  F   UNL A   1      42.981  26.922  36.399  1.00  0.00    -0.206 F 
ATOM     92  C   UNL A   1      46.584  26.981  36.028  1.00  0.00     0.006 A 
ENDBRANCH  68  85
ENDBRANCH  42  43
ENDBRANCH  34  37
ENDBRANCH  32  33
ENDBRANCH  31  32
ENDBRANCH  30  31
ENDBRANCH   1  30
TORSDOF 16
ENDMDL
MODEL 3
REMARK VINA RESULT:     -12.3      2.433      7.679
REMARK SMILES Cc1nc(-c2ccc(S(=O)(=O)N3CC[NH2+][C@H](C(=O)NCCCCCCNC(=O)c4ccc(-c5c6nc(c(-c7c(F)cccc7F)c7ccc([nH]7)c(-c7c(F)cccc7F)c7nc(c(-c8c(F)cccc8F)c8ccc5[nH]8)C=C7)C=C6)cc4)C3)s2)cs1
REMARK SMILES IDX 22 1 21 2 20 3 19 4 17 5 18 6 16 8 12 9 13 10 83 11 14 12
REMARK SMILES IDX 15 13 9 16 10 17 11 18 8 19 5 20 6 21 84 22 7 23 4 24 1 25
REMARK SMILES IDX 2 26 3 27 86 28 85 29 23 30 24 31 25 32 26 33 27 34 28 36
REMARK SMILES IDX 29 37 30 38 82 39 31 40 81 41 32 42 33 43 34 44 75 45 35 46
REMARK SMILES IDX 80 47 74 48 76 49 36 50 79 51 73 52 72 53 37 55 63 56 46 57
REMARK SMILES IDX 62 58 47 59 50 60 61 61 77 62 48 63 49 64 60 66 78 67 51 68
REMARK SMILES IDX 38 69 39 70 44 71 40 72 41 73 43 74 45 75 42 76 64 77 65 78
REMARK SMILES IDX 70 79 66 80 67 81 69 82 71 83 68 84 52 85 53 86 58 87 54 88
REMARK SMILES IDX 55 89 57 90 59 91 56 92
REMARK H PARENT 19 7 15 14 15 15 26 35 76 54 50 65
REMARK Flexibility Score: inf
ROOT
ATOM      1  C   UNL A   1      30.464  30.023  24.305  1.00  0.00     0.002 C 
ENDROOT
BRANCH   1   2
ATOM      2  C   UNL A   1      30.719  28.671  23.621  1.00  0.00     0.021 C 
BRANCH   2   3
ATOM      3  C   UNL A   1      32.144  28.564  23.068  1.00  0.00     0.116 C 
BRANCH   3   4
ATOM      4  N   UNL A   1      32.166  27.565  22.020  1.00  0.00    -0.351 N 
ATOM      5  C   UNL A   1      32.925  26.436  21.935  1.00  0.00     0.279 C 
ATOM      6  O   UNL A   1      33.331  26.142  20.804  1.00  0.00    -0.268 OA
ATOM      7  H   UNL A   1      31.550  27.722  21.269  1.00  0.00     0.163 HD
BRANCH   5   8
ATOM      8  C   UNL A   1      33.117  25.474  23.138  1.00  0.00     0.287 C 
ATOM      9  N   UNL A   1      32.334  23.847  24.803  1.00  0.00    -0.185 NA
ATOM     10  C   UNL A   1      32.924  24.550  25.956  1.00  0.00     0.164 C 
ATOM     11  C   UNL A   1      31.896  24.801  23.753  1.00  0.00     0.178 C 
ATOM     12  C   UNL A   1      33.978  25.589  25.527  1.00  0.00     0.278 C 
ATOM     13  N   UNL A   1      33.910  26.195  24.188  1.00  0.00    -0.334 N 
ATOM     14  H   UNL A   1      34.865  26.281  23.843  1.00  0.00     0.347 HD
ATOM     15  H   UNL A   1      33.413  27.076  24.327  1.00  0.00     0.347 HD
BRANCH   9  16
ATOM     16  S   UNL A   1      32.884  22.303  24.358  1.00  0.00     0.253 S 
ATOM     17  O   UNL A   1      32.420  22.078  23.001  1.00  0.00    -0.206 OA
ATOM     18  O   UNL A   1      32.538  21.401  25.433  1.00  0.00    -0.206 OA
BRANCH  16  19
ATOM     19  C   UNL A   1      34.670  22.174  24.247  1.00  0.00     0.135 A 
ATOM     20  C   UNL A   1      36.977  21.458  24.822  1.00  0.00     0.055 A 
ATOM     21  C   UNL A   1      36.961  22.435  23.858  1.00  0.00     0.023 A 
ATOM     22  S   UNL A   1      35.404  20.982  25.269  1.00  0.00    -0.121 S 
ATOM     23  C   UNL A   1      35.647  22.830  23.525  1.00  0.00     0.034 A 
BRANCH  20  24
ATOM     24  C   UNL A   1      38.279  20.977  25.372  1.00  0.00     0.091 A 
ATOM     25  C   UNL A   1      41.017  21.865  27.604  1.00  0.00     0.079 C 
ATOM     26  C   UNL A   1      40.083  21.236  26.632  1.00  0.00     0.090 A 
ATOM     27  N   UNL A   1      39.031  21.848  26.146  1.00  0.00    -0.241 NA
ATOM     28  S   UNL A   1      40.315  19.629  26.070  1.00  0.00    -0.127 S 
ATOM     29  C   UNL A   1      38.828  19.725  25.206  1.00  0.00     0.096 A 
ENDBRANCH  20  24
ENDBRANCH  16  19
ENDBRANCH   9  16
ENDBRANCH   5   8
ENDBRANCH   3   4
ENDBRANCH   2   3
ENDBRANCH   1   2
BRANCH   1  30
ATOM     30  C   UNL A   1      31.442  30.345  25.441  1.00  0.00     0.002 C 
BRANCH  30  31
ATOM     31  C   UNL A   1      31.147  31.652  26.181  1.00  0.00     0.021 C 
BRANCH  31  32
ATOM     32  C   UNL A   1      32.303  32.151  27.040  1.00  0.00     0.116 C 
BRANCH  32  33
ATOM     33  N   UNL A   1      32.179  33.572  27.324  1.00  0.00    -0.352 N 
ATOM     34  C   UNL A   1      32.913  34.342  28.187  1.00  0.00     0.251 C 
ATOM     35  H   UNL A   1      31.471  34.044  26.830  1.00  0.00     0.163 HD
ATOM     36  O   UNL A   1      32.535  35.469  28.491  1.00  0.00    -0.269 OA
BRANCH  34  37
ATOM     37  C   UNL A   1      34.165  33.806  28.755  1.00  0.00     0.039 A 
ATOM     38  C   UNL A   1      34.095  32.896  29.812  1.00  0.00     0.014 A 
ATOM     39  C   UNL A   1      35.406  34.223  28.262  1.00  0.00     0.014 A 
ATOM     40  C   UNL A   1      35.272  32.379  30.356  1.00  0.00     0.010 A 
ATOM     41  C   UNL A   1      36.575  33.659  28.760  1.00  0.00     0.010 A 
ATOM     42  C   UNL A   1      36.519  32.745  29.823  1.00  0.00    -0.014 A 
BRANCH  42  43
ATOM     43  C   UNL A   1      37.778  32.212  30.394  1.00  0.00     0.031 A 
ATOM     44  C   UNL A   1      38.415  30.989  29.794  1.00  0.00     0.074 A 
ATOM     45  C   UNL A   1      38.319  32.797  31.479  1.00  0.00     0.049 A 
ATOM     46  N   UNL A   1      39.484  30.340  30.178  1.00  0.00    -0.248 NA
ATOM     47  C   UNL A   1      37.742  30.401  28.624  1.00  0.00     0.031 C 
ATOM     48  C   UNL A   1      37.769  33.959  32.178  1.00  0.00     0.029 A 
ATOM     49  N   UNL A   1      39.452  32.487  32.187  1.00  0.00    -0.354 N 
ATOM     50  C   UNL A   1      39.603  29.262  29.310  1.00  0.00     0.074 A 
ATOM     51  C   UNL A   1      38.470  29.314  28.412  1.00  0.00     0.031 C 
ATOM     52  C   UNL A   1      38.576  34.277  33.202  1.00  0.00     0.029 A 
ATOM     53  C   UNL A   1      39.684  33.327  33.248  1.00  0.00     0.049 A 
ATOM     54  H   UNL A   1      40.043  31.735  31.956  1.00  0.00     0.167 HD
ATOM     55  C   UNL A   1      40.580  28.328  29.251  1.00  0.00     0.037 A 
ATOM     56  C   UNL A   1      40.678  33.328  34.155  1.00  0.00     0.037 A 
ATOM     57  C   UNL A   1      41.723  28.299  30.124  1.00  0.00     0.049 A 
ATOM     58  C   UNL A   1      41.762  32.291  34.056  1.00  0.00     0.074 A 
ATOM     59  C   UNL A   1      42.800  27.429  30.108  1.00  0.00     0.029 A 
ATOM     60  N   UNL A   1      41.938  29.183  31.170  1.00  0.00    -0.354 N 
ATOM     61  N   UNL A   1      41.896  31.315  33.192  1.00  0.00    -0.248 NA
ATOM     62  C   UNL A   1      42.837  32.362  35.054  1.00  0.00     0.031 C 
ATOM     63  C   UNL A   1      43.651  27.769  31.166  1.00  0.00     0.029 A 
ATOM     64  C   UNL A   1      43.123  28.874  31.816  1.00  0.00     0.049 A 
ATOM     65  H   UNL A   1      41.337  29.923  31.417  1.00  0.00     0.167 HD
ATOM     66  C   UNL A   1      43.081  30.672  33.524  1.00  0.00     0.074 A 
ATOM     67  C   UNL A   1      43.635  31.379  34.661  1.00  0.00     0.031 C 
ATOM     68  C   UNL A   1      43.659  29.594  32.942  1.00  0.00     0.037 A 
BRANCH  55  69
ATOM     69  C   UNL A   1      40.456  27.266  28.199  1.00  0.00     0.057 A 
ATOM     70  C   UNL A   1      41.095  27.379  26.957  1.00  0.00     0.134 A 
ATOM     71  C   UNL A   1      39.706  26.107  28.436  1.00  0.00     0.134 A 
ATOM     72  F   UNL A   1      41.817  28.471  26.661  1.00  0.00    -0.206 F 
ATOM     73  C   UNL A   1      40.971  26.391  25.978  1.00  0.00     0.040 A 
ATOM     74  C   UNL A   1      39.596  25.100  27.475  1.00  0.00     0.040 A 
ATOM     75  F   UNL A   1      39.072  25.932  29.605  1.00  0.00    -0.206 F 
ATOM     76  C   UNL A   1      40.224  25.244  26.239  1.00  0.00     0.006 A 
ENDBRANCH  55  69
BRANCH  56  77
ATOM     77  C   UNL A   1      40.715  34.365  35.214  1.00  0.00     0.057 A 
ATOM     78  C   UNL A   1      41.288  35.619  34.973  1.00  0.00     0.134 A 
ATOM     79  C   UNL A   1      40.187  34.130  36.488  1.00  0.00     0.134 A 
ATOM     80  F   UNL A   1      41.826  35.897  33.777  1.00  0.00    -0.206 F 
ATOM     81  C   UNL A   1      41.350  36.597  35.967  1.00  0.00     0.040 A 
ATOM     82  C   UNL A   1      40.222  35.106  37.485  1.00  0.00     0.040 A 
ATOM     83  F   UNL A   1      39.618  32.950  36.778  1.00  0.00    -0.206 F 
ATOM     84  C   UNL A   1      40.812  36.343  37.227  1.00  0.00     0.006 A 
ENDBRANCH  56  77
BRANCH  68  85
ATOM     85  C   UNL A   1      44.971  29.135  33.508  1.00  0.00     0.057 A 
ATOM     86  C   UNL A   1      45.041  28.160  34.509  1.00  0.00     0.134 A 
ATOM     87  C   UNL A   1      46.177  29.657  33.022  1.00  0.00     0.134 A 
ATOM     88  F   UNL A   1      43.921  27.632  35.025  1.00  0.00    -0.206 F 
ATOM     89  C   UNL A   1      46.267  27.736  35.027  1.00  0.00     0.040 A 
ATOM     90  C   UNL A   1      47.408  29.223  33.514  1.00  0.00     0.040 A 
ATOM     91  F   UNL A   1      46.177  30.588  32.057  1.00  0.00    -0.206 F 
ATOM     92  C   UNL A   1      47.454  28.264  34.524  1.00  0.00     0.006 A 
ENDBRANCH  68  85
ENDBRANCH  42  43
ENDBRANCH  34  37
ENDBRANCH  32  33
ENDBRANCH  31  32
ENDBRANCH  30  31
ENDBRANCH   1  30
TORSDOF 16
ENDMDL
