MODEL 1
REMARK VINA RESULT:     -10.8      0.000      0.000
REMARK SMILES Cc1cc(C(=O)N[C@H](CC(C)C)C(=O)NCCCCCCNC(=O)c2ccc(-c3c4nc(c(-c5c(F)cccc5F)c5ccc([nH]5)c(-c5c(F)cccc5F)c5nc(c(-c6c(F)cccc6F)c6ccc3[nH]6)C=C5)C=C4)cc2)sc1Br
REMARK SMILES IDX 18 1 17 2 16 3 15 4 13 5 14 6 8 8 7 9 5 10 6 11 4 13 1 14
REMARK SMILES IDX 2 15 3 16 80 17 79 18 81 19 9 20 10 21 11 22 12 23 19 24
REMARK SMILES IDX 20 25 21 26 22 27 23 28 24 30 25 31 26 32 78 33 27 34 77 35
REMARK SMILES IDX 28 36 29 37 30 38 71 39 31 40 76 41 70 42 72 43 32 44 75 45
REMARK SMILES IDX 69 46 68 47 33 49 59 50 42 51 58 52 43 53 46 54 57 55 73 56
REMARK SMILES IDX 44 57 45 58 56 60 74 61 47 62 34 63 35 64 40 65 36 66 37 67
REMARK SMILES IDX 39 68 41 69 38 70 60 71 61 72 66 73 62 74 63 75 65 76 67 77
REMARK SMILES IDX 64 78 48 79 49 80 54 81 50 82 51 83 53 84 55 85 52 86
REMARK H PARENT 15 7 7 12 22 29 72 48 46 59
REMARK Flexibility Score: inf
ROOT
ATOM      1  C   UNL A   1      38.779  21.840  26.038  1.00  0.00     0.002 C 
ENDROOT
BRANCH   1   2
ATOM      2  C   UNL A   1      38.403  23.322  25.999  1.00  0.00     0.021 C 
BRANCH   2   3
ATOM      3  C   UNL A   1      36.920  23.568  25.697  1.00  0.00     0.116 C 
BRANCH   3   4
ATOM      4  N   UNL A   1      36.121  22.809  26.626  1.00  0.00    -0.354 N 
ATOM      5  C   UNL A   1      34.804  22.489  26.522  1.00  0.00     0.242 C 
ATOM      6  O   UNL A   1      34.156  22.397  27.570  1.00  0.00    -0.273 OA
ATOM      7  H   UNL A   1      36.584  22.483  27.432  1.00  0.00     0.163 HD
BRANCH   5   8
ATOM      8  C   UNL A   1      34.105  22.286  25.153  1.00  0.00     0.171 C 
BRANCH   8   9
ATOM      9  N   UNL A   1      32.675  22.571  25.111  1.00  0.00    -0.340 N 
ATOM     10  C   UNL A   1      31.969  23.732  24.901  1.00  0.00     0.262 C 
ATOM     11  O   UNL A   1      30.748  23.573  24.806  1.00  0.00    -0.268 OA
ATOM     12  H   UNL A   1      32.107  21.781  25.261  1.00  0.00     0.164 HD
BRANCH  10  13
ATOM     13  C   UNL A   1      32.609  25.037  24.848  1.00  0.00     0.093 A 
ATOM     14  C   UNL A   1      34.018  28.247  26.237  1.00  0.00     0.046 C 
ATOM     15  C   UNL A   1      33.568  27.143  25.339  1.00  0.00    -0.025 A 
ATOM     16  C   UNL A   1      33.152  25.854  25.822  1.00  0.00     0.030 A 
ATOM     17  C   UNL A   1      33.465  27.178  23.967  1.00  0.00     0.074 A 
ATOM     18  S   UNL A   1      32.810  25.768  23.298  1.00  0.00    -0.123 S 
ATOM     19  Br  UNL A   1      33.977  28.633  22.894  1.00  0.00    -0.039 Br
ENDBRANCH  10  13
ENDBRANCH   8   9
BRANCH   8  20
ATOM     20  C   UNL A   1      34.499  20.948  24.472  1.00  0.00     0.038 C 
BRANCH  20  21
ATOM     21  C   UNL A   1      33.933  19.586  24.952  1.00  0.00    -0.015 C 
ATOM     22  C   UNL A   1      32.550  19.221  24.407  1.00  0.00     0.007 C 
ATOM     23  C   UNL A   1      34.907  18.463  24.567  1.00  0.00     0.007 C 
ENDBRANCH  20  21
ENDBRANCH   8  20
ENDBRANCH   5   8
ENDBRANCH   3   4
ENDBRANCH   2   3
ENDBRANCH   1   2
BRANCH   1  24
ATOM     24  C   UNL A   1      40.159  21.539  26.640  1.00  0.00     0.002 C 
BRANCH  24  25
ATOM     25  C   UNL A   1      40.743  20.151  26.332  1.00  0.00     0.021 C 
BRANCH  25  26
ATOM     26  C   UNL A   1      42.078  19.892  27.010  1.00  0.00     0.116 C 
BRANCH  26  27
ATOM     27  N   UNL A   1      43.170  19.745  26.043  1.00  0.00    -0.352 N 
ATOM     28  C   UNL A   1      43.795  20.713  25.275  1.00  0.00     0.251 C 
ATOM     29  H   UNL A   1      43.507  18.828  25.923  1.00  0.00     0.163 HD
ATOM     30  O   UNL A   1      44.424  20.422  24.273  1.00  0.00    -0.269 OA
BRANCH  28  31
ATOM     31  C   UNL A   1      43.701  22.114  25.716  1.00  0.00     0.039 A 
ATOM     32  C   UNL A   1      43.006  23.091  24.999  1.00  0.00     0.014 A 
ATOM     33  C   UNL A   1      44.321  22.421  26.918  1.00  0.00     0.014 A 
ATOM     34  C   UNL A   1      42.912  24.369  25.545  1.00  0.00     0.010 A 
ATOM     35  C   UNL A   1      43.988  23.568  27.568  1.00  0.00     0.010 A 
ATOM     36  C   UNL A   1      43.411  24.590  26.836  1.00  0.00    -0.014 A 
BRANCH  36  37
ATOM     37  C   UNL A   1      43.312  25.868  27.515  1.00  0.00     0.031 A 
ATOM     38  C   UNL A   1      44.368  26.834  27.135  1.00  0.00     0.074 A 
ATOM     39  C   UNL A   1      42.204  26.223  28.203  1.00  0.00     0.049 A 
ATOM     40  N   UNL A   1      45.348  27.254  27.862  1.00  0.00    -0.248 NA
ATOM     41  C   UNL A   1      44.443  27.256  25.726  1.00  0.00     0.031 C 
ATOM     42  C   UNL A   1      40.937  25.492  28.359  1.00  0.00     0.029 A 
ATOM     43  N   UNL A   1      41.944  27.393  28.840  1.00  0.00    -0.354 N 
ATOM     44  C   UNL A   1      46.026  28.178  27.074  1.00  0.00     0.074 A 
ATOM     45  C   UNL A   1      45.571  27.968  25.726  1.00  0.00     0.031 C 
ATOM     46  C   UNL A   1      39.985  26.322  28.840  1.00  0.00     0.029 A 
ATOM     47  C   UNL A   1      40.611  27.580  29.194  1.00  0.00     0.049 A 
ATOM     48  H   UNL A   1      42.643  28.059  29.037  1.00  0.00     0.167 HD
ATOM     49  C   UNL A   1      46.692  29.220  27.643  1.00  0.00     0.037 A 
ATOM     50  C   UNL A   1      40.075  28.712  29.714  1.00  0.00     0.037 A 
ATOM     51  C   UNL A   1      46.893  28.995  29.056  1.00  0.00     0.049 A 
ATOM     52  C   UNL A   1      41.203  29.508  30.264  1.00  0.00     0.074 A 
ATOM     53  C   UNL A   1      47.517  28.014  29.802  1.00  0.00     0.029 A 
ATOM     54  N   UNL A   1      46.052  29.644  29.929  1.00  0.00    -0.354 N 
ATOM     55  N   UNL A   1      41.923  29.128  31.286  1.00  0.00    -0.248 NA
ATOM     56  C   UNL A   1      41.843  30.462  29.370  1.00  0.00     0.031 C 
ATOM     57  C   UNL A   1      46.656  27.801  30.921  1.00  0.00     0.029 A 
ATOM     58  C   UNL A   1      45.605  28.716  30.836  1.00  0.00     0.049 A 
ATOM     59  H   UNL A   1      45.815  30.599  29.908  1.00  0.00     0.167 HD
ATOM     60  C   UNL A   1      43.229  29.451  30.942  1.00  0.00     0.074 A 
ATOM     61  C   UNL A   1      43.108  30.327  29.777  1.00  0.00     0.031 C 
ATOM     62  C   UNL A   1      44.290  28.745  31.436  1.00  0.00     0.037 A 
BRANCH  49  63
ATOM     63  C   UNL A   1      46.802  30.596  27.029  1.00  0.00     0.057 A 
ATOM     64  C   UNL A   1      48.057  31.229  27.007  1.00  0.00     0.134 A 
ATOM     65  C   UNL A   1      45.706  31.432  26.729  1.00  0.00     0.134 A 
ATOM     66  F   UNL A   1      49.178  30.545  27.281  1.00  0.00    -0.206 F 
ATOM     67  C   UNL A   1      48.201  32.605  26.792  1.00  0.00     0.040 A 
ATOM     68  C   UNL A   1      45.845  32.796  26.461  1.00  0.00     0.040 A 
ATOM     69  F   UNL A   1      44.438  31.012  26.778  1.00  0.00    -0.206 F 
ATOM     70  C   UNL A   1      47.091  33.396  26.527  1.00  0.00     0.006 A 
ENDBRANCH  49  63
BRANCH  50  71
ATOM     71  C   UNL A   1      38.737  29.295  29.460  1.00  0.00     0.057 A 
ATOM     72  C   UNL A   1      38.324  29.634  28.163  1.00  0.00     0.134 A 
ATOM     73  C   UNL A   1      37.728  29.273  30.441  1.00  0.00     0.134 A 
ATOM     74  F   UNL A   1      39.203  29.640  27.151  1.00  0.00    -0.206 F 
ATOM     75  C   UNL A   1      36.984  29.913  27.855  1.00  0.00     0.040 A 
ATOM     76  C   UNL A   1      36.388  29.553  30.147  1.00  0.00     0.040 A 
ATOM     77  F   UNL A   1      37.992  28.891  31.698  1.00  0.00    -0.206 F 
ATOM     78  C   UNL A   1      36.009  29.861  28.846  1.00  0.00     0.006 A 
ENDBRANCH  50  71
BRANCH  62  79
ATOM     79  C   UNL A   1      44.029  27.742  32.530  1.00  0.00     0.057 A 
ATOM     80  C   UNL A   1      43.892  26.361  32.319  1.00  0.00     0.134 A 
ATOM     81  C   UNL A   1      44.098  28.167  33.861  1.00  0.00     0.134 A 
ATOM     82  F   UNL A   1      43.910  25.843  31.085  1.00  0.00    -0.206 F 
ATOM     83  C   UNL A   1      43.799  25.451  33.379  1.00  0.00     0.040 A 
ATOM     84  C   UNL A   1      44.036  27.268  34.928  1.00  0.00     0.040 A 
ATOM     85  F   UNL A   1      44.284  29.466  34.144  1.00  0.00    -0.206 F 
ATOM     86  C   UNL A   1      43.880  25.905  34.690  1.00  0.00     0.006 A 
ENDBRANCH  62  79
ENDBRANCH  36  37
ENDBRANCH  28  31
ENDBRANCH  26  27
ENDBRANCH  25  26
ENDBRANCH  24  25
ENDBRANCH   1  24
TORSDOF 17
ENDMDL
MODEL 2
REMARK VINA RESULT:     -10.5      1.401      2.159
REMARK SMILES Cc1cc(C(=O)N[C@H](CC(C)C)C(=O)NCCCCCCNC(=O)c2ccc(-c3c4nc(c(-c5c(F)cccc5F)c5ccc([nH]5)c(-c5c(F)cccc5F)c5nc(c(-c6c(F)cccc6F)c6ccc3[nH]6)C=C5)C=C4)cc2)sc1Br
REMARK SMILES IDX 18 1 17 2 16 3 15 4 13 5 14 6 8 8 7 9 5 10 6 11 4 13 1 14
REMARK SMILES IDX 2 15 3 16 80 17 79 18 81 19 9 20 10 21 11 22 12 23 19 24
REMARK SMILES IDX 20 25 21 26 22 27 23 28 24 30 25 31 26 32 78 33 27 34 77 35
REMARK SMILES IDX 28 36 29 37 30 38 71 39 31 40 76 41 70 42 72 43 32 44 75 45
REMARK SMILES IDX 69 46 68 47 33 49 59 50 42 51 58 52 43 53 46 54 57 55 73 56
REMARK SMILES IDX 44 57 45 58 56 60 74 61 47 62 34 63 35 64 40 65 36 66 37 67
REMARK SMILES IDX 39 68 41 69 38 70 60 71 61 72 66 73 62 74 63 75 65 76 67 77
REMARK SMILES IDX 64 78 48 79 49 80 54 81 50 82 51 83 53 84 55 85 52 86
REMARK H PARENT 15 7 7 12 22 29 72 48 46 59
REMARK Flexibility Score: inf
ROOT
ATOM      1  C   UNL A   1      38.958  21.919  26.116  1.00  0.00     0.002 C 
ENDROOT
BRANCH   1   2
ATOM      2  C   UNL A   1      38.504  23.355  26.385  1.00  0.00     0.021 C 
BRANCH   2   3
ATOM      3  C   UNL A   1      37.096  23.659  25.858  1.00  0.00     0.116 C 
BRANCH   3   4
ATOM      4  N   UNL A   1      37.118  23.621  24.417  1.00  0.00    -0.354 N 
ATOM      5  C   UNL A   1      36.062  23.480  23.573  1.00  0.00     0.242 C 
ATOM      6  O   UNL A   1      36.259  22.886  22.509  1.00  0.00    -0.273 OA
ATOM      7  H   UNL A   1      38.002  23.707  23.994  1.00  0.00     0.163 HD
BRANCH   5   8
ATOM      8  C   UNL A   1      34.642  23.996  23.927  1.00  0.00     0.171 C 
BRANCH   8   9
ATOM      9  N   UNL A   1      34.096  23.555  25.206  1.00  0.00    -0.340 N 
ATOM     10  C   UNL A   1      33.022  23.984  25.949  1.00  0.00     0.262 C 
ATOM     11  O   UNL A   1      32.777  23.283  26.937  1.00  0.00    -0.268 OA
ATOM     12  H   UNL A   1      34.591  22.808  25.613  1.00  0.00     0.164 HD
BRANCH  10  13
ATOM     13  C   UNL A   1      32.277  25.190  25.624  1.00  0.00     0.093 A 
ATOM     14  C   UNL A   1      29.562  27.230  23.987  1.00  0.00     0.046 C 
ATOM     15  C   UNL A   1      30.747  26.781  24.775  1.00  0.00    -0.025 A 
ATOM     16  C   UNL A   1      31.047  25.398  25.028  1.00  0.00     0.030 A 
ATOM     17  C   UNL A   1      31.713  27.576  25.349  1.00  0.00     0.074 A 
ATOM     18  S   UNL A   1      32.970  26.704  26.073  1.00  0.00    -0.123 S 
ATOM     19  Br  UNL A   1      31.691  29.455  25.344  1.00  0.00    -0.039 Br
ENDBRANCH  10  13
ENDBRANCH   8   9
BRANCH   8  20
ATOM     20  C   UNL A   1      33.647  23.869  22.742  1.00  0.00     0.038 C 
BRANCH  20  21
ATOM     21  C   UNL A   1      32.951  25.108  22.121  1.00  0.00    -0.015 C 
ATOM     22  C   UNL A   1      33.648  26.448  22.371  1.00  0.00     0.007 C 
ATOM     23  C   UNL A   1      32.822  24.916  20.603  1.00  0.00     0.007 C 
ENDBRANCH  20  21
ENDBRANCH   8  20
ENDBRANCH   5   8
ENDBRANCH   3   4
ENDBRANCH   2   3
ENDBRANCH   1   2
BRANCH   1  24
ATOM     24  C   UNL A   1      40.369  21.583  26.619  1.00  0.00     0.002 C 
BRANCH  24  25
ATOM     25  C   UNL A   1      40.953  20.241  26.150  1.00  0.00     0.021 C 
BRANCH  25  26
ATOM     26  C   UNL A   1      42.216  19.838  26.891  1.00  0.00     0.116 C 
BRANCH  26  27
ATOM     27  N   UNL A   1      43.372  19.732  25.996  1.00  0.00    -0.352 N 
ATOM     28  C   UNL A   1      44.010  20.722  25.269  1.00  0.00     0.251 C 
ATOM     29  H   UNL A   1      43.749  18.827  25.898  1.00  0.00     0.163 HD
ATOM     30  O   UNL A   1      44.712  20.455  24.309  1.00  0.00    -0.269 OA
BRANCH  28  31
ATOM     31  C   UNL A   1      43.839  22.119  25.703  1.00  0.00     0.039 A 
ATOM     32  C   UNL A   1      43.088  23.050  24.982  1.00  0.00     0.014 A 
ATOM     33  C   UNL A   1      44.443  22.467  26.901  1.00  0.00     0.014 A 
ATOM     34  C   UNL A   1      42.923  24.324  25.520  1.00  0.00     0.010 A 
ATOM     35  C   UNL A   1      44.048  23.597  27.546  1.00  0.00     0.010 A 
ATOM     36  C   UNL A   1      43.412  24.580  26.809  1.00  0.00    -0.014 A 
BRANCH  36  37
ATOM     37  C   UNL A   1      43.243  25.855  27.481  1.00  0.00     0.031 A 
ATOM     38  C   UNL A   1      44.234  26.881  27.082  1.00  0.00     0.074 A 
ATOM     39  C   UNL A   1      42.123  26.146  28.180  1.00  0.00     0.049 A 
ATOM     40  N   UNL A   1      45.194  27.366  27.794  1.00  0.00    -0.248 NA
ATOM     41  C   UNL A   1      44.266  27.297  25.670  1.00  0.00     0.031 C 
ATOM     42  C   UNL A   1      40.905  25.341  28.356  1.00  0.00     0.029 A 
ATOM     43  N   UNL A   1      41.799  27.303  28.813  1.00  0.00    -0.354 N 
ATOM     44  C   UNL A   1      45.805  28.324  26.993  1.00  0.00     0.074 A 
ATOM     45  C   UNL A   1      45.348  28.077  25.651  1.00  0.00     0.031 C 
ATOM     46  C   UNL A   1      39.909  26.114  28.842  1.00  0.00     0.029 A 
ATOM     47  C   UNL A   1      40.461  27.410  29.181  1.00  0.00     0.049 A 
ATOM     48  H   UNL A   1      42.458  28.011  28.997  1.00  0.00     0.167 HD
ATOM     49  C   UNL A   1      46.412  29.409  27.547  1.00  0.00     0.037 A 
ATOM     50  C   UNL A   1      39.863  28.511  29.701  1.00  0.00     0.037 A 
ATOM     51  C   UNL A   1      46.642  29.207  28.959  1.00  0.00     0.049 A 
ATOM     52  C   UNL A   1      40.947  29.378  30.232  1.00  0.00     0.074 A 
ATOM     53  C   UNL A   1      47.335  28.271  29.704  1.00  0.00     0.029 A 
ATOM     54  N   UNL A   1      45.774  29.809  29.838  1.00  0.00    -0.354 N 
ATOM     55  N   UNL A   1      41.700  29.050  31.247  1.00  0.00    -0.248 NA
ATOM     56  C   UNL A   1      41.516  30.363  29.324  1.00  0.00     0.031 C 
ATOM     57  C   UNL A   1      46.501  28.013  30.834  1.00  0.00     0.029 A 
ATOM     58  C   UNL A   1      45.395  28.862  30.756  1.00  0.00     0.049 A 
ATOM     59  H   UNL A   1      45.479  30.747  29.813  1.00  0.00     0.167 HD
ATOM     60  C   UNL A   1      42.980  29.450  30.886  1.00  0.00     0.074 A 
ATOM     61  C   UNL A   1      42.792  30.309  29.716  1.00  0.00     0.031 C 
ATOM     62  C   UNL A   1      44.088  28.814  31.371  1.00  0.00     0.037 A 
BRANCH  49  63
ATOM     63  C   UNL A   1      46.431  30.784  26.923  1.00  0.00     0.057 A 
ATOM     64  C   UNL A   1      47.639  31.502  26.902  1.00  0.00     0.134 A 
ATOM     65  C   UNL A   1      45.281  31.541  26.612  1.00  0.00     0.134 A 
ATOM     66  F   UNL A   1      48.803  30.899  27.186  1.00  0.00    -0.206 F 
ATOM     67  C   UNL A   1      47.689  32.883  26.677  1.00  0.00     0.040 A 
ATOM     68  C   UNL A   1      45.328  32.909  26.333  1.00  0.00     0.040 A 
ATOM     69  F   UNL A   1      44.045  31.035  26.658  1.00  0.00    -0.206 F 
ATOM     70  C   UNL A   1      46.529  33.594  26.401  1.00  0.00     0.006 A 
ENDBRANCH  49  63
BRANCH  50  71
ATOM     71  C   UNL A   1      38.489  29.009  29.458  1.00  0.00     0.057 A 
ATOM     72  C   UNL A   1      37.566  29.142  30.506  1.00  0.00     0.134 A 
ATOM     73  C   UNL A   1      38.136  29.629  28.245  1.00  0.00     0.134 A 
ATOM     74  F   UNL A   1      37.832  28.624  31.714  1.00  0.00    -0.206 F 
ATOM     75  C   UNL A   1      36.374  29.868  30.364  1.00  0.00     0.040 A 
ATOM     76  C   UNL A   1      36.947  30.352  28.089  1.00  0.00     0.040 A 
ATOM     77  F   UNL A   1      38.973  29.631  27.198  1.00  0.00    -0.206 F 
ATOM     78  C   UNL A   1      36.067  30.486  29.155  1.00  0.00     0.006 A 
ENDBRANCH  50  71
BRANCH  62  79
ATOM     79  C   UNL A   1      43.902  27.805  32.475  1.00  0.00     0.057 A 
ATOM     80  C   UNL A   1      43.840  26.417  32.273  1.00  0.00     0.134 A 
ATOM     81  C   UNL A   1      43.967  28.242  33.802  1.00  0.00     0.134 A 
ATOM     82  F   UNL A   1      43.867  25.894  31.043  1.00  0.00    -0.206 F 
ATOM     83  C   UNL A   1      43.815  25.510  33.339  1.00  0.00     0.040 A 
ATOM     84  C   UNL A   1      43.974  27.347  34.875  1.00  0.00     0.040 A 
ATOM     85  F   UNL A   1      44.083  29.551  34.076  1.00  0.00    -0.206 F 
ATOM     86  C   UNL A   1      43.891  25.976  34.647  1.00  0.00     0.006 A 
ENDBRANCH  62  79
ENDBRANCH  36  37
ENDBRANCH  28  31
ENDBRANCH  26  27
ENDBRANCH  25  26
ENDBRANCH  24  25
ENDBRANCH   1  24
TORSDOF 17
ENDMDL
MODEL 3
REMARK VINA RESULT:     -10.3      2.624      7.579
REMARK SMILES Cc1cc(C(=O)N[C@H](CC(C)C)C(=O)NCCCCCCNC(=O)c2ccc(-c3c4nc(c(-c5c(F)cccc5F)c5ccc([nH]5)c(-c5c(F)cccc5F)c5nc(c(-c6c(F)cccc6F)c6ccc3[nH]6)C=C5)C=C4)cc2)sc1Br
REMARK SMILES IDX 18 1 17 2 16 3 15 4 13 5 14 6 8 8 7 9 5 10 6 11 4 13 1 14
REMARK SMILES IDX 2 15 3 16 80 17 79 18 81 19 9 20 10 21 11 22 12 23 19 24
REMARK SMILES IDX 20 25 21 26 22 27 23 28 24 30 25 31 26 32 78 33 27 34 77 35
REMARK SMILES IDX 28 36 29 37 30 38 71 39 31 40 76 41 70 42 72 43 32 44 75 45
REMARK SMILES IDX 69 46 68 47 33 49 59 50 42 51 58 52 43 53 46 54 57 55 73 56
REMARK SMILES IDX 44 57 45 58 56 60 74 61 47 62 34 63 35 64 40 65 36 66 37 67
REMARK SMILES IDX 39 68 41 69 38 70 60 71 61 72 66 73 62 74 63 75 65 76 67 77
REMARK SMILES IDX 64 78 48 79 49 80 54 81 50 82 51 83 53 84 55 85 52 86
REMARK H PARENT 15 7 7 12 22 29 72 48 46 59
REMARK Flexibility Score: inf
ROOT
ATOM      1  C   UNL A   1      34.013  28.345  25.728  1.00  0.00     0.002 C 
ENDROOT
BRANCH   1   2
ATOM      2  C   UNL A   1      33.482  27.028  26.296  1.00  0.00     0.021 C 
BRANCH   2   3
ATOM      3  C   UNL A   1      31.963  26.872  26.160  1.00  0.00     0.116 C 
BRANCH   3   4
ATOM      4  N   UNL A   1      31.529  25.778  26.993  1.00  0.00    -0.354 N 
ATOM      5  C   UNL A   1      31.668  24.447  26.757  1.00  0.00     0.242 C 
ATOM      6  O   UNL A   1      30.785  23.697  27.186  1.00  0.00    -0.273 OA
ATOM      7  H   UNL A   1      31.077  26.025  27.832  1.00  0.00     0.163 HD
BRANCH   5   8
ATOM      8  C   UNL A   1      32.855  23.868  25.944  1.00  0.00     0.171 C 
BRANCH   8   9
ATOM      9  N   UNL A   1      32.510  23.146  24.725  1.00  0.00    -0.340 N 
ATOM     10  C   UNL A   1      32.382  23.549  23.416  1.00  0.00     0.262 C 
ATOM     11  O   UNL A   1      32.199  22.625  22.617  1.00  0.00    -0.268 OA
ATOM     12  H   UNL A   1      32.336  22.187  24.865  1.00  0.00     0.164 HD
BRANCH  10  13
ATOM     13  C   UNL A   1      32.409  24.949  23.022  1.00  0.00     0.093 A 
ATOM     14  C   UNL A   1      33.996  28.254  22.141  1.00  0.00     0.046 C 
ATOM     15  C   UNL A   1      33.030  27.153  22.431  1.00  0.00    -0.025 A 
ATOM     16  C   UNL A   1      33.425  25.779  22.587  1.00  0.00     0.030 A 
ATOM     17  C   UNL A   1      31.669  27.265  22.604  1.00  0.00     0.074 A 
ATOM     18  S   UNL A   1      30.916  25.811  23.030  1.00  0.00    -0.123 S 
ATOM     19  Br  UNL A   1      30.697  28.862  22.413  1.00  0.00    -0.039 Br
ENDBRANCH  10  13
ENDBRANCH   8   9
BRANCH   8  20
ATOM     20  C   UNL A   1      33.891  23.133  26.838  1.00  0.00     0.038 C 
BRANCH  20  21
ATOM     21  C   UNL A   1      35.342  22.869  26.361  1.00  0.00    -0.015 C 
ATOM     22  C   UNL A   1      35.543  21.590  25.544  1.00  0.00     0.007 C 
ATOM     23  C   UNL A   1      35.827  24.054  25.514  1.00  0.00     0.007 C 
ENDBRANCH  20  21
ENDBRANCH   8  20
ENDBRANCH   5   8
ENDBRANCH   3   4
ENDBRANCH   2   3
ENDBRANCH   1   2
BRANCH   1  24
ATOM     24  C   UNL A   1      33.281  29.602  26.218  1.00  0.00     0.002 C 
BRANCH  24  25
ATOM     25  C   UNL A   1      33.629  30.078  27.637  1.00  0.00     0.021 C 
BRANCH  25  26
ATOM     26  C   UNL A   1      34.401  31.386  27.665  1.00  0.00     0.116 C 
BRANCH  26  27
ATOM     27  N   UNL A   1      34.313  32.051  28.968  1.00  0.00    -0.352 N 
ATOM     28  C   UNL A   1      35.102  31.881  30.094  1.00  0.00     0.251 C 
ATOM     29  H   UNL A   1      33.590  32.714  29.057  1.00  0.00     0.163 HD
ATOM     30  O   UNL A   1      34.716  32.217  31.199  1.00  0.00    -0.269 OA
BRANCH  28  31
ATOM     31  C   UNL A   1      36.444  31.300  29.916  1.00  0.00     0.039 A 
ATOM     32  C   UNL A   1      37.580  32.076  29.673  1.00  0.00     0.014 A 
ATOM     33  C   UNL A   1      36.536  29.922  30.036  1.00  0.00     0.014 A 
ATOM     34  C   UNL A   1      38.814  31.434  29.599  1.00  0.00     0.010 A 
ATOM     35  C   UNL A   1      37.751  29.349  30.245  1.00  0.00     0.010 A 
ATOM     36  C   UNL A   1      38.880  30.064  29.890  1.00  0.00    -0.014 A 
BRANCH  36  37
ATOM     37  C   UNL A   1      40.124  29.316  29.895  1.00  0.00     0.031 A 
ATOM     38  C   UNL A   1      40.696  29.111  31.245  1.00  0.00     0.074 A 
ATOM     39  C   UNL A   1      40.552  28.643  28.804  1.00  0.00     0.049 A 
ATOM     40  N   UNL A   1      41.764  29.643  31.736  1.00  0.00    -0.248 NA
ATOM     41  C   UNL A   1      39.897  28.356  32.225  1.00  0.00     0.031 C 
ATOM     42  C   UNL A   1      39.891  28.474  27.501  1.00  0.00     0.029 A 
ATOM     43  N   UNL A   1      41.656  27.863  28.672  1.00  0.00    -0.354 N 
ATOM     44  C   UNL A   1      41.899  29.100  33.009  1.00  0.00     0.074 A 
ATOM     45  C   UNL A   1      40.627  28.509  33.331  1.00  0.00     0.031 C 
ATOM     46  C   UNL A   1      40.485  27.476  26.810  1.00  0.00     0.029 A 
ATOM     47  C   UNL A   1      41.669  27.061  27.535  1.00  0.00     0.049 A 
ATOM     48  H   UNL A   1      42.390  27.865  29.328  1.00  0.00     0.167 HD
ATOM     49  C   UNL A   1      43.128  28.939  33.570  1.00  0.00     0.037 A 
ATOM     50  C   UNL A   1      42.586  26.104  27.245  1.00  0.00     0.037 A 
ATOM     51  C   UNL A   1      44.122  29.716  32.866  1.00  0.00     0.049 A 
ATOM     52  C   UNL A   1      43.783  26.390  28.078  1.00  0.00     0.074 A 
ATOM     53  C   UNL A   1      44.280  31.059  32.580  1.00  0.00     0.029 A 
ATOM     54  N   UNL A   1      44.938  29.053  31.980  1.00  0.00    -0.354 N 
ATOM     55  N   UNL A   1      44.530  27.451  27.927  1.00  0.00    -0.248 NA
ATOM     56  C   UNL A   1      43.844  25.765  29.391  1.00  0.00     0.031 C 
ATOM     57  C   UNL A   1      44.767  31.094  31.239  1.00  0.00     0.029 A 
ATOM     58  C   UNL A   1      44.955  29.777  30.815  1.00  0.00     0.049 A 
ATOM     59  H   UNL A   1      45.422  28.212  32.151  1.00  0.00     0.167 HD
ATOM     60  C   UNL A   1      44.819  27.871  29.219  1.00  0.00     0.074 A 
ATOM     61  C   UNL A   1      44.420  26.757  30.078  1.00  0.00     0.031 C 
ATOM     62  C   UNL A   1      45.067  29.186  29.500  1.00  0.00     0.037 A 
BRANCH  49  63
ATOM     63  C   UNL A   1      43.506  27.793  34.478  1.00  0.00     0.057 A 
ATOM     64  C   UNL A   1      43.502  26.487  33.958  1.00  0.00     0.134 A 
ATOM     65  C   UNL A   1      43.588  27.875  35.884  1.00  0.00     0.134 A 
ATOM     66  F   UNL A   1      43.423  26.273  32.636  1.00  0.00    -0.206 F 
ATOM     67  C   UNL A   1      43.490  25.352  34.777  1.00  0.00     0.040 A 
ATOM     68  C   UNL A   1      43.630  26.747  36.708  1.00  0.00     0.040 A 
ATOM     69  F   UNL A   1      43.527  29.033  36.549  1.00  0.00    -0.206 F 
ATOM     70  C   UNL A   1      43.544  25.479  36.158  1.00  0.00     0.006 A 
ENDBRANCH  49  63
BRANCH  50  71
ATOM     71  C   UNL A   1      42.371  24.798  26.579  1.00  0.00     0.057 A 
ATOM     72  C   UNL A   1      43.123  24.418  25.458  1.00  0.00     0.134 A 
ATOM     73  C   UNL A   1      41.619  23.778  27.190  1.00  0.00     0.134 A 
ATOM     74  F   UNL A   1      43.906  25.309  24.833  1.00  0.00    -0.206 F 
ATOM     75  C   UNL A   1      43.147  23.098  24.987  1.00  0.00     0.040 A 
ATOM     76  C   UNL A   1      41.630  22.456  26.727  1.00  0.00     0.040 A 
ATOM     77  F   UNL A   1      40.921  24.007  28.311  1.00  0.00    -0.206 F 
ATOM     78  C   UNL A   1      42.407  22.109  25.629  1.00  0.00     0.006 A 
ENDBRANCH  50  71
BRANCH  62  79
ATOM     79  C   UNL A   1      45.232  30.141  28.346  1.00  0.00     0.057 A 
ATOM     80  C   UNL A   1      44.187  30.893  27.787  1.00  0.00     0.134 A 
ATOM     81  C   UNL A   1      46.525  30.441  27.904  1.00  0.00     0.134 A 
ATOM     82  F   UNL A   1      42.926  30.747  28.209  1.00  0.00    -0.206 F 
ATOM     83  C   UNL A   1      44.413  31.875  26.817  1.00  0.00     0.040 A 
ATOM     84  C   UNL A   1      46.769  31.440  26.958  1.00  0.00     0.040 A 
ATOM     85  F   UNL A   1      47.582  29.804  28.430  1.00  0.00    -0.206 F 
ATOM     86  C   UNL A   1      45.711  32.158  26.406  1.00  0.00     0.006 A 
ENDBRANCH  62  79
ENDBRANCH  36  37
ENDBRANCH  28  31
ENDBRANCH  26  27
ENDBRANCH  25  26
ENDBRANCH  24  25
ENDBRANCH   1  24
TORSDOF 17
ENDMDL
