MODEL 1
REMARK VINA RESULT:     -12.3      0.000      0.000
REMARK SMILES Cc1n[nH]c(C[N@H+]2CCC[C@H](c3cccc(C(=O)NCCCCCCNC(=O)c4ccc(-c5c6nc(c(-c7c(F)cccc7F)c7ccc([nH]7)c(-c7c(F)cccc7F)c7nc(c(-c8c(F)cccc8F)c8ccc5[nH]8)C=C7)C=C6)cc4)c3)C2)n1
REMARK SMILES IDX 22 1 21 2 20 3 19 4 17 5 18 6 16 8 12 9 13 10 83 11 14 12
REMARK SMILES IDX 15 13 11 14 7 15 8 16 84 17 9 19 10 20 6 21 5 22 1 23 2 24
REMARK SMILES IDX 3 25 85 26 4 27 23 29 24 30 25 31 26 32 27 33 28 35 29 36
REMARK SMILES IDX 30 37 82 38 31 39 81 40 32 41 33 42 34 43 75 44 35 45 80 46
REMARK SMILES IDX 74 47 76 48 36 49 79 50 73 51 72 52 37 54 63 55 46 56 62 57
REMARK SMILES IDX 47 58 50 59 61 60 77 61 48 62 49 63 60 65 78 66 51 67 38 68
REMARK SMILES IDX 39 69 44 70 40 71 41 72 43 73 45 74 42 75 64 76 65 77 70 78
REMARK SMILES IDX 66 79 67 80 69 81 71 82 68 83 52 84 53 85 58 86 54 87 55 88
REMARK SMILES IDX 57 89 59 90 56 91
REMARK H PARENT 19 7 7 18 4 28 26 34 76 53 50 64
REMARK Flexibility Score: inf
ROOT
ATOM      1  C   UNL A   1      39.974  21.537  26.595  1.00  0.00     0.002 C 
ENDROOT
BRANCH   1   2
ATOM      2  C   UNL A   1      38.974  22.603  26.161  1.00  0.00     0.021 C 
BRANCH   2   3
ATOM      3  C   UNL A   1      37.717  22.112  25.456  1.00  0.00     0.116 C 
BRANCH   3   4
ATOM      4  N   UNL A   1      36.562  21.897  26.316  1.00  0.00    -0.352 N 
ATOM      5  C   UNL A   1      35.279  22.412  26.270  1.00  0.00     0.251 C 
ATOM      6  O   UNL A   1      34.474  22.063  27.132  1.00  0.00    -0.269 OA
ATOM      7  H   UNL A   1      36.723  21.276  27.063  1.00  0.00     0.163 HD
BRANCH   5   8
ATOM      8  C   UNL A   1      34.863  23.421  25.255  1.00  0.00     0.040 A 
ATOM      9  C   UNL A   1      33.822  25.571  24.767  1.00  0.00    -0.039 A 
ATOM     10  C   UNL A   1      33.660  25.163  23.438  1.00  0.00     0.004 A 
ATOM     11  C   UNL A   1      34.554  24.730  25.611  1.00  0.00     0.018 A 
ATOM     12  C   UNL A   1      34.149  23.926  23.004  1.00  0.00     0.001 A 
ATOM     13  C   UNL A   1      34.711  23.037  23.921  1.00  0.00     0.014 A 
BRANCH   9  14
ATOM     14  C   UNL A   1      33.093  26.766  25.383  1.00  0.00     0.074 C 
ATOM     15  N   UNL A   1      31.735  27.523  23.440  1.00  0.00    -0.328 N 
ATOM     16  C   UNL A   1      32.517  28.762  23.322  1.00  0.00     0.262 C 
ATOM     17  C   UNL A   1      31.683  27.043  24.834  1.00  0.00     0.270 C 
ATOM     18  H   UNL A   1      32.232  26.825  22.885  1.00  0.00     0.348 HD
ATOM     19  C   UNL A   1      33.924  28.628  23.915  1.00  0.00     0.062 C 
ATOM     20  C   UNL A   1      33.864  28.101  25.343  1.00  0.00     0.020 C 
BRANCH  15  21
ATOM     21  C   UNL A   1      30.385  27.630  22.858  1.00  0.00     0.340 C 
BRANCH  21  22
ATOM     22  C   UNL A   1      29.930  29.032  22.624  1.00  0.00     0.179 A 
ATOM     23  C   UNL A   1      28.312  31.657  20.925  1.00  0.00     0.092 C 
ATOM     24  C   UNL A   1      29.020  30.779  21.876  1.00  0.00     0.147 A 
ATOM     25  N   UNL A   1      29.123  31.039  23.185  1.00  0.00    -0.159 NA
ATOM     26  N   UNL A   1      29.556  29.584  21.488  1.00  0.00    -0.211 NA
ATOM     27  N   UNL A   1      29.726  29.926  23.634  1.00  0.00    -0.258 N 
ATOM     28  H   UNL A   1      29.987  29.775  24.572  1.00  0.00     0.192 HD
ENDBRANCH  21  22
ENDBRANCH  15  21
ENDBRANCH   9  14
ENDBRANCH   5   8
ENDBRANCH   3   4
ENDBRANCH   2   3
ENDBRANCH   1   2
BRANCH   1  29
ATOM     29  C   UNL A   1      39.999  20.228  25.794  1.00  0.00     0.002 C 
BRANCH  29  30
ATOM     30  C   UNL A   1      41.105  19.210  26.107  1.00  0.00     0.021 C 
BRANCH  30  31
ATOM     31  C   UNL A   1      42.374  19.799  26.698  1.00  0.00     0.116 C 
BRANCH  31  32
ATOM     32  N   UNL A   1      43.548  19.646  25.839  1.00  0.00    -0.352 N 
ATOM     33  C   UNL A   1      44.214  20.625  25.119  1.00  0.00     0.251 C 
ATOM     34  H   UNL A   1      43.911  18.734  25.764  1.00  0.00     0.163 HD
ATOM     35  O   UNL A   1      44.927  20.343  24.173  1.00  0.00    -0.269 OA
BRANCH  33  36
ATOM     36  C   UNL A   1      44.041  22.032  25.529  1.00  0.00     0.039 A 
ATOM     37  C   UNL A   1      43.063  22.855  24.964  1.00  0.00     0.014 A 
ATOM     38  C   UNL A   1      44.871  22.507  26.537  1.00  0.00     0.014 A 
ATOM     39  C   UNL A   1      42.887  24.134  25.487  1.00  0.00     0.010 A 
ATOM     40  C   UNL A   1      44.554  23.668  27.186  1.00  0.00     0.010 A 
ATOM     41  C   UNL A   1      43.626  24.524  26.617  1.00  0.00    -0.014 A 
BRANCH  41  42
ATOM     42  C   UNL A   1      43.388  25.800  27.277  1.00  0.00     0.031 A 
ATOM     43  C   UNL A   1      44.329  26.881  26.888  1.00  0.00     0.074 A 
ATOM     44  C   UNL A   1      42.291  26.050  28.026  1.00  0.00     0.049 A 
ATOM     45  N   UNL A   1      45.238  27.426  27.625  1.00  0.00    -0.248 NA
ATOM     46  C   UNL A   1      44.372  27.306  25.478  1.00  0.00     0.031 C 
ATOM     47  C   UNL A   1      41.113  25.207  28.261  1.00  0.00     0.029 A 
ATOM     48  N   UNL A   1      41.959  27.198  28.674  1.00  0.00    -0.354 N 
ATOM     49  C   UNL A   1      45.830  28.411  26.842  1.00  0.00     0.074 A 
ATOM     50  C   UNL A   1      45.388  28.171  25.492  1.00  0.00     0.031 C 
ATOM     51  C   UNL A   1      40.112  25.953  28.779  1.00  0.00     0.029 A 
ATOM     52  C   UNL A   1      40.631  27.272  29.080  1.00  0.00     0.049 A 
ATOM     53  H   UNL A   1      42.607  27.919  28.842  1.00  0.00     0.167 HD
ATOM     54  C   UNL A   1      46.443  29.482  27.418  1.00  0.00     0.037 A 
ATOM     55  C   UNL A   1      40.010  28.360  29.599  1.00  0.00     0.037 A 
ATOM     56  C   UNL A   1      46.717  29.234  28.813  1.00  0.00     0.049 A 
ATOM     57  C   UNL A   1      41.075  29.262  30.116  1.00  0.00     0.074 A 
ATOM     58  C   UNL A   1      47.425  28.263  29.499  1.00  0.00     0.029 A 
ATOM     59  N   UNL A   1      45.888  29.811  29.747  1.00  0.00    -0.354 N 
ATOM     60  N   UNL A   1      41.829  28.969  31.141  1.00  0.00    -0.248 NA
ATOM     61  C   UNL A   1      41.629  30.239  29.190  1.00  0.00     0.031 C 
ATOM     62  C   UNL A   1      46.613  27.955  30.632  1.00  0.00     0.029 A 
ATOM     63  C   UNL A   1      45.516  28.818  30.618  1.00  0.00     0.049 A 
ATOM     64  H   UNL A   1      45.615  30.756  29.783  1.00  0.00     0.167 HD
ATOM     65  C   UNL A   1      43.103  29.372  30.768  1.00  0.00     0.074 A 
ATOM     66  C   UNL A   1      42.906  30.209  29.583  1.00  0.00     0.031 C 
ATOM     67  C   UNL A   1      44.222  28.758  31.257  1.00  0.00     0.037 A 
BRANCH  54  68
ATOM     68  C   UNL A   1      46.449  30.874  26.836  1.00  0.00     0.057 A 
ATOM     69  C   UNL A   1      47.652  31.604  26.823  1.00  0.00     0.134 A 
ATOM     70  C   UNL A   1      45.289  31.628  26.573  1.00  0.00     0.134 A 
ATOM     71  F   UNL A   1      48.826  31.002  27.067  1.00  0.00    -0.206 F 
ATOM     72  C   UNL A   1      47.685  32.992  26.649  1.00  0.00     0.040 A 
ATOM     73  C   UNL A   1      45.315  33.007  26.347  1.00  0.00     0.040 A 
ATOM     74  F   UNL A   1      44.059  31.102  26.622  1.00  0.00    -0.206 F 
ATOM     75  C   UNL A   1      46.513  33.701  26.420  1.00  0.00     0.006 A 
ENDBRANCH  54  68
BRANCH  55  76
ATOM     76  C   UNL A   1      38.614  28.808  29.381  1.00  0.00     0.057 A 
ATOM     77  C   UNL A   1      37.704  28.896  30.445  1.00  0.00     0.134 A 
ATOM     78  C   UNL A   1      38.214  29.420  28.179  1.00  0.00     0.134 A 
ATOM     79  F   UNL A   1      38.009  28.382  31.645  1.00  0.00    -0.206 F 
ATOM     80  C   UNL A   1      36.481  29.573  30.328  1.00  0.00     0.040 A 
ATOM     81  C   UNL A   1      36.994  30.093  28.047  1.00  0.00     0.040 A 
ATOM     82  F   UNL A   1      39.030  29.464  27.116  1.00  0.00    -0.206 F 
ATOM     83  C   UNL A   1      36.128  30.185  29.129  1.00  0.00     0.006 A 
ENDBRANCH  55  76
BRANCH  67  84
ATOM     84  C   UNL A   1      44.069  27.763  32.377  1.00  0.00     0.057 A 
ATOM     85  C   UNL A   1      43.987  26.373  32.197  1.00  0.00     0.134 A 
ATOM     86  C   UNL A   1      44.194  28.216  33.695  1.00  0.00     0.134 A 
ATOM     87  F   UNL A   1      43.966  25.829  30.976  1.00  0.00    -0.206 F 
ATOM     88  C   UNL A   1      43.990  25.484  33.279  1.00  0.00     0.040 A 
ATOM     89  C   UNL A   1      44.233  27.339  34.782  1.00  0.00     0.040 A 
ATOM     90  F   UNL A   1      44.336  29.527  33.948  1.00  0.00    -0.206 F 
ATOM     91  C   UNL A   1      44.122  25.966  34.576  1.00  0.00     0.006 A 
ENDBRANCH  67  84
ENDBRANCH  41  42
ENDBRANCH  33  36
ENDBRANCH  31  32
ENDBRANCH  30  31
ENDBRANCH  29  30
ENDBRANCH   1  29
TORSDOF 16
ENDMDL
MODEL 2
REMARK VINA RESULT:     -12.3      1.592      2.243
REMARK SMILES Cc1n[nH]c(C[N@H+]2CCC[C@H](c3cccc(C(=O)NCCCCCCNC(=O)c4ccc(-c5c6nc(c(-c7c(F)cccc7F)c7ccc([nH]7)c(-c7c(F)cccc7F)c7nc(c(-c8c(F)cccc8F)c8ccc5[nH]8)C=C7)C=C6)cc4)c3)C2)n1
REMARK SMILES IDX 22 1 21 2 20 3 19 4 17 5 18 6 16 8 12 9 13 10 83 11 14 12
REMARK SMILES IDX 15 13 11 14 7 15 8 16 84 17 9 19 10 20 6 21 5 22 1 23 2 24
REMARK SMILES IDX 3 25 85 26 4 27 23 29 24 30 25 31 26 32 27 33 28 35 29 36
REMARK SMILES IDX 30 37 82 38 31 39 81 40 32 41 33 42 34 43 75 44 35 45 80 46
REMARK SMILES IDX 74 47 76 48 36 49 79 50 73 51 72 52 37 54 63 55 46 56 62 57
REMARK SMILES IDX 47 58 50 59 61 60 77 61 48 62 49 63 60 65 78 66 51 67 38 68
REMARK SMILES IDX 39 69 44 70 40 71 41 72 43 73 45 74 42 75 64 76 65 77 70 78
REMARK SMILES IDX 66 79 67 80 69 81 71 82 68 83 52 84 53 85 58 86 54 87 55 88
REMARK SMILES IDX 57 89 59 90 56 91
REMARK H PARENT 19 7 7 18 4 28 26 34 76 53 50 64
REMARK Flexibility Score: inf
ROOT
ATOM      1  C   UNL A   1      39.755  20.627  26.119  1.00  0.00     0.002 C 
ENDROOT
BRANCH   1   2
ATOM      2  C   UNL A   1      39.296  22.079  26.198  1.00  0.00     0.021 C 
BRANCH   2   3
ATOM      3  C   UNL A   1      37.843  22.355  25.840  1.00  0.00     0.116 C 
BRANCH   3   4
ATOM      4  N   UNL A   1      37.613  22.832  24.483  1.00  0.00    -0.352 N 
ATOM      5  C   UNL A   1      36.500  22.764  23.665  1.00  0.00     0.251 C 
ATOM      6  O   UNL A   1      36.567  23.255  22.539  1.00  0.00    -0.269 OA
ATOM      7  H   UNL A   1      38.389  23.281  24.076  1.00  0.00     0.163 HD
BRANCH   5   8
ATOM      8  C   UNL A   1      35.253  22.061  24.078  1.00  0.00     0.040 A 
ATOM      9  C   UNL A   1      32.829  22.109  24.343  1.00  0.00    -0.039 A 
ATOM     10  C   UNL A   1      32.928  21.020  25.217  1.00  0.00     0.004 A 
ATOM     11  C   UNL A   1      33.996  22.511  23.685  1.00  0.00     0.018 A 
ATOM     12  C   UNL A   1      34.164  20.415  25.470  1.00  0.00     0.001 A 
ATOM     13  C   UNL A   1      35.331  20.963  24.937  1.00  0.00     0.014 A 
BRANCH   9  14
ATOM     14  C   UNL A   1      31.583  22.988  24.220  1.00  0.00     0.074 C 
ATOM     15  N   UNL A   1      32.594  25.249  24.462  1.00  0.00    -0.328 N 
ATOM     16  C   UNL A   1      31.935  25.451  25.760  1.00  0.00     0.262 C 
ATOM     17  C   UNL A   1      31.802  24.370  23.581  1.00  0.00     0.270 C 
ATOM     18  H   UNL A   1      33.476  24.777  24.666  1.00  0.00     0.348 HD
ATOM     19  C   UNL A   1      31.593  24.129  26.458  1.00  0.00     0.062 C 
ATOM     20  C   UNL A   1      30.803  23.213  25.531  1.00  0.00     0.020 C 
BRANCH  15  21
ATOM     21  C   UNL A   1      32.946  26.511  23.786  1.00  0.00     0.340 C 
BRANCH  21  22
ATOM     22  C   UNL A   1      31.771  27.345  23.401  1.00  0.00     0.179 A 
ATOM     23  C   UNL A   1      29.585  30.102  23.547  1.00  0.00     0.092 C 
ATOM     24  C   UNL A   1      30.335  28.875  23.213  1.00  0.00     0.147 A 
ATOM     25  N   UNL A   1      30.317  28.307  22.001  1.00  0.00    -0.159 NA
ATOM     26  N   UNL A   1      31.169  28.277  24.113  1.00  0.00    -0.211 NA
ATOM     27  N   UNL A   1      31.219  27.323  22.153  1.00  0.00    -0.258 N 
ATOM     28  H   UNL A   1      31.452  26.670  21.454  1.00  0.00     0.192 HD
ENDBRANCH  21  22
ENDBRANCH  15  21
ENDBRANCH   9  14
ENDBRANCH   5   8
ENDBRANCH   3   4
ENDBRANCH   2   3
ENDBRANCH   1   2
BRANCH   1  29
ATOM     29  C   UNL A   1      41.221  20.333  26.470  1.00  0.00     0.002 C 
BRANCH  29  30
ATOM     30  C   UNL A   1      41.848  19.041  25.926  1.00  0.00     0.021 C 
BRANCH  30  31
ATOM     31  C   UNL A   1      43.317  18.846  26.263  1.00  0.00     0.116 C 
BRANCH  31  32
ATOM     32  N   UNL A   1      44.187  18.801  25.088  1.00  0.00    -0.352 N 
ATOM     33  C   UNL A   1      44.572  19.850  24.269  1.00  0.00     0.251 C 
ATOM     34  H   UNL A   1      44.544  17.915  24.851  1.00  0.00     0.163 HD
ATOM     35  O   UNL A   1      44.983  19.656  23.139  1.00  0.00    -0.269 OA
BRANCH  33  36
ATOM     36  C   UNL A   1      44.478  21.223  24.802  1.00  0.00     0.039 A 
ATOM     37  C   UNL A   1      43.491  22.117  24.379  1.00  0.00     0.014 A 
ATOM     38  C   UNL A   1      45.394  21.589  25.781  1.00  0.00     0.014 A 
ATOM     39  C   UNL A   1      43.398  23.353  25.014  1.00  0.00     0.010 A 
ATOM     40  C   UNL A   1      45.165  22.701  26.542  1.00  0.00     0.010 A 
ATOM     41  C   UNL A   1      44.229  23.627  26.114  1.00  0.00    -0.014 A 
BRANCH  41  42
ATOM     42  C   UNL A   1      44.083  24.850  26.890  1.00  0.00     0.031 A 
ATOM     43  C   UNL A   1      45.139  25.866  26.645  1.00  0.00     0.074 A 
ATOM     44  C   UNL A   1      42.982  25.134  27.621  1.00  0.00     0.049 A 
ATOM     45  N   UNL A   1      46.061  26.245  27.465  1.00  0.00    -0.248 NA
ATOM     46  C   UNL A   1      45.284  26.419  25.288  1.00  0.00     0.031 C 
ATOM     47  C   UNL A   1      41.720  24.392  27.728  1.00  0.00     0.029 A 
ATOM     48  N   UNL A   1      42.731  26.241  28.369  1.00  0.00    -0.354 N 
ATOM     49  C   UNL A   1      46.778  27.238  26.806  1.00  0.00     0.074 A 
ATOM     50  C   UNL A   1      46.376  27.175  25.425  1.00  0.00     0.031 C 
ATOM     51  C   UNL A   1      40.772  25.180  28.283  1.00  0.00     0.029 A 
ATOM     52  C   UNL A   1      41.399  26.406  28.733  1.00  0.00     0.049 A 
ATOM     53  H   UNL A   1      43.436  26.875  28.632  1.00  0.00     0.167 HD
ATOM     54  C   UNL A   1      47.463  28.183  27.508  1.00  0.00     0.037 A 
ATOM     55  C   UNL A   1      40.861  27.495  29.337  1.00  0.00     0.037 A 
ATOM     56  C   UNL A   1      47.650  27.776  28.881  1.00  0.00     0.049 A 
ATOM     57  C   UNL A   1      41.982  28.233  29.979  1.00  0.00     0.074 A 
ATOM     58  C   UNL A   1      48.230  26.678  29.490  1.00  0.00     0.029 A 
ATOM     59  N   UNL A   1      46.838  28.339  29.837  1.00  0.00    -0.354 N 
ATOM     60  N   UNL A   1      42.659  27.770  30.995  1.00  0.00    -0.248 NA
ATOM     61  C   UNL A   1      42.667  29.236  29.176  1.00  0.00     0.031 C 
ATOM     62  C   UNL A   1      47.343  26.344  30.556  1.00  0.00     0.029 A 
ATOM     63  C   UNL A   1      46.334  27.308  30.590  1.00  0.00     0.049 A 
ATOM     64  H   UNL A   1      46.654  29.299  29.958  1.00  0.00     0.167 HD
ATOM     65  C   UNL A   1      43.980  28.080  30.710  1.00  0.00     0.074 A 
ATOM     66  C   UNL A   1      43.917  29.043  29.608  1.00  0.00     0.031 C 
ATOM     67  C   UNL A   1      45.013  27.314  31.174  1.00  0.00     0.037 A 
BRANCH  54  68
ATOM     68  C   UNL A   1      47.627  29.617  27.069  1.00  0.00     0.057 A 
ATOM     69  C   UNL A   1      48.891  30.225  27.179  1.00  0.00     0.134 A 
ATOM     70  C   UNL A   1      46.555  30.502  26.837  1.00  0.00     0.134 A 
ATOM     71  F   UNL A   1      49.991  29.492  27.408  1.00  0.00    -0.206 F 
ATOM     72  C   UNL A   1      49.061  31.614  27.146  1.00  0.00     0.040 A 
ATOM     73  C   UNL A   1      46.721  31.887  26.752  1.00  0.00     0.040 A 
ATOM     74  F   UNL A   1      45.282  30.095  26.783  1.00  0.00    -0.206 F 
ATOM     75  C   UNL A   1      47.972  32.452  26.942  1.00  0.00     0.006 A 
ENDBRANCH  54  68
BRANCH  55  76
ATOM     76  C   UNL A   1      39.525  28.097  29.116  1.00  0.00     0.057 A 
ATOM     77  C   UNL A   1      38.581  28.173  30.150  1.00  0.00     0.134 A 
ATOM     78  C   UNL A   1      39.238  28.857  27.966  1.00  0.00     0.134 A 
ATOM     79  F   UNL A   1      38.782  27.519  31.304  1.00  0.00    -0.206 F 
ATOM     80  C   UNL A   1      37.434  28.975  30.058  1.00  0.00     0.040 A 
ATOM     81  C   UNL A   1      38.095  29.657  27.859  1.00  0.00     0.040 A 
ATOM     82  F   UNL A   1      40.101  28.920  26.942  1.00  0.00    -0.206 F 
ATOM     83  C   UNL A   1      37.194  29.730  28.914  1.00  0.00     0.006 A 
ENDBRANCH  55  76
BRANCH  67  84
ATOM     84  C   UNL A   1      44.717  26.236  32.182  1.00  0.00     0.057 A 
ATOM     85  C   UNL A   1      44.459  24.894  31.856  1.00  0.00     0.134 A 
ATOM     86  C   UNL A   1      44.878  26.529  33.541  1.00  0.00     0.134 A 
ATOM     87  F   UNL A   1      44.387  24.489  30.584  1.00  0.00    -0.206 F 
ATOM     88  C   UNL A   1      44.331  23.905  32.838  1.00  0.00     0.040 A 
ATOM     89  C   UNL A   1      44.788  25.544  34.529  1.00  0.00     0.040 A 
ATOM     90  F   UNL A   1      45.184  27.777  33.931  1.00  0.00    -0.206 F 
ATOM     91  C   UNL A   1      44.505  24.227  34.179  1.00  0.00     0.006 A 
ENDBRANCH  67  84
ENDBRANCH  41  42
ENDBRANCH  33  36
ENDBRANCH  31  32
ENDBRANCH  30  31
ENDBRANCH  29  30
ENDBRANCH   1  29
TORSDOF 16
ENDMDL
MODEL 3
REMARK VINA RESULT:     -11.9      3.106      8.719
REMARK SMILES Cc1n[nH]c(C[N@H+]2CCC[C@H](c3cccc(C(=O)NCCCCCCNC(=O)c4ccc(-c5c6nc(c(-c7c(F)cccc7F)c7ccc([nH]7)c(-c7c(F)cccc7F)c7nc(c(-c8c(F)cccc8F)c8ccc5[nH]8)C=C7)C=C6)cc4)c3)C2)n1
REMARK SMILES IDX 22 1 21 2 20 3 19 4 17 5 18 6 16 8 12 9 13 10 83 11 14 12
REMARK SMILES IDX 15 13 11 14 7 15 8 16 84 17 9 19 10 20 6 21 5 22 1 23 2 24
REMARK SMILES IDX 3 25 85 26 4 27 23 29 24 30 25 31 26 32 27 33 28 35 29 36
REMARK SMILES IDX 30 37 82 38 31 39 81 40 32 41 33 42 34 43 75 44 35 45 80 46
REMARK SMILES IDX 74 47 76 48 36 49 79 50 73 51 72 52 37 54 63 55 46 56 62 57
REMARK SMILES IDX 47 58 50 59 61 60 77 61 48 62 49 63 60 65 78 66 51 67 38 68
REMARK SMILES IDX 39 69 44 70 40 71 41 72 43 73 45 74 42 75 64 76 65 77 70 78
REMARK SMILES IDX 66 79 67 80 69 81 71 82 68 83 52 84 53 85 58 86 54 87 55 88
REMARK SMILES IDX 57 89 59 90 56 91
REMARK H PARENT 19 7 7 18 4 28 26 34 76 53 50 64
REMARK Flexibility Score: inf
ROOT
ATOM      1  C   UNL A   1      33.413  28.384  26.631  1.00  0.00     0.002 C 
ENDROOT
BRANCH   1   2
ATOM      2  C   UNL A   1      32.061  28.736  26.020  1.00  0.00     0.021 C 
BRANCH   2   3
ATOM      3  C   UNL A   1      31.955  28.654  24.504  1.00  0.00     0.116 C 
BRANCH   3   4
ATOM      4  N   UNL A   1      30.633  28.333  23.987  1.00  0.00    -0.352 N 
ATOM      5  C   UNL A   1      29.886  27.170  24.042  1.00  0.00     0.251 C 
ATOM      6  O   UNL A   1      28.774  27.160  23.516  1.00  0.00    -0.269 OA
ATOM      7  H   UNL A   1      30.193  29.075  23.512  1.00  0.00     0.163 HD
BRANCH   5   8
ATOM      8  C   UNL A   1      30.410  25.917  24.656  1.00  0.00     0.040 A 
ATOM      9  C   UNL A   1      31.536  23.774  24.367  1.00  0.00    -0.039 A 
ATOM     10  C   UNL A   1      31.030  23.369  25.608  1.00  0.00     0.004 A 
ATOM     11  C   UNL A   1      31.321  25.103  23.990  1.00  0.00     0.018 A 
ATOM     12  C   UNL A   1      30.277  24.247  26.396  1.00  0.00     0.001 A 
ATOM     13  C   UNL A   1      29.930  25.504  25.900  1.00  0.00     0.014 A 
BRANCH   9  14
ATOM     14  C   UNL A   1      32.128  22.811  23.337  1.00  0.00     0.074 C 
ATOM     15  N   UNL A   1      34.100  21.957  24.591  1.00  0.00    -0.328 N 
ATOM     16  C   UNL A   1      35.029  22.636  23.676  1.00  0.00     0.262 C 
ATOM     17  C   UNL A   1      32.847  21.578  23.911  1.00  0.00     0.270 C 
ATOM     18  H   UNL A   1      33.872  22.639  25.315  1.00  0.00     0.348 HD
ATOM     19  C   UNL A   1      34.391  23.842  22.979  1.00  0.00     0.062 C 
ATOM     20  C   UNL A   1      33.080  23.452  22.307  1.00  0.00     0.020 C 
BRANCH  15  21
ATOM     21  C   UNL A   1      34.705  20.804  25.283  1.00  0.00     0.340 C 
BRANCH  21  22
ATOM     22  C   UNL A   1      33.918  19.542  25.170  1.00  0.00     0.179 A 
ATOM     23  C   UNL A   1      33.303  16.194  24.272  1.00  0.00     0.092 C 
ATOM     24  C   UNL A   1      33.280  17.566  24.814  1.00  0.00     0.147 A 
ATOM     25  N   UNL A   1      32.518  17.937  25.851  1.00  0.00    -0.159 NA
ATOM     26  N   UNL A   1      34.106  18.541  24.334  1.00  0.00    -0.211 NA
ATOM     27  N   UNL A   1      32.924  19.204  26.042  1.00  0.00    -0.258 N 
ATOM     28  H   UNL A   1      32.553  19.809  26.724  1.00  0.00     0.192 HD
ENDBRANCH  21  22
ENDBRANCH  15  21
ENDBRANCH   9  14
ENDBRANCH   5   8
ENDBRANCH   3   4
ENDBRANCH   2   3
ENDBRANCH   1   2
BRANCH   1  29
ATOM     29  C   UNL A   1      34.275  29.543  27.150  1.00  0.00     0.002 C 
BRANCH  29  30
ATOM     30  C   UNL A   1      33.566  30.838  27.569  1.00  0.00     0.021 C 
BRANCH  30  31
ATOM     31  C   UNL A   1      34.486  32.008  27.875  1.00  0.00     0.116 C 
BRANCH  31  32
ATOM     32  N   UNL A   1      34.416  32.464  29.263  1.00  0.00    -0.352 N 
ATOM     33  C   UNL A   1      35.166  32.028  30.345  1.00  0.00     0.251 C 
ATOM     34  H   UNL A   1      33.754  33.167  29.453  1.00  0.00     0.163 HD
ATOM     35  O   UNL A   1      34.787  32.198  31.490  1.00  0.00    -0.269 OA
BRANCH  33  36
ATOM     36  C   UNL A   1      36.450  31.352  30.077  1.00  0.00     0.039 A 
ATOM     37  C   UNL A   1      37.629  32.065  29.844  1.00  0.00     0.014 A 
ATOM     38  C   UNL A   1      36.454  29.963  30.101  1.00  0.00     0.014 A 
ATOM     39  C   UNL A   1      38.821  31.354  29.715  1.00  0.00     0.010 A 
ATOM     40  C   UNL A   1      37.640  29.290  30.192  1.00  0.00     0.010 A 
ATOM     41  C   UNL A   1      38.818  29.963  29.914  1.00  0.00    -0.014 A 
BRANCH  41  42
ATOM     42  C   UNL A   1      40.054  29.194  29.916  1.00  0.00     0.031 A 
ATOM     43  C   UNL A   1      40.649  28.987  31.262  1.00  0.00     0.074 A 
ATOM     44  C   UNL A   1      40.525  28.548  28.826  1.00  0.00     0.049 A 
ATOM     45  N   UNL A   1      41.745  29.495  31.716  1.00  0.00    -0.248 NA
ATOM     46  C   UNL A   1      39.868  28.254  32.273  1.00  0.00     0.031 C 
ATOM     47  C   UNL A   1      39.910  28.387  27.503  1.00  0.00     0.029 A 
ATOM     48  N   UNL A   1      41.651  27.796  28.714  1.00  0.00    -0.354 N 
ATOM     49  C   UNL A   1      41.907  28.981  32.998  1.00  0.00     0.074 A 
ATOM     50  C   UNL A   1      40.647  28.377  33.350  1.00  0.00     0.031 C 
ATOM     51  C   UNL A   1      40.538  27.402  26.824  1.00  0.00     0.029 A 
ATOM     52  C   UNL A   1      41.702  26.992  27.581  1.00  0.00     0.049 A 
ATOM     53  H   UNL A   1      42.373  27.818  29.384  1.00  0.00     0.167 HD
ATOM     54  C   UNL A   1      43.144  28.891  33.561  1.00  0.00     0.037 A 
ATOM     55  C   UNL A   1      42.631  26.039  27.315  1.00  0.00     0.037 A 
ATOM     56  C   UNL A   1      44.095  29.716  32.856  1.00  0.00     0.049 A 
ATOM     57  C   UNL A   1      43.819  26.344  28.156  1.00  0.00     0.074 A 
ATOM     58  C   UNL A   1      44.161  31.064  32.549  1.00  0.00     0.029 A 
ATOM     59  N   UNL A   1      44.967  29.100  31.989  1.00  0.00    -0.354 N 
ATOM     60  N   UNL A   1      44.573  27.396  27.980  1.00  0.00    -0.248 NA
ATOM     61  C   UNL A   1      43.860  25.760  29.489  1.00  0.00     0.031 C 
ATOM     62  C   UNL A   1      44.635  31.107  31.204  1.00  0.00     0.029 A 
ATOM     63  C   UNL A   1      44.916  29.799  30.808  1.00  0.00     0.049 A 
ATOM     64  H   UNL A   1      45.523  28.310  32.180  1.00  0.00     0.167 HD
ATOM     65  C   UNL A   1      44.832  27.862  29.261  1.00  0.00     0.074 A 
ATOM     66  C   UNL A   1      44.422  26.774  30.152  1.00  0.00     0.031 C 
ATOM     67  C   UNL A   1      45.066  29.185  29.509  1.00  0.00     0.037 A 
BRANCH  54  68
ATOM     68  C   UNL A   1      43.578  27.784  34.489  1.00  0.00     0.057 A 
ATOM     69  C   UNL A   1      43.612  26.463  34.008  1.00  0.00     0.134 A 
ATOM     70  C   UNL A   1      43.667  27.914  35.889  1.00  0.00     0.134 A 
ATOM     71  F   UNL A   1      43.526  26.205  32.694  1.00  0.00    -0.206 F 
ATOM     72  C   UNL A   1      43.644  25.354  34.862  1.00  0.00     0.040 A 
ATOM     73  C   UNL A   1      43.752  26.815  36.749  1.00  0.00     0.040 A 
ATOM     74  F   UNL A   1      43.574  29.095  36.512  1.00  0.00    -0.206 F 
ATOM     75  C   UNL A   1      43.704  25.528  36.239  1.00  0.00     0.006 A 
ENDBRANCH  54  68
BRANCH  55  76
ATOM     76  C   UNL A   1      42.433  24.731  26.647  1.00  0.00     0.057 A 
ATOM     77  C   UNL A   1      43.104  24.412  25.457  1.00  0.00     0.134 A 
ATOM     78  C   UNL A   1      41.796  23.658  27.298  1.00  0.00     0.134 A 
ATOM     79  F   UNL A   1      43.779  25.356  24.784  1.00  0.00    -0.206 F 
ATOM     80  C   UNL A   1      43.161  23.103  24.958  1.00  0.00     0.040 A 
ATOM     81  C   UNL A   1      41.839  22.348  26.807  1.00  0.00     0.040 A 
ATOM     82  F   UNL A   1      41.184  23.826  28.479  1.00  0.00    -0.206 F 
ATOM     83  C   UNL A   1      42.536  22.063  25.640  1.00  0.00     0.006 A 
ENDBRANCH  55  76
BRANCH  67  84
ATOM     84  C   UNL A   1      45.250  30.118  28.341  1.00  0.00     0.057 A 
ATOM     85  C   UNL A   1      44.207  30.823  27.718  1.00  0.00     0.134 A 
ATOM     86  C   UNL A   1      46.552  30.454  27.952  1.00  0.00     0.134 A 
ATOM     87  F   UNL A   1      42.934  30.652  28.087  1.00  0.00    -0.206 F 
ATOM     88  C   UNL A   1      44.450  31.785  26.730  1.00  0.00     0.040 A 
ATOM     89  C   UNL A   1      46.810  31.436  26.992  1.00  0.00     0.040 A 
ATOM     90  F   UNL A   1      47.605  29.866  28.541  1.00  0.00    -0.206 F 
ATOM     91  C   UNL A   1      45.756  32.101  26.371  1.00  0.00     0.006 A 
ENDBRANCH  67  84
ENDBRANCH  41  42
ENDBRANCH  33  36
ENDBRANCH  31  32
ENDBRANCH  30  31
ENDBRANCH  29  30
ENDBRANCH   1  29
TORSDOF 16
ENDMDL
