MODEL 1
REMARK VINA RESULT:     -12.3      0.000      0.000
REMARK SMILES O=C(NCCCCCCNC(=O)[C@@H]1CCCC[C@H]1C(=O)Nc1ccccc1C(=O)N1CCOCC1)c1ccc(-c2c3nc(c(-c4c(F)cccc4F)c4ccc([nH]4)c(-c4c(F)cccc4F)c4nc(c(-c5c(F)cccc5F)c5ccc2[nH]5)C=C4)C=C3)cc1
REMARK SMILES IDX 7 1 6 2 5 3 4 4 3 5 1 6 2 7 36 9 37 10 89 11 38 12 88 13
REMARK SMILES IDX 39 14 40 15 41 16 82 17 42 18 87 19 81 20 83 21 43 22 86 23
REMARK SMILES IDX 80 24 79 25 44 27 70 28 53 29 69 30 54 31 57 32 68 33 84 34
REMARK SMILES IDX 55 35 56 36 67 38 85 39 58 40 45 41 46 42 51 43 47 44 48 45
REMARK SMILES IDX 50 46 52 47 49 48 71 49 72 50 77 51 73 52 74 53 76 54 78 55
REMARK SMILES IDX 75 56 59 57 60 58 65 59 61 60 62 61 64 62 66 63 63 64 8 65
REMARK SMILES IDX 9 66 10 67 11 68 12 70 13 71 14 72 18 73 15 74 17 75 16 76
REMARK SMILES IDX 19 77 20 78 21 79 22 81 23 82 27 83 24 84 26 85 25 86 28 87
REMARK SMILES IDX 29 88 30 89 31 90 35 91 32 92 34 93 33 94
REMARK H PARENT 3 8 83 26 57 37 10 69 21 80
REMARK Flexibility Score: inf
ROOT
ATOM      1  C   UNL A   1      32.469  29.967  27.218  1.00  0.00     0.002 C 
ENDROOT
BRANCH   1   2
ATOM      2  C   UNL A   1      31.531  30.723  26.273  1.00  0.00     0.002 C 
BRANCH   2   3
ATOM      3  C   UNL A   1      31.400  32.218  26.558  1.00  0.00     0.021 C 
BRANCH   3   4
ATOM      4  C   UNL A   1      32.639  32.848  27.185  1.00  0.00     0.116 C 
BRANCH   4   5
ATOM      5  N   UNL A   1      32.400  34.205  27.646  1.00  0.00    -0.352 N 
ATOM      6  O   UNL A   1      32.593  35.968  29.053  1.00  0.00    -0.269 OA
ATOM      7  C   UNL A   1      33.039  34.897  28.645  1.00  0.00     0.251 C 
ATOM      8  H   UNL A   1      31.684  34.693  27.179  1.00  0.00     0.163 HD
BRANCH   7   9
ATOM      9  C   UNL A   1      34.261  34.327  29.245  1.00  0.00     0.039 A 
ATOM     10  C   UNL A   1      35.500  34.537  28.639  1.00  0.00     0.014 A 
ATOM     11  C   UNL A   1      34.163  33.553  30.404  1.00  0.00     0.014 A 
ATOM     12  C   UNL A   1      36.611  33.838  29.089  1.00  0.00     0.010 A 
ATOM     13  C   UNL A   1      35.308  32.943  30.923  1.00  0.00     0.010 A 
ATOM     14  C   UNL A   1      36.536  33.053  30.251  1.00  0.00    -0.014 A 
BRANCH  14  15
ATOM     15  C   UNL A   1      37.774  32.423  30.777  1.00  0.00     0.031 A 
ATOM     16  C   UNL A   1      38.463  32.949  32.005  1.00  0.00     0.074 A 
ATOM     17  C   UNL A   1      38.258  31.339  30.140  1.00  0.00     0.049 A 
ATOM     18  N   UNL A   1      39.536  32.495  32.604  1.00  0.00    -0.248 NA
ATOM     19  C   UNL A   1      37.884  34.143  32.639  1.00  0.00     0.031 C 
ATOM     20  C   UNL A   1      37.677  30.744  28.933  1.00  0.00     0.029 A 
ATOM     21  N   UNL A   1      39.327  30.531  30.424  1.00  0.00    -0.354 N 
ATOM     22  C   UNL A   1      39.775  33.357  33.667  1.00  0.00     0.074 A 
ATOM     23  C   UNL A   1      38.751  34.378  33.615  1.00  0.00     0.031 C 
ATOM     24  C   UNL A   1      38.358  29.634  28.617  1.00  0.00     0.029 A 
ATOM     25  C   UNL A   1      39.467  29.481  29.549  1.00  0.00     0.049 A 
ATOM     26  H   UNL A   1      39.936  30.688  31.182  1.00  0.00     0.167 HD
ATOM     27  C   UNL A   1      40.758  33.297  34.599  1.00  0.00     0.037 A 
ATOM     28  C   UNL A   1      40.395  28.510  29.490  1.00  0.00     0.037 A 
ATOM     29  C   UNL A   1      41.768  32.269  34.645  1.00  0.00     0.049 A 
ATOM     30  C   UNL A   1      41.491  28.494  30.513  1.00  0.00     0.074 A 
ATOM     31  C   UNL A   1      42.781  32.095  35.574  1.00  0.00     0.029 A 
ATOM     32  N   UNL A   1      41.904  31.248  33.714  1.00  0.00    -0.354 N 
ATOM     33  N   UNL A   1      41.679  29.289  31.538  1.00  0.00    -0.248 NA
ATOM     34  C   UNL A   1      42.508  27.445  30.368  1.00  0.00     0.031 C 
ATOM     35  C   UNL A   1      43.565  31.009  35.171  1.00  0.00     0.029 A 
ATOM     36  C   UNL A   1      43.003  30.462  34.030  1.00  0.00     0.049 A 
ATOM     37  H   UNL A   1      41.308  31.104  32.944  1.00  0.00     0.167 HD
ATOM     38  C   UNL A   1      42.818  28.821  32.177  1.00  0.00     0.074 A 
ATOM     39  C   UNL A   1      43.265  27.661  31.432  1.00  0.00     0.031 C 
ATOM     40  C   UNL A   1      43.437  29.308  33.281  1.00  0.00     0.037 A 
BRANCH  27  41
ATOM     41  C   UNL A   1      40.808  34.392  35.630  1.00  0.00     0.057 A 
ATOM     42  C   UNL A   1      41.547  35.567  35.440  1.00  0.00     0.134 A 
ATOM     43  C   UNL A   1      40.076  34.281  36.820  1.00  0.00     0.134 A 
ATOM     44  F   UNL A   1      42.279  35.739  34.328  1.00  0.00    -0.206 F 
ATOM     45  C   UNL A   1      41.582  36.575  36.407  1.00  0.00     0.040 A 
ATOM     46  C   UNL A   1      40.078  35.294  37.780  1.00  0.00     0.040 A 
ATOM     47  F   UNL A   1      39.337  33.188  37.066  1.00  0.00    -0.206 F 
ATOM     48  C   UNL A   1      40.840  36.443  37.578  1.00  0.00     0.006 A 
ENDBRANCH  27  41
BRANCH  28  49
ATOM     49  C   UNL A   1      40.322  27.480  28.425  1.00  0.00     0.057 A 
ATOM     50  C   UNL A   1      39.580  26.307  28.606  1.00  0.00     0.134 A 
ATOM     51  C   UNL A   1      40.987  27.640  27.203  1.00  0.00     0.134 A 
ATOM     52  F   UNL A   1      38.932  26.090  29.760  1.00  0.00    -0.206 F 
ATOM     53  C   UNL A   1      39.516  25.323  27.618  1.00  0.00     0.040 A 
ATOM     54  C   UNL A   1      40.907  26.680  26.195  1.00  0.00     0.040 A 
ATOM     55  F   UNL A   1      41.707  28.746  26.964  1.00  0.00    -0.206 F 
ATOM     56  C   UNL A   1      40.177  25.512  26.405  1.00  0.00     0.006 A 
ENDBRANCH  28  49
BRANCH  40  57
ATOM     57  C   UNL A   1      44.638  28.553  33.774  1.00  0.00     0.057 A 
ATOM     58  C   UNL A   1      45.941  28.881  33.376  1.00  0.00     0.134 A 
ATOM     59  C   UNL A   1      44.486  27.487  34.670  1.00  0.00     0.134 A 
ATOM     60  F   UNL A   1      46.154  29.881  32.506  1.00  0.00    -0.206 F 
ATOM     61  C   UNL A   1      47.045  28.154  33.823  1.00  0.00     0.040 A 
ATOM     62  C   UNL A   1      45.585  26.774  35.151  1.00  0.00     0.040 A 
ATOM     63  F   UNL A   1      43.268  27.123  35.099  1.00  0.00    -0.206 F 
ATOM     64  C   UNL A   1      46.869  27.101  34.719  1.00  0.00     0.006 A 
ENDBRANCH  40  57
ENDBRANCH  14  15
ENDBRANCH   7   9
ENDBRANCH   4   5
ENDBRANCH   3   4
ENDBRANCH   2   3
ENDBRANCH   1   2
BRANCH   1  65
ATOM     65  C   UNL A   1      32.110  28.494  27.483  1.00  0.00     0.021 C 
BRANCH  65  66
ATOM     66  C   UNL A   1      33.080  27.445  26.940  1.00  0.00     0.116 C 
BRANCH  66  67
ATOM     67  N   UNL A   1      33.506  27.778  25.598  1.00  0.00    -0.356 N 
ATOM     68  C   UNL A   1      33.922  27.072  24.524  1.00  0.00     0.223 C 
ATOM     69  H   UNL A   1      33.490  28.748  25.427  1.00  0.00     0.163 HD
ATOM     70  O   UNL A   1      34.127  27.761  23.517  1.00  0.00    -0.275 OA
BRANCH  68  71
ATOM     71  C   UNL A   1      33.983  25.540  24.380  1.00  0.00     0.091 C 
ATOM     72  C   UNL A   1      35.180  25.164  25.285  1.00  0.00     0.014 C 
ATOM     73  C   UNL A   1      34.011  24.777  23.031  1.00  0.00     0.091 C 
ATOM     74  C   UNL A   1      35.334  23.664  25.459  1.00  0.00     0.001 C 
ATOM     75  C   UNL A   1      34.279  23.266  23.249  1.00  0.00     0.014 C 
ATOM     76  C   UNL A   1      35.506  23.006  24.105  1.00  0.00     0.001 C 
BRANCH  73  77
ATOM     77  C   UNL A   1      32.903  24.771  21.950  1.00  0.00     0.228 C 
ATOM     78  O   UNL A   1      33.245  24.494  20.789  1.00  0.00    -0.274 OA
ATOM     79  N   UNL A   1      31.557  24.839  22.167  1.00  0.00    -0.325 N 
ATOM     80  H   UNL A   1      31.000  24.585  21.396  1.00  0.00     0.169 HD
BRANCH  79  81
ATOM     81  C   UNL A   1      30.847  25.214  23.309  1.00  0.00     0.054 A 
ATOM     82  C   UNL A   1      30.538  24.178  24.205  1.00  0.00     0.027 A 
ATOM     83  C   UNL A   1      30.462  26.524  23.608  1.00  0.00     0.063 A 
ATOM     84  C   UNL A   1      30.129  24.475  25.504  1.00  0.00     0.002 A 
ATOM     85  C   UNL A   1      30.137  26.819  24.946  1.00  0.00     0.016 A 
ATOM     86  C   UNL A   1      30.015  25.802  25.898  1.00  0.00     0.001 A 
BRANCH  83  87
ATOM     87  C   UNL A   1      30.114  27.574  22.577  1.00  0.00     0.256 C 
ATOM     88  O   UNL A   1      30.780  27.652  21.547  1.00  0.00    -0.269 OA
ATOM     89  N   UNL A   1      29.247  28.602  22.950  1.00  0.00    -0.334 N 
ATOM     90  C   UNL A   1      29.745  29.968  22.838  1.00  0.00     0.148 C 
ATOM     91  C   UNL A   1      27.841  28.551  22.572  1.00  0.00     0.148 C 
ATOM     92  C   UNL A   1      28.867  30.924  23.658  1.00  0.00     0.181 C 
ATOM     93  C   UNL A   1      27.015  29.496  23.449  1.00  0.00     0.181 C 
ATOM     94  O   UNL A   1      27.481  30.841  23.276  1.00  0.00    -0.378 OA
ENDBRANCH  83  87
ENDBRANCH  79  81
ENDBRANCH  73  77
ENDBRANCH  68  71
ENDBRANCH  66  67
ENDBRANCH  65  66
ENDBRANCH   1  65
TORSDOF 16
ENDMDL
MODEL 2
REMARK VINA RESULT:     -12.1      3.810      8.467
REMARK SMILES O=C(NCCCCCCNC(=O)[C@@H]1CCCC[C@H]1C(=O)Nc1ccccc1C(=O)N1CCOCC1)c1ccc(-c2c3nc(c(-c4c(F)cccc4F)c4ccc([nH]4)c(-c4c(F)cccc4F)c4nc(c(-c5c(F)cccc5F)c5ccc2[nH]5)C=C4)C=C3)cc1
REMARK SMILES IDX 7 1 6 2 5 3 4 4 3 5 1 6 2 7 36 9 37 10 89 11 38 12 88 13
REMARK SMILES IDX 39 14 40 15 41 16 82 17 42 18 87 19 81 20 83 21 43 22 86 23
REMARK SMILES IDX 80 24 79 25 44 27 70 28 53 29 69 30 54 31 57 32 68 33 84 34
REMARK SMILES IDX 55 35 56 36 67 38 85 39 58 40 45 41 46 42 51 43 47 44 48 45
REMARK SMILES IDX 50 46 52 47 49 48 71 49 72 50 77 51 73 52 74 53 76 54 78 55
REMARK SMILES IDX 75 56 59 57 60 58 65 59 61 60 62 61 64 62 66 63 63 64 8 65
REMARK SMILES IDX 9 66 10 67 11 68 12 70 13 71 14 72 18 73 15 74 17 75 16 76
REMARK SMILES IDX 19 77 20 78 21 79 22 81 23 82 27 83 24 84 26 85 25 86 28 87
REMARK SMILES IDX 29 88 30 89 31 90 35 91 32 92 34 93 33 94
REMARK H PARENT 3 8 83 26 57 37 10 69 21 80
REMARK Flexibility Score: inf
ROOT
ATOM      1  C   UNL A   1      36.693  22.085  24.371  1.00  0.00     0.002 C 
ENDROOT
BRANCH   1   2
ATOM      2  C   UNL A   1      36.546  20.686  24.979  1.00  0.00     0.002 C 
BRANCH   2   3
ATOM      3  C   UNL A   1      37.794  19.812  24.889  1.00  0.00     0.021 C 
BRANCH   3   4
ATOM      4  C   UNL A   1      38.945  20.267  25.780  1.00  0.00     0.116 C 
BRANCH   4   5
ATOM      5  N   UNL A   1      40.037  19.308  25.810  1.00  0.00    -0.352 N 
ATOM      6  O   UNL A   1      42.203  18.653  25.857  1.00  0.00    -0.269 OA
ATOM      7  C   UNL A   1      41.368  19.532  26.063  1.00  0.00     0.251 C 
ATOM      8  H   UNL A   1      39.789  18.374  25.623  1.00  0.00     0.163 HD
BRANCH   7   9
ATOM      9  C   UNL A   1      41.791  20.854  26.564  1.00  0.00     0.039 A 
ATOM     10  C   UNL A   1      41.715  21.141  27.928  1.00  0.00     0.014 A 
ATOM     11  C   UNL A   1      42.240  21.822  25.663  1.00  0.00     0.014 A 
ATOM     12  C   UNL A   1      41.921  22.440  28.367  1.00  0.00     0.010 A 
ATOM     13  C   UNL A   1      42.558  23.100  26.127  1.00  0.00     0.010 A 
ATOM     14  C   UNL A   1      42.370  23.430  27.479  1.00  0.00    -0.014 A 
BRANCH  14  15
ATOM     15  C   UNL A   1      42.705  24.777  28.008  1.00  0.00     0.031 A 
ATOM     16  C   UNL A   1      41.643  25.810  28.259  1.00  0.00     0.074 A 
ATOM     17  C   UNL A   1      43.995  25.048  28.290  1.00  0.00     0.049 A 
ATOM     18  N   UNL A   1      41.771  27.021  28.742  1.00  0.00    -0.248 NA
ATOM     19  C   UNL A   1      40.260  25.446  27.915  1.00  0.00     0.031 C 
ATOM     20  C   UNL A   1      45.114  24.126  28.079  1.00  0.00     0.029 A 
ATOM     21  N   UNL A   1      44.582  26.161  28.832  1.00  0.00    -0.354 N 
ATOM     22  C   UNL A   1      40.495  27.572  28.739  1.00  0.00     0.074 A 
ATOM     23  C   UNL A   1      39.611  26.572  28.180  1.00  0.00     0.031 C 
ATOM     24  C   UNL A   1      46.240  24.685  28.543  1.00  0.00     0.029 A 
ATOM     25  C   UNL A   1      45.938  26.031  29.011  1.00  0.00     0.049 A 
ATOM     26  H   UNL A   1      44.081  26.975  29.070  1.00  0.00     0.167 HD
ATOM     27  C   UNL A   1      40.103  28.797  29.166  1.00  0.00     0.037 A 
ATOM     28  C   UNL A   1      46.845  26.904  29.483  1.00  0.00     0.037 A 
ATOM     29  C   UNL A   1      40.992  29.782  29.729  1.00  0.00     0.049 A 
ATOM     30  C   UNL A   1      46.384  28.265  29.912  1.00  0.00     0.074 A 
ATOM     31  C   UNL A   1      40.687  31.036  30.231  1.00  0.00     0.029 A 
ATOM     32  N   UNL A   1      42.367  29.630  29.852  1.00  0.00    -0.354 N 
ATOM     33  N   UNL A   1      45.169  28.756  29.944  1.00  0.00    -0.248 NA
ATOM     34  C   UNL A   1      47.424  29.197  30.366  1.00  0.00     0.031 C 
ATOM     35  C   UNL A   1      41.880  31.665  30.600  1.00  0.00     0.029 A 
ATOM     36  C   UNL A   1      42.925  30.780  30.392  1.00  0.00     0.049 A 
ATOM     37  H   UNL A   1      42.871  28.825  29.594  1.00  0.00     0.167 HD
ATOM     38  C   UNL A   1      45.293  30.043  30.449  1.00  0.00     0.074 A 
ATOM     39  C   UNL A   1      46.701  30.246  30.725  1.00  0.00     0.031 C 
ATOM     40  C   UNL A   1      44.328  30.970  30.664  1.00  0.00     0.037 A 
BRANCH  27  41
ATOM     41  C   UNL A   1      38.649  29.156  29.012  1.00  0.00     0.057 A 
ATOM     42  C   UNL A   1      37.746  29.097  30.081  1.00  0.00     0.134 A 
ATOM     43  C   UNL A   1      38.154  29.600  27.778  1.00  0.00     0.134 A 
ATOM     44  F   UNL A   1      38.148  28.674  31.290  1.00  0.00    -0.206 F 
ATOM     45  C   UNL A   1      36.399  29.436  29.922  1.00  0.00     0.040 A 
ATOM     46  C   UNL A   1      36.819  29.970  27.613  1.00  0.00     0.040 A 
ATOM     47  F   UNL A   1      38.964  29.692  26.712  1.00  0.00    -0.206 F 
ATOM     48  C   UNL A   1      35.934  29.880  28.686  1.00  0.00     0.006 A 
ENDBRANCH  27  41
BRANCH  28  49
ATOM     49  C   UNL A   1      48.273  26.512  29.573  1.00  0.00     0.057 A 
ATOM     50  C   UNL A   1      49.154  26.744  28.511  1.00  0.00     0.134 A 
ATOM     51  C   UNL A   1      48.795  25.901  30.721  1.00  0.00     0.134 A 
ATOM     52  F   UNL A   1      48.711  27.314  27.380  1.00  0.00    -0.206 F 
ATOM     53  C   UNL A   1      50.495  26.367  28.577  1.00  0.00     0.040 A 
ATOM     54  C   UNL A   1      50.141  25.547  30.814  1.00  0.00     0.040 A 
ATOM     55  F   UNL A   1      48.005  25.661  31.778  1.00  0.00    -0.206 F 
ATOM     56  C   UNL A   1      50.993  25.772  29.735  1.00  0.00     0.006 A 
ENDBRANCH  28  49
BRANCH  40  57
ATOM     57  C   UNL A   1      44.763  32.273  31.272  1.00  0.00     0.057 A 
ATOM     58  C   UNL A   1      44.826  32.466  32.659  1.00  0.00     0.134 A 
ATOM     59  C   UNL A   1      45.135  33.347  30.454  1.00  0.00     0.134 A 
ATOM     60  F   UNL A   1      44.467  31.482  33.499  1.00  0.00    -0.206 F 
ATOM     61  C   UNL A   1      45.208  33.690  33.208  1.00  0.00     0.040 A 
ATOM     62  C   UNL A   1      45.552  34.565  30.992  1.00  0.00     0.040 A 
ATOM     63  F   UNL A   1      45.106  33.230  29.118  1.00  0.00    -0.206 F 
ATOM     64  C   UNL A   1      45.579  34.743  32.373  1.00  0.00     0.006 A 
ENDBRANCH  40  57
ENDBRANCH  14  15
ENDBRANCH   7   9
ENDBRANCH   4   5
ENDBRANCH   3   4
ENDBRANCH   2   3
ENDBRANCH   1   2
BRANCH   1  65
ATOM     65  C   UNL A   1      36.765  23.249  25.375  1.00  0.00     0.021 C 
BRANCH  65  66
ATOM     66  C   UNL A   1      35.512  24.111  25.514  1.00  0.00     0.116 C 
BRANCH  66  67
ATOM     67  N   UNL A   1      34.619  23.571  26.515  1.00  0.00    -0.356 N 
ATOM     68  C   UNL A   1      33.303  23.269  26.560  1.00  0.00     0.223 C 
ATOM     69  H   UNL A   1      35.078  23.378  27.365  1.00  0.00     0.163 HD
ATOM     70  O   UNL A   1      32.943  22.742  27.620  1.00  0.00    -0.275 OA
BRANCH  68  71
ATOM     71  C   UNL A   1      32.288  23.341  25.404  1.00  0.00     0.091 C 
ATOM     72  C   UNL A   1      32.976  22.507  24.299  1.00  0.00     0.014 C 
ATOM     73  C   UNL A   1      31.672  24.651  24.846  1.00  0.00     0.091 C 
ATOM     74  C   UNL A   1      32.078  22.270  23.098  1.00  0.00     0.001 C 
ATOM     75  C   UNL A   1      30.853  24.378  23.559  1.00  0.00     0.014 C 
ATOM     76  C   UNL A   1      31.637  23.600  22.519  1.00  0.00     0.001 C 
BRANCH  73  77
ATOM     77  C   UNL A   1      30.772  25.649  25.615  1.00  0.00     0.228 C 
ATOM     78  O   UNL A   1      30.043  25.185  26.506  1.00  0.00    -0.274 OA
ATOM     79  N   UNL A   1      30.840  27.011  25.559  1.00  0.00    -0.325 N 
ATOM     80  H   UNL A   1      30.363  27.479  26.282  1.00  0.00     0.169 HD
BRANCH  79  81
ATOM     81  C   UNL A   1      31.479  27.845  24.639  1.00  0.00     0.054 A 
ATOM     82  C   UNL A   1      32.822  28.144  24.914  1.00  0.00     0.027 A 
ATOM     83  C   UNL A   1      30.878  28.358  23.485  1.00  0.00     0.063 A 
ATOM     84  C   UNL A   1      33.636  28.686  23.920  1.00  0.00     0.002 A 
ATOM     85  C   UNL A   1      31.725  28.819  22.459  1.00  0.00     0.016 A 
ATOM     86  C   UNL A   1      33.103  28.940  22.663  1.00  0.00     0.001 A 
BRANCH  83  87
ATOM     87  C   UNL A   1      29.410  28.699  23.361  1.00  0.00     0.256 C 
ATOM     88  O   UNL A   1      28.572  27.804  23.453  1.00  0.00    -0.269 OA
ATOM     89  N   UNL A   1      29.066  29.955  22.856  1.00  0.00    -0.334 N 
ATOM     90  C   UNL A   1      28.238  29.987  21.657  1.00  0.00     0.148 C 
ATOM     91  C   UNL A   1      28.677  31.028  23.761  1.00  0.00     0.148 C 
ATOM     92  C   UNL A   1      28.301  31.375  21.003  1.00  0.00     0.181 C 
ATOM     93  C   UNL A   1      28.796  32.386  23.064  1.00  0.00     0.181 C 
ATOM     94  O   UNL A   1      27.929  32.418  21.923  1.00  0.00    -0.378 OA
ENDBRANCH  83  87
ENDBRANCH  79  81
ENDBRANCH  73  77
ENDBRANCH  68  71
ENDBRANCH  66  67
ENDBRANCH  65  66
ENDBRANCH   1  65
TORSDOF 16
ENDMDL
MODEL 3
REMARK VINA RESULT:     -11.9      1.294      2.235
REMARK SMILES O=C(NCCCCCCNC(=O)[C@@H]1CCCC[C@H]1C(=O)Nc1ccccc1C(=O)N1CCOCC1)c1ccc(-c2c3nc(c(-c4c(F)cccc4F)c4ccc([nH]4)c(-c4c(F)cccc4F)c4nc(c(-c5c(F)cccc5F)c5ccc2[nH]5)C=C4)C=C3)cc1
REMARK SMILES IDX 7 1 6 2 5 3 4 4 3 5 1 6 2 7 36 9 37 10 89 11 38 12 88 13
REMARK SMILES IDX 39 14 40 15 41 16 82 17 42 18 87 19 81 20 83 21 43 22 86 23
REMARK SMILES IDX 80 24 79 25 44 27 70 28 53 29 69 30 54 31 57 32 68 33 84 34
REMARK SMILES IDX 55 35 56 36 67 38 85 39 58 40 45 41 46 42 51 43 47 44 48 45
REMARK SMILES IDX 50 46 52 47 49 48 71 49 72 50 77 51 73 52 74 53 76 54 78 55
REMARK SMILES IDX 75 56 59 57 60 58 65 59 61 60 62 61 64 62 66 63 63 64 8 65
REMARK SMILES IDX 9 66 10 67 11 68 12 70 13 71 14 72 18 73 15 74 17 75 16 76
REMARK SMILES IDX 19 77 20 78 21 79 22 81 23 82 27 83 24 84 26 85 25 86 28 87
REMARK SMILES IDX 29 88 30 89 31 90 35 91 32 92 34 93 33 94
REMARK H PARENT 3 8 83 26 57 37 10 69 21 80
REMARK Flexibility Score: inf
ROOT
ATOM      1  C   UNL A   1      32.446  29.669  26.975  1.00  0.00     0.002 C 
ENDROOT
BRANCH   1   2
ATOM      2  C   UNL A   1      31.630  30.599  26.072  1.00  0.00     0.002 C 
BRANCH   2   3
ATOM      3  C   UNL A   1      31.411  32.004  26.628  1.00  0.00     0.021 C 
BRANCH   3   4
ATOM      4  C   UNL A   1      32.674  32.671  27.162  1.00  0.00     0.116 C 
BRANCH   4   5
ATOM      5  N   UNL A   1      32.429  34.024  27.637  1.00  0.00    -0.352 N 
ATOM      6  O   UNL A   1      32.631  35.779  29.052  1.00  0.00    -0.269 OA
ATOM      7  C   UNL A   1      33.080  34.715  28.629  1.00  0.00     0.251 C 
ATOM      8  H   UNL A   1      31.700  34.508  27.187  1.00  0.00     0.163 HD
BRANCH   7   9
ATOM      9  C   UNL A   1      34.318  34.153  29.202  1.00  0.00     0.039 A 
ATOM     10  C   UNL A   1      35.550  34.421  28.603  1.00  0.00     0.014 A 
ATOM     11  C   UNL A   1      34.245  33.331  30.329  1.00  0.00     0.014 A 
ATOM     12  C   UNL A   1      36.680  33.734  29.021  1.00  0.00     0.010 A 
ATOM     13  C   UNL A   1      35.407  32.730  30.819  1.00  0.00     0.010 A 
ATOM     14  C   UNL A   1      36.629  32.900  30.150  1.00  0.00    -0.014 A 
BRANCH  14  15
ATOM     15  C   UNL A   1      37.885  32.282  30.647  1.00  0.00     0.031 A 
ATOM     16  C   UNL A   1      38.621  32.841  31.833  1.00  0.00     0.074 A 
ATOM     17  C   UNL A   1      38.343  31.180  30.023  1.00  0.00     0.049 A 
ATOM     18  N   UNL A   1      39.715  32.400  32.404  1.00  0.00    -0.248 NA
ATOM     19  C   UNL A   1      38.067  34.053  32.455  1.00  0.00     0.031 C 
ATOM     20  C   UNL A   1      37.717  30.553  28.855  1.00  0.00     0.029 A 
ATOM     21  N   UNL A   1      39.422  30.378  30.290  1.00  0.00    -0.354 N 
ATOM     22  C   UNL A   1      39.995  33.291  33.433  1.00  0.00     0.074 A 
ATOM     23  C   UNL A   1      38.970  34.313  33.391  1.00  0.00     0.031 C 
ATOM     24  C   UNL A   1      38.384  29.433  28.545  1.00  0.00     0.029 A 
ATOM     25  C   UNL A   1      39.527  29.303  29.440  1.00  0.00     0.049 A 
ATOM     26  H   UNL A   1      40.059  30.553  31.020  1.00  0.00     0.167 HD
ATOM     27  C   UNL A   1      41.011  33.255  34.329  1.00  0.00     0.037 A 
ATOM     28  C   UNL A   1      40.451  28.329  29.373  1.00  0.00     0.037 A 
ATOM     29  C   UNL A   1      42.021  32.227  34.367  1.00  0.00     0.049 A 
ATOM     30  C   UNL A   1      41.585  28.339  30.355  1.00  0.00     0.074 A 
ATOM     31  C   UNL A   1      43.068  32.076  35.261  1.00  0.00     0.029 A 
ATOM     32  N   UNL A   1      42.121  31.180  33.460  1.00  0.00    -0.354 N 
ATOM     33  N   UNL A   1      41.812  29.161  31.349  1.00  0.00    -0.248 NA
ATOM     34  C   UNL A   1      42.594  27.284  30.201  1.00  0.00     0.031 C 
ATOM     35  C   UNL A   1      43.834  30.977  34.860  1.00  0.00     0.029 A 
ATOM     36  C   UNL A   1      43.229  30.400  33.756  1.00  0.00     0.049 A 
ATOM     37  H   UNL A   1      41.496  31.015  32.717  1.00  0.00     0.167 HD
ATOM     38  C   UNL A   1      42.974  28.708  31.958  1.00  0.00     0.074 A 
ATOM     39  C   UNL A   1      43.391  27.527  31.230  1.00  0.00     0.031 C 
ATOM     40  C   UNL A   1      43.633  29.224  33.025  1.00  0.00     0.037 A 
BRANCH  27  41
ATOM     41  C   UNL A   1      41.101  34.378  35.327  1.00  0.00     0.057 A 
ATOM     42  C   UNL A   1      40.491  34.313  36.586  1.00  0.00     0.134 A 
ATOM     43  C   UNL A   1      41.842  35.532  35.032  1.00  0.00     0.134 A 
ATOM     44  F   UNL A   1      39.759  33.242  36.933  1.00  0.00    -0.206 F 
ATOM     45  C   UNL A   1      40.586  35.364  37.502  1.00  0.00     0.040 A 
ATOM     46  C   UNL A   1      41.969  36.575  35.950  1.00  0.00     0.040 A 
ATOM     47  F   UNL A   1      42.463  35.659  33.850  1.00  0.00    -0.206 F 
ATOM     48  C   UNL A   1      41.333  36.497  37.186  1.00  0.00     0.006 A 
ENDBRANCH  27  41
BRANCH  28  49
ATOM     49  C   UNL A   1      40.337  27.269  28.341  1.00  0.00     0.057 A 
ATOM     50  C   UNL A   1      39.584  26.113  28.574  1.00  0.00     0.134 A 
ATOM     51  C   UNL A   1      40.973  27.385  27.098  1.00  0.00     0.134 A 
ATOM     52  F   UNL A   1      38.963  25.938  29.750  1.00  0.00    -0.206 F 
ATOM     53  C   UNL A   1      39.482  25.102  27.618  1.00  0.00     0.040 A 
ATOM     54  C   UNL A   1      40.854  26.397  26.121  1.00  0.00     0.040 A 
ATOM     55  F   UNL A   1      41.701  28.473  26.809  1.00  0.00    -0.206 F 
ATOM     56  C   UNL A   1      40.114  25.246  26.384  1.00  0.00     0.006 A 
ENDBRANCH  28  49
BRANCH  40  57
ATOM     57  C   UNL A   1      44.851  28.480  33.493  1.00  0.00     0.057 A 
ATOM     58  C   UNL A   1      44.775  27.435  34.423  1.00  0.00     0.134 A 
ATOM     59  C   UNL A   1      46.118  28.812  32.996  1.00  0.00     0.134 A 
ATOM     60  F   UNL A   1      43.594  27.079  34.951  1.00  0.00    -0.206 F 
ATOM     61  C   UNL A   1      45.919  26.770  34.867  1.00  0.00     0.040 A 
ATOM     62  C   UNL A   1      47.265  28.132  33.407  1.00  0.00     0.040 A 
ATOM     63  F   UNL A   1      46.264  29.798  32.098  1.00  0.00    -0.206 F 
ATOM     64  C   UNL A   1      47.169  27.113  34.353  1.00  0.00     0.006 A 
ENDBRANCH  40  57
ENDBRANCH  14  15
ENDBRANCH   7   9
ENDBRANCH   4   5
ENDBRANCH   3   4
ENDBRANCH   2   3
ENDBRANCH   1   2
BRANCH   1  65
ATOM     65  C   UNL A   1      31.702  28.435  27.514  1.00  0.00     0.021 C 
BRANCH  65  66
ATOM     66  C   UNL A   1      31.680  27.200  26.614  1.00  0.00     0.116 C 
BRANCH  66  67
ATOM     67  N   UNL A   1      30.486  26.416  26.838  1.00  0.00    -0.356 N 
ATOM     68  C   UNL A   1      30.104  25.152  26.551  1.00  0.00     0.223 C 
ATOM     69  H   UNL A   1      29.786  26.922  27.310  1.00  0.00     0.163 HD
ATOM     70  O   UNL A   1      28.991  24.848  26.998  1.00  0.00    -0.275 OA
BRANCH  68  71
ATOM     71  C   UNL A   1      30.958  24.041  25.912  1.00  0.00     0.091 C 
ATOM     72  C   UNL A   1      31.841  23.573  27.093  1.00  0.00     0.014 C 
ATOM     73  C   UNL A   1      31.772  24.192  24.601  1.00  0.00     0.091 C 
ATOM     74  C   UNL A   1      32.658  22.337  26.761  1.00  0.00     0.001 C 
ATOM     75  C   UNL A   1      32.673  22.955  24.358  1.00  0.00     0.014 C 
ATOM     76  C   UNL A   1      33.538  22.613  25.558  1.00  0.00     0.001 C 
BRANCH  73  77
ATOM     77  C   UNL A   1      31.205  24.480  23.190  1.00  0.00     0.228 C 
ATOM     78  O   UNL A   1      30.582  23.563  22.631  1.00  0.00    -0.274 OA
ATOM     79  N   UNL A   1      31.141  25.697  22.575  1.00  0.00    -0.325 N 
ATOM     80  H   UNL A   1      30.542  25.735  21.794  1.00  0.00     0.169 HD
BRANCH  79  81
ATOM     81  C   UNL A   1      31.790  26.895  22.877  1.00  0.00     0.054 A 
ATOM     82  C   UNL A   1      33.128  26.781  23.285  1.00  0.00     0.027 A 
ATOM     83  C   UNL A   1      31.205  28.161  22.774  1.00  0.00     0.063 A 
ATOM     84  C   UNL A   1      33.955  27.903  23.298  1.00  0.00     0.002 A 
ATOM     85  C   UNL A   1      32.065  29.274  22.700  1.00  0.00     0.016 A 
ATOM     86  C   UNL A   1      33.440  29.136  22.918  1.00  0.00     0.001 A 
BRANCH  83  87
ATOM     87  C   UNL A   1      29.738  28.450  22.999  1.00  0.00     0.256 C 
ATOM     88  O   UNL A   1      28.967  27.519  23.223  1.00  0.00    -0.269 OA
ATOM     89  N   UNL A   1      29.256  29.715  22.658  1.00  0.00    -0.334 N 
ATOM     90  C   UNL A   1      28.178  29.776  21.678  1.00  0.00     0.148 C 
ATOM     91  C   UNL A   1      29.051  30.724  23.689  1.00  0.00     0.148 C 
ATOM     92  C   UNL A   1      28.055  31.197  21.109  1.00  0.00     0.181 C 
ATOM     93  C   UNL A   1      28.973  32.121  23.063  1.00  0.00     0.181 C 
ATOM     94  O   UNL A   1      27.871  32.176  22.149  1.00  0.00    -0.378 OA
ENDBRANCH  83  87
ENDBRANCH  79  81
ENDBRANCH  73  77
ENDBRANCH  68  71
ENDBRANCH  66  67
ENDBRANCH  65  66
ENDBRANCH   1  65
TORSDOF 16
ENDMDL
