MODEL 1
REMARK VINA RESULT:      -7.9      0.000      0.000
REMARK SMILES CCOc1cc2nccc(Nc3ccc(C(=O)NCCCCCCNC(=O)c4ccc(-c5c6nc(c(-c7c(F)cccc7F)c7ccc([nH]7)c(-c7c(F)cccc7F)c7nc(c(-c8c(F)cccc8F)c8ccc5[nH]8)C=C7)C=C6)cc4)cc3)c2cc1OCC
REMARK SMILES IDX 20 1 19 2 18 3 16 4 17 5 15 7 12 8 13 9 83 10 14 11 82 12
REMARK SMILES IDX 11 13 10 15 4 16 5 17 86 18 6 19 85 20 7 21 84 22 8 23 9 24
REMARK SMILES IDX 3 25 2 26 1 27 87 28 88 29 89 30 21 31 22 32 23 33 24 34
REMARK SMILES IDX 25 35 26 36 27 38 28 39 29 40 81 41 30 42 80 43 31 44 32 45
REMARK SMILES IDX 33 46 74 47 34 48 79 49 73 50 75 51 35 52 78 53 72 54 71 55
REMARK SMILES IDX 36 57 62 58 45 59 61 60 46 61 49 62 60 63 76 64 47 65 48 66
REMARK SMILES IDX 59 68 77 69 50 70 37 71 38 72 43 73 39 74 40 75 42 76 44 77
REMARK SMILES IDX 41 78 63 79 64 80 69 81 65 82 66 83 68 84 70 85 67 86 51 87
REMARK SMILES IDX 52 88 57 89 53 90 54 91 56 92 58 93 55 94
REMARK H PARENT 18 6 11 14 25 37 75 56 49 67
REMARK Flexibility Score: inf
ROOT
ATOM      1  C   UNL A   1      38.258  33.316  30.238  1.00  0.00     0.021 C 
ENDROOT
BRANCH   1   2
ATOM      2  C   UNL A   1      39.017  32.102  29.701  1.00  0.00     0.116 C 
BRANCH   2   3
ATOM      3  N   UNL A   1      38.066  31.072  29.337  1.00  0.00    -0.352 N 
ATOM      4  C   UNL A   1      38.227  29.832  28.783  1.00  0.00     0.251 C 
ATOM      5  O   UNL A   1      37.216  29.190  28.500  1.00  0.00    -0.269 OA
ATOM      6  H   UNL A   1      37.129  31.308  29.525  1.00  0.00     0.163 HD
BRANCH   4   7
ATOM      7  C   UNL A   1      39.561  29.201  28.610  1.00  0.00     0.039 A 
ATOM      8  C   UNL A   1      42.165  28.136  28.581  1.00  0.00     0.038 A 
ATOM      9  C   UNL A   1      41.323  27.930  29.678  1.00  0.00     0.027 A 
ATOM     10  C   UNL A   1      41.675  28.829  27.475  1.00  0.00     0.027 A 
ATOM     11  C   UNL A   1      40.039  28.466  29.700  1.00  0.00     0.016 A 
ATOM     12  C   UNL A   1      40.361  29.309  27.467  1.00  0.00     0.016 A 
BRANCH   8  13
ATOM     13  N   UNL A   1      43.475  27.658  28.644  1.00  0.00    -0.355 N 
ATOM     14  H   UNL A   1      44.160  28.363  28.580  1.00  0.00     0.167 HD
BRANCH  13  15
ATOM     15  C   UNL A   1      44.007  26.356  28.783  1.00  0.00     0.050 A 
ATOM     16  C   UNL A   1      46.082  24.641  25.529  1.00  0.00     0.163 A 
ATOM     17  C   UNL A   1      45.800  23.887  26.680  1.00  0.00     0.079 A 
ATOM     18  C   UNL A   1      45.758  25.995  25.505  1.00  0.00     0.161 A 
ATOM     19  C   UNL A   1      45.156  24.448  27.790  1.00  0.00     0.076 A 
ATOM     20  C   UNL A   1      45.092  26.555  26.585  1.00  0.00     0.063 A 
ATOM     21  N   UNL A   1      44.902  23.700  28.880  1.00  0.00    -0.256 NA
ATOM     22  C   UNL A   1      44.754  25.798  27.718  1.00  0.00     0.028 A 
ATOM     23  C   UNL A   1      44.245  24.279  29.914  1.00  0.00     0.114 A 
ATOM     24  C   UNL A   1      43.791  25.586  29.919  1.00  0.00     0.047 A 
BRANCH  16  25
ATOM     25  O   UNL A   1      46.523  24.060  24.374  1.00  0.00    -0.490 OA
BRANCH  25  26
ATOM     26  C   UNL A   1      46.175  22.687  24.197  1.00  0.00     0.226 C 
ATOM     27  C   UNL A   1      44.774  22.653  23.595  1.00  0.00     0.049 C 
ENDBRANCH  25  26
ENDBRANCH  16  25
BRANCH  18  28
ATOM     28  O   UNL A   1      45.988  26.892  24.501  1.00  0.00    -0.490 OA
BRANCH  28  29
ATOM     29  C   UNL A   1      47.101  27.767  24.656  1.00  0.00     0.226 C 
ATOM     30  C   UNL A   1      48.362  27.100  25.195  1.00  0.00     0.049 C 
ENDBRANCH  28  29
ENDBRANCH  18  28
ENDBRANCH  13  15
ENDBRANCH   8  13
ENDBRANCH   4   7
ENDBRANCH   2   3
ENDBRANCH   1   2
BRANCH   1  31
ATOM     31  C   UNL A   1      36.848  33.433  29.647  1.00  0.00     0.002 C 
BRANCH  31  32
ATOM     32  C   UNL A   1      35.733  33.548  30.694  1.00  0.00     0.002 C 
BRANCH  32  33
ATOM     33  C   UNL A   1      35.078  32.219  31.074  1.00  0.00     0.021 C 
BRANCH  33  34
ATOM     34  C   UNL A   1      35.839  31.440  32.141  1.00  0.00     0.116 C 
BRANCH  34  35
ATOM     35  N   UNL A   1      35.995  32.222  33.358  1.00  0.00    -0.352 N 
ATOM     36  C   UNL A   1      37.055  32.271  34.227  1.00  0.00     0.251 C 
ATOM     37  H   UNL A   1      35.231  32.798  33.590  1.00  0.00     0.163 HD
ATOM     38  O   UNL A   1      36.927  32.783  35.332  1.00  0.00    -0.269 OA
BRANCH  36  39
ATOM     39  C   UNL A   1      38.352  31.693  33.823  1.00  0.00     0.039 A 
ATOM     40  C   UNL A   1      38.365  30.494  33.107  1.00  0.00     0.014 A 
ATOM     41  C   UNL A   1      39.551  32.328  34.160  1.00  0.00     0.014 A 
ATOM     42  C   UNL A   1      39.581  29.960  32.681  1.00  0.00     0.010 A 
ATOM     43  C   UNL A   1      40.755  31.836  33.669  1.00  0.00     0.010 A 
ATOM     44  C   UNL A   1      40.783  30.644  32.932  1.00  0.00    -0.014 A 
BRANCH  44  45
ATOM     45  C   UNL A   1      42.076  30.129  32.419  1.00  0.00     0.031 A 
ATOM     46  C   UNL A   1      42.727  30.764  31.224  1.00  0.00     0.074 A 
ATOM     47  C   UNL A   1      42.625  29.039  32.988  1.00  0.00     0.049 A 
ATOM     48  N   UNL A   1      43.826  30.422  30.602  1.00  0.00    -0.248 NA
ATOM     49  C   UNL A   1      42.033  31.916  30.629  1.00  0.00     0.031 C 
ATOM     50  C   UNL A   1      42.054  28.296  34.113  1.00  0.00     0.029 A 
ATOM     51  N   UNL A   1      43.776  28.358  32.687  1.00  0.00    -0.354 N 
ATOM     52  C   UNL A   1      43.947  31.304  29.536  1.00  0.00     0.074 A 
ATOM     53  C   UNL A   1      42.779  32.159  29.562  1.00  0.00     0.031 C 
ATOM     54  C   UNL A   1      42.866  27.274  34.419  1.00  0.00     0.029 A 
ATOM     55  C   UNL A   1      43.992  27.266  33.491  1.00  0.00     0.049 A 
ATOM     56  H   UNL A   1      44.388  28.627  31.965  1.00  0.00     0.167 HD
ATOM     57  C   UNL A   1      44.951  31.407  28.632  1.00  0.00     0.037 A 
ATOM     58  C   UNL A   1      44.982  26.354  33.477  1.00  0.00     0.037 A 
ATOM     59  C   UNL A   1      46.115  30.560  28.621  1.00  0.00     0.049 A 
ATOM     60  C   UNL A   1      46.088  26.486  32.470  1.00  0.00     0.074 A 
ATOM     61  C   UNL A   1      47.226  30.632  27.800  1.00  0.00     0.029 A 
ATOM     62  N   UNL A   1      46.312  29.476  29.466  1.00  0.00    -0.354 N 
ATOM     63  N   UNL A   1      46.240  27.382  31.523  1.00  0.00    -0.248 NA
ATOM     64  C   UNL A   1      47.164  25.489  32.533  1.00  0.00     0.031 C 
ATOM     65  C   UNL A   1      48.067  29.555  28.107  1.00  0.00     0.029 A 
ATOM     66  C   UNL A   1      47.509  28.848  29.160  1.00  0.00     0.049 A 
ATOM     67  H   UNL A   1      45.692  29.195  30.177  1.00  0.00     0.167 HD
ATOM     68  C   UNL A   1      47.435  27.068  30.889  1.00  0.00     0.074 A 
ATOM     69  C   UNL A   1      47.976  25.910  31.571  1.00  0.00     0.031 C 
ATOM     70  C   UNL A   1      48.029  27.684  29.838  1.00  0.00     0.037 A 
BRANCH  57  71
ATOM     71  C   UNL A   1      44.814  32.463  27.572  1.00  0.00     0.057 A 
ATOM     72  C   UNL A   1      44.096  32.243  26.389  1.00  0.00     0.134 A 
ATOM     73  C   UNL A   1      45.411  33.720  27.737  1.00  0.00     0.134 A 
ATOM     74  F   UNL A   1      43.507  31.059  26.160  1.00  0.00    -0.206 F 
ATOM     75  C   UNL A   1      44.014  33.215  25.389  1.00  0.00     0.040 A 
ATOM     76  C   UNL A   1      45.309  34.712  26.759  1.00  0.00     0.040 A 
ATOM     77  F   UNL A   1      46.106  34.005  28.848  1.00  0.00    -0.206 F 
ATOM     78  C   UNL A   1      44.620  34.456  25.576  1.00  0.00     0.006 A 
ENDBRANCH  57  71
BRANCH  58  79
ATOM     79  C   UNL A   1      44.969  25.251  34.469  1.00  0.00     0.057 A 
ATOM     80  C   UNL A   1      45.565  25.400  35.725  1.00  0.00     0.134 A 
ATOM     81  C   UNL A   1      44.319  24.039  34.201  1.00  0.00     0.134 A 
ATOM     82  F   UNL A   1      46.214  26.532  36.033  1.00  0.00    -0.206 F 
ATOM     83  C   UNL A   1      45.521  24.382  36.679  1.00  0.00     0.040 A 
ATOM     84  C   UNL A   1      44.248  23.022  35.154  1.00  0.00     0.040 A 
ATOM     85  F   UNL A   1      43.717  23.840  33.019  1.00  0.00    -0.206 F 
ATOM     86  C   UNL A   1      44.853  23.192  36.397  1.00  0.00     0.006 A 
ENDBRANCH  58  79
BRANCH  70  87
ATOM     87  C   UNL A   1      49.341  27.126  29.368  1.00  0.00     0.057 A 
ATOM     88  C   UNL A   1      49.411  26.029  28.501  1.00  0.00     0.134 A 
ATOM     89  C   UNL A   1      50.550  27.718  29.758  1.00  0.00     0.134 A 
ATOM     90  F   UNL A   1      48.291  25.407  28.100  1.00  0.00    -0.206 F 
ATOM     91  C   UNL A   1      50.635  25.525  28.057  1.00  0.00     0.040 A 
ATOM     92  C   UNL A   1      51.778  27.243  29.297  1.00  0.00     0.040 A 
ATOM     93  F   UNL A   1      50.556  28.779  30.580  1.00  0.00    -0.206 F 
ATOM     94  C   UNL A   1      51.823  26.138  28.450  1.00  0.00     0.006 A 
ENDBRANCH  70  87
ENDBRANCH  44  45
ENDBRANCH  36  39
ENDBRANCH  34  35
ENDBRANCH  33  34
ENDBRANCH  32  33
ENDBRANCH  31  32
ENDBRANCH   1  31
TORSDOF 19
ENDMDL
MODEL 2
REMARK VINA RESULT:      -7.9      1.168      6.156
REMARK SMILES CCOc1cc2nccc(Nc3ccc(C(=O)NCCCCCCNC(=O)c4ccc(-c5c6nc(c(-c7c(F)cccc7F)c7ccc([nH]7)c(-c7c(F)cccc7F)c7nc(c(-c8c(F)cccc8F)c8ccc5[nH]8)C=C7)C=C6)cc4)cc3)c2cc1OCC
REMARK SMILES IDX 20 1 19 2 18 3 16 4 17 5 15 7 12 8 13 9 83 10 14 11 82 12
REMARK SMILES IDX 11 13 10 15 4 16 5 17 86 18 6 19 85 20 7 21 84 22 8 23 9 24
REMARK SMILES IDX 3 25 2 26 1 27 87 28 88 29 89 30 21 31 22 32 23 33 24 34
REMARK SMILES IDX 25 35 26 36 27 38 28 39 29 40 81 41 30 42 80 43 31 44 32 45
REMARK SMILES IDX 33 46 74 47 34 48 79 49 73 50 75 51 35 52 78 53 72 54 71 55
REMARK SMILES IDX 36 57 62 58 45 59 61 60 46 61 49 62 60 63 76 64 47 65 48 66
REMARK SMILES IDX 59 68 77 69 50 70 37 71 38 72 43 73 39 74 40 75 42 76 44 77
REMARK SMILES IDX 41 78 63 79 64 80 69 81 65 82 66 83 68 84 70 85 67 86 51 87
REMARK SMILES IDX 52 88 57 89 53 90 54 91 56 92 58 93 55 94
REMARK H PARENT 18 6 11 14 25 37 75 56 49 67
REMARK Flexibility Score: inf
ROOT
ATOM      1  C   UNL A   1      38.384  32.824  30.039  1.00  0.00     0.021 C 
ENDROOT
BRANCH   1   2
ATOM      2  C   UNL A   1      39.210  31.621  29.579  1.00  0.00     0.116 C 
BRANCH   2   3
ATOM      3  N   UNL A   1      38.313  30.550  29.197  1.00  0.00    -0.352 N 
ATOM      4  C   UNL A   1      38.521  29.383  28.514  1.00  0.00     0.251 C 
ATOM      5  O   UNL A   1      37.542  28.684  28.254  1.00  0.00    -0.269 OA
ATOM      6  H   UNL A   1      37.382  30.687  29.483  1.00  0.00     0.163 HD
BRANCH   4   7
ATOM      7  C   UNL A   1      39.880  28.888  28.171  1.00  0.00     0.039 A 
ATOM      8  C   UNL A   1      42.564  28.148  27.769  1.00  0.00     0.038 A 
ATOM      9  C   UNL A   1      41.991  28.084  29.043  1.00  0.00     0.027 A 
ATOM     10  C   UNL A   1      41.769  28.530  26.689  1.00  0.00     0.027 A 
ATOM     11  C   UNL A   1      40.667  28.461  29.246  1.00  0.00     0.016 A 
ATOM     12  C   UNL A   1      40.419  28.843  26.882  1.00  0.00     0.016 A 
BRANCH   8  13
ATOM     13  N   UNL A   1      43.921  27.849  27.631  1.00  0.00    -0.355 N 
ATOM     14  H   UNL A   1      44.444  27.979  28.455  1.00  0.00     0.167 HD
BRANCH  13  15
ATOM     15  C   UNL A   1      44.687  27.396  26.533  1.00  0.00     0.050 A 
ATOM     16  C   UNL A   1      45.358  23.251  26.082  1.00  0.00     0.163 A 
ATOM     17  C   UNL A   1      45.995  24.178  25.243  1.00  0.00     0.079 A 
ATOM     18  C   UNL A   1      44.421  23.703  27.009  1.00  0.00     0.161 A 
ATOM     19  C   UNL A   1      45.751  25.554  25.342  1.00  0.00     0.076 A 
ATOM     20  C   UNL A   1      44.193  25.065  27.137  1.00  0.00     0.063 A 
ATOM     21  N   UNL A   1      46.377  26.417  24.520  1.00  0.00    -0.256 NA
ATOM     22  C   UNL A   1      44.866  26.006  26.343  1.00  0.00     0.028 A 
ATOM     23  C   UNL A   1      46.134  27.741  24.678  1.00  0.00     0.114 A 
ATOM     24  C   UNL A   1      45.303  28.273  25.648  1.00  0.00     0.047 A 
BRANCH  16  25
ATOM     25  O   UNL A   1      45.735  21.940  26.131  1.00  0.00    -0.490 OA
BRANCH  25  26
ATOM     26  C   UNL A   1      45.908  21.296  24.868  1.00  0.00     0.226 C 
ATOM     27  C   UNL A   1      46.388  19.877  25.150  1.00  0.00     0.049 C 
ENDBRANCH  25  26
ENDBRANCH  16  25
BRANCH  18  28
ATOM     28  O   UNL A   1      43.675  22.956  27.875  1.00  0.00    -0.490 OA
BRANCH  28  29
ATOM     29  C   UNL A   1      43.220  23.600  29.062  1.00  0.00     0.226 C 
ATOM     30  C   UNL A   1      43.954  23.181  30.331  1.00  0.00     0.049 C 
ENDBRANCH  28  29
ENDBRANCH  18  28
ENDBRANCH  13  15
ENDBRANCH   8  13
ENDBRANCH   4   7
ENDBRANCH   2   3
ENDBRANCH   1   2
BRANCH   1  31
ATOM     31  C   UNL A   1      36.911  32.466  30.275  1.00  0.00     0.002 C 
BRANCH  31  32
ATOM     32  C   UNL A   1      36.073  33.605  30.869  1.00  0.00     0.002 C 
BRANCH  32  33
ATOM     33  C   UNL A   1      35.813  33.486  32.372  1.00  0.00     0.021 C 
BRANCH  33  34
ATOM     34  C   UNL A   1      36.881  34.147  33.236  1.00  0.00     0.116 C 
BRANCH  34  35
ATOM     35  N   UNL A   1      36.862  33.625  34.594  1.00  0.00    -0.352 N 
ATOM     36  C   UNL A   1      37.592  32.600  35.140  1.00  0.00     0.251 C 
ATOM     37  H   UNL A   1      36.236  34.073  35.209  1.00  0.00     0.163 HD
ATOM     38  O   UNL A   1      37.276  32.122  36.222  1.00  0.00    -0.269 OA
BRANCH  36  39
ATOM     39  C   UNL A   1      38.759  32.070  34.407  1.00  0.00     0.039 A 
ATOM     40  C   UNL A   1      40.014  32.645  34.625  1.00  0.00     0.014 A 
ATOM     41  C   UNL A   1      38.612  31.018  33.499  1.00  0.00     0.014 A 
ATOM     42  C   UNL A   1      41.131  32.125  33.971  1.00  0.00     0.010 A 
ATOM     43  C   UNL A   1      39.736  30.452  32.909  1.00  0.00     0.010 A 
ATOM     44  C   UNL A   1      41.005  31.005  33.133  1.00  0.00    -0.014 A 
BRANCH  44  45
ATOM     45  C   UNL A   1      42.194  30.392  32.492  1.00  0.00     0.031 A 
ATOM     46  C   UNL A   1      42.866  29.203  33.116  1.00  0.00     0.074 A 
ATOM     47  C   UNL A   1      42.712  30.958  31.386  1.00  0.00     0.049 A 
ATOM     48  N   UNL A   1      43.943  28.567  32.732  1.00  0.00    -0.248 NA
ATOM     49  C   UNL A   1      42.268  28.681  34.354  1.00  0.00     0.031 C 
ATOM     50  C   UNL A   1      42.187  32.154  30.725  1.00  0.00     0.029 A 
ATOM     51  N   UNL A   1      43.806  30.613  30.634  1.00  0.00    -0.354 N 
ATOM     52  C   UNL A   1      44.159  27.580  33.686  1.00  0.00     0.074 A 
ATOM     53  C   UNL A   1      43.136  27.742  34.697  1.00  0.00     0.031 C 
ATOM     54  C   UNL A   1      42.947  32.431  29.655  1.00  0.00     0.029 A 
ATOM     55  C   UNL A   1      44.033  31.459  29.577  1.00  0.00     0.049 A 
ATOM     56  H   UNL A   1      44.373  29.833  30.833  1.00  0.00     0.167 HD
ATOM     57  C   UNL A   1      45.110  26.616  33.707  1.00  0.00     0.037 A 
ATOM     58  C   UNL A   1      45.011  31.459  28.653  1.00  0.00     0.037 A 
ATOM     59  C   UNL A   1      46.117  26.456  32.690  1.00  0.00     0.049 A 
ATOM     60  C   UNL A   1      46.055  30.379  28.688  1.00  0.00     0.074 A 
ATOM     61  C   UNL A   1      47.075  25.464  32.574  1.00  0.00     0.029 A 
ATOM     62  N   UNL A   1      46.304  27.319  31.619  1.00  0.00    -0.354 N 
ATOM     63  N   UNL A   1      46.195  29.395  29.545  1.00  0.00    -0.248 NA
ATOM     64  C   UNL A   1      47.069  30.402  27.627  1.00  0.00     0.031 C 
ATOM     65  C   UNL A   1      47.880  25.762  31.467  1.00  0.00     0.029 A 
ATOM     66  C   UNL A   1      47.386  26.905  30.859  1.00  0.00     0.049 A 
ATOM     67  H   UNL A   1      45.749  28.110  31.429  1.00  0.00     0.167 HD
ATOM     68  C   UNL A   1      47.301  28.672  29.118  1.00  0.00     0.074 A 
ATOM     69  C   UNL A   1      47.783  29.322  27.915  1.00  0.00     0.031 C 
ATOM     70  C   UNL A   1      47.865  27.571  29.671  1.00  0.00     0.037 A 
BRANCH  57  71
ATOM     71  C   UNL A   1      45.109  25.676  34.879  1.00  0.00     0.057 A 
ATOM     72  C   UNL A   1      44.411  24.461  34.859  1.00  0.00     0.134 A 
ATOM     73  C   UNL A   1      45.816  25.991  36.047  1.00  0.00     0.134 A 
ATOM     74  F   UNL A   1      43.704  24.099  33.777  1.00  0.00    -0.206 F 
ATOM     75  C   UNL A   1      44.377  23.616  35.971  1.00  0.00     0.040 A 
ATOM     76  C   UNL A   1      45.818  25.140  37.153  1.00  0.00     0.040 A 
ATOM     77  F   UNL A   1      46.515  27.133  36.134  1.00  0.00    -0.206 F 
ATOM     78  C   UNL A   1      45.086  23.955  37.122  1.00  0.00     0.006 A 
ENDBRANCH  57  71
BRANCH  58  79
ATOM     79  C   UNL A   1      45.026  32.511  27.607  1.00  0.00     0.057 A 
ATOM     80  C   UNL A   1      45.783  33.676  27.763  1.00  0.00     0.134 A 
ATOM     81  C   UNL A   1      44.320  32.354  26.407  1.00  0.00     0.134 A 
ATOM     82  F   UNL A   1      46.469  33.889  28.896  1.00  0.00    -0.206 F 
ATOM     83  C   UNL A   1      45.835  34.652  26.766  1.00  0.00     0.040 A 
ATOM     84  C   UNL A   1      44.381  33.311  25.394  1.00  0.00     0.040 A 
ATOM     85  F   UNL A   1      43.585  31.253  26.193  1.00  0.00    -0.206 F 
ATOM     86  C   UNL A   1      45.139  34.465  25.573  1.00  0.00     0.006 A 
ENDBRANCH  58  79
BRANCH  70  87
ATOM     87  C   UNL A   1      49.060  26.988  28.974  1.00  0.00     0.057 A 
ATOM     88  C   UNL A   1      48.949  25.907  28.091  1.00  0.00     0.134 A 
ATOM     89  C   UNL A   1      50.335  27.541  29.160  1.00  0.00     0.134 A 
ATOM     90  F   UNL A   1      47.759  25.322  27.879  1.00  0.00    -0.206 F 
ATOM     91  C   UNL A   1      50.064  25.381  27.436  1.00  0.00     0.040 A 
ATOM     92  C   UNL A   1      51.452  27.043  28.488  1.00  0.00     0.040 A 
ATOM     93  F   UNL A   1      50.512  28.585  29.984  1.00  0.00    -0.206 F 
ATOM     94  C   UNL A   1      51.319  25.955  27.629  1.00  0.00     0.006 A 
ENDBRANCH  70  87
ENDBRANCH  44  45
ENDBRANCH  36  39
ENDBRANCH  34  35
ENDBRANCH  33  34
ENDBRANCH  32  33
ENDBRANCH  31  32
ENDBRANCH   1  31
TORSDOF 19
ENDMDL
MODEL 3
REMARK VINA RESULT:      -7.8      5.631      9.536
REMARK SMILES CCOc1cc2nccc(Nc3ccc(C(=O)NCCCCCCNC(=O)c4ccc(-c5c6nc(c(-c7c(F)cccc7F)c7ccc([nH]7)c(-c7c(F)cccc7F)c7nc(c(-c8c(F)cccc8F)c8ccc5[nH]8)C=C7)C=C6)cc4)cc3)c2cc1OCC
REMARK SMILES IDX 20 1 19 2 18 3 16 4 17 5 15 7 12 8 13 9 83 10 14 11 82 12
REMARK SMILES IDX 11 13 10 15 4 16 5 17 86 18 6 19 85 20 7 21 84 22 8 23 9 24
REMARK SMILES IDX 3 25 2 26 1 27 87 28 88 29 89 30 21 31 22 32 23 33 24 34
REMARK SMILES IDX 25 35 26 36 27 38 28 39 29 40 81 41 30 42 80 43 31 44 32 45
REMARK SMILES IDX 33 46 74 47 34 48 79 49 73 50 75 51 35 52 78 53 72 54 71 55
REMARK SMILES IDX 36 57 62 58 45 59 61 60 46 61 49 62 60 63 76 64 47 65 48 66
REMARK SMILES IDX 59 68 77 69 50 70 37 71 38 72 43 73 39 74 40 75 42 76 44 77
REMARK SMILES IDX 41 78 63 79 64 80 69 81 65 82 66 83 68 84 70 85 67 86 51 87
REMARK SMILES IDX 52 88 57 89 53 90 54 91 56 92 58 93 55 94
REMARK H PARENT 18 6 11 14 25 37 75 56 49 67
REMARK Flexibility Score: inf
ROOT
ATOM      1  C   UNL A   1      38.292  29.358  28.906  1.00  0.00     0.021 C 
ENDROOT
BRANCH   1   2
ATOM      2  C   UNL A   1      36.982  29.154  28.143  1.00  0.00     0.116 C 
BRANCH   2   3
ATOM      3  N   UNL A   1      36.141  30.318  28.328  1.00  0.00    -0.352 N 
ATOM      4  C   UNL A   1      34.877  30.612  27.895  1.00  0.00     0.251 C 
ATOM      5  O   UNL A   1      34.430  31.733  28.136  1.00  0.00    -0.269 OA
ATOM      6  H   UNL A   1      36.555  31.030  28.867  1.00  0.00     0.163 HD
BRANCH   4   7
ATOM      7  C   UNL A   1      34.001  29.604  27.244  1.00  0.00     0.039 A 
ATOM      8  C   UNL A   1      32.513  27.755  25.732  1.00  0.00     0.038 A 
ATOM      9  C   UNL A   1      33.911  27.710  25.738  1.00  0.00     0.027 A 
ATOM     10  C   UNL A   1      31.865  28.695  26.532  1.00  0.00     0.027 A 
ATOM     11  C   UNL A   1      34.649  28.631  26.476  1.00  0.00     0.016 A 
ATOM     12  C   UNL A   1      32.605  29.576  27.328  1.00  0.00     0.016 A 
BRANCH   8  13
ATOM     13  N   UNL A   1      31.819  26.871  24.904  1.00  0.00    -0.355 N 
ATOM     14  H   UNL A   1      30.888  26.711  25.183  1.00  0.00     0.167 HD
BRANCH  13  15
ATOM     15  C   UNL A   1      32.197  26.161  23.743  1.00  0.00     0.050 A 
ATOM     16  C   UNL A   1      32.987  22.023  24.045  1.00  0.00     0.163 A 
ATOM     17  C   UNL A   1      33.227  22.716  22.847  1.00  0.00     0.079 A 
ATOM     18  C   UNL A   1      32.390  22.693  25.111  1.00  0.00     0.161 A 
ATOM     19  C   UNL A   1      32.928  24.077  22.709  1.00  0.00     0.076 A 
ATOM     20  C   UNL A   1      32.117  24.047  24.997  1.00  0.00     0.063 A 
ATOM     21  N   UNL A   1      33.168  24.712  21.546  1.00  0.00    -0.256 NA
ATOM     22  C   UNL A   1      32.406  24.764  23.825  1.00  0.00     0.028 A 
ATOM     23  C   UNL A   1      32.894  26.037  21.473  1.00  0.00     0.114 A 
ATOM     24  C   UNL A   1      32.407  26.794  22.523  1.00  0.00     0.047 A 
BRANCH  16  25
ATOM     25  O   UNL A   1      33.457  20.759  24.256  1.00  0.00    -0.490 OA
BRANCH  25  26
ATOM     26  C   UNL A   1      32.528  19.702  24.010  1.00  0.00     0.226 C 
ATOM     27  C   UNL A   1      33.138  18.427  24.582  1.00  0.00     0.049 C 
ENDBRANCH  25  26
ENDBRANCH  16  25
BRANCH  18  28
ATOM     28  O   UNL A   1      32.044  22.183  26.329  1.00  0.00    -0.490 OA
BRANCH  28  29
ATOM     29  C   UNL A   1      32.822  22.593  27.450  1.00  0.00     0.226 C 
ATOM     30  C   UNL A   1      34.279  22.145  27.408  1.00  0.00     0.049 C 
ENDBRANCH  28  29
ENDBRANCH  18  28
ENDBRANCH  13  15
ENDBRANCH   8  13
ENDBRANCH   4   7
ENDBRANCH   2   3
ENDBRANCH   1   2
BRANCH   1  31
ATOM     31  C   UNL A   1      38.885  28.036  29.413  1.00  0.00     0.002 C 
BRANCH  31  32
ATOM     32  C   UNL A   1      39.826  27.345  28.418  1.00  0.00     0.002 C 
BRANCH  32  33
ATOM     33  C   UNL A   1      39.587  25.843  28.257  1.00  0.00     0.021 C 
BRANCH  33  34
ATOM     34  C   UNL A   1      39.754  25.341  26.827  1.00  0.00     0.116 C 
BRANCH  34  35
ATOM     35  N   UNL A   1      40.454  24.066  26.790  1.00  0.00    -0.352 N 
ATOM     36  C   UNL A   1      41.778  23.810  26.537  1.00  0.00     0.251 C 
ATOM     37  H   UNL A   1      39.898  23.274  26.975  1.00  0.00     0.163 HD
ATOM     38  O   UNL A   1      42.153  22.670  26.294  1.00  0.00    -0.269 OA
BRANCH  36  39
ATOM     39  C   UNL A   1      42.747  24.924  26.549  1.00  0.00     0.039 A 
ATOM     40  C   UNL A   1      43.322  25.307  27.764  1.00  0.00     0.014 A 
ATOM     41  C   UNL A   1      43.079  25.593  25.368  1.00  0.00     0.014 A 
ATOM     42  C   UNL A   1      44.272  26.329  27.783  1.00  0.00     0.010 A 
ATOM     43  C   UNL A   1      44.081  26.556  25.377  1.00  0.00     0.010 A 
ATOM     44  C   UNL A   1      44.682  26.938  26.585  1.00  0.00    -0.014 A 
BRANCH  44  45
ATOM     45  C   UNL A   1      45.746  27.971  26.579  1.00  0.00     0.031 A 
ATOM     46  C   UNL A   1      45.394  29.426  26.698  1.00  0.00     0.074 A 
ATOM     47  C   UNL A   1      47.026  27.599  26.389  1.00  0.00     0.049 A 
ATOM     48  N   UNL A   1      46.179  30.472  26.659  1.00  0.00    -0.248 NA
ATOM     49  C   UNL A   1      43.967  29.751  26.846  1.00  0.00     0.031 C 
ATOM     50  C   UNL A   1      47.485  26.222  26.197  1.00  0.00     0.029 A 
ATOM     51  N   UNL A   1      48.172  28.348  26.311  1.00  0.00    -0.354 N 
ATOM     52  C   UNL A   1      45.343  31.577  26.763  1.00  0.00     0.074 A 
ATOM     53  C   UNL A   1      43.986  31.074  26.807  1.00  0.00     0.031 C 
ATOM     54  C   UNL A   1      48.817  26.223  26.041  1.00  0.00     0.029 A 
ATOM     55  C   UNL A   1      49.301  27.599  26.084  1.00  0.00     0.049 A 
ATOM     56  H   UNL A   1      48.184  29.327  26.408  1.00  0.00     0.167 HD
ATOM     57  C   UNL A   1      45.676  32.887  26.837  1.00  0.00     0.037 A 
ATOM     58  C   UNL A   1      50.582  27.979  25.920  1.00  0.00     0.037 A 
ATOM     59  C   UNL A   1      47.029  33.378  26.805  1.00  0.00     0.049 A 
ATOM     60  C   UNL A   1      50.933  29.436  26.010  1.00  0.00     0.074 A 
ATOM     61  C   UNL A   1      47.480  34.677  26.954  1.00  0.00     0.029 A 
ATOM     62  N   UNL A   1      48.152  32.588  26.596  1.00  0.00    -0.354 N 
ATOM     63  N   UNL A   1      50.142  30.465  26.202  1.00  0.00    -0.248 NA
ATOM     64  C   UNL A   1      52.352  29.785  25.870  1.00  0.00     0.031 C 
ATOM     65  C   UNL A   1      48.868  34.682  26.775  1.00  0.00     0.029 A 
ATOM     66  C   UNL A   1      49.290  33.377  26.574  1.00  0.00     0.049 A 
ATOM     67  H   UNL A   1      48.140  31.609  26.481  1.00  0.00     0.167 HD
ATOM     68  C   UNL A   1      50.968  31.582  26.223  1.00  0.00     0.074 A 
ATOM     69  C   UNL A   1      52.323  31.100  26.042  1.00  0.00     0.031 C 
ATOM     70  C   UNL A   1      50.633  32.886  26.378  1.00  0.00     0.037 A 
BRANCH  57  71
ATOM     71  C   UNL A   1      44.550  33.877  26.941  1.00  0.00     0.057 A 
ATOM     72  C   UNL A   1      44.039  34.297  28.177  1.00  0.00     0.134 A 
ATOM     73  C   UNL A   1      43.966  34.417  25.788  1.00  0.00     0.134 A 
ATOM     74  F   UNL A   1      44.543  33.813  29.322  1.00  0.00    -0.206 F 
ATOM     75  C   UNL A   1      42.960  35.181  28.262  1.00  0.00     0.040 A 
ATOM     76  C   UNL A   1      42.909  35.327  25.860  1.00  0.00     0.040 A 
ATOM     77  F   UNL A   1      44.409  34.068  24.571  1.00  0.00    -0.206 F 
ATOM     78  C   UNL A   1      42.395  35.701  27.100  1.00  0.00     0.006 A 
ENDBRANCH  57  71
BRANCH  58  79
ATOM     79  C   UNL A   1      51.621  26.948  25.676  1.00  0.00     0.057 A 
ATOM     80  C   UNL A   1      52.163  26.203  26.727  1.00  0.00     0.134 A 
ATOM     81  C   UNL A   1      52.060  26.652  24.379  1.00  0.00     0.134 A 
ATOM     82  F   UNL A   1      51.790  26.451  27.992  1.00  0.00    -0.206 F 
ATOM     83  C   UNL A   1      53.110  25.203  26.502  1.00  0.00     0.040 A 
ATOM     84  C   UNL A   1      52.990  25.639  24.137  1.00  0.00     0.040 A 
ATOM     85  F   UNL A   1      51.569  27.323  23.328  1.00  0.00    -0.206 F 
ATOM     86  C   UNL A   1      53.518  24.913  25.201  1.00  0.00     0.006 A 
ENDBRANCH  58  79
BRANCH  70  87
ATOM     87  C   UNL A   1      51.752  33.886  26.373  1.00  0.00     0.057 A 
ATOM     88  C   UNL A   1      52.454  34.219  27.539  1.00  0.00     0.134 A 
ATOM     89  C   UNL A   1      52.159  34.498  25.179  1.00  0.00     0.134 A 
ATOM     90  F   UNL A   1      52.107  33.680  28.718  1.00  0.00    -0.206 F 
ATOM     91  C   UNL A   1      53.504  35.140  27.523  1.00  0.00     0.040 A 
ATOM     92  C   UNL A   1      53.226  35.397  25.145  1.00  0.00     0.040 A 
ATOM     93  F   UNL A   1      51.537  34.218  24.024  1.00  0.00    -0.206 F 
ATOM     94  C   UNL A   1      53.896  35.726  26.320  1.00  0.00     0.006 A 
ENDBRANCH  70  87
ENDBRANCH  44  45
ENDBRANCH  36  39
ENDBRANCH  34  35
ENDBRANCH  33  34
ENDBRANCH  32  33
ENDBRANCH  31  32
ENDBRANCH   1  31
TORSDOF 19
ENDMDL
