MODEL 1
REMARK VINA RESULT:     -11.2      0.000      0.000
REMARK SMILES COc1c(Cl)cc(C(=O)NCCCCCCNC(=O)c2ccc(-c3c4nc(c(-c5c(F)cccc5F)c5ccc([nH]5)c(-c5c(F)cccc5F)c5nc(c(-c6c(F)cccc6F)c6ccc3[nH]6)C=C5)C=C4)cc2)cc1NC(=O)C(C)(C)Oc1ccc(Br)cc1
REMARK SMILES IDX 12 1 11 2 10 3 8 4 9 5 7 7 3 8 4 9 75 10 5 11 6 12 74 13
REMARK SMILES IDX 2 14 1 15 76 16 77 17 78 19 79 20 80 21 81 22 82 23 83 24
REMARK SMILES IDX 84 25 89 26 85 27 88 28 86 29 87 30 13 31 14 32 15 33 16 34
REMARK SMILES IDX 17 35 18 36 19 38 20 39 21 40 73 41 22 42 72 43 23 44 24 45
REMARK SMILES IDX 25 46 66 47 26 48 71 49 65 50 67 51 27 52 70 53 64 54 63 55
REMARK SMILES IDX 28 57 54 58 37 59 53 60 38 61 41 62 52 63 68 64 39 65 40 66
REMARK SMILES IDX 51 68 69 69 42 70 29 71 30 72 35 73 31 74 32 75 34 76 36 77
REMARK SMILES IDX 33 78 55 79 56 80 61 81 57 82 58 83 60 84 62 85 59 86 43 87
REMARK SMILES IDX 44 88 49 89 45 90 46 91 48 92 50 93 47 94
REMARK H PARENT 10 6 76 18 17 37 67 56 41 67
REMARK Flexibility Score: inf
ROOT
ATOM      1  C   UNL A   1      39.599  23.127  26.964  1.00  0.00     0.021 C 
ENDROOT
BRANCH   1   2
ATOM      2  C   UNL A   1      38.362  23.844  26.410  1.00  0.00     0.116 C 
BRANCH   2   3
ATOM      3  N   UNL A   1      37.945  23.307  25.125  1.00  0.00    -0.352 N 
ATOM      4  C   UNL A   1      36.781  23.150  24.420  1.00  0.00     0.251 C 
ATOM      5  O   UNL A   1      36.919  22.661  23.294  1.00  0.00    -0.269 OA
ATOM      6  H   UNL A   1      38.715  22.961  24.619  1.00  0.00     0.163 HD
BRANCH   4   7
ATOM      7  C   UNL A   1      35.388  23.509  24.851  1.00  0.00     0.043 A 
ATOM      8  C   UNL A   1      32.813  24.076  25.878  1.00  0.00     0.160 A 
ATOM      9  C   UNL A   1      33.713  23.299  26.617  1.00  0.00     0.086 A 
ATOM     10  C   UNL A   1      33.151  24.511  24.579  1.00  0.00     0.086 A 
ATOM     11  Cl  UNL A   1      33.294  22.577  28.128  1.00  0.00    -0.080 Cl
ATOM     12  C   UNL A   1      34.983  23.021  26.104  1.00  0.00     0.038 A 
ATOM     13  C   UNL A   1      34.463  24.266  24.124  1.00  0.00     0.044 A 
BRANCH   8  14
ATOM     14  O   UNL A   1      31.532  24.330  26.317  1.00  0.00    -0.493 OA
ATOM     15  C   UNL A   1      30.687  23.185  26.175  1.00  0.00     0.278 C 
ENDBRANCH   8  14
BRANCH  10  16
ATOM     16  N   UNL A   1      32.099  25.117  23.824  1.00  0.00    -0.319 N 
ATOM     17  C   UNL A   1      31.603  26.395  23.624  1.00  0.00     0.268 C 
ATOM     18  H   UNL A   1      31.592  24.449  23.310  1.00  0.00     0.170 HD
ATOM     19  O   UNL A   1      30.648  26.500  22.845  1.00  0.00    -0.270 OA
BRANCH  17  20
ATOM     20  C   UNL A   1      32.208  27.656  24.317  1.00  0.00     0.181 C 
ATOM     21  C   UNL A   1      33.618  27.748  23.699  1.00  0.00     0.067 C 
ATOM     22  C   UNL A   1      31.141  28.755  24.136  1.00  0.00     0.067 C 
BRANCH  20  23
ATOM     23  O   UNL A   1      32.428  27.520  25.753  1.00  0.00    -0.478 OA
BRANCH  23  24
ATOM     24  C   UNL A   1      33.050  28.565  26.413  1.00  0.00     0.120 A 
ATOM     25  C   UNL A   1      32.288  29.713  26.646  1.00  0.00     0.047 A 
ATOM     26  C   UNL A   1      34.403  28.583  26.778  1.00  0.00     0.047 A 
ATOM     27  C   UNL A   1      32.862  30.844  27.250  1.00  0.00     0.019 A 
ATOM     28  C   UNL A   1      34.978  29.701  27.390  1.00  0.00     0.019 A 
ATOM     29  C   UNL A   1      34.208  30.835  27.611  1.00  0.00     0.018 A 
ATOM     30  Br  UNL A   1      35.006  32.360  28.386  1.00  0.00    -0.051 Br
ENDBRANCH  23  24
ENDBRANCH  20  23
ENDBRANCH  17  20
ENDBRANCH  10  16
ENDBRANCH   4   7
ENDBRANCH   2   3
ENDBRANCH   1   2
BRANCH   1  31
ATOM     31  C   UNL A   1      40.055  21.899  26.156  1.00  0.00     0.002 C 
BRANCH  31  32
ATOM     32  C   UNL A   1      41.110  20.988  26.803  1.00  0.00     0.002 C 
BRANCH  32  33
ATOM     33  C   UNL A   1      41.362  19.641  26.123  1.00  0.00     0.021 C 
BRANCH  33  34
ATOM     34  C   UNL A   1      42.579  18.858  26.614  1.00  0.00     0.116 C 
BRANCH  34  35
ATOM     35  N   UNL A   1      43.501  18.556  25.529  1.00  0.00    -0.352 N 
ATOM     36  C   UNL A   1      44.266  19.351  24.709  1.00  0.00     0.251 C 
ATOM     37  H   UNL A   1      43.597  17.594  25.348  1.00  0.00     0.163 HD
ATOM     38  O   UNL A   1      44.770  18.829  23.714  1.00  0.00    -0.269 OA
BRANCH  36  39
ATOM     39  C   UNL A   1      44.525  20.795  24.962  1.00  0.00     0.039 A 
ATOM     40  C   UNL A   1      45.232  21.141  26.126  1.00  0.00     0.014 A 
ATOM     41  C   UNL A   1      43.993  21.822  24.178  1.00  0.00     0.014 A 
ATOM     42  C   UNL A   1      45.422  22.482  26.485  1.00  0.00     0.010 A 
ATOM     43  C   UNL A   1      44.237  23.165  24.502  1.00  0.00     0.010 A 
ATOM     44  C   UNL A   1      44.936  23.513  25.670  1.00  0.00    -0.014 A 
BRANCH  44  45
ATOM     45  C   UNL A   1      45.099  24.947  26.051  1.00  0.00     0.031 A 
ATOM     46  C   UNL A   1      46.449  25.615  25.956  1.00  0.00     0.074 A 
ATOM     47  C   UNL A   1      44.051  25.657  26.516  1.00  0.00     0.049 A 
ATOM     48  N   UNL A   1      46.812  26.817  26.334  1.00  0.00    -0.248 NA
ATOM     49  C   UNL A   1      47.539  24.817  25.374  1.00  0.00     0.031 C 
ATOM     50  C   UNL A   1      42.686  25.154  26.668  1.00  0.00     0.029 A 
ATOM     51  N   UNL A   1      43.977  26.957  26.959  1.00  0.00    -0.354 N 
ATOM     52  C   UNL A   1      48.172  26.909  26.058  1.00  0.00     0.074 A 
ATOM     53  C   UNL A   1      48.577  25.630  25.517  1.00  0.00     0.031 C 
ATOM     54  C   UNL A   1      41.910  26.134  27.159  1.00  0.00     0.029 A 
ATOM     55  C   UNL A   1      42.726  27.323  27.393  1.00  0.00     0.049 A 
ATOM     56  H   UNL A   1      44.749  27.569  26.964  1.00  0.00     0.167 HD
ATOM     57  C   UNL A   1      49.006  27.964  26.225  1.00  0.00     0.037 A 
ATOM     58  C   UNL A   1      42.285  28.477  27.932  1.00  0.00     0.037 A 
ATOM     59  C   UNL A   1      48.609  29.255  26.725  1.00  0.00     0.049 A 
ATOM     60  C   UNL A   1      43.235  29.626  28.129  1.00  0.00     0.074 A 
ATOM     61  C   UNL A   1      49.380  30.396  26.876  1.00  0.00     0.029 A 
ATOM     62  N   UNL A   1      47.332  29.578  27.153  1.00  0.00    -0.354 N 
ATOM     63  N   UNL A   1      44.509  29.706  27.834  1.00  0.00    -0.248 NA
ATOM     64  C   UNL A   1      42.682  30.848  28.733  1.00  0.00     0.031 C 
ATOM     65  C   UNL A   1      48.579  31.399  27.429  1.00  0.00     0.029 A 
ATOM     66  C   UNL A   1      47.298  30.895  27.585  1.00  0.00     0.049 A 
ATOM     67  H   UNL A   1      46.562  28.965  27.150  1.00  0.00     0.167 HD
ATOM     68  C   UNL A   1      44.903  30.989  28.192  1.00  0.00     0.074 A 
ATOM     69  C   UNL A   1      43.731  31.659  28.716  1.00  0.00     0.031 C 
ATOM     70  C   UNL A   1      46.128  31.560  28.095  1.00  0.00     0.037 A 
BRANCH  57  71
ATOM     71  C   UNL A   1      50.449  27.769  25.858  1.00  0.00     0.057 A 
ATOM     72  C   UNL A   1      51.418  27.446  26.816  1.00  0.00     0.134 A 
ATOM     73  C   UNL A   1      50.866  27.863  24.524  1.00  0.00     0.134 A 
ATOM     74  F   UNL A   1      51.087  27.350  28.112  1.00  0.00    -0.206 F 
ATOM     75  C   UNL A   1      52.755  27.247  26.463  1.00  0.00     0.040 A 
ATOM     76  C   UNL A   1      52.194  27.641  24.155  1.00  0.00     0.040 A 
ATOM     77  F   UNL A   1      49.986  28.158  23.554  1.00  0.00    -0.206 F 
ATOM     78  C   UNL A   1      53.144  27.339  25.129  1.00  0.00     0.006 A 
ENDBRANCH  57  71
BRANCH  58  79
ATOM     79  C   UNL A   1      40.860  28.612  28.327  1.00  0.00     0.057 A 
ATOM     80  C   UNL A   1      39.894  29.031  27.406  1.00  0.00     0.134 A 
ATOM     81  C   UNL A   1      40.436  28.344  29.633  1.00  0.00     0.134 A 
ATOM     82  F   UNL A   1      40.246  29.328  26.147  1.00  0.00    -0.206 F 
ATOM     83  C   UNL A   1      38.557  29.195  27.774  1.00  0.00     0.040 A 
ATOM     84  C   UNL A   1      39.099  28.480  30.009  1.00  0.00     0.040 A 
ATOM     85  F   UNL A   1      41.316  27.938  30.561  1.00  0.00    -0.206 F 
ATOM     86  C   UNL A   1      38.156  28.913  29.079  1.00  0.00     0.006 A 
ENDBRANCH  58  79
BRANCH  70  87
ATOM     87  C   UNL A   1      46.260  32.990  28.531  1.00  0.00     0.057 A 
ATOM     88  C   UNL A   1      46.610  33.335  29.842  1.00  0.00     0.134 A 
ATOM     89  C   UNL A   1      46.074  34.035  27.615  1.00  0.00     0.134 A 
ATOM     90  F   UNL A   1      46.791  32.383  30.770  1.00  0.00    -0.206 F 
ATOM     91  C   UNL A   1      46.751  34.668  30.232  1.00  0.00     0.040 A 
ATOM     92  C   UNL A   1      46.235  35.370  27.988  1.00  0.00     0.040 A 
ATOM     93  F   UNL A   1      45.745  33.774  26.341  1.00  0.00    -0.206 F 
ATOM     94  C   UNL A   1      46.570  35.690  29.302  1.00  0.00     0.006 A 
ENDBRANCH  70  87
ENDBRANCH  44  45
ENDBRANCH  36  39
ENDBRANCH  34  35
ENDBRANCH  33  34
ENDBRANCH  32  33
ENDBRANCH  31  32
ENDBRANCH   1  31
TORSDOF 18
ENDMDL
MODEL 2
REMARK VINA RESULT:     -10.9      3.108      8.694
REMARK SMILES COc1c(Cl)cc(C(=O)NCCCCCCNC(=O)c2ccc(-c3c4nc(c(-c5c(F)cccc5F)c5ccc([nH]5)c(-c5c(F)cccc5F)c5nc(c(-c6c(F)cccc6F)c6ccc3[nH]6)C=C5)C=C4)cc2)cc1NC(=O)C(C)(C)Oc1ccc(Br)cc1
REMARK SMILES IDX 12 1 11 2 10 3 8 4 9 5 7 7 3 8 4 9 75 10 5 11 6 12 74 13
REMARK SMILES IDX 2 14 1 15 76 16 77 17 78 19 79 20 80 21 81 22 82 23 83 24
REMARK SMILES IDX 84 25 89 26 85 27 88 28 86 29 87 30 13 31 14 32 15 33 16 34
REMARK SMILES IDX 17 35 18 36 19 38 20 39 21 40 73 41 22 42 72 43 23 44 24 45
REMARK SMILES IDX 25 46 66 47 26 48 71 49 65 50 67 51 27 52 70 53 64 54 63 55
REMARK SMILES IDX 28 57 54 58 37 59 53 60 38 61 41 62 52 63 68 64 39 65 40 66
REMARK SMILES IDX 51 68 69 69 42 70 29 71 30 72 35 73 31 74 32 75 34 76 36 77
REMARK SMILES IDX 33 78 55 79 56 80 61 81 57 82 58 83 60 84 62 85 59 86 43 87
REMARK SMILES IDX 44 88 49 89 45 90 46 91 48 92 50 93 47 94
REMARK H PARENT 10 6 76 18 17 37 67 56 41 67
REMARK Flexibility Score: inf
ROOT
ATOM      1  C   UNL A   1      32.508  29.316  23.844  1.00  0.00     0.021 C 
ENDROOT
BRANCH   1   2
ATOM      2  C   UNL A   1      31.327  29.255  22.868  1.00  0.00     0.116 C 
BRANCH   2   3
ATOM      3  N   UNL A   1      31.364  28.066  22.033  1.00  0.00    -0.352 N 
ATOM      4  C   UNL A   1      31.444  26.709  22.201  1.00  0.00     0.251 C 
ATOM      5  O   UNL A   1      31.396  26.053  21.155  1.00  0.00    -0.269 OA
ATOM      6  H   UNL A   1      31.318  28.303  21.078  1.00  0.00     0.163 HD
BRANCH   4   7
ATOM      7  C   UNL A   1      31.569  25.947  23.489  1.00  0.00     0.043 A 
ATOM      8  C   UNL A   1      31.565  24.551  25.950  1.00  0.00     0.160 A 
ATOM      9  C   UNL A   1      30.408  25.204  25.505  1.00  0.00     0.086 A 
ATOM     10  C   UNL A   1      32.765  24.657  25.217  1.00  0.00     0.086 A 
ATOM     11  Cl  UNL A   1      28.961  25.275  26.445  1.00  0.00    -0.080 Cl
ATOM     12  C   UNL A   1      30.417  25.893  24.289  1.00  0.00     0.038 A 
ATOM     13  C   UNL A   1      32.717  25.305  23.966  1.00  0.00     0.044 A 
BRANCH   8  14
ATOM     14  O   UNL A   1      31.620  23.907  27.167  1.00  0.00    -0.493 OA
ATOM     15  C   UNL A   1      31.029  22.606  27.105  1.00  0.00     0.278 C 
ENDBRANCH   8  14
BRANCH  10  16
ATOM     16  N   UNL A   1      33.937  24.136  25.849  1.00  0.00    -0.319 N 
ATOM     17  C   UNL A   1      34.788  23.057  25.673  1.00  0.00     0.268 C 
ATOM     18  H   UNL A   1      34.211  24.691  26.614  1.00  0.00     0.170 HD
ATOM     19  O   UNL A   1      35.738  22.970  26.461  1.00  0.00    -0.270 OA
BRANCH  17  20
ATOM     20  C   UNL A   1      34.594  22.002  24.539  1.00  0.00     0.181 C 
ATOM     21  C   UNL A   1      34.891  22.810  23.260  1.00  0.00     0.067 C 
ATOM     22  C   UNL A   1      35.439  20.790  24.979  1.00  0.00     0.067 C 
BRANCH  20  23
ATOM     23  O   UNL A   1      33.225  21.520  24.378  1.00  0.00    -0.478 OA
BRANCH  23  24
ATOM     24  C   UNL A   1      32.996  20.165  24.537  1.00  0.00     0.120 A 
ATOM     25  C   UNL A   1      32.991  19.670  25.844  1.00  0.00     0.047 A 
ATOM     26  C   UNL A   1      32.859  19.252  23.484  1.00  0.00     0.047 A 
ATOM     27  C   UNL A   1      32.831  18.297  26.090  1.00  0.00     0.019 A 
ATOM     28  C   UNL A   1      32.688  17.885  23.722  1.00  0.00     0.019 A 
ATOM     29  C   UNL A   1      32.689  17.410  25.026  1.00  0.00     0.018 A 
ATOM     30  Br  UNL A   1      32.514  15.555  25.336  1.00  0.00    -0.051 Br
ENDBRANCH  23  24
ENDBRANCH  20  23
ENDBRANCH  17  20
ENDBRANCH  10  16
ENDBRANCH   4   7
ENDBRANCH   2   3
ENDBRANCH   1   2
BRANCH   1  31
ATOM     31  C   UNL A   1      32.121  29.498  25.322  1.00  0.00     0.002 C 
BRANCH  31  32
ATOM     32  C   UNL A   1      32.453  28.342  26.279  1.00  0.00     0.002 C 
BRANCH  32  33
ATOM     33  C   UNL A   1      33.102  28.721  27.613  1.00  0.00     0.021 C 
BRANCH  33  34
ATOM     34  C   UNL A   1      34.509  29.310  27.532  1.00  0.00     0.116 C 
BRANCH  34  35
ATOM     35  N   UNL A   1      34.798  30.176  28.665  1.00  0.00    -0.352 N 
ATOM     36  C   UNL A   1      35.923  30.357  29.435  1.00  0.00     0.251 C 
ATOM     37  H   UNL A   1      34.040  30.743  28.933  1.00  0.00     0.163 HD
ATOM     38  O   UNL A   1      35.801  30.987  30.486  1.00  0.00    -0.269 OA
BRANCH  36  39
ATOM     39  C   UNL A   1      37.272  29.848  29.064  1.00  0.00     0.039 A 
ATOM     40  C   UNL A   1      38.088  29.344  30.091  1.00  0.00     0.014 A 
ATOM     41  C   UNL A   1      37.813  29.965  27.782  1.00  0.00     0.014 A 
ATOM     42  C   UNL A   1      39.407  28.945  29.835  1.00  0.00     0.010 A 
ATOM     43  C   UNL A   1      39.112  29.507  27.512  1.00  0.00     0.010 A 
ATOM     44  C   UNL A   1      39.933  29.011  28.538  1.00  0.00    -0.014 A 
BRANCH  44  45
ATOM     45  C   UNL A   1      41.345  28.623  28.252  1.00  0.00     0.031 A 
ATOM     46  C   UNL A   1      41.692  27.193  27.919  1.00  0.00     0.074 A 
ATOM     47  C   UNL A   1      42.335  29.536  28.316  1.00  0.00     0.049 A 
ATOM     48  N   UNL A   1      42.868  26.641  27.740  1.00  0.00    -0.248 NA
ATOM     49  C   UNL A   1      40.567  26.254  27.790  1.00  0.00     0.031 C 
ATOM     50  C   UNL A   1      42.161  30.956  28.626  1.00  0.00     0.029 A 
ATOM     51  N   UNL A   1      43.691  29.400  28.135  1.00  0.00    -0.354 N 
ATOM     52  C   UNL A   1      42.626  25.293  27.501  1.00  0.00     0.074 A 
ATOM     53  C   UNL A   1      41.195  25.102  27.596  1.00  0.00     0.031 C 
ATOM     54  C   UNL A   1      43.360  31.560  28.604  1.00  0.00     0.029 A 
ATOM     55  C   UNL A   1      44.393  30.567  28.317  1.00  0.00     0.049 A 
ATOM     56  H   UNL A   1      44.120  28.546  27.897  1.00  0.00     0.167 HD
ATOM     57  C   UNL A   1      43.508  24.305  27.213  1.00  0.00     0.037 A 
ATOM     58  C   UNL A   1      45.718  30.812  28.274  1.00  0.00     0.037 A 
ATOM     59  C   UNL A   1      44.930  24.488  27.076  1.00  0.00     0.049 A 
ATOM     60  C   UNL A   1      46.680  29.695  27.976  1.00  0.00     0.074 A 
ATOM     61  C   UNL A   1      45.890  23.550  26.735  1.00  0.00     0.029 A 
ATOM     62  N   UNL A   1      45.595  25.687  27.270  1.00  0.00    -0.354 N 
ATOM     63  N   UNL A   1      46.430  28.434  27.722  1.00  0.00    -0.248 NA
ATOM     64  C   UNL A   1      48.110  30.038  27.957  1.00  0.00     0.031 C 
ATOM     65  C   UNL A   1      47.142  24.173  26.757  1.00  0.00     0.029 A 
ATOM     66  C   UNL A   1      46.956  25.509  27.074  1.00  0.00     0.049 A 
ATOM     67  H   UNL A   1      45.167  26.539  27.512  1.00  0.00     0.167 HD
ATOM     68  C   UNL A   1      47.665  27.841  27.490  1.00  0.00     0.074 A 
ATOM     69  C   UNL A   1      48.663  28.881  27.621  1.00  0.00     0.031 C 
ATOM     70  C   UNL A   1      47.945  26.548  27.195  1.00  0.00     0.037 A 
BRANCH  57  71
ATOM     71  C   UNL A   1      42.958  22.921  27.023  1.00  0.00     0.057 A 
ATOM     72  C   UNL A   1      42.619  22.104  28.109  1.00  0.00     0.134 A 
ATOM     73  C   UNL A   1      42.724  22.416  25.737  1.00  0.00     0.134 A 
ATOM     74  F   UNL A   1      42.827  22.524  29.366  1.00  0.00    -0.206 F 
ATOM     75  C   UNL A   1      42.090  20.825  27.923  1.00  0.00     0.040 A 
ATOM     76  C   UNL A   1      42.172  21.149  25.538  1.00  0.00     0.040 A 
ATOM     77  F   UNL A   1      43.016  23.151  24.653  1.00  0.00    -0.206 F 
ATOM     78  C   UNL A   1      41.860  20.348  26.635  1.00  0.00     0.006 A 
ENDBRANCH  57  71
BRANCH  58  79
ATOM     79  C   UNL A   1      46.225  32.187  28.517  1.00  0.00     0.057 A 
ATOM     80  C   UNL A   1      46.490  32.637  29.815  1.00  0.00     0.134 A 
ATOM     81  C   UNL A   1      46.436  33.084  27.464  1.00  0.00     0.134 A 
ATOM     82  F   UNL A   1      46.281  31.831  30.866  1.00  0.00    -0.206 F 
ATOM     83  C   UNL A   1      46.935  33.938  30.060  1.00  0.00     0.040 A 
ATOM     84  C   UNL A   1      46.903  34.379  27.692  1.00  0.00     0.040 A 
ATOM     85  F   UNL A   1      46.199  32.710  26.198  1.00  0.00    -0.206 F 
ATOM     86  C   UNL A   1      47.148  34.811  28.995  1.00  0.00     0.006 A 
ENDBRANCH  58  79
BRANCH  70  87
ATOM     87  C   UNL A   1      49.382  26.189  26.957  1.00  0.00     0.057 A 
ATOM     88  C   UNL A   1      50.233  25.811  28.003  1.00  0.00     0.134 A 
ATOM     89  C   UNL A   1      49.911  26.183  25.659  1.00  0.00     0.134 A 
ATOM     90  F   UNL A   1      49.792  25.807  29.270  1.00  0.00    -0.206 F 
ATOM     91  C   UNL A   1      51.563  25.458  27.769  1.00  0.00     0.040 A 
ATOM     92  C   UNL A   1      51.233  25.810  25.411  1.00  0.00     0.040 A 
ATOM     93  F   UNL A   1      49.147  26.527  24.611  1.00  0.00    -0.206 F 
ATOM     94  C   UNL A   1      52.065  25.451  26.469  1.00  0.00     0.006 A 
ENDBRANCH  70  87
ENDBRANCH  44  45
ENDBRANCH  36  39
ENDBRANCH  34  35
ENDBRANCH  33  34
ENDBRANCH  32  33
ENDBRANCH  31  32
ENDBRANCH   1  31
TORSDOF 18
ENDMDL
MODEL 3
REMARK VINA RESULT:     -10.8      3.226      8.395
REMARK SMILES COc1c(Cl)cc(C(=O)NCCCCCCNC(=O)c2ccc(-c3c4nc(c(-c5c(F)cccc5F)c5ccc([nH]5)c(-c5c(F)cccc5F)c5nc(c(-c6c(F)cccc6F)c6ccc3[nH]6)C=C5)C=C4)cc2)cc1NC(=O)C(C)(C)Oc1ccc(Br)cc1
REMARK SMILES IDX 12 1 11 2 10 3 8 4 9 5 7 7 3 8 4 9 75 10 5 11 6 12 74 13
REMARK SMILES IDX 2 14 1 15 76 16 77 17 78 19 79 20 80 21 81 22 82 23 83 24
REMARK SMILES IDX 84 25 89 26 85 27 88 28 86 29 87 30 13 31 14 32 15 33 16 34
REMARK SMILES IDX 17 35 18 36 19 38 20 39 21 40 73 41 22 42 72 43 23 44 24 45
REMARK SMILES IDX 25 46 66 47 26 48 71 49 65 50 67 51 27 52 70 53 64 54 63 55
REMARK SMILES IDX 28 57 54 58 37 59 53 60 38 61 41 62 52 63 68 64 39 65 40 66
REMARK SMILES IDX 51 68 69 69 42 70 29 71 30 72 35 73 31 74 32 75 34 76 36 77
REMARK SMILES IDX 33 78 55 79 56 80 61 81 57 82 58 83 60 84 62 85 59 86 43 87
REMARK SMILES IDX 44 88 49 89 45 90 46 91 48 92 50 93 47 94
REMARK H PARENT 10 6 76 18 17 37 67 56 41 67
REMARK Flexibility Score: inf
ROOT
ATOM      1  C   UNL A   1      33.929  29.064  23.746  1.00  0.00     0.021 C 
ENDROOT
BRANCH   1   2
ATOM      2  C   UNL A   1      32.944  28.973  22.574  1.00  0.00     0.116 C 
BRANCH   2   3
ATOM      3  N   UNL A   1      33.121  27.756  21.800  1.00  0.00    -0.352 N 
ATOM      4  C   UNL A   1      33.077  26.402  22.012  1.00  0.00     0.251 C 
ATOM      5  O   UNL A   1      33.255  25.713  21.002  1.00  0.00    -0.269 OA
ATOM      6  H   UNL A   1      33.330  27.961  20.861  1.00  0.00     0.163 HD
BRANCH   4   7
ATOM      7  C   UNL A   1      32.830  25.681  23.306  1.00  0.00     0.043 A 
ATOM      8  C   UNL A   1      32.135  24.410  25.736  1.00  0.00     0.160 A 
ATOM      9  C   UNL A   1      31.225  25.261  25.098  1.00  0.00     0.086 A 
ATOM     10  C   UNL A   1      33.437  24.247  25.217  1.00  0.00     0.086 A 
ATOM     11  Cl  UNL A   1      29.686  25.654  25.777  1.00  0.00    -0.080 Cl
ATOM     12  C   UNL A   1      31.574  25.887  23.899  1.00  0.00     0.038 A 
ATOM     13  C   UNL A   1      33.729  24.842  23.973  1.00  0.00     0.044 A 
BRANCH   8  14
ATOM     14  O   UNL A   1      31.856  23.814  26.947  1.00  0.00    -0.493 OA
ATOM     15  C   UNL A   1      31.053  22.642  26.789  1.00  0.00     0.278 C 
ENDBRANCH   8  14
BRANCH  10  16
ATOM     16  N   UNL A   1      34.358  23.528  26.042  1.00  0.00    -0.319 N 
ATOM     17  C   UNL A   1      35.140  22.390  25.933  1.00  0.00     0.268 C 
ATOM     18  H   UNL A   1      34.462  23.954  26.922  1.00  0.00     0.170 HD
ATOM     19  O   UNL A   1      35.840  22.106  26.912  1.00  0.00    -0.270 OA
BRANCH  17  20
ATOM     20  C   UNL A   1      35.172  21.505  24.647  1.00  0.00     0.181 C 
ATOM     21  C   UNL A   1      35.525  22.516  23.539  1.00  0.00     0.067 C 
ATOM     22  C   UNL A   1      36.078  20.312  25.012  1.00  0.00     0.067 C 
BRANCH  20  23
ATOM     23  O   UNL A   1      33.881  20.944  24.257  1.00  0.00    -0.478 OA
BRANCH  23  24
ATOM     24  C   UNL A   1      33.610  19.637  24.620  1.00  0.00     0.120 A 
ATOM     25  C   UNL A   1      33.994  18.635  23.724  1.00  0.00     0.047 A 
ATOM     26  C   UNL A   1      32.904  19.261  25.770  1.00  0.00     0.047 A 
ATOM     27  C   UNL A   1      33.697  17.288  23.986  1.00  0.00     0.019 A 
ATOM     28  C   UNL A   1      32.614  17.920  26.042  1.00  0.00     0.019 A 
ATOM     29  C   UNL A   1      33.000  16.939  25.140  1.00  0.00     0.018 A 
ATOM     30  Br  UNL A   1      32.556  15.136  25.487  1.00  0.00    -0.051 Br
ENDBRANCH  23  24
ENDBRANCH  20  23
ENDBRANCH  17  20
ENDBRANCH  10  16
ENDBRANCH   4   7
ENDBRANCH   2   3
ENDBRANCH   1   2
BRANCH   1  31
ATOM     31  C   UNL A   1      33.276  29.186  25.135  1.00  0.00     0.002 C 
BRANCH  31  32
ATOM     32  C   UNL A   1      33.950  28.432  26.292  1.00  0.00     0.002 C 
BRANCH  32  33
ATOM     33  C   UNL A   1      34.028  29.163  27.634  1.00  0.00     0.021 C 
BRANCH  33  34
ATOM     34  C   UNL A   1      34.666  30.551  27.607  1.00  0.00     0.116 C 
BRANCH  34  35
ATOM     35  N   UNL A   1      34.886  31.071  28.948  1.00  0.00    -0.352 N 
ATOM     36  C   UNL A   1      35.897  30.892  29.862  1.00  0.00     0.251 C 
ATOM     37  H   UNL A   1      34.170  31.669  29.262  1.00  0.00     0.163 HD
ATOM     38  O   UNL A   1      35.697  31.268  31.017  1.00  0.00    -0.269 OA
BRANCH  36  39
ATOM     39  C   UNL A   1      37.214  30.282  29.531  1.00  0.00     0.039 A 
ATOM     40  C   UNL A   1      38.024  29.851  30.596  1.00  0.00     0.014 A 
ATOM     41  C   UNL A   1      37.739  30.238  28.238  1.00  0.00     0.014 A 
ATOM     42  C   UNL A   1      39.319  29.365  30.368  1.00  0.00     0.010 A 
ATOM     43  C   UNL A   1      39.010  29.693  28.002  1.00  0.00     0.010 A 
ATOM     44  C   UNL A   1      39.825  29.269  29.065  1.00  0.00    -0.014 A 
BRANCH  44  45
ATOM     45  C   UNL A   1      41.213  28.786  28.804  1.00  0.00     0.031 A 
ATOM     46  C   UNL A   1      42.380  29.740  28.877  1.00  0.00     0.074 A 
ATOM     47  C   UNL A   1      41.441  27.501  28.468  1.00  0.00     0.049 A 
ATOM     48  N   UNL A   1      43.642  29.536  28.586  1.00  0.00    -0.248 NA
ATOM     49  C   UNL A   1      42.084  31.112  29.318  1.00  0.00     0.031 C 
ATOM     50  C   UNL A   1      40.420  26.459  28.355  1.00  0.00     0.029 A 
ATOM     51  N   UNL A   1      42.612  26.854  28.149  1.00  0.00    -0.354 N 
ATOM     52  C   UNL A   1      44.282  30.754  28.786  1.00  0.00     0.074 A 
ATOM     53  C   UNL A   1      43.264  31.701  29.186  1.00  0.00     0.031 C 
ATOM     54  C   UNL A   1      41.008  25.305  28.001  1.00  0.00     0.029 A 
ATOM     55  C   UNL A   1      42.441  25.529  27.826  1.00  0.00     0.049 A 
ATOM     56  H   UNL A   1      43.491  27.298  28.151  1.00  0.00     0.167 HD
ATOM     57  C   UNL A   1      45.598  31.057  28.664  1.00  0.00     0.037 A 
ATOM     58  C   UNL A   1      43.330  24.602  27.419  1.00  0.00     0.037 A 
ATOM     59  C   UNL A   1      46.627  30.115  28.305  1.00  0.00     0.049 A 
ATOM     60  C   UNL A   1      44.782  24.966  27.268  1.00  0.00     0.074 A 
ATOM     61  C   UNL A   1      47.993  30.326  28.210  1.00  0.00     0.029 A 
ATOM     62  N   UNL A   1      46.407  28.786  27.986  1.00  0.00    -0.354 N 
ATOM     63  N   UNL A   1      45.373  26.114  27.491  1.00  0.00    -0.248 NA
ATOM     64  C   UNL A   1      45.689  23.904  26.810  1.00  0.00     0.031 C 
ATOM     65  C   UNL A   1      48.596  29.134  27.798  1.00  0.00     0.029 A 
ATOM     66  C   UNL A   1      47.609  28.169  27.676  1.00  0.00     0.049 A 
ATOM     67  H   UNL A   1      45.528  28.343  27.981  1.00  0.00     0.167 HD
ATOM     68  C   UNL A   1      46.721  25.905  27.225  1.00  0.00     0.074 A 
ATOM     69  C   UNL A   1      46.863  24.518  26.836  1.00  0.00     0.031 C 
ATOM     70  C   UNL A   1      47.748  26.787  27.299  1.00  0.00     0.037 A 
BRANCH  57  71
ATOM     71  C   UNL A   1      46.008  32.477  28.924  1.00  0.00     0.057 A 
ATOM     72  C   UNL A   1      46.397  32.913  30.197  1.00  0.00     0.134 A 
ATOM     73  C   UNL A   1      46.055  33.409  27.880  1.00  0.00     0.134 A 
ATOM     74  F   UNL A   1      46.365  32.073  31.242  1.00  0.00    -0.206 F 
ATOM     75  C   UNL A   1      46.795  34.231  30.427  1.00  0.00     0.040 A 
ATOM     76  C   UNL A   1      46.476  34.724  28.091  1.00  0.00     0.040 A 
ATOM     77  F   UNL A   1      45.706  33.055  26.633  1.00  0.00    -0.206 F 
ATOM     78  C   UNL A   1      46.841  35.139  29.371  1.00  0.00     0.006 A 
ENDBRANCH  57  71
BRANCH  58  79
ATOM     79  C   UNL A   1      42.875  23.219  27.124  1.00  0.00     0.057 A 
ATOM     80  C   UNL A   1      42.706  22.782  25.806  1.00  0.00     0.134 A 
ATOM     81  C   UNL A   1      42.582  22.313  28.149  1.00  0.00     0.134 A 
ATOM     82  F   UNL A   1      42.946  23.616  24.783  1.00  0.00    -0.206 F 
ATOM     83  C   UNL A   1      42.247  21.496  25.516  1.00  0.00     0.040 A 
ATOM     84  C   UNL A   1      42.146  21.016  27.873  1.00  0.00     0.040 A 
ATOM     85  F   UNL A   1      42.725  22.673  29.433  1.00  0.00    -0.206 F 
ATOM     86  C   UNL A   1      41.970  20.607  26.553  1.00  0.00     0.006 A 
ENDBRANCH  58  79
BRANCH  70  87
ATOM     87  C   UNL A   1      49.123  26.273  26.985  1.00  0.00     0.057 A 
ATOM     88  C   UNL A   1      49.682  26.390  25.707  1.00  0.00     0.134 A 
ATOM     89  C   UNL A   1      49.912  25.690  27.986  1.00  0.00     0.134 A 
ATOM     90  F   UNL A   1      48.974  26.927  24.701  1.00  0.00    -0.206 F 
ATOM     91  C   UNL A   1      50.970  25.928  25.430  1.00  0.00     0.040 A 
ATOM     92  C   UNL A   1      51.209  25.246  27.727  1.00  0.00     0.040 A 
ATOM     93  F   UNL A   1      49.439  25.556  29.234  1.00  0.00    -0.206 F 
ATOM     94  C   UNL A   1      51.740  25.359  26.443  1.00  0.00     0.006 A 
ENDBRANCH  70  87
ENDBRANCH  44  45
ENDBRANCH  36  39
ENDBRANCH  34  35
ENDBRANCH  33  34
ENDBRANCH  32  33
ENDBRANCH  31  32
ENDBRANCH   1  31
TORSDOF 18
ENDMDL
