MODEL 1
REMARK VINA RESULT:     -11.9      0.000      0.000
REMARK SMILES CCCCc1cc(S(F)(F)(F)(F)F)cc2c1O[C@@H](C(F)(F)F)C(C(=O)NCCCCCCNC(=O)c1ccc(-c3c4nc(c(-c5c(F)cccc5F)c5ccc([nH]5)c(-c5c(F)cccc5F)c5nc(c(-c6c(F)cccc6F)c6ccc3[nH]6)C=C5)C=C4)cc1)=C2
REMARK SMILES IDX 29 1 28 2 27 3 26 4 24 5 25 6 23 8 5 9 6 10 16 11 7 12 15 13
REMARK SMILES IDX 17 14 14 15 90 16 18 17 4 18 3 19 2 20 1 21 8 22 9 23 10 24
REMARK SMILES IDX 11 25 12 26 13 27 19 28 20 29 21 30 22 31 30 32 31 33 32 34
REMARK SMILES IDX 33 35 34 36 35 38 36 39 37 40 89 41 38 42 88 43 39 44 40 45
REMARK SMILES IDX 41 46 82 47 42 48 87 49 81 50 83 51 43 52 86 53 80 54 79 55
REMARK SMILES IDX 44 57 70 58 53 59 69 60 54 61 57 62 68 63 84 64 55 65 56 66
REMARK SMILES IDX 67 68 85 69 58 70 45 71 46 72 51 73 47 74 48 75 50 76 52 77
REMARK SMILES IDX 49 78 71 79 72 80 77 81 73 82 74 83 76 84 78 85 75 86 59 87
REMARK SMILES IDX 60 88 65 89 61 90 62 91 64 92 66 93 63 94
REMARK H PARENT 26 7 33 37 83 56 57 67
REMARK Flexibility Score: inf
ROOT
ATOM      1  C   UNL A   1      31.645  29.480  27.209  1.00  0.00     0.002 C 
ENDROOT
BRANCH   1   2
ATOM      2  C   UNL A   1      31.826  28.019  27.591  1.00  0.00     0.021 C 
BRANCH   2   3
ATOM      3  C   UNL A   1      31.271  27.135  26.487  1.00  0.00     0.116 C 
BRANCH   3   4
ATOM      4  N   UNL A   1      31.265  27.880  25.219  1.00  0.00    -0.352 N 
ATOM      5  C   UNL A   1      31.947  27.328  24.039  1.00  0.00     0.251 C 
ATOM      6  O   UNL A   1      31.941  27.973  22.943  1.00  0.00    -0.270 OA
ATOM      7  H   UNL A   1      30.805  28.748  25.161  1.00  0.00     0.163 HD
BRANCH   5   8
ATOM      8  C   UNL A   1      32.657  25.987  24.129  1.00  0.00     0.067 C 
ATOM      9  C   UNL A   1      34.289  22.195  24.761  1.00  0.00    -0.004 A 
ATOM     10  C   UNL A   1      35.582  22.070  25.237  1.00  0.00     0.032 A 
ATOM     11  C   UNL A   1      33.758  23.453  24.613  1.00  0.00     0.131 A 
ATOM     12  C   UNL A   1      36.323  23.177  25.559  1.00  0.00     0.108 A 
ATOM     13  C   UNL A   1      34.484  24.593  24.911  1.00  0.00     0.019 A 
ATOM     14  O   UNL A   1      32.438  23.558  24.249  1.00  0.00    -0.475 OA
ATOM     15  C   UNL A   1      35.779  24.433  25.391  1.00  0.00     0.036 A 
ATOM     16  C   UNL A   1      33.820  25.877  24.758  1.00  0.00     0.025 C 
ATOM     17  C   UNL A   1      32.048  24.741  23.498  1.00  0.00     0.314 C 
BRANCH   9  18
ATOM     18  C   UNL A   1      33.470  20.963  24.410  1.00  0.00     0.039 C 
BRANCH  18  19
ATOM     19  C   UNL A   1      34.246  19.713  24.795  1.00  0.00     0.005 C 
BRANCH  19  20
ATOM     20  C   UNL A   1      33.485  18.481  24.330  1.00  0.00    -0.003 C 
ATOM     21  C   UNL A   1      34.470  17.364  24.023  1.00  0.00     0.004 C 
ENDBRANCH  19  20
ENDBRANCH  18  19
ENDBRANCH   9  18
BRANCH  12  22
ATOM     22  S   UNL A   1      38.005  22.991  26.202  1.00  0.00     0.310 S 
ATOM     23  F   UNL A   1      38.541  24.197  25.323  1.00  0.00    -0.094 F 
ATOM     24  F   UNL A   1      38.341  22.046  24.988  1.00  0.00    -0.094 F 
ATOM     25  F   UNL A   1      39.448  22.835  26.759  1.00  0.00    -0.094 F 
ATOM     26  F   UNL A   1      37.692  24.049  27.332  1.00  0.00    -0.094 F 
ATOM     27  F   UNL A   1      36.571  23.247  25.586  1.00  0.00    -0.094 F 
ENDBRANCH  12  22
BRANCH  17  28
ATOM     28  C   UNL A   1      30.533  24.864  23.519  1.00  0.00     0.429 C 
ATOM     29  F   UNL A   1      30.117  25.009  24.774  1.00  0.00    -0.167 F 
ATOM     30  F   UNL A   1      30.164  25.925  22.805  1.00  0.00    -0.167 F 
ATOM     31  F   UNL A   1      29.992  23.767  22.996  1.00  0.00    -0.167 F 
ENDBRANCH  17  28
ENDBRANCH   5   8
ENDBRANCH   3   4
ENDBRANCH   2   3
ENDBRANCH   1   2
BRANCH   1  32
ATOM     32  C   UNL A   1      32.965  30.214  27.375  1.00  0.00     0.002 C 
BRANCH  32  33
ATOM     33  C   UNL A   1      34.070  29.435  26.680  1.00  0.00     0.021 C 
BRANCH  33  34
ATOM     34  C   UNL A   1      35.347  29.529  27.497  1.00  0.00     0.116 C 
BRANCH  34  35
ATOM     35  N   UNL A   1      35.067  30.217  28.766  1.00  0.00    -0.352 N 
ATOM     36  C   UNL A   1      36.157  30.473  29.720  1.00  0.00     0.251 C 
ATOM     37  H   UNL A   1      34.151  30.507  28.977  1.00  0.00     0.163 HD
ATOM     38  O   UNL A   1      35.914  31.067  30.817  1.00  0.00    -0.269 OA
BRANCH  36  39
ATOM     39  C   UNL A   1      37.572  30.025  29.395  1.00  0.00     0.039 A 
ATOM     40  C   UNL A   1      38.092  30.230  28.128  1.00  0.00     0.014 A 
ATOM     41  C   UNL A   1      38.290  29.445  30.349  1.00  0.00     0.014 A 
ATOM     42  C   UNL A   1      39.291  29.520  27.879  1.00  0.00     0.010 A 
ATOM     43  C   UNL A   1      39.515  28.892  30.064  1.00  0.00     0.010 A 
ATOM     44  C   UNL A   1      40.064  29.005  28.818  1.00  0.00    -0.014 A 
BRANCH  44  45
ATOM     45  C   UNL A   1      41.489  28.560  28.526  1.00  0.00     0.031 A 
ATOM     46  C   UNL A   1      42.503  29.515  28.606  1.00  0.00     0.074 A 
ATOM     47  C   UNL A   1      41.700  27.232  28.197  1.00  0.00     0.049 A 
ATOM     48  N   UNL A   1      43.811  29.330  28.424  1.00  0.00    -0.248 NA
ATOM     49  C   UNL A   1      42.277  30.934  28.922  1.00  0.00     0.031 C 
ATOM     50  C   UNL A   1      40.683  26.260  28.122  1.00  0.00     0.029 A 
ATOM     51  N   UNL A   1      42.893  26.618  27.889  1.00  0.00    -0.354 N 
ATOM     52  C   UNL A   1      44.469  30.478  28.603  1.00  0.00     0.074 A 
ATOM     53  C   UNL A   1      43.490  31.527  28.920  1.00  0.00     0.031 C 
ATOM     54  C   UNL A   1      41.253  25.080  27.762  1.00  0.00     0.029 A 
ATOM     55  C   UNL A   1      42.636  25.294  27.608  1.00  0.00     0.049 A 
ATOM     56  H   UNL A   1      43.777  27.050  27.872  1.00  0.00     0.167 HD
ATOM     57  C   UNL A   1      45.846  30.689  28.517  1.00  0.00     0.037 A 
ATOM     58  C   UNL A   1      43.542  24.314  27.233  1.00  0.00     0.037 A 
ATOM     59  C   UNL A   1      46.757  29.699  28.186  1.00  0.00     0.049 A 
ATOM     60  C   UNL A   1      44.912  24.539  27.091  1.00  0.00     0.074 A 
ATOM     61  C   UNL A   1      48.149  29.894  28.102  1.00  0.00     0.029 A 
ATOM     62  N   UNL A   1      46.496  28.381  27.881  1.00  0.00    -0.354 N 
ATOM     63  N   UNL A   1      45.574  25.676  27.308  1.00  0.00    -0.248 NA
ATOM     64  C   UNL A   1      45.877  23.517  26.664  1.00  0.00     0.031 C 
ATOM     65  C   UNL A   1      48.719  28.714  27.742  1.00  0.00     0.029 A 
ATOM     66  C   UNL A   1      47.692  27.761  27.595  1.00  0.00     0.049 A 
ATOM     67  H   UNL A   1      45.608  27.956  27.869  1.00  0.00     0.167 HD
ATOM     68  C   UNL A   1      46.878  25.501  27.086  1.00  0.00     0.074 A 
ATOM     69  C   UNL A   1      47.091  24.110  26.660  1.00  0.00     0.031 C 
ATOM     70  C   UNL A   1      47.899  26.442  27.223  1.00  0.00     0.037 A 
BRANCH  57  71
ATOM     71  C   UNL A   1      46.376  32.085  28.803  1.00  0.00     0.057 A 
ATOM     72  C   UNL A   1      46.762  32.418  30.092  1.00  0.00     0.134 A 
ATOM     73  C   UNL A   1      46.480  32.956  27.806  1.00  0.00     0.134 A 
ATOM     74  F   UNL A   1      46.914  31.517  31.059  1.00  0.00    -0.206 F 
ATOM     75  C   UNL A   1      46.977  33.803  30.286  1.00  0.00     0.040 A 
ATOM     76  C   UNL A   1      46.828  34.262  28.053  1.00  0.00     0.040 A 
ATOM     77  F   UNL A   1      46.245  32.560  26.558  1.00  0.00    -0.206 F 
ATOM     78  C   UNL A   1      47.164  34.675  29.312  1.00  0.00     0.006 A 
ENDBRANCH  57  71
BRANCH  58  79
ATOM     79  C   UNL A   1      43.013  22.915  26.964  1.00  0.00     0.057 A 
ATOM     80  C   UNL A   1      42.745  22.526  25.661  1.00  0.00     0.134 A 
ATOM     81  C   UNL A   1      42.799  22.093  27.986  1.00  0.00     0.134 A 
ATOM     82  F   UNL A   1      43.174  23.203  24.600  1.00  0.00    -0.206 F 
ATOM     83  C   UNL A   1      41.975  21.342  25.564  1.00  0.00     0.040 A 
ATOM     84  C   UNL A   1      42.161  20.892  27.796  1.00  0.00     0.040 A 
ATOM     85  F   UNL A   1      43.206  22.439  29.204  1.00  0.00    -0.206 F 
ATOM     86  C   UNL A   1      41.814  20.470  26.543  1.00  0.00     0.006 A 
ENDBRANCH  58  79
BRANCH  70  87
ATOM     87  C   UNL A   1      49.325  25.993  26.948  1.00  0.00     0.057 A 
ATOM     88  C   UNL A   1      50.100  25.470  27.971  1.00  0.00     0.134 A 
ATOM     89  C   UNL A   1      49.800  26.109  25.714  1.00  0.00     0.134 A 
ATOM     90  F   UNL A   1      49.599  25.102  29.146  1.00  0.00    -0.206 F 
ATOM     91  C   UNL A   1      51.475  25.363  27.651  1.00  0.00     0.040 A 
ATOM     92  C   UNL A   1      51.124  25.857  25.447  1.00  0.00     0.040 A 
ATOM     93  F   UNL A   1      48.986  26.472  24.727  1.00  0.00    -0.206 F 
ATOM     94  C   UNL A   1      51.963  25.395  26.423  1.00  0.00     0.006 A 
ENDBRANCH  70  87
ENDBRANCH  44  45
ENDBRANCH  36  39
ENDBRANCH  34  35
ENDBRANCH  33  34
ENDBRANCH  32  33
ENDBRANCH   1  32
TORSDOF 18
ENDMDL
MODEL 2
REMARK VINA RESULT:     -11.9      0.279      5.880
REMARK SMILES CCCCc1cc(S(F)(F)(F)(F)F)cc2c1O[C@@H](C(F)(F)F)C(C(=O)NCCCCCCNC(=O)c1ccc(-c3c4nc(c(-c5c(F)cccc5F)c5ccc([nH]5)c(-c5c(F)cccc5F)c5nc(c(-c6c(F)cccc6F)c6ccc3[nH]6)C=C5)C=C4)cc1)=C2
REMARK SMILES IDX 29 1 28 2 27 3 26 4 24 5 25 6 23 8 5 9 6 10 16 11 7 12 15 13
REMARK SMILES IDX 17 14 14 15 90 16 18 17 4 18 3 19 2 20 1 21 8 22 9 23 10 24
REMARK SMILES IDX 11 25 12 26 13 27 19 28 20 29 21 30 22 31 30 32 31 33 32 34
REMARK SMILES IDX 33 35 34 36 35 38 36 39 37 40 89 41 38 42 88 43 39 44 40 45
REMARK SMILES IDX 41 46 82 47 42 48 87 49 81 50 83 51 43 52 86 53 80 54 79 55
REMARK SMILES IDX 44 57 70 58 53 59 69 60 54 61 57 62 68 63 84 64 55 65 56 66
REMARK SMILES IDX 67 68 85 69 58 70 45 71 46 72 51 73 47 74 48 75 50 76 52 77
REMARK SMILES IDX 49 78 71 79 72 80 77 81 73 82 74 83 76 84 78 85 75 86 59 87
REMARK SMILES IDX 60 88 65 89 61 90 62 91 64 92 66 93 63 94
REMARK H PARENT 26 7 33 37 83 56 57 67
REMARK Flexibility Score: inf
ROOT
ATOM      1  C   UNL A   1      31.730  29.438  27.200  1.00  0.00     0.002 C 
ENDROOT
BRANCH   1   2
ATOM      2  C   UNL A   1      31.911  27.955  27.483  1.00  0.00     0.021 C 
BRANCH   2   3
ATOM      3  C   UNL A   1      31.226  27.145  26.395  1.00  0.00     0.116 C 
BRANCH   3   4
ATOM      4  N   UNL A   1      31.262  27.894  25.130  1.00  0.00    -0.352 N 
ATOM      5  C   UNL A   1      31.965  27.337  23.965  1.00  0.00     0.251 C 
ATOM      6  O   UNL A   1      31.995  27.985  22.872  1.00  0.00    -0.270 OA
ATOM      7  H   UNL A   1      30.816  28.769  25.063  1.00  0.00     0.163 HD
BRANCH   5   8
ATOM      8  C   UNL A   1      32.653  25.985  24.068  1.00  0.00     0.067 C 
ATOM      9  C   UNL A   1      34.225  22.174  24.738  1.00  0.00    -0.004 A 
ATOM     10  C   UNL A   1      35.518  22.034  25.211  1.00  0.00     0.032 A 
ATOM     11  C   UNL A   1      33.714  23.439  24.577  1.00  0.00     0.131 A 
ATOM     12  C   UNL A   1      36.277  23.131  25.519  1.00  0.00     0.108 A 
ATOM     13  C   UNL A   1      34.459  24.570  24.861  1.00  0.00     0.019 A 
ATOM     14  O   UNL A   1      32.395  23.561  24.216  1.00  0.00    -0.475 OA
ATOM     15  C   UNL A   1      35.753  24.394  25.338  1.00  0.00     0.036 A 
ATOM     16  C   UNL A   1      33.816  25.863  24.695  1.00  0.00     0.025 C 
ATOM     17  C   UNL A   1      32.022  24.743  23.453  1.00  0.00     0.314 C 
BRANCH   9  18
ATOM     18  C   UNL A   1      33.386  20.952  24.402  1.00  0.00     0.039 C 
BRANCH  18  19
ATOM     19  C   UNL A   1      34.129  19.695  24.827  1.00  0.00     0.005 C 
BRANCH  19  20
ATOM     20  C   UNL A   1      33.264  18.477  24.548  1.00  0.00    -0.003 C 
ATOM     21  C   UNL A   1      32.467  18.704  23.273  1.00  0.00     0.004 C 
ENDBRANCH  19  20
ENDBRANCH  18  19
ENDBRANCH   9  18
BRANCH  12  22
ATOM     22  S   UNL A   1      37.958  22.926  26.159  1.00  0.00     0.310 S 
ATOM     23  F   UNL A   1      38.514  24.104  25.255  1.00  0.00    -0.094 F 
ATOM     24  F   UNL A   1      38.271  21.951  24.962  1.00  0.00    -0.094 F 
ATOM     25  F   UNL A   1      39.400  22.752  26.714  1.00  0.00    -0.094 F 
ATOM     26  F   UNL A   1      37.670  24.011  27.270  1.00  0.00    -0.094 F 
ATOM     27  F   UNL A   1      36.527  23.198  25.543  1.00  0.00    -0.094 F 
ENDBRANCH  12  22
BRANCH  17  28
ATOM     28  C   UNL A   1      30.510  24.891  23.476  1.00  0.00     0.429 C 
ATOM     29  F   UNL A   1      30.160  25.972  22.786  1.00  0.00    -0.167 F 
ATOM     30  F   UNL A   1      29.950  23.815  22.928  1.00  0.00    -0.167 F 
ATOM     31  F   UNL A   1      30.095  25.014  24.734  1.00  0.00    -0.167 F 
ENDBRANCH  17  28
ENDBRANCH   5   8
ENDBRANCH   3   4
ENDBRANCH   2   3
ENDBRANCH   1   2
BRANCH   1  32
ATOM     32  C   UNL A   1      33.079  30.135  27.268  1.00  0.00     0.002 C 
BRANCH  32  33
ATOM     33  C   UNL A   1      34.151  29.223  26.695  1.00  0.00     0.021 C 
BRANCH  33  34
ATOM     34  C   UNL A   1      35.435  29.388  27.491  1.00  0.00     0.116 C 
BRANCH  34  35
ATOM     35  N   UNL A   1      35.146  30.103  28.743  1.00  0.00    -0.352 N 
ATOM     36  C   UNL A   1      36.222  30.349  29.714  1.00  0.00     0.251 C 
ATOM     37  H   UNL A   1      34.233  30.418  28.930  1.00  0.00     0.163 HD
ATOM     38  O   UNL A   1      35.972  30.966  30.796  1.00  0.00    -0.269 OA
BRANCH  36  39
ATOM     39  C   UNL A   1      37.633  29.862  29.425  1.00  0.00     0.039 A 
ATOM     40  C   UNL A   1      38.453  29.450  30.463  1.00  0.00     0.014 A 
ATOM     41  C   UNL A   1      38.051  29.838  28.165  1.00  0.00     0.014 A 
ATOM     42  C   UNL A   1      39.811  29.299  30.094  1.00  0.00     0.010 A 
ATOM     43  C   UNL A   1      39.361  29.549  27.868  1.00  0.00     0.010 A 
ATOM     44  C   UNL A   1      40.241  29.191  28.851  1.00  0.00    -0.014 A 
BRANCH  44  45
ATOM     45  C   UNL A   1      41.643  28.696  28.529  1.00  0.00     0.031 A 
ATOM     46  C   UNL A   1      41.803  27.346  28.213  1.00  0.00     0.074 A 
ATOM     47  C   UNL A   1      42.681  29.611  28.569  1.00  0.00     0.049 A 
ATOM     48  N   UNL A   1      42.930  26.719  27.870  1.00  0.00    -0.248 NA
ATOM     49  C   UNL A   1      40.708  26.364  28.204  1.00  0.00     0.031 C 
ATOM     50  C   UNL A   1      42.525  30.976  28.878  1.00  0.00     0.029 A 
ATOM     51  N   UNL A   1      44.016  29.384  28.324  1.00  0.00    -0.354 N 
ATOM     52  C   UNL A   1      42.685  25.431  27.622  1.00  0.00     0.074 A 
ATOM     53  C   UNL A   1      41.253  25.183  27.839  1.00  0.00     0.031 C 
ATOM     54  C   UNL A   1      43.750  31.561  28.834  1.00  0.00     0.029 A 
ATOM     55  C   UNL A   1      44.692  30.572  28.493  1.00  0.00     0.049 A 
ATOM     56  H   UNL A   1      44.419  28.522  28.072  1.00  0.00     0.167 HD
ATOM     57  C   UNL A   1      43.598  24.455  27.221  1.00  0.00     0.037 A 
ATOM     58  C   UNL A   1      46.054  30.800  28.366  1.00  0.00     0.037 A 
ATOM     59  C   UNL A   1      44.953  24.693  27.051  1.00  0.00     0.049 A 
ATOM     60  C   UNL A   1      46.976  29.810  28.020  1.00  0.00     0.074 A 
ATOM     61  C   UNL A   1      45.885  23.721  26.639  1.00  0.00     0.029 A 
ATOM     62  N   UNL A   1      45.632  25.875  27.244  1.00  0.00    -0.354 N 
ATOM     63  N   UNL A   1      46.725  28.532  27.734  1.00  0.00    -0.248 NA
ATOM     64  C   UNL A   1      48.424  30.032  27.913  1.00  0.00     0.031 C 
ATOM     65  C   UNL A   1      47.111  24.306  26.594  1.00  0.00     0.029 A 
ATOM     66  C   UNL A   1      46.965  25.654  26.977  1.00  0.00     0.049 A 
ATOM     67  H   UNL A   1      45.234  26.731  27.524  1.00  0.00     0.167 HD
ATOM     68  C   UNL A   1      47.858  27.896  27.431  1.00  0.00     0.074 A 
ATOM     69  C   UNL A   1      48.969  28.851  27.550  1.00  0.00     0.031 C 
ATOM     70  C   UNL A   1      48.011  26.560  27.058  1.00  0.00     0.037 A 
BRANCH  57  71
ATOM     71  C   UNL A   1      43.077  23.051  26.956  1.00  0.00     0.057 A 
ATOM     72  C   UNL A   1      42.795  22.661  25.657  1.00  0.00     0.134 A 
ATOM     73  C   UNL A   1      42.922  22.215  27.976  1.00  0.00     0.134 A 
ATOM     74  F   UNL A   1      43.169  23.365  24.592  1.00  0.00    -0.206 F 
ATOM     75  C   UNL A   1      42.072  21.449  25.567  1.00  0.00     0.040 A 
ATOM     76  C   UNL A   1      42.329  20.988  27.789  1.00  0.00     0.040 A 
ATOM     77  F   UNL A   1      43.342  22.567  29.187  1.00  0.00    -0.206 F 
ATOM     78  C   UNL A   1      41.971  20.563  26.541  1.00  0.00     0.006 A 
ENDBRANCH  57  71
BRANCH  58  79
ATOM     79  C   UNL A   1      46.572  32.207  28.614  1.00  0.00     0.057 A 
ATOM     80  C   UNL A   1      46.979  32.569  29.888  1.00  0.00     0.134 A 
ATOM     81  C   UNL A   1      46.607  33.073  27.607  1.00  0.00     0.134 A 
ATOM     82  F   UNL A   1      47.202  31.685  30.856  1.00  0.00    -0.206 F 
ATOM     83  C   UNL A   1      47.137  33.964  30.064  1.00  0.00     0.040 A 
ATOM     84  C   UNL A   1      46.901  34.396  27.833  1.00  0.00     0.040 A 
ATOM     85  F   UNL A   1      46.353  32.655  26.370  1.00  0.00    -0.206 F 
ATOM     86  C   UNL A   1      47.255  34.835  29.078  1.00  0.00     0.006 A 
ENDBRANCH  58  79
BRANCH  70  87
ATOM     87  C   UNL A   1      49.409  26.068  26.720  1.00  0.00     0.057 A 
ATOM     88  C   UNL A   1      50.173  25.427  27.682  1.00  0.00     0.134 A 
ATOM     89  C   UNL A   1      49.870  26.261  25.490  1.00  0.00     0.134 A 
ATOM     90  F   UNL A   1      49.672  24.990  28.834  1.00  0.00    -0.206 F 
ATOM     91  C   UNL A   1      51.536  25.282  27.329  1.00  0.00     0.040 A 
ATOM     92  C   UNL A   1      51.176  25.970  25.179  1.00  0.00     0.040 A 
ATOM     93  F   UNL A   1      49.060  26.742  24.551  1.00  0.00    -0.206 F 
ATOM     94  C   UNL A   1      52.006  25.390  26.098  1.00  0.00     0.006 A 
ENDBRANCH  70  87
ENDBRANCH  44  45
ENDBRANCH  36  39
ENDBRANCH  34  35
ENDBRANCH  33  34
ENDBRANCH  32  33
ENDBRANCH   1  32
TORSDOF 18
ENDMDL
MODEL 3
REMARK VINA RESULT:     -11.8      3.123      8.085
REMARK SMILES CCCCc1cc(S(F)(F)(F)(F)F)cc2c1O[C@@H](C(F)(F)F)C(C(=O)NCCCCCCNC(=O)c1ccc(-c3c4nc(c(-c5c(F)cccc5F)c5ccc([nH]5)c(-c5c(F)cccc5F)c5nc(c(-c6c(F)cccc6F)c6ccc3[nH]6)C=C5)C=C4)cc1)=C2
REMARK SMILES IDX 29 1 28 2 27 3 26 4 24 5 25 6 23 8 5 9 6 10 16 11 7 12 15 13
REMARK SMILES IDX 17 14 14 15 90 16 18 17 4 18 3 19 2 20 1 21 8 22 9 23 10 24
REMARK SMILES IDX 11 25 12 26 13 27 19 28 20 29 21 30 22 31 30 32 31 33 32 34
REMARK SMILES IDX 33 35 34 36 35 38 36 39 37 40 89 41 38 42 88 43 39 44 40 45
REMARK SMILES IDX 41 46 82 47 42 48 87 49 81 50 83 51 43 52 86 53 80 54 79 55
REMARK SMILES IDX 44 57 70 58 53 59 69 60 54 61 57 62 68 63 84 64 55 65 56 66
REMARK SMILES IDX 67 68 85 69 58 70 45 71 46 72 51 73 47 74 48 75 50 76 52 77
REMARK SMILES IDX 49 78 71 79 72 80 77 81 73 82 74 83 76 84 78 85 75 86 59 87
REMARK SMILES IDX 60 88 65 89 61 90 62 91 64 92 66 93 63 94
REMARK H PARENT 26 7 33 37 83 56 57 67
REMARK Flexibility Score: inf
ROOT
ATOM      1  C   UNL A   1      37.653  22.917  25.625  1.00  0.00     0.002 C 
ENDROOT
BRANCH   1   2
ATOM      2  C   UNL A   1      37.275  22.356  24.263  1.00  0.00     0.021 C 
BRANCH   2   3
ATOM      3  C   UNL A   1      35.766  22.405  24.096  1.00  0.00     0.116 C 
BRANCH   3   4
ATOM      4  N   UNL A   1      35.139  21.457  25.030  1.00  0.00    -0.352 N 
ATOM      5  C   UNL A   1      33.856  21.791  25.664  1.00  0.00     0.251 C 
ATOM      6  O   UNL A   1      33.314  20.971  26.471  1.00  0.00    -0.270 OA
ATOM      7  H   UNL A   1      35.579  20.600  25.229  1.00  0.00     0.163 HD
BRANCH   5   8
ATOM      8  C   UNL A   1      33.176  23.115  25.355  1.00  0.00     0.067 C 
ATOM      9  C   UNL A   1      31.578  26.753  24.069  1.00  0.00    -0.004 A 
ATOM     10  C   UNL A   1      31.878  27.919  24.752  1.00  0.00     0.032 A 
ATOM     11  C   UNL A   1      32.160  25.579  24.481  1.00  0.00     0.131 A 
ATOM     12  C   UNL A   1      32.741  27.909  25.816  1.00  0.00     0.108 A 
ATOM     13  C   UNL A   1      33.020  25.529  25.563  1.00  0.00     0.019 A 
ATOM     14  O   UNL A   1      31.942  24.453  23.726  1.00  0.00    -0.475 OA
ATOM     15  C   UNL A   1      33.304  26.718  26.224  1.00  0.00     0.036 A 
ATOM     16  C   UNL A   1      33.615  24.245  25.896  1.00  0.00     0.025 C 
ATOM     17  C   UNL A   1      31.977  23.173  24.417  1.00  0.00     0.314 C 
BRANCH   9  18
ATOM     18  C   UNL A   1      30.624  26.773  22.886  1.00  0.00     0.039 C 
BRANCH  18  19
ATOM     19  C   UNL A   1      30.455  28.202  22.394  1.00  0.00     0.005 C 
BRANCH  19  20
ATOM     20  C   UNL A   1      29.060  28.695  22.743  1.00  0.00    -0.003 C 
ATOM     21  C   UNL A   1      29.151  30.091  23.340  1.00  0.00     0.004 C 
ENDBRANCH  19  20
ENDBRANCH  18  19
ENDBRANCH   9  18
BRANCH  12  22
ATOM     22  S   UNL A   1      33.138  29.449  26.682  1.00  0.00     0.310 S 
ATOM     23  F   UNL A   1      33.561  28.673  27.998  1.00  0.00    -0.094 F 
ATOM     24  F   UNL A   1      31.670  29.480  27.253  1.00  0.00    -0.094 F 
ATOM     25  F   UNL A   1      33.484  30.771  27.422  1.00  0.00    -0.094 F 
ATOM     26  F   UNL A   1      34.641  29.327  26.214  1.00  0.00    -0.094 F 
ATOM     27  F   UNL A   1      32.832  28.047  26.016  1.00  0.00    -0.094 F 
ENDBRANCH  12  22
BRANCH  17  28
ATOM     28  C   UNL A   1      32.095  22.058  23.391  1.00  0.00     0.429 C 
ATOM     29  F   UNL A   1      32.090  20.882  24.012  1.00  0.00    -0.167 F 
ATOM     30  F   UNL A   1      31.066  22.119  22.550  1.00  0.00    -0.167 F 
ATOM     31  F   UNL A   1      33.231  22.197  22.714  1.00  0.00    -0.167 F 
ENDBRANCH  17  28
ENDBRANCH   5   8
ENDBRANCH   3   4
ENDBRANCH   2   3
ENDBRANCH   1   2
BRANCH   1  32
ATOM     32  C   UNL A   1      38.896  22.208  26.137  1.00  0.00     0.002 C 
BRANCH  32  33
ATOM     33  C   UNL A   1      39.051  20.875  25.424  1.00  0.00     0.021 C 
BRANCH  33  34
ATOM     34  C   UNL A   1      39.555  19.831  26.406  1.00  0.00     0.116 C 
BRANCH  34  35
ATOM     35  N   UNL A   1      40.644  19.061  25.785  1.00  0.00    -0.352 N 
ATOM     36  C   UNL A   1      42.006  19.613  25.748  1.00  0.00     0.251 C 
ATOM     37  H   UNL A   1      40.461  18.175  25.396  1.00  0.00     0.163 HD
ATOM     38  O   UNL A   1      42.946  18.948  25.211  1.00  0.00    -0.269 OA
BRANCH  36  39
ATOM     39  C   UNL A   1      42.289  20.980  26.349  1.00  0.00     0.039 A 
ATOM     40  C   UNL A   1      42.270  21.153  27.723  1.00  0.00     0.014 A 
ATOM     41  C   UNL A   1      42.557  21.991  25.530  1.00  0.00     0.014 A 
ATOM     42  C   UNL A   1      42.264  22.509  28.130  1.00  0.00     0.010 A 
ATOM     43  C   UNL A   1      42.672  23.271  26.015  1.00  0.00     0.010 A 
ATOM     44  C   UNL A   1      42.606  23.523  27.357  1.00  0.00    -0.014 A 
BRANCH  44  45
ATOM     45  C   UNL A   1      42.907  24.899  27.930  1.00  0.00     0.031 A 
ATOM     46  C   UNL A   1      41.838  25.773  28.132  1.00  0.00     0.074 A 
ATOM     47  C   UNL A   1      44.226  25.208  28.218  1.00  0.00     0.049 A 
ATOM     48  N   UNL A   1      41.878  27.001  28.651  1.00  0.00    -0.248 NA
ATOM     49  C   UNL A   1      40.441  25.460  27.795  1.00  0.00     0.031 C 
ATOM     50  C   UNL A   1      45.309  24.329  28.024  1.00  0.00     0.029 A 
ATOM     51  N   UNL A   1      44.724  26.385  28.729  1.00  0.00    -0.354 N 
ATOM     52  C   UNL A   1      40.650  27.520  28.704  1.00  0.00     0.074 A 
ATOM     53  C   UNL A   1      39.709  26.538  28.148  1.00  0.00     0.031 C 
ATOM     54  C   UNL A   1      46.445  24.971  28.401  1.00  0.00     0.029 A 
ATOM     55  C   UNL A   1      46.092  26.261  28.839  1.00  0.00     0.049 A 
ATOM     56  H   UNL A   1      44.195  27.179  28.974  1.00  0.00     0.167 HD
ATOM     57  C   UNL A   1      40.278  28.773  29.196  1.00  0.00     0.037 A 
ATOM     58  C   UNL A   1      46.997  27.210  29.290  1.00  0.00     0.037 A 
ATOM     59  C   UNL A   1      41.178  29.704  29.687  1.00  0.00     0.049 A 
ATOM     60  C   UNL A   1      46.631  28.484  29.728  1.00  0.00     0.074 A 
ATOM     61  C   UNL A   1      40.818  30.968  30.193  1.00  0.00     0.029 A 
ATOM     62  N   UNL A   1      42.548  29.589  29.774  1.00  0.00    -0.354 N 
ATOM     63  N   UNL A   1      45.399  28.988  29.817  1.00  0.00    -0.248 NA
ATOM     64  C   UNL A   1      47.583  29.508  30.178  1.00  0.00     0.031 C 
ATOM     65  C   UNL A   1      41.955  31.610  30.571  1.00  0.00     0.029 A 
ATOM     66  C   UNL A   1      43.045  30.758  30.307  1.00  0.00     0.049 A 
ATOM     67  H   UNL A   1      43.080  28.806  29.502  1.00  0.00     0.167 HD
ATOM     68  C   UNL A   1      45.444  30.232  30.298  1.00  0.00     0.074 A 
ATOM     69  C   UNL A   1      46.851  30.587  30.530  1.00  0.00     0.031 C 
ATOM     70  C   UNL A   1      44.369  31.084  30.555  1.00  0.00     0.037 A 
BRANCH  57  71
ATOM     71  C   UNL A   1      38.801  29.135  29.190  1.00  0.00     0.057 A 
ATOM     72  C   UNL A   1      38.237  29.683  28.049  1.00  0.00     0.134 A 
ATOM     73  C   UNL A   1      38.072  28.899  30.275  1.00  0.00     0.134 A 
ATOM     74  F   UNL A   1      38.856  29.703  26.872  1.00  0.00    -0.206 F 
ATOM     75  C   UNL A   1      36.944  30.221  28.251  1.00  0.00     0.040 A 
ATOM     76  C   UNL A   1      36.770  29.335  30.350  1.00  0.00     0.040 A 
ATOM     77  F   UNL A   1      38.605  28.236  31.297  1.00  0.00    -0.206 F 
ATOM     78  C   UNL A   1      36.168  29.938  29.281  1.00  0.00     0.006 A 
ENDBRANCH  57  71
BRANCH  58  79
ATOM     79  C   UNL A   1      48.471  26.841  29.311  1.00  0.00     0.057 A 
ATOM     80  C   UNL A   1      49.269  27.159  28.224  1.00  0.00     0.134 A 
ATOM     81  C   UNL A   1      48.966  26.201  30.364  1.00  0.00     0.134 A 
ATOM     82  F   UNL A   1      48.893  28.008  27.272  1.00  0.00    -0.206 F 
ATOM     83  C   UNL A   1      50.521  26.499  28.219  1.00  0.00     0.040 A 
ATOM     84  C   UNL A   1      50.245  25.700  30.341  1.00  0.00     0.040 A 
ATOM     85  F   UNL A   1      48.215  26.043  31.451  1.00  0.00    -0.206 F 
ATOM     86  C   UNL A   1      51.069  25.926  29.275  1.00  0.00     0.006 A 
ENDBRANCH  58  79
BRANCH  70  87
ATOM     87  C   UNL A   1      44.668  32.453  31.144  1.00  0.00     0.057 A 
ATOM     88  C   UNL A   1      44.856  33.543  30.310  1.00  0.00     0.134 A 
ATOM     89  C   UNL A   1      44.737  32.575  32.464  1.00  0.00     0.134 A 
ATOM     90  F   UNL A   1      44.551  33.528  29.015  1.00  0.00    -0.206 F 
ATOM     91  C   UNL A   1      45.403  34.675  30.960  1.00  0.00     0.040 A 
ATOM     92  C   UNL A   1      45.150  33.754  33.036  1.00  0.00     0.040 A 
ATOM     93  F   UNL A   1      44.404  31.547  33.239  1.00  0.00    -0.206 F 
ATOM     94  C   UNL A   1      45.410  34.856  32.269  1.00  0.00     0.006 A 
ENDBRANCH  70  87
ENDBRANCH  44  45
ENDBRANCH  36  39
ENDBRANCH  34  35
ENDBRANCH  33  34
ENDBRANCH  32  33
ENDBRANCH   1  32
TORSDOF 18
ENDMDL
