MODEL 1
REMARK VINA RESULT:     -11.1      0.000      0.000
REMARK SMILES N#CCc1nc(-c2ccccc2)c(CC(=O)NCCCCCCNC(=O)c2ccc(-c3c4nc(c(-c5c(F)cccc5F)c5ccc([nH]5)c(-c5c(F)cccc5F)c5nc(c(-c6c(F)cccc6F)c6ccc3[nH]6)C=C5)C=C4)cc2)s1
REMARK SMILES IDX 20 1 19 2 18 3 17 4 15 5 16 6 14 8 13 9 4 10 5 11 81 12 6 13
REMARK SMILES IDX 3 14 2 15 1 16 7 17 8 18 12 19 9 20 11 21 10 22 21 23 22 24
REMARK SMILES IDX 23 25 24 26 25 27 26 29 27 30 28 31 80 32 29 33 79 34 30 35
REMARK SMILES IDX 31 36 32 37 73 38 33 39 78 40 72 41 74 42 34 43 77 44 71 45
REMARK SMILES IDX 70 46 35 48 61 49 44 50 60 51 45 52 48 53 59 54 75 55 46 56
REMARK SMILES IDX 47 57 58 59 76 60 49 61 36 62 37 63 42 64 38 65 39 66 41 67
REMARK SMILES IDX 43 68 40 69 62 70 63 71 68 72 64 73 65 74 67 75 69 76 66 77
REMARK SMILES IDX 50 78 51 79 56 80 52 81 53 82 55 83 57 84 54 85
REMARK H PARENT 17 7 24 28 74 47 48 58
REMARK Flexibility Score: inf
ROOT
ATOM      1  C   UNL A   1      34.856  20.312  24.944  1.00  0.00     0.002 C 
ENDROOT
BRANCH   1   2
ATOM      2  C   UNL A   1      33.674  20.501  25.903  1.00  0.00     0.021 C 
BRANCH   2   3
ATOM      3  C   UNL A   1      32.561  21.378  25.328  1.00  0.00     0.116 C 
BRANCH   3   4
ATOM      4  N   UNL A   1      31.950  22.193  26.358  1.00  0.00    -0.356 N 
ATOM      5  C   UNL A   1      31.156  23.296  26.228  1.00  0.00     0.225 C 
ATOM      6  O   UNL A   1      30.807  23.886  27.252  1.00  0.00    -0.275 OA
ATOM      7  H   UNL A   1      32.133  21.910  27.284  1.00  0.00     0.163 HD
BRANCH   5   8
ATOM      8  C   UNL A   1      30.650  23.730  24.860  1.00  0.00     0.149 C 
BRANCH   8   9
ATOM      9  C   UNL A   1      31.056  25.132  24.508  1.00  0.00     0.042 A 
ATOM     10  C   UNL A   1      31.111  27.542  24.188  1.00  0.00     0.108 A 
ATOM     11  N   UNL A   1      32.334  27.058  24.137  1.00  0.00    -0.240 NA
ATOM     12  S   UNL A   1      29.868  26.364  24.335  1.00  0.00    -0.121 S 
ATOM     13  C   UNL A   1      32.311  25.680  24.271  1.00  0.00     0.085 A 
BRANCH  10  14
ATOM     14  C   UNL A   1      30.774  28.996  24.120  1.00  0.00     0.187 C 
BRANCH  14  15
ATOM     15  C   UNL A   1      30.182  29.319  22.758  1.00  0.00     0.069 C 
ATOM     16  N   UNL A   1      29.691  29.587  21.628  1.00  0.00    -0.198 NA
ENDBRANCH  14  15
ENDBRANCH  10  14
BRANCH  13  17
ATOM     17  C   UNL A   1      33.556  24.919  24.313  1.00  0.00     0.001 A 
ATOM     18  C   UNL A   1      34.413  24.979  25.420  1.00  0.00     0.010 A 
ATOM     19  C   UNL A   1      33.942  24.174  23.190  1.00  0.00     0.010 A 
ATOM     20  C   UNL A   1      35.668  24.368  25.371  1.00  0.00     0.001 A 
ATOM     21  C   UNL A   1      35.198  23.567  23.143  1.00  0.00     0.001 A 
ATOM     22  C   UNL A   1      36.066  23.677  24.228  1.00  0.00     0.000 A 
ENDBRANCH  13  17
ENDBRANCH   8   9
ENDBRANCH   5   8
ENDBRANCH   3   4
ENDBRANCH   2   3
ENDBRANCH   1   2
BRANCH   1  23
ATOM     23  C   UNL A   1      36.202  20.827  25.470  1.00  0.00     0.002 C 
BRANCH  23  24
ATOM     24  C   UNL A   1      37.428  20.042  24.998  1.00  0.00     0.021 C 
BRANCH  24  25
ATOM     25  C   UNL A   1      38.741  20.456  25.657  1.00  0.00     0.116 C 
BRANCH  25  26
ATOM     26  N   UNL A   1      39.677  19.344  25.754  1.00  0.00    -0.352 N 
ATOM     27  C   UNL A   1      41.031  19.353  25.966  1.00  0.00     0.251 C 
ATOM     28  H   UNL A   1      39.277  18.451  25.651  1.00  0.00     0.163 HD
ATOM     29  O   UNL A   1      41.689  18.324  25.805  1.00  0.00    -0.269 OA
BRANCH  27  30
ATOM     30  C   UNL A   1      41.712  20.599  26.368  1.00  0.00     0.039 A 
ATOM     31  C   UNL A   1      42.123  21.495  25.376  1.00  0.00     0.014 A 
ATOM     32  C   UNL A   1      41.949  20.886  27.715  1.00  0.00     0.014 A 
ATOM     33  C   UNL A   1      42.696  22.714  25.739  1.00  0.00     0.010 A 
ATOM     34  C   UNL A   1      42.461  22.128  28.079  1.00  0.00     0.010 A 
ATOM     35  C   UNL A   1      42.826  23.060  27.095  1.00  0.00    -0.014 A 
BRANCH  35  36
ATOM     36  C   UNL A   1      43.278  24.414  27.501  1.00  0.00     0.031 A 
ATOM     37  C   UNL A   1      42.287  25.465  27.908  1.00  0.00     0.074 A 
ATOM     38  C   UNL A   1      44.586  24.722  27.406  1.00  0.00     0.049 A 
ATOM     39  N   UNL A   1      42.496  26.721  28.215  1.00  0.00    -0.248 NA
ATOM     40  C   UNL A   1      40.875  25.061  27.950  1.00  0.00     0.031 C 
ATOM     41  C   UNL A   1      45.637  23.805  26.962  1.00  0.00     0.029 A 
ATOM     42  N   UNL A   1      45.251  25.897  27.653  1.00  0.00    -0.354 N 
ATOM     43  C   UNL A   1      41.243  27.260  28.472  1.00  0.00     0.074 A 
ATOM     44  C   UNL A   1      40.277  26.207  28.241  1.00  0.00     0.031 C 
ATOM     45  C   UNL A   1      46.814  24.448  26.974  1.00  0.00     0.029 A 
ATOM     46  C   UNL A   1      46.597  25.831  27.387  1.00  0.00     0.049 A 
ATOM     47  H   UNL A   1      44.806  26.708  27.989  1.00  0.00     0.167 HD
ATOM     48  C   UNL A   1      40.930  28.515  28.874  1.00  0.00     0.037 A 
ATOM     49  C   UNL A   1      47.548  26.781  27.447  1.00  0.00     0.037 A 
ATOM     50  C   UNL A   1      41.898  29.554  29.114  1.00  0.00     0.049 A 
ATOM     51  C   UNL A   1      47.179  28.166  27.891  1.00  0.00     0.074 A 
ATOM     52  C   UNL A   1      41.691  30.826  29.620  1.00  0.00     0.029 A 
ATOM     53  N   UNL A   1      43.255  29.448  28.847  1.00  0.00    -0.354 N 
ATOM     54  N   UNL A   1      46.003  28.637  28.228  1.00  0.00    -0.248 NA
ATOM     55  C   UNL A   1      48.266  29.151  27.967  1.00  0.00     0.031 C 
ATOM     56  C   UNL A   1      42.912  31.509  29.601  1.00  0.00     0.029 A 
ATOM     57  C   UNL A   1      43.890  30.646  29.134  1.00  0.00     0.049 A 
ATOM     58  H   UNL A   1      43.702  28.640  28.505  1.00  0.00     0.167 HD
ATOM     59  C   UNL A   1      46.206  29.969  28.559  1.00  0.00     0.074 A 
ATOM     60  C   UNL A   1      47.625  30.225  28.408  1.00  0.00     0.031 C 
ATOM     61  C   UNL A   1      45.299  30.897  28.953  1.00  0.00     0.037 A 
BRANCH  48  62
ATOM     62  C   UNL A   1      39.475  28.836  29.064  1.00  0.00     0.057 A 
ATOM     63  C   UNL A   1      38.835  28.686  30.302  1.00  0.00     0.134 A 
ATOM     64  C   UNL A   1      38.707  29.322  27.997  1.00  0.00     0.134 A 
ATOM     65  F   UNL A   1      39.509  28.218  31.363  1.00  0.00    -0.206 F 
ATOM     66  C   UNL A   1      37.477  28.970  30.463  1.00  0.00     0.040 A 
ATOM     67  C   UNL A   1      37.356  29.638  28.153  1.00  0.00     0.040 A 
ATOM     68  F   UNL A   1      39.257  29.499  26.787  1.00  0.00    -0.206 F 
ATOM     69  C   UNL A   1      36.735  29.453  29.386  1.00  0.00     0.006 A 
ENDBRANCH  48  62
BRANCH  49  70
ATOM     70  C   UNL A   1      48.942  26.438  27.072  1.00  0.00     0.057 A 
ATOM     71  C   UNL A   1      49.852  25.966  28.024  1.00  0.00     0.134 A 
ATOM     72  C   UNL A   1      49.384  26.535  25.747  1.00  0.00     0.134 A 
ATOM     73  F   UNL A   1      49.492  25.867  29.312  1.00  0.00    -0.206 F 
ATOM     74  C   UNL A   1      51.154  25.605  27.672  1.00  0.00     0.040 A 
ATOM     75  C   UNL A   1      50.675  26.156  25.378  1.00  0.00     0.040 A 
ATOM     76  F   UNL A   1      48.555  26.972  24.786  1.00  0.00    -0.206 F 
ATOM     77  C   UNL A   1      51.565  25.692  26.343  1.00  0.00     0.006 A 
ENDBRANCH  49  70
BRANCH  61  78
ATOM     78  C   UNL A   1      45.813  32.279  29.236  1.00  0.00     0.057 A 
ATOM     79  C   UNL A   1      45.806  33.280  28.256  1.00  0.00     0.134 A 
ATOM     80  C   UNL A   1      46.282  32.623  30.510  1.00  0.00     0.134 A 
ATOM     81  F   UNL A   1      45.383  33.011  27.012  1.00  0.00    -0.206 F 
ATOM     82  C   UNL A   1      46.266  34.569  28.529  1.00  0.00     0.040 A 
ATOM     83  C   UNL A   1      46.719  33.917  30.802  1.00  0.00     0.040 A 
ATOM     84  F   UNL A   1      46.310  31.714  31.496  1.00  0.00    -0.206 F 
ATOM     85  C   UNL A   1      46.717  34.893  29.806  1.00  0.00     0.006 A 
ENDBRANCH  61  78
ENDBRANCH  35  36
ENDBRANCH  27  30
ENDBRANCH  25  26
ENDBRANCH  24  25
ENDBRANCH  23  24
ENDBRANCH   1  23
TORSDOF 17
ENDMDL
MODEL 2
REMARK VINA RESULT:     -10.9      1.805      6.565
REMARK SMILES N#CCc1nc(-c2ccccc2)c(CC(=O)NCCCCCCNC(=O)c2ccc(-c3c4nc(c(-c5c(F)cccc5F)c5ccc([nH]5)c(-c5c(F)cccc5F)c5nc(c(-c6c(F)cccc6F)c6ccc3[nH]6)C=C5)C=C4)cc2)s1
REMARK SMILES IDX 20 1 19 2 18 3 17 4 15 5 16 6 14 8 13 9 4 10 5 11 81 12 6 13
REMARK SMILES IDX 3 14 2 15 1 16 7 17 8 18 12 19 9 20 11 21 10 22 21 23 22 24
REMARK SMILES IDX 23 25 24 26 25 27 26 29 27 30 28 31 80 32 29 33 79 34 30 35
REMARK SMILES IDX 31 36 32 37 73 38 33 39 78 40 72 41 74 42 34 43 77 44 71 45
REMARK SMILES IDX 70 46 35 48 61 49 44 50 60 51 45 52 48 53 59 54 75 55 46 56
REMARK SMILES IDX 47 57 58 59 76 60 49 61 36 62 37 63 42 64 38 65 39 66 41 67
REMARK SMILES IDX 43 68 40 69 62 70 63 71 68 72 64 73 65 74 67 75 69 76 66 77
REMARK SMILES IDX 50 78 51 79 56 80 52 81 53 82 55 83 57 84 54 85
REMARK H PARENT 17 7 24 28 74 47 48 58
REMARK Flexibility Score: inf
ROOT
ATOM      1  C   UNL A   1      35.743  22.359  24.913  1.00  0.00     0.002 C 
ENDROOT
BRANCH   1   2
ATOM      2  C   UNL A   1      34.759  22.978  25.915  1.00  0.00     0.021 C 
BRANCH   2   3
ATOM      3  C   UNL A   1      34.368  24.416  25.571  1.00  0.00     0.116 C 
BRANCH   3   4
ATOM      4  N   UNL A   1      33.118  24.785  26.202  1.00  0.00    -0.356 N 
ATOM      5  C   UNL A   1      32.451  25.975  26.165  1.00  0.00     0.225 C 
ATOM      6  O   UNL A   1      31.432  26.093  26.849  1.00  0.00    -0.275 OA
ATOM      7  H   UNL A   1      32.688  24.075  26.733  1.00  0.00     0.163 HD
BRANCH   5   8
ATOM      8  C   UNL A   1      32.910  27.093  25.240  1.00  0.00     0.149 C 
BRANCH   8   9
ATOM      9  C   UNL A   1      31.890  27.440  24.195  1.00  0.00     0.042 A 
ATOM     10  C   UNL A   1      30.408  28.625  22.675  1.00  0.00     0.108 A 
ATOM     11  N   UNL A   1      30.558  27.381  22.270  1.00  0.00    -0.240 NA
ATOM     12  S   UNL A   1      31.171  29.003  24.168  1.00  0.00    -0.121 S 
ATOM     13  C   UNL A   1      31.363  26.683  23.156  1.00  0.00     0.085 A 
BRANCH  10  14
ATOM     14  C   UNL A   1      29.636  29.667  21.932  1.00  0.00     0.187 C 
BRANCH  14  15
ATOM     15  C   UNL A   1      28.297  29.893  22.615  1.00  0.00     0.069 C 
ATOM     16  N   UNL A   1      27.187  30.080  23.182  1.00  0.00    -0.198 NA
ENDBRANCH  14  15
ENDBRANCH  10  14
BRANCH  13  17
ATOM     17  C   UNL A   1      31.732  25.297  22.886  1.00  0.00     0.001 A 
ATOM     18  C   UNL A   1      30.980  24.228  23.393  1.00  0.00     0.010 A 
ATOM     19  C   UNL A   1      32.907  25.026  22.173  1.00  0.00     0.010 A 
ATOM     20  C   UNL A   1      31.439  22.917  23.254  1.00  0.00     0.001 A 
ATOM     21  C   UNL A   1      33.366  23.715  22.038  1.00  0.00     0.001 A 
ATOM     22  C   UNL A   1      32.639  22.663  22.592  1.00  0.00     0.000 A 
ENDBRANCH  13  17
ENDBRANCH   8   9
ENDBRANCH   5   8
ENDBRANCH   3   4
ENDBRANCH   2   3
ENDBRANCH   1   2
BRANCH   1  23
ATOM     23  C   UNL A   1      36.004  20.860  25.108  1.00  0.00     0.002 C 
BRANCH  23  24
ATOM     24  C   UNL A   1      37.387  20.379  24.664  1.00  0.00     0.021 C 
BRANCH  24  25
ATOM     25  C   UNL A   1      38.524  20.745  25.616  1.00  0.00     0.116 C 
BRANCH  25  26
ATOM     26  N   UNL A   1      39.527  19.692  25.698  1.00  0.00    -0.352 N 
ATOM     27  C   UNL A   1      40.857  19.771  26.018  1.00  0.00     0.251 C 
ATOM     28  H   UNL A   1      39.200  18.786  25.494  1.00  0.00     0.163 HD
ATOM     29  O   UNL A   1      41.597  18.804  25.829  1.00  0.00    -0.269 OA
BRANCH  27  30
ATOM     30  C   UNL A   1      41.417  21.020  26.569  1.00  0.00     0.039 A 
ATOM     31  C   UNL A   1      42.048  21.918  25.703  1.00  0.00     0.014 A 
ATOM     32  C   UNL A   1      41.323  21.308  27.934  1.00  0.00     0.014 A 
ATOM     33  C   UNL A   1      42.512  23.141  26.191  1.00  0.00     0.010 A 
ATOM     34  C   UNL A   1      41.728  22.553  28.407  1.00  0.00     0.010 A 
ATOM     35  C   UNL A   1      42.312  23.487  27.538  1.00  0.00    -0.014 A 
BRANCH  35  36
ATOM     36  C   UNL A   1      42.648  24.843  28.038  1.00  0.00     0.031 A 
ATOM     37  C   UNL A   1      44.037  25.170  28.502  1.00  0.00     0.074 A 
ATOM     38  C   UNL A   1      41.664  25.755  28.162  1.00  0.00     0.049 A 
ATOM     39  N   UNL A   1      44.488  26.275  29.042  1.00  0.00    -0.248 NA
ATOM     40  C   UNL A   1      45.044  24.108  28.369  1.00  0.00     0.031 C 
ATOM     41  C   UNL A   1      40.261  25.536  27.805  1.00  0.00     0.029 A 
ATOM     42  N   UNL A   1      41.688  27.039  28.646  1.00  0.00    -0.354 N 
ATOM     43  C   UNL A   1      45.826  26.037  29.326  1.00  0.00     0.074 A 
ATOM     44  C   UNL A   1      46.101  24.669  28.940  1.00  0.00     0.031 C 
ATOM     45  C   UNL A   1      39.561  26.647  28.074  1.00  0.00     0.029 A 
ATOM     46  C   UNL A   1      40.453  27.642  28.660  1.00  0.00     0.049 A 
ATOM     47  H   UNL A   1      42.510  27.485  28.953  1.00  0.00     0.167 HD
ATOM     48  C   UNL A   1      46.742  26.886  29.849  1.00  0.00     0.037 A 
ATOM     49  C   UNL A   1      40.076  28.852  29.113  1.00  0.00     0.037 A 
ATOM     50  C   UNL A   1      46.464  28.251  30.219  1.00  0.00     0.049 A 
ATOM     51  C   UNL A   1      41.106  29.777  29.693  1.00  0.00     0.074 A 
ATOM     52  C   UNL A   1      47.346  29.221  30.662  1.00  0.00     0.029 A 
ATOM     53  N   UNL A   1      45.205  28.832  30.207  1.00  0.00    -0.354 N 
ATOM     54  N   UNL A   1      42.390  29.575  29.864  1.00  0.00    -0.248 NA
ATOM     55  C   UNL A   1      40.639  31.094  30.141  1.00  0.00     0.031 C 
ATOM     56  C   UNL A   1      46.611  30.370  30.975  1.00  0.00     0.029 A 
ATOM     57  C   UNL A   1      45.279  30.134  30.678  1.00  0.00     0.049 A 
ATOM     58  H   UNL A   1      44.380  28.387  29.906  1.00  0.00     0.167 HD
ATOM     59  C   UNL A   1      42.886  30.739  30.433  1.00  0.00     0.074 A 
ATOM     60  C   UNL A   1      41.768  31.653  30.555  1.00  0.00     0.031 C 
ATOM     61  C   UNL A   1      44.154  31.025  30.821  1.00  0.00     0.037 A 
BRANCH  48  62
ATOM     62  C   UNL A   1      48.130  26.355  30.067  1.00  0.00     0.057 A 
ATOM     63  C   UNL A   1      49.118  26.426  29.076  1.00  0.00     0.134 A 
ATOM     64  C   UNL A   1      48.489  25.783  31.295  1.00  0.00     0.134 A 
ATOM     65  F   UNL A   1      48.840  26.955  27.875  1.00  0.00    -0.206 F 
ATOM     66  C   UNL A   1      50.401  25.913  29.284  1.00  0.00     0.040 A 
ATOM     67  C   UNL A   1      49.776  25.293  31.525  1.00  0.00     0.040 A 
ATOM     68  F   UNL A   1      47.596  25.691  32.291  1.00  0.00    -0.206 F 
ATOM     69  C   UNL A   1      50.734  25.349  30.514  1.00  0.00     0.006 A 
ENDBRANCH  48  62
BRANCH  49  70
ATOM     70  C   UNL A   1      38.648  29.246  29.029  1.00  0.00     0.057 A 
ATOM     71  C   UNL A   1      38.082  29.661  27.819  1.00  0.00     0.134 A 
ATOM     72  C   UNL A   1      37.807  29.177  30.147  1.00  0.00     0.134 A 
ATOM     73  F   UNL A   1      38.841  29.764  26.718  1.00  0.00    -0.206 F 
ATOM     74  C   UNL A   1      36.730  29.997  27.723  1.00  0.00     0.040 A 
ATOM     75  C   UNL A   1      36.450  29.487  30.060  1.00  0.00     0.040 A 
ATOM     76  F   UNL A   1      38.289  28.777  31.333  1.00  0.00    -0.206 F 
ATOM     77  C   UNL A   1      35.908  29.902  28.845  1.00  0.00     0.006 A 
ENDBRANCH  49  70
BRANCH  61  78
ATOM     78  C   UNL A   1      44.397  32.378  31.425  1.00  0.00     0.057 A 
ATOM     79  C   UNL A   1      44.252  32.605  32.800  1.00  0.00     0.134 A 
ATOM     80  C   UNL A   1      44.815  33.454  30.632  1.00  0.00     0.134 A 
ATOM     81  F   UNL A   1      43.840  31.620  33.612  1.00  0.00    -0.206 F 
ATOM     82  C   UNL A   1      44.498  33.859  33.361  1.00  0.00     0.040 A 
ATOM     83  C   UNL A   1      45.090  34.705  31.186  1.00  0.00     0.040 A 
ATOM     84  F   UNL A   1      44.979  33.303  29.308  1.00  0.00    -0.206 F 
ATOM     85  C   UNL A   1      44.925  34.911  32.555  1.00  0.00     0.006 A 
ENDBRANCH  61  78
ENDBRANCH  35  36
ENDBRANCH  27  30
ENDBRANCH  25  26
ENDBRANCH  24  25
ENDBRANCH  23  24
ENDBRANCH   1  23
TORSDOF 17
ENDMDL
MODEL 3
REMARK VINA RESULT:     -10.9      2.694      7.561
REMARK SMILES N#CCc1nc(-c2ccccc2)c(CC(=O)NCCCCCCNC(=O)c2ccc(-c3c4nc(c(-c5c(F)cccc5F)c5ccc([nH]5)c(-c5c(F)cccc5F)c5nc(c(-c6c(F)cccc6F)c6ccc3[nH]6)C=C5)C=C4)cc2)s1
REMARK SMILES IDX 20 1 19 2 18 3 17 4 15 5 16 6 14 8 13 9 4 10 5 11 81 12 6 13
REMARK SMILES IDX 3 14 2 15 1 16 7 17 8 18 12 19 9 20 11 21 10 22 21 23 22 24
REMARK SMILES IDX 23 25 24 26 25 27 26 29 27 30 28 31 80 32 29 33 79 34 30 35
REMARK SMILES IDX 31 36 32 37 73 38 33 39 78 40 72 41 74 42 34 43 77 44 71 45
REMARK SMILES IDX 70 46 35 48 61 49 44 50 60 51 45 52 48 53 59 54 75 55 46 56
REMARK SMILES IDX 47 57 58 59 76 60 49 61 36 62 37 63 42 64 38 65 39 66 41 67
REMARK SMILES IDX 43 68 40 69 62 70 63 71 68 72 64 73 65 74 67 75 69 76 66 77
REMARK SMILES IDX 50 78 51 79 56 80 52 81 53 82 55 83 57 84 54 85
REMARK H PARENT 17 7 24 28 74 47 48 58
REMARK Flexibility Score: inf
ROOT
ATOM      1  C   UNL A   1      31.323  26.292  25.555  1.00  0.00     0.002 C 
ENDROOT
BRANCH   1   2
ATOM      2  C   UNL A   1      30.640  26.024  24.208  1.00  0.00     0.021 C 
BRANCH   2   3
ATOM      3  C   UNL A   1      30.713  24.559  23.773  1.00  0.00     0.116 C 
BRANCH   3   4
ATOM      4  N   UNL A   1      31.831  24.334  22.879  1.00  0.00    -0.356 N 
ATOM      5  C   UNL A   1      33.107  23.949  23.175  1.00  0.00     0.225 C 
ATOM      6  O   UNL A   1      33.926  23.894  22.254  1.00  0.00    -0.275 OA
ATOM      7  H   UNL A   1      31.643  24.478  21.923  1.00  0.00     0.163 HD
BRANCH   5   8
ATOM      8  C   UNL A   1      33.481  23.521  24.586  1.00  0.00     0.149 C 
BRANCH   8   9
ATOM      9  C   UNL A   1      33.567  22.031  24.739  1.00  0.00     0.042 A 
ATOM     10  C   UNL A   1      33.126  19.641  24.657  1.00  0.00     0.108 A 
ATOM     11  N   UNL A   1      34.401  19.850  24.913  1.00  0.00    -0.240 NA
ATOM     12  S   UNL A   1      32.157  21.058  24.582  1.00  0.00    -0.121 S 
ATOM     13  C   UNL A   1      34.654  21.208  25.009  1.00  0.00     0.085 A 
BRANCH  10  14
ATOM     14  C   UNL A   1      32.517  18.293  24.447  1.00  0.00     0.187 C 
BRANCH  14  15
ATOM     15  C   UNL A   1      33.360  17.500  23.462  1.00  0.00     0.069 C 
ATOM     16  N   UNL A   1      34.060  16.842  22.645  1.00  0.00    -0.198 NA
ENDBRANCH  14  15
ENDBRANCH  10  14
BRANCH  13  17
ATOM     17  C   UNL A   1      36.014  21.695  25.221  1.00  0.00     0.001 A 
ATOM     18  C   UNL A   1      37.128  20.876  24.992  1.00  0.00     0.010 A 
ATOM     19  C   UNL A   1      36.208  22.981  25.742  1.00  0.00     0.010 A 
ATOM     20  C   UNL A   1      38.406  21.311  25.350  1.00  0.00     0.001 A 
ATOM     21  C   UNL A   1      37.485  23.412  26.103  1.00  0.00     0.001 A 
ATOM     22  C   UNL A   1      38.581  22.570  25.921  1.00  0.00     0.000 A 
ENDBRANCH  13  17
ENDBRANCH   8   9
ENDBRANCH   5   8
ENDBRANCH   3   4
ENDBRANCH   2   3
ENDBRANCH   1   2
BRANCH   1  23
ATOM     23  C   UNL A   1      32.649  27.057  25.464  1.00  0.00     0.002 C 
BRANCH  23  24
ATOM     24  C   UNL A   1      32.625  28.471  26.050  1.00  0.00     0.021 C 
BRANCH  24  25
ATOM     25  C   UNL A   1      33.517  28.668  27.273  1.00  0.00     0.116 C 
BRANCH  25  26
ATOM     26  N   UNL A   1      33.584  30.066  27.679  1.00  0.00    -0.352 N 
ATOM     27  C   UNL A   1      34.586  30.745  28.323  1.00  0.00     0.251 C 
ATOM     28  H   UNL A   1      32.790  30.604  27.458  1.00  0.00     0.163 HD
ATOM     29  O   UNL A   1      34.377  31.872  28.773  1.00  0.00    -0.269 OA
BRANCH  27  30
ATOM     30  C   UNL A   1      35.912  30.122  28.499  1.00  0.00     0.039 A 
ATOM     31  C   UNL A   1      36.815  30.142  27.431  1.00  0.00     0.014 A 
ATOM     32  C   UNL A   1      36.268  29.518  29.708  1.00  0.00     0.014 A 
ATOM     33  C   UNL A   1      38.102  29.630  27.604  1.00  0.00     0.010 A 
ATOM     34  C   UNL A   1      37.570  29.066  29.899  1.00  0.00     0.010 A 
ATOM     35  C   UNL A   1      38.504  29.131  28.854  1.00  0.00    -0.014 A 
BRANCH  35  36
ATOM     36  C   UNL A   1      39.912  28.736  29.105  1.00  0.00     0.031 A 
ATOM     37  C   UNL A   1      40.895  29.714  29.678  1.00  0.00     0.074 A 
ATOM     38  C   UNL A   1      40.326  27.513  28.720  1.00  0.00     0.049 A 
ATOM     39  N   UNL A   1      42.179  29.567  29.888  1.00  0.00    -0.248 NA
ATOM     40  C   UNL A   1      40.373  31.041  30.036  1.00  0.00     0.031 C 
ATOM     41  C   UNL A   1      39.480  26.495  28.094  1.00  0.00     0.029 A 
ATOM     42  N   UNL A   1      41.566  26.927  28.777  1.00  0.00    -0.354 N 
ATOM     43  C   UNL A   1      42.622  30.784  30.388  1.00  0.00     0.074 A 
ATOM     44  C   UNL A   1      41.478  31.672  30.408  1.00  0.00     0.031 C 
ATOM     45  C   UNL A   1      40.222  25.410  27.830  1.00  0.00     0.029 A 
ATOM     46  C   UNL A   1      41.601  25.667  28.230  1.00  0.00     0.049 A 
ATOM     47  H   UNL A   1      42.353  27.367  29.171  1.00  0.00     0.167 HD
ATOM     48  C   UNL A   1      43.865  31.125  30.804  1.00  0.00     0.037 A 
ATOM     49  C   UNL A   1      42.631  24.820  28.051  1.00  0.00     0.037 A 
ATOM     50  C   UNL A   1      44.996  30.231  30.793  1.00  0.00     0.049 A 
ATOM     51  C   UNL A   1      44.003  25.218  28.514  1.00  0.00     0.074 A 
ATOM     52  C   UNL A   1      46.271  30.449  31.285  1.00  0.00     0.029 A 
ATOM     53  N   UNL A   1      44.992  28.958  30.244  1.00  0.00    -0.354 N 
ATOM     54  N   UNL A   1      44.388  26.337  29.079  1.00  0.00    -0.248 NA
ATOM     55  C   UNL A   1      45.080  24.240  28.319  1.00  0.00     0.031 C 
ATOM     56  C   UNL A   1      47.054  29.330  30.981  1.00  0.00     0.029 A 
ATOM     57  C   UNL A   1      46.255  28.394  30.345  1.00  0.00     0.049 A 
ATOM     58  H   UNL A   1      44.208  28.518  29.843  1.00  0.00     0.167 HD
ATOM     59  C   UNL A   1      45.749  26.197  29.311  1.00  0.00     0.074 A 
ATOM     60  C   UNL A   1      46.117  24.873  28.850  1.00  0.00     0.031 C 
ATOM     61  C   UNL A   1      46.615  27.086  29.857  1.00  0.00     0.037 A 
BRANCH  48  62
ATOM     62  C   UNL A   1      44.070  32.531  31.290  1.00  0.00     0.057 A 
ATOM     63  C   UNL A   1      44.404  33.577  30.420  1.00  0.00     0.134 A 
ATOM     64  C   UNL A   1      43.910  32.847  32.646  1.00  0.00     0.134 A 
ATOM     65  F   UNL A   1      44.580  33.344  29.111  1.00  0.00    -0.206 F 
ATOM     66  C   UNL A   1      44.610  34.878  30.886  1.00  0.00     0.040 A 
ATOM     67  C   UNL A   1      44.084  34.148  33.119  1.00  0.00     0.040 A 
ATOM     68  F   UNL A   1      43.582  31.896  33.533  1.00  0.00    -0.206 F 
ATOM     69  C   UNL A   1      44.445  35.167  32.239  1.00  0.00     0.006 A 
ENDBRANCH  48  62
BRANCH  49  70
ATOM     70  C   UNL A   1      42.390  23.510  27.398  1.00  0.00     0.057 A 
ATOM     71  C   UNL A   1      42.562  23.346  26.020  1.00  0.00     0.134 A 
ATOM     72  C   UNL A   1      42.021  22.383  28.143  1.00  0.00     0.134 A 
ATOM     73  F   UNL A   1      42.898  24.393  25.252  1.00  0.00    -0.206 F 
ATOM     74  C   UNL A   1      42.374  22.107  25.404  1.00  0.00     0.040 A 
ATOM     75  C   UNL A   1      41.852  21.134  27.543  1.00  0.00     0.040 A 
ATOM     76  F   UNL A   1      41.850  22.474  29.471  1.00  0.00    -0.206 F 
ATOM     77  C   UNL A   1      42.026  20.995  26.168  1.00  0.00     0.006 A 
ENDBRANCH  49  70
BRANCH  61  78
ATOM     78  C   UNL A   1      48.050  26.659  29.975  1.00  0.00     0.057 A 
ATOM     79  C   UNL A   1      48.511  25.928  31.077  1.00  0.00     0.134 A 
ATOM     80  C   UNL A   1      48.971  26.948  28.960  1.00  0.00     0.134 A 
ATOM     81  F   UNL A   1      47.683  25.632  32.090  1.00  0.00    -0.206 F 
ATOM     82  C   UNL A   1      49.841  25.516  31.175  1.00  0.00     0.040 A 
ATOM     83  C   UNL A   1      50.297  26.519  29.034  1.00  0.00     0.040 A 
ATOM     84  F   UNL A   1      48.595  27.640  27.873  1.00  0.00    -0.206 F 
ATOM     85  C   UNL A   1      50.736  25.804  30.147  1.00  0.00     0.006 A 
ENDBRANCH  61  78
ENDBRANCH  35  36
ENDBRANCH  27  30
ENDBRANCH  25  26
ENDBRANCH  24  25
ENDBRANCH  23  24
ENDBRANCH   1  23
TORSDOF 17
ENDMDL
