MODEL 1
REMARK VINA RESULT:     -11.2      0.000      0.000
REMARK SMILES C[C@@H](Oc1ccccc1Cl)C(=O)Nc1ccc(C(=O)NCCCCCCNC(=O)c2ccc(-c3c4nc(c(-c5c(F)cccc5F)c5ccc([nH]5)c(-c5c(F)cccc5F)c5nc(c(-c6c(F)cccc6F)c6ccc3[nH]6)C=C5)C=C4)cc2)cc1
REMARK SMILES IDX 22 1 21 2 20 3 18 4 19 5 17 7 14 8 15 9 85 10 16 11 84 12
REMARK SMILES IDX 13 13 11 14 12 15 2 17 1 18 3 19 4 20 5 21 9 22 6 23 8 24
REMARK SMILES IDX 10 25 7 26 23 27 24 28 25 29 26 30 27 31 28 32 29 34 30 35
REMARK SMILES IDX 31 36 83 37 32 38 82 39 33 40 34 41 35 42 76 43 36 44 81 45
REMARK SMILES IDX 75 46 77 47 37 48 80 49 74 50 73 51 38 53 64 54 47 55 63 56
REMARK SMILES IDX 48 57 51 58 62 59 78 60 49 61 50 62 61 64 79 65 52 66 39 67
REMARK SMILES IDX 40 68 45 69 41 70 42 71 44 72 46 73 43 74 65 75 66 76 71 77
REMARK SMILES IDX 67 78 68 79 70 80 72 81 69 82 53 83 54 84 59 85 55 86 56 87
REMARK SMILES IDX 58 88 60 89 57 90
REMARK H PARENT 20 6 13 16 27 33 77 52 51 63
REMARK Flexibility Score: inf
ROOT
ATOM      1  C   UNL A   1      31.285  28.808  23.315  1.00  0.00     0.021 C 
ENDROOT
BRANCH   1   2
ATOM      2  C   UNL A   1      30.676  27.543  22.710  1.00  0.00     0.116 C 
BRANCH   2   3
ATOM      3  N   UNL A   1      31.490  27.066  21.607  1.00  0.00    -0.352 N 
ATOM      4  C   UNL A   1      32.428  26.067  21.535  1.00  0.00     0.251 C 
ATOM      5  O   UNL A   1      32.945  25.822  20.445  1.00  0.00    -0.269 OA
ATOM      6  H   UNL A   1      31.342  27.545  20.759  1.00  0.00     0.163 HD
BRANCH   4   7
ATOM      7  C   UNL A   1      32.765  25.219  22.705  1.00  0.00     0.039 A 
ATOM      8  C   UNL A   1      33.059  23.829  25.104  1.00  0.00     0.041 A 
ATOM      9  C   UNL A   1      32.008  23.504  24.249  1.00  0.00     0.027 A 
ATOM     10  C   UNL A   1      34.058  24.704  24.682  1.00  0.00     0.027 A 
ATOM     11  C   UNL A   1      31.844  24.225  23.066  1.00  0.00     0.016 A 
ATOM     12  C   UNL A   1      33.928  25.373  23.464  1.00  0.00     0.016 A 
BRANCH   8  13
ATOM     13  N   UNL A   1      33.077  23.264  26.378  1.00  0.00    -0.323 N 
ATOM     14  C   UNL A   1      33.594  22.051  26.755  1.00  0.00     0.265 C 
ATOM     15  O   UNL A   1      33.462  21.720  27.941  1.00  0.00    -0.270 OA
ATOM     16  H   UNL A   1      32.669  23.801  27.096  1.00  0.00     0.170 HD
BRANCH  14  17
ATOM     17  C   UNL A   1      34.367  21.122  25.778  1.00  0.00     0.259 C 
ATOM     18  C   UNL A   1      33.377  20.274  24.986  1.00  0.00     0.064 C 
BRANCH  17  19
ATOM     19  O   UNL A   1      35.261  21.799  24.892  1.00  0.00    -0.479 OA
BRANCH  19  20
ATOM     20  C   UNL A   1      36.492  22.080  25.423  1.00  0.00     0.139 A 
ATOM     21  C   UNL A   1      36.768  23.380  25.857  1.00  0.00     0.048 A 
ATOM     22  C   UNL A   1      37.523  21.132  25.386  1.00  0.00     0.083 A 
ATOM     23  C   UNL A   1      38.058  23.720  26.276  1.00  0.00     0.004 A 
ATOM     24  C   UNL A   1      38.811  21.476  25.804  1.00  0.00     0.024 A 
ATOM     25  Cl  UNL A   1      37.266  19.518  24.830  1.00  0.00    -0.080 Cl
ATOM     26  C   UNL A   1      39.079  22.769  26.248  1.00  0.00     0.002 A 
ENDBRANCH  19  20
ENDBRANCH  17  19
ENDBRANCH  14  17
ENDBRANCH   8  13
ENDBRANCH   4   7
ENDBRANCH   2   3
ENDBRANCH   1   2
BRANCH   1  27
ATOM     27  C   UNL A   1      31.316  28.787  24.848  1.00  0.00     0.002 C 
BRANCH  27  28
ATOM     28  C   UNL A   1      32.178  27.673  25.456  1.00  0.00     0.002 C 
BRANCH  28  29
ATOM     29  C   UNL A   1      32.610  27.904  26.906  1.00  0.00     0.021 C 
BRANCH  29  30
ATOM     30  C   UNL A   1      33.972  28.571  27.061  1.00  0.00     0.116 C 
BRANCH  30  31
ATOM     31  N   UNL A   1      33.859  29.924  27.586  1.00  0.00    -0.352 N 
ATOM     32  C   UNL A   1      34.747  30.640  28.344  1.00  0.00     0.251 C 
ATOM     33  H   UNL A   1      33.021  30.393  27.366  1.00  0.00     0.163 HD
ATOM     34  O   UNL A   1      34.397  31.695  28.875  1.00  0.00    -0.269 OA
BRANCH  32  35
ATOM     35  C   UNL A   1      36.125  30.145  28.536  1.00  0.00     0.039 A 
ATOM     36  C   UNL A   1      37.031  30.235  27.476  1.00  0.00     0.014 A 
ATOM     37  C   UNL A   1      36.520  29.577  29.752  1.00  0.00     0.014 A 
ATOM     38  C   UNL A   1      38.347  29.803  27.652  1.00  0.00     0.010 A 
ATOM     39  C   UNL A   1      37.850  29.216  29.949  1.00  0.00     0.010 A 
ATOM     40  C   UNL A   1      38.776  29.319  28.899  1.00  0.00    -0.014 A 
BRANCH  40  41
ATOM     41  C   UNL A   1      40.186  28.912  29.121  1.00  0.00     0.031 A 
ATOM     42  C   UNL A   1      41.157  29.865  29.762  1.00  0.00     0.074 A 
ATOM     43  C   UNL A   1      40.607  27.705  28.691  1.00  0.00     0.049 A 
ATOM     44  N   UNL A   1      42.438  29.715  29.984  1.00  0.00    -0.248 NA
ATOM     45  C   UNL A   1      40.625  31.169  30.188  1.00  0.00     0.031 C 
ATOM     46  C   UNL A   1      39.774  26.712  28.012  1.00  0.00     0.029 A 
ATOM     47  N   UNL A   1      41.844  27.114  28.755  1.00  0.00    -0.354 N 
ATOM     48  C   UNL A   1      42.866  30.904  30.560  1.00  0.00     0.074 A 
ATOM     49  C   UNL A   1      41.721  31.787  30.606  1.00  0.00     0.031 C 
ATOM     50  C   UNL A   1      40.517  25.627  27.740  1.00  0.00     0.029 A 
ATOM     51  C   UNL A   1      41.885  25.862  28.190  1.00  0.00     0.049 A 
ATOM     52  H   UNL A   1      42.627  27.547  29.165  1.00  0.00     0.167 HD
ATOM     53  C   UNL A   1      44.095  31.224  31.030  1.00  0.00     0.037 A 
ATOM     54  C   UNL A   1      42.913  25.004  28.044  1.00  0.00     0.037 A 
ATOM     55  C   UNL A   1      45.226  30.334  31.007  1.00  0.00     0.049 A 
ATOM     56  C   UNL A   1      44.268  25.387  28.572  1.00  0.00     0.074 A 
ATOM     57  C   UNL A   1      46.497  30.545  31.511  1.00  0.00     0.029 A 
ATOM     58  N   UNL A   1      45.222  29.066  30.449  1.00  0.00    -0.354 N 
ATOM     59  N   UNL A   1      44.639  26.488  29.179  1.00  0.00    -0.248 NA
ATOM     60  C   UNL A   1      45.347  24.402  28.405  1.00  0.00     0.031 C 
ATOM     61  C   UNL A   1      47.276  29.422  31.217  1.00  0.00     0.029 A 
ATOM     62  C   UNL A   1      46.475  28.490  30.578  1.00  0.00     0.049 A 
ATOM     63  H   UNL A   1      44.444  28.638  30.023  1.00  0.00     0.167 HD
ATOM     64  C   UNL A   1      45.981  26.316  29.496  1.00  0.00     0.074 A 
ATOM     65  C   UNL A   1      46.354  24.998  29.025  1.00  0.00     0.031 C 
ATOM     66  C   UNL A   1      46.828  27.170  30.119  1.00  0.00     0.037 A 
BRANCH  53  67
ATOM     67  C   UNL A   1      44.284  32.594  31.616  1.00  0.00     0.057 A 
ATOM     68  C   UNL A   1      44.057  32.854  32.975  1.00  0.00     0.134 A 
ATOM     69  C   UNL A   1      44.749  33.653  30.826  1.00  0.00     0.134 A 
ATOM     70  F   UNL A   1      43.600  31.888  33.785  1.00  0.00    -0.206 F 
ATOM     71  C   UNL A   1      44.267  34.122  33.521  1.00  0.00     0.040 A 
ATOM     72  C   UNL A   1      44.989  34.917  31.366  1.00  0.00     0.040 A 
ATOM     73  F   UNL A   1      44.993  33.472  29.519  1.00  0.00    -0.206 F 
ATOM     74  C   UNL A   1      44.744  35.156  32.716  1.00  0.00     0.006 A 
ENDBRANCH  53  67
BRANCH  54  75
ATOM     75  C   UNL A   1      42.703  23.690  27.385  1.00  0.00     0.057 A 
ATOM     76  C   UNL A   1      42.344  22.557  28.125  1.00  0.00     0.134 A 
ATOM     77  C   UNL A   1      42.881  23.527  26.006  1.00  0.00     0.134 A 
ATOM     78  F   UNL A   1      42.176  22.645  29.453  1.00  0.00    -0.206 F 
ATOM     79  C   UNL A   1      42.199  21.305  27.525  1.00  0.00     0.040 A 
ATOM     80  C   UNL A   1      42.712  22.286  25.388  1.00  0.00     0.040 A 
ATOM     81  F   UNL A   1      43.216  24.573  25.237  1.00  0.00    -0.206 F 
ATOM     82  C   UNL A   1      42.380  21.169  26.151  1.00  0.00     0.006 A 
ENDBRANCH  54  75
BRANCH  66  83
ATOM     83  C   UNL A   1      48.227  26.690  30.376  1.00  0.00     0.057 A 
ATOM     84  C   UNL A   1      48.565  25.971  31.528  1.00  0.00     0.134 A 
ATOM     85  C   UNL A   1      49.239  26.919  29.435  1.00  0.00     0.134 A 
ATOM     86  F   UNL A   1      47.646  25.730  32.475  1.00  0.00    -0.206 F 
ATOM     87  C   UNL A   1      49.869  25.520  31.749  1.00  0.00     0.040 A 
ATOM     88  C   UNL A   1      50.537  26.447  29.629  1.00  0.00     0.040 A 
ATOM     89  F   UNL A   1      48.978  27.592  28.303  1.00  0.00    -0.206 F 
ATOM     90  C   UNL A   1      50.856  25.751  30.793  1.00  0.00     0.006 A 
ENDBRANCH  66  83
ENDBRANCH  40  41
ENDBRANCH  32  35
ENDBRANCH  30  31
ENDBRANCH  29  30
ENDBRANCH  28  29
ENDBRANCH  27  28
ENDBRANCH   1  27
TORSDOF 17
ENDMDL
MODEL 2
REMARK VINA RESULT:     -11.2      1.175      2.290
REMARK SMILES C[C@@H](Oc1ccccc1Cl)C(=O)Nc1ccc(C(=O)NCCCCCCNC(=O)c2ccc(-c3c4nc(c(-c5c(F)cccc5F)c5ccc([nH]5)c(-c5c(F)cccc5F)c5nc(c(-c6c(F)cccc6F)c6ccc3[nH]6)C=C5)C=C4)cc2)cc1
REMARK SMILES IDX 22 1 21 2 20 3 18 4 19 5 17 7 14 8 15 9 85 10 16 11 84 12
REMARK SMILES IDX 13 13 11 14 12 15 2 17 1 18 3 19 4 20 5 21 9 22 6 23 8 24
REMARK SMILES IDX 10 25 7 26 23 27 24 28 25 29 26 30 27 31 28 32 29 34 30 35
REMARK SMILES IDX 31 36 83 37 32 38 82 39 33 40 34 41 35 42 76 43 36 44 81 45
REMARK SMILES IDX 75 46 77 47 37 48 80 49 74 50 73 51 38 53 64 54 47 55 63 56
REMARK SMILES IDX 48 57 51 58 62 59 78 60 49 61 50 62 61 64 79 65 52 66 39 67
REMARK SMILES IDX 40 68 45 69 41 70 42 71 44 72 46 73 43 74 65 75 66 76 71 77
REMARK SMILES IDX 67 78 68 79 70 80 72 81 69 82 53 83 54 84 59 85 55 86 56 87
REMARK SMILES IDX 58 88 60 89 57 90
REMARK H PARENT 20 6 13 16 27 33 77 52 51 63
REMARK Flexibility Score: inf
ROOT
ATOM      1  C   UNL A   1      33.639  28.119  23.739  1.00  0.00     0.021 C 
ENDROOT
BRANCH   1   2
ATOM      2  C   UNL A   1      32.997  27.749  22.403  1.00  0.00     0.116 C 
BRANCH   2   3
ATOM      3  N   UNL A   1      31.896  26.825  22.608  1.00  0.00    -0.352 N 
ATOM      4  C   UNL A   1      31.862  25.549  23.110  1.00  0.00     0.251 C 
ATOM      5  O   UNL A   1      30.771  24.993  23.232  1.00  0.00    -0.269 OA
ATOM      6  H   UNL A   1      31.017  27.177  22.338  1.00  0.00     0.163 HD
BRANCH   4   7
ATOM      7  C   UNL A   1      33.085  24.861  23.595  1.00  0.00     0.039 A 
ATOM      8  C   UNL A   1      35.563  23.976  24.518  1.00  0.00     0.041 A 
ATOM      9  C   UNL A   1      34.698  24.627  25.395  1.00  0.00     0.027 A 
ATOM     10  C   UNL A   1      35.121  23.605  23.249  1.00  0.00     0.027 A 
ATOM     11  C   UNL A   1      33.474  25.099  24.921  1.00  0.00     0.016 A 
ATOM     12  C   UNL A   1      33.866  24.018  22.800  1.00  0.00     0.016 A 
BRANCH   8  13
ATOM     13  N   UNL A   1      36.866  23.716  24.940  1.00  0.00    -0.323 N 
ATOM     14  C   UNL A   1      37.425  22.503  25.247  1.00  0.00     0.265 C 
ATOM     15  O   UNL A   1      38.597  22.502  25.649  1.00  0.00    -0.270 OA
ATOM     16  H   UNL A   1      37.456  24.499  25.028  1.00  0.00     0.170 HD
BRANCH  14  17
ATOM     17  C   UNL A   1      36.675  21.154  25.062  1.00  0.00     0.259 C 
ATOM     18  C   UNL A   1      37.686  20.022  24.919  1.00  0.00     0.064 C 
BRANCH  17  19
ATOM     19  O   UNL A   1      35.731  20.852  26.091  1.00  0.00    -0.479 OA
BRANCH  19  20
ATOM     20  C   UNL A   1      34.418  20.932  25.708  1.00  0.00     0.139 A 
ATOM     21  C   UNL A   1      34.038  20.425  24.462  1.00  0.00     0.048 A 
ATOM     22  C   UNL A   1      33.492  21.655  26.471  1.00  0.00     0.083 A 
ATOM     23  C   UNL A   1      32.733  20.617  23.997  1.00  0.00     0.004 A 
ATOM     24  C   UNL A   1      32.190  21.846  26.002  1.00  0.00     0.024 A 
ATOM     25  Cl  UNL A   1      33.899  22.339  28.002  1.00  0.00    -0.080 Cl
ATOM     26  C   UNL A   1      31.810  21.327  24.765  1.00  0.00     0.002 A 
ENDBRANCH  19  20
ENDBRANCH  17  19
ENDBRANCH  14  17
ENDBRANCH   8  13
ENDBRANCH   4   7
ENDBRANCH   2   3
ENDBRANCH   1   2
BRANCH   1  27
ATOM     27  C   UNL A   1      32.990  29.341  24.401  1.00  0.00     0.002 C 
BRANCH  27  28
ATOM     28  C   UNL A   1      31.944  29.009  25.473  1.00  0.00     0.002 C 
BRANCH  28  29
ATOM     29  C   UNL A   1      32.447  28.129  26.620  1.00  0.00     0.021 C 
BRANCH  29  30
ATOM     30  C   UNL A   1      33.764  28.586  27.237  1.00  0.00     0.116 C 
BRANCH  30  31
ATOM     31  N   UNL A   1      33.710  29.974  27.671  1.00  0.00    -0.352 N 
ATOM     32  C   UNL A   1      34.644  30.710  28.351  1.00  0.00     0.251 C 
ATOM     33  H   UNL A   1      32.881  30.454  27.444  1.00  0.00     0.163 HD
ATOM     34  O   UNL A   1      34.344  31.808  28.820  1.00  0.00    -0.269 OA
BRANCH  32  35
ATOM     35  C   UNL A   1      36.011  30.183  28.536  1.00  0.00     0.039 A 
ATOM     36  C   UNL A   1      36.904  30.224  27.462  1.00  0.00     0.014 A 
ATOM     37  C   UNL A   1      36.409  29.633  29.759  1.00  0.00     0.014 A 
ATOM     38  C   UNL A   1      38.211  29.761  27.630  1.00  0.00     0.010 A 
ATOM     39  C   UNL A   1      37.732  29.242  29.946  1.00  0.00     0.010 A 
ATOM     40  C   UNL A   1      38.644  29.295  28.882  1.00  0.00    -0.014 A 
BRANCH  40  41
ATOM     41  C   UNL A   1      40.047  28.857  29.093  1.00  0.00     0.031 A 
ATOM     42  C   UNL A   1      41.049  29.794  29.709  1.00  0.00     0.074 A 
ATOM     43  C   UNL A   1      40.432  27.634  28.677  1.00  0.00     0.049 A 
ATOM     44  N   UNL A   1      42.328  29.615  29.919  1.00  0.00    -0.248 NA
ATOM     45  C   UNL A   1      40.554  31.117  30.122  1.00  0.00     0.031 C 
ATOM     46  C   UNL A   1      39.567  26.651  28.022  1.00  0.00     0.029 A 
ATOM     47  N   UNL A   1      41.655  27.013  28.735  1.00  0.00    -0.354 N 
ATOM     48  C   UNL A   1      42.792  30.802  30.472  1.00  0.00     0.074 A 
ATOM     49  C   UNL A   1      41.670  31.714  30.517  1.00  0.00     0.031 C 
ATOM     50  C   UNL A   1      40.280  25.545  27.758  1.00  0.00     0.029 A 
ATOM     51  C   UNL A   1      41.658  25.752  28.189  1.00  0.00     0.049 A 
ATOM     52  H   UNL A   1      42.453  27.432  29.130  1.00  0.00     0.167 HD
ATOM     53  C   UNL A   1      44.034  31.098  30.923  1.00  0.00     0.037 A 
ATOM     54  C   UNL A   1      42.662  24.866  28.044  1.00  0.00     0.037 A 
ATOM     55  C   UNL A   1      45.143  30.180  30.900  1.00  0.00     0.049 A 
ATOM     56  C   UNL A   1      44.033  25.223  28.551  1.00  0.00     0.074 A 
ATOM     57  C   UNL A   1      46.424  30.366  31.387  1.00  0.00     0.029 A 
ATOM     58  N   UNL A   1      45.100  28.904  30.361  1.00  0.00    -0.354 N 
ATOM     59  N   UNL A   1      44.439  26.323  29.137  1.00  0.00    -0.248 NA
ATOM     60  C   UNL A   1      45.085  24.209  28.386  1.00  0.00     0.031 C 
ATOM     61  C   UNL A   1      47.171  29.219  31.100  1.00  0.00     0.029 A 
ATOM     62  C   UNL A   1      46.340  28.299  30.485  1.00  0.00     0.049 A 
ATOM     63  H   UNL A   1      44.306  28.489  29.951  1.00  0.00     0.167 HD
ATOM     64  C   UNL A   1      45.779  26.122  29.441  1.00  0.00     0.074 A 
ATOM     65  C   UNL A   1      46.114  24.788  28.986  1.00  0.00     0.031 C 
ATOM     66  C   UNL A   1      46.655  26.964  30.042  1.00  0.00     0.037 A 
BRANCH  53  67
ATOM     67  C   UNL A   1      44.264  32.471  31.486  1.00  0.00     0.057 A 
ATOM     68  C   UNL A   1      44.097  32.748  32.850  1.00  0.00     0.134 A 
ATOM     69  C   UNL A   1      44.710  33.516  30.667  1.00  0.00     0.134 A 
ATOM     70  F   UNL A   1      43.662  31.795  33.688  1.00  0.00    -0.206 F 
ATOM     71  C   UNL A   1      44.344  34.018  33.374  1.00  0.00     0.040 A 
ATOM     72  C   UNL A   1      44.987  34.782  31.183  1.00  0.00     0.040 A 
ATOM     73  F   UNL A   1      44.897  33.319  29.352  1.00  0.00    -0.206 F 
ATOM     74  C   UNL A   1      44.801  35.037  32.539  1.00  0.00     0.006 A 
ENDBRANCH  53  67
BRANCH  54  75
ATOM     75  C   UNL A   1      42.412  23.548  27.407  1.00  0.00     0.057 A 
ATOM     76  C   UNL A   1      42.076  22.425  28.173  1.00  0.00     0.134 A 
ATOM     77  C   UNL A   1      42.529  23.371  26.023  1.00  0.00     0.134 A 
ATOM     78  F   UNL A   1      41.967  22.527  29.506  1.00  0.00    -0.206 F 
ATOM     79  C   UNL A   1      41.894  21.169  27.591  1.00  0.00     0.040 A 
ATOM     80  C   UNL A   1      42.322  22.127  25.424  1.00  0.00     0.040 A 
ATOM     81  F   UNL A   1      42.839  24.408  25.231  1.00  0.00    -0.206 F 
ATOM     82  C   UNL A   1      42.014  21.019  26.212  1.00  0.00     0.006 A 
ENDBRANCH  54  75
BRANCH  66  83
ATOM     83  C   UNL A   1      48.044  26.453  30.289  1.00  0.00     0.057 A 
ATOM     84  C   UNL A   1      49.079  26.639  29.366  1.00  0.00     0.134 A 
ATOM     85  C   UNL A   1      48.356  25.798  31.488  1.00  0.00     0.134 A 
ATOM     86  F   UNL A   1      48.845  27.246  28.193  1.00  0.00    -0.206 F 
ATOM     87  C   UNL A   1      50.370  26.167  29.614  1.00  0.00     0.040 A 
ATOM     88  C   UNL A   1      49.648  25.350  31.761  1.00  0.00     0.040 A 
ATOM     89  F   UNL A   1      47.411  25.597  32.420  1.00  0.00    -0.206 F 
ATOM     90  C   UNL A   1      50.658  25.528  30.818  1.00  0.00     0.006 A 
ENDBRANCH  66  83
ENDBRANCH  40  41
ENDBRANCH  32  35
ENDBRANCH  30  31
ENDBRANCH  29  30
ENDBRANCH  28  29
ENDBRANCH  27  28
ENDBRANCH   1  27
TORSDOF 17
ENDMDL
MODEL 3
REMARK VINA RESULT:     -11.1      3.596      5.068
REMARK SMILES C[C@@H](Oc1ccccc1Cl)C(=O)Nc1ccc(C(=O)NCCCCCCNC(=O)c2ccc(-c3c4nc(c(-c5c(F)cccc5F)c5ccc([nH]5)c(-c5c(F)cccc5F)c5nc(c(-c6c(F)cccc6F)c6ccc3[nH]6)C=C5)C=C4)cc2)cc1
REMARK SMILES IDX 22 1 21 2 20 3 18 4 19 5 17 7 14 8 15 9 85 10 16 11 84 12
REMARK SMILES IDX 13 13 11 14 12 15 2 17 1 18 3 19 4 20 5 21 9 22 6 23 8 24
REMARK SMILES IDX 10 25 7 26 23 27 24 28 25 29 26 30 27 31 28 32 29 34 30 35
REMARK SMILES IDX 31 36 83 37 32 38 82 39 33 40 34 41 35 42 76 43 36 44 81 45
REMARK SMILES IDX 75 46 77 47 37 48 80 49 74 50 73 51 38 53 64 54 47 55 63 56
REMARK SMILES IDX 48 57 51 58 62 59 78 60 49 61 50 62 61 64 79 65 52 66 39 67
REMARK SMILES IDX 40 68 45 69 41 70 42 71 44 72 46 73 43 74 65 75 66 76 71 77
REMARK SMILES IDX 67 78 68 79 70 80 72 81 69 82 53 83 54 84 59 85 55 86 56 87
REMARK SMILES IDX 58 88 60 89 57 90
REMARK H PARENT 20 6 13 16 27 33 77 52 51 63
REMARK Flexibility Score: inf
ROOT
ATOM      1  C   UNL A   1      31.276  28.701  25.019  1.00  0.00     0.021 C 
ENDROOT
BRANCH   1   2
ATOM      2  C   UNL A   1      30.727  28.625  23.594  1.00  0.00     0.116 C 
BRANCH   2   3
ATOM      3  N   UNL A   1      29.371  28.106  23.600  1.00  0.00    -0.352 N 
ATOM      4  C   UNL A   1      28.878  26.856  23.874  1.00  0.00     0.251 C 
ATOM      5  O   UNL A   1      27.658  26.689  23.862  1.00  0.00    -0.269 OA
ATOM      6  H   UNL A   1      28.684  28.771  23.364  1.00  0.00     0.163 HD
BRANCH   4   7
ATOM      7  C   UNL A   1      29.760  25.732  24.275  1.00  0.00     0.039 A 
ATOM      8  C   UNL A   1      31.093  23.359  24.878  1.00  0.00     0.041 A 
ATOM      9  C   UNL A   1      30.998  23.772  23.552  1.00  0.00     0.027 A 
ATOM     10  C   UNL A   1      30.694  24.212  25.906  1.00  0.00     0.027 A 
ATOM     11  C   UNL A   1      30.301  24.942  23.250  1.00  0.00     0.016 A 
ATOM     12  C   UNL A   1      30.059  25.418  25.603  1.00  0.00     0.016 A 
BRANCH   8  13
ATOM     13  N   UNL A   1      31.588  22.082  25.143  1.00  0.00    -0.323 N 
ATOM     14  C   UNL A   1      32.699  21.744  25.870  1.00  0.00     0.265 C 
ATOM     15  O   UNL A   1      32.987  20.541  25.943  1.00  0.00    -0.270 OA
ATOM     16  H   UNL A   1      31.076  21.333  24.761  1.00  0.00     0.170 HD
BRANCH  14  17
ATOM     17  C   UNL A   1      33.562  22.788  26.632  1.00  0.00     0.259 C 
ATOM     18  C   UNL A   1      33.971  22.223  27.988  1.00  0.00     0.064 C 
BRANCH  17  19
ATOM     19  O   UNL A   1      34.711  23.247  25.918  1.00  0.00    -0.479 OA
BRANCH  19  20
ATOM     20  C   UNL A   1      34.497  24.346  25.129  1.00  0.00     0.139 A 
ATOM     21  C   UNL A   1      34.119  25.552  25.727  1.00  0.00     0.048 A 
ATOM     22  C   UNL A   1      34.492  24.237  23.732  1.00  0.00     0.083 A 
ATOM     23  C   UNL A   1      33.766  26.648  24.932  1.00  0.00     0.004 A 
ATOM     24  C   UNL A   1      34.137  25.333  22.942  1.00  0.00     0.024 A 
ATOM     25  Cl  UNL A   1      34.913  22.771  22.926  1.00  0.00    -0.080 Cl
ATOM     26  C   UNL A   1      33.774  26.538  23.541  1.00  0.00     0.002 A 
ENDBRANCH  19  20
ENDBRANCH  17  19
ENDBRANCH  14  17
ENDBRANCH   8  13
ENDBRANCH   4   7
ENDBRANCH   2   3
ENDBRANCH   1   2
BRANCH   1  27
ATOM     27  C   UNL A   1      31.901  30.062  25.350  1.00  0.00     0.002 C 
BRANCH  27  28
ATOM     28  C   UNL A   1      31.636  30.559  26.777  1.00  0.00     0.002 C 
BRANCH  28  29
ATOM     29  C   UNL A   1      31.462  32.073  26.917  1.00  0.00     0.021 C 
BRANCH  29  30
ATOM     30  C   UNL A   1      32.768  32.857  26.979  1.00  0.00     0.116 C 
BRANCH  30  31
ATOM     31  N   UNL A   1      32.586  34.174  27.572  1.00  0.00    -0.352 N 
ATOM     32  C   UNL A   1      33.182  34.720  28.678  1.00  0.00     0.251 C 
ATOM     33  H   UNL A   1      31.939  34.756  27.112  1.00  0.00     0.163 HD
ATOM     34  O   UNL A   1      32.752  35.770  29.156  1.00  0.00    -0.269 OA
BRANCH  32  35
ATOM     35  C   UNL A   1      34.335  34.045  29.307  1.00  0.00     0.039 A 
ATOM     36  C   UNL A   1      34.101  32.998  30.202  1.00  0.00     0.014 A 
ATOM     37  C   UNL A   1      35.643  34.455  29.032  1.00  0.00     0.014 A 
ATOM     38  C   UNL A   1      35.181  32.327  30.779  1.00  0.00     0.010 A 
ATOM     39  C   UNL A   1      36.718  33.737  29.551  1.00  0.00     0.010 A 
ATOM     40  C   UNL A   1      36.498  32.671  30.435  1.00  0.00    -0.014 A 
BRANCH  40  41
ATOM     41  C   UNL A   1      37.656  31.928  30.993  1.00  0.00     0.031 A 
ATOM     42  C   UNL A   1      38.173  32.254  32.367  1.00  0.00     0.074 A 
ATOM     43  C   UNL A   1      38.278  30.999  30.239  1.00  0.00     0.049 A 
ATOM     44  N   UNL A   1      39.206  31.758  33.001  1.00  0.00    -0.248 NA
ATOM     45  C   UNL A   1      37.450  33.291  33.120  1.00  0.00     0.031 C 
ATOM     46  C   UNL A   1      37.902  30.627  28.874  1.00  0.00     0.029 A 
ATOM     47  N   UNL A   1      39.364  30.206  30.513  1.00  0.00    -0.354 N 
ATOM     48  C   UNL A   1      39.265  32.431  34.215  1.00  0.00     0.074 A 
ATOM     49  C   UNL A   1      38.197  33.406  34.210  1.00  0.00     0.031 C 
ATOM     50  C   UNL A   1      38.729  29.665  28.437  1.00  0.00     0.029 A 
ATOM     51  C   UNL A   1      39.716  29.379  29.473  1.00  0.00     0.049 A 
ATOM     52  H   UNL A   1      39.845  30.229  31.371  1.00  0.00     0.167 HD
ATOM     53  C   UNL A   1      40.116  32.237  35.250  1.00  0.00     0.037 A 
ATOM     54  C   UNL A   1      40.727  28.494  29.365  1.00  0.00     0.037 A 
ATOM     55  C   UNL A   1      41.162  31.247  35.263  1.00  0.00     0.049 A 
ATOM     56  C   UNL A   1      41.660  28.302  30.530  1.00  0.00     0.074 A 
ATOM     57  C   UNL A   1      42.039  30.935  36.286  1.00  0.00     0.029 A 
ATOM     58  N   UNL A   1      41.471  30.412  34.201  1.00  0.00    -0.354 N 
ATOM     59  N   UNL A   1      41.658  28.896  31.699  1.00  0.00    -0.248 NA
ATOM     60  C   UNL A   1      42.731  27.309  30.363  1.00  0.00     0.031 C 
ATOM     61  C   UNL A   1      42.910  29.943  35.828  1.00  0.00     0.029 A 
ATOM     62  C   UNL A   1      42.540  29.599  34.538  1.00  0.00     0.049 A 
ATOM     63  H   UNL A   1      41.002  30.400  33.335  1.00  0.00     0.167 HD
ATOM     64  C   UNL A   1      42.701  28.325  32.418  1.00  0.00     0.074 A 
ATOM     65  C   UNL A   1      43.305  27.329  31.557  1.00  0.00     0.031 C 
ATOM     66  C   UNL A   1      43.121  28.600  33.676  1.00  0.00     0.037 A 
BRANCH  53  67
ATOM     67  C   UNL A   1      39.952  33.109  36.461  1.00  0.00     0.057 A 
ATOM     68  C   UNL A   1      39.070  32.775  37.498  1.00  0.00     0.134 A 
ATOM     69  C   UNL A   1      40.724  34.267  36.620  1.00  0.00     0.134 A 
ATOM     70  F   UNL A   1      38.294  31.685  37.405  1.00  0.00    -0.206 F 
ATOM     71  C   UNL A   1      38.947  33.572  38.638  1.00  0.00     0.040 A 
ATOM     72  C   UNL A   1      40.630  35.057  37.767  1.00  0.00     0.040 A 
ATOM     73  F   UNL A   1      41.593  34.643  35.669  1.00  0.00    -0.206 F 
ATOM     74  C   UNL A   1      39.736  34.712  38.778  1.00  0.00     0.006 A 
ENDBRANCH  53  67
BRANCH  54  75
ATOM     75  C   UNL A   1      40.904  27.708  28.118  1.00  0.00     0.057 A 
ATOM     76  C   UNL A   1      41.648  28.211  27.044  1.00  0.00     0.134 A 
ATOM     77  C   UNL A   1      40.314  26.449  27.957  1.00  0.00     0.134 A 
ATOM     78  F   UNL A   1      42.224  29.420  27.130  1.00  0.00    -0.206 F 
ATOM     79  C   UNL A   1      41.775  27.506  25.846  1.00  0.00     0.040 A 
ATOM     80  C   UNL A   1      40.455  25.720  26.775  1.00  0.00     0.040 A 
ATOM     81  F   UNL A   1      39.596  25.905  28.951  1.00  0.00    -0.206 F 
ATOM     82  C   UNL A   1      41.179  26.254  25.712  1.00  0.00     0.006 A 
ENDBRANCH  54  75
BRANCH  66  83
ATOM     83  C   UNL A   1      44.255  27.780  34.219  1.00  0.00     0.057 A 
ATOM     84  C   UNL A   1      45.584  28.214  34.151  1.00  0.00     0.134 A 
ATOM     85  C   UNL A   1      44.005  26.555  34.852  1.00  0.00     0.134 A 
ATOM     86  F   UNL A   1      45.893  29.370  33.546  1.00  0.00    -0.206 F 
ATOM     87  C   UNL A   1      46.629  27.445  34.670  1.00  0.00     0.040 A 
ATOM     88  C   UNL A   1      45.037  25.793  35.402  1.00  0.00     0.040 A 
ATOM     89  F   UNL A   1      42.752  26.087  34.961  1.00  0.00    -0.206 F 
ATOM     90  C   UNL A   1      46.354  26.235  35.305  1.00  0.00     0.006 A 
ENDBRANCH  66  83
ENDBRANCH  40  41
ENDBRANCH  32  35
ENDBRANCH  30  31
ENDBRANCH  29  30
ENDBRANCH  28  29
ENDBRANCH  27  28
ENDBRANCH   1  27
TORSDOF 17
ENDMDL
