MODEL 1
REMARK VINA RESULT:     -12.9      0.000      0.000
REMARK SMILES NS(=O)(=O)c1ccc(-n2nc(C(=O)NCCCCCCNC(=O)c3ccc(-c4c5nc(c(-c6c(F)cccc6F)c6ccc([nH]6)c(-c6c(F)cccc6F)c6nc(c(-c7c(F)cccc7F)c7ccc4[nH]7)C=C6)C=C5)cc3)cc2-c2cc3ccccc3s2)cc1
REMARK SMILES IDX 17 1 16 2 15 3 14 4 12 5 13 6 11 8 9 9 10 10 79 11 78 12
REMARK SMILES IDX 8 13 5 14 6 15 90 16 7 17 89 18 2 19 3 20 4 21 1 22 80 25
REMARK SMILES IDX 81 26 88 27 82 28 87 29 83 30 86 31 84 32 85 33 18 34 19 35
REMARK SMILES IDX 20 36 21 37 22 38 23 40 24 41 25 42 77 43 26 44 76 45 27 46
REMARK SMILES IDX 28 47 29 48 70 49 30 50 75 51 69 52 71 53 31 54 74 55 68 56
REMARK SMILES IDX 67 57 32 59 58 60 41 61 57 62 42 63 45 64 56 65 72 66 43 67
REMARK SMILES IDX 44 68 55 70 73 71 46 72 33 73 34 74 39 75 35 76 36 77 38 78
REMARK SMILES IDX 40 79 37 80 59 81 60 82 65 83 61 84 62 85 64 86 66 87 63 88
REMARK SMILES IDX 47 89 48 90 53 91 49 92 50 93 52 94 54 95 51 96
REMARK H PARENT 14 7 1 23 1 24 21 39 71 58 45 69
REMARK Flexibility Score: inf
ROOT
ATOM      1  C   UNL A   1      31.962  28.023  27.404  1.00  0.00     0.002 C 
ENDROOT
BRANCH   1   2
ATOM      2  C   UNL A   1      32.005  26.803  26.471  1.00  0.00     0.021 C 
BRANCH   2   3
ATOM      3  C   UNL A   1      30.655  26.454  25.837  1.00  0.00     0.116 C 
BRANCH   3   4
ATOM      4  N   UNL A   1      29.931  25.466  26.626  1.00  0.00    -0.351 N 
ATOM      5  C   UNL A   1      29.892  24.082  26.608  1.00  0.00     0.271 C 
ATOM      6  O   UNL A   1      29.242  23.544  27.506  1.00  0.00    -0.267 OA
ATOM      7  H   UNL A   1      29.351  25.865  27.314  1.00  0.00     0.163 HD
BRANCH   5   8
ATOM      8  C   UNL A   1      30.645  23.309  25.599  1.00  0.00     0.151 A 
ATOM      9  N   UNL A   1      32.028  21.841  24.847  1.00  0.00    -0.231 N 
ATOM     10  N   UNL A   1      31.130  22.072  25.844  1.00  0.00    -0.162 NA
ATOM     11  C   UNL A   1      32.096  22.911  23.990  1.00  0.00     0.085 A 
ATOM     12  C   UNL A   1      30.981  23.670  24.284  1.00  0.00     0.066 A 
BRANCH   9  13
ATOM     13  C   UNL A   1      32.536  20.545  24.611  1.00  0.00     0.065 A 
ATOM     14  C   UNL A   1      33.387  17.915  24.352  1.00  0.00     0.082 A 
ATOM     15  C   UNL A   1      32.629  18.504  23.332  1.00  0.00     0.024 A 
ATOM     16  C   UNL A   1      33.723  18.633  25.501  1.00  0.00     0.024 A 
ATOM     17  C   UNL A   1      32.182  19.821  23.469  1.00  0.00     0.030 A 
ATOM     18  C   UNL A   1      33.321  19.963  25.618  1.00  0.00     0.030 A 
BRANCH  14  19
ATOM     19  S   UNL A   1      33.893  16.231  24.164  1.00  0.00     0.238 S 
ATOM     20  O   UNL A   1      34.420  16.059  22.835  1.00  0.00    -0.207 OA
ATOM     21  O   UNL A   1      32.862  15.380  24.719  1.00  0.00    -0.207 OA
BRANCH  19  22
ATOM     22  N   UNL A   1      35.202  16.063  25.208  1.00  0.00    -0.225 NA
ATOM     23  H   UNL A   1      35.929  15.508  24.756  1.00  0.00     0.137 HD
ATOM     24  H   UNL A   1      34.898  15.595  26.061  1.00  0.00     0.137 HD
ENDBRANCH  19  22
ENDBRANCH  14  19
ENDBRANCH   9  13
BRANCH  11  25
ATOM     25  C   UNL A   1      33.095  23.280  23.028  1.00  0.00     0.054 A 
ATOM     26  C   UNL A   1      32.843  23.906  21.816  1.00  0.00     0.031 A 
ATOM     27  S   UNL A   1      34.529  24.042  23.657  1.00  0.00    -0.134 S 
ATOM     28  C   UNL A   1      33.001  25.330  22.060  1.00  0.00    -0.007 A 
ATOM     29  C   UNL A   1      33.846  25.558  23.156  1.00  0.00     0.035 A 
ATOM     30  C   UNL A   1      32.346  26.439  21.481  1.00  0.00     0.009 A 
ATOM     31  C   UNL A   1      34.019  26.831  23.722  1.00  0.00     0.019 A 
ATOM     32  C   UNL A   1      32.460  27.699  22.079  1.00  0.00     0.001 A 
ATOM     33  C   UNL A   1      33.275  27.887  23.191  1.00  0.00     0.001 A 
ENDBRANCH  11  25
ENDBRANCH   5   8
ENDBRANCH   3   4
ENDBRANCH   2   3
ENDBRANCH   1   2
BRANCH   1  34
ATOM     34  C   UNL A   1      32.596  29.317  26.865  1.00  0.00     0.002 C 
BRANCH  34  35
ATOM     35  C   UNL A   1      34.061  29.242  26.411  1.00  0.00     0.021 C 
BRANCH  35  36
ATOM     36  C   UNL A   1      35.031  28.790  27.493  1.00  0.00     0.116 C 
BRANCH  36  37
ATOM     37  N   UNL A   1      35.184  29.775  28.565  1.00  0.00    -0.352 N 
ATOM     38  C   UNL A   1      36.226  29.919  29.461  1.00  0.00     0.251 C 
ATOM     39  H   UNL A   1      34.448  30.422  28.658  1.00  0.00     0.163 HD
ATOM     40  O   UNL A   1      36.058  30.494  30.530  1.00  0.00    -0.269 OA
BRANCH  38  41
ATOM     41  C   UNL A   1      37.555  29.388  29.108  1.00  0.00     0.039 A 
ATOM     42  C   UNL A   1      38.199  29.738  27.917  1.00  0.00     0.014 A 
ATOM     43  C   UNL A   1      38.150  28.497  29.996  1.00  0.00     0.014 A 
ATOM     44  C   UNL A   1      39.467  29.219  27.663  1.00  0.00     0.010 A 
ATOM     45  C   UNL A   1      39.461  28.144  29.840  1.00  0.00     0.010 A 
ATOM     46  C   UNL A   1      40.091  28.427  28.638  1.00  0.00    -0.014 A 
BRANCH  46  47
ATOM     47  C   UNL A   1      41.464  27.965  28.491  1.00  0.00     0.031 A 
ATOM     48  C   UNL A   1      41.568  26.694  27.736  1.00  0.00     0.074 A 
ATOM     49  C   UNL A   1      42.532  28.739  28.792  1.00  0.00     0.049 A 
ATOM     50  N   UNL A   1      41.852  25.528  28.207  1.00  0.00    -0.248 NA
ATOM     51  C   UNL A   1      41.124  26.674  26.331  1.00  0.00     0.031 C 
ATOM     52  C   UNL A   1      42.526  30.142  29.236  1.00  0.00     0.029 A 
ATOM     53  N   UNL A   1      43.866  28.474  28.675  1.00  0.00    -0.354 N 
ATOM     54  C   UNL A   1      41.892  24.681  27.102  1.00  0.00     0.074 A 
ATOM     55  C   UNL A   1      41.208  25.372  26.044  1.00  0.00     0.031 C 
ATOM     56  C   UNL A   1      43.768  30.664  29.133  1.00  0.00     0.029 A 
ATOM     57  C   UNL A   1      44.689  29.594  28.797  1.00  0.00     0.049 A 
ATOM     58  H   UNL A   1      44.218  27.568  28.515  1.00  0.00     0.167 HD
ATOM     59  C   UNL A   1      42.781  23.651  27.070  1.00  0.00     0.037 A 
ATOM     60  C   UNL A   1      46.035  29.636  28.650  1.00  0.00     0.037 A 
ATOM     61  C   UNL A   1      43.361  23.455  28.377  1.00  0.00     0.049 A 
ATOM     62  C   UNL A   1      46.538  28.259  28.841  1.00  0.00     0.074 A 
ATOM     63  C   UNL A   1      42.961  22.929  29.585  1.00  0.00     0.029 A 
ATOM     64  N   UNL A   1      44.443  24.261  28.616  1.00  0.00    -0.354 N 
ATOM     65  N   UNL A   1      46.495  27.637  29.984  1.00  0.00    -0.248 NA
ATOM     66  C   UNL A   1      46.761  27.413  27.673  1.00  0.00     0.031 C 
ATOM     67  C   UNL A   1      43.744  23.586  30.581  1.00  0.00     0.029 A 
ATOM     68  C   UNL A   1      44.637  24.453  29.956  1.00  0.00     0.049 A 
ATOM     69  H   UNL A   1      45.010  24.652  27.912  1.00  0.00     0.167 HD
ATOM     70  C   UNL A   1      46.239  26.324  29.644  1.00  0.00     0.074 A 
ATOM     71  C   UNL A   1      46.596  26.212  28.235  1.00  0.00     0.031 C 
ATOM     72  C   UNL A   1      45.446  25.548  30.438  1.00  0.00     0.037 A 
BRANCH  59  73
ATOM     73  C   UNL A   1      43.522  23.171  25.835  1.00  0.00     0.057 A 
ATOM     74  C   UNL A   1      43.610  21.785  25.599  1.00  0.00     0.134 A 
ATOM     75  C   UNL A   1      44.401  23.959  25.064  1.00  0.00     0.134 A 
ATOM     76  F   UNL A   1      42.835  20.922  26.273  1.00  0.00    -0.206 F 
ATOM     77  C   UNL A   1      44.552  21.226  24.726  1.00  0.00     0.040 A 
ATOM     78  C   UNL A   1      45.312  23.414  24.154  1.00  0.00     0.040 A 
ATOM     79  F   UNL A   1      44.508  25.283  25.214  1.00  0.00    -0.206 F 
ATOM     80  C   UNL A   1      45.414  22.041  24.005  1.00  0.00     0.006 A 
ENDBRANCH  59  73
BRANCH  60  81
ATOM     81  C   UNL A   1      46.924  30.723  28.191  1.00  0.00     0.057 A 
ATOM     82  C   UNL A   1      46.769  31.310  26.925  1.00  0.00     0.134 A 
ATOM     83  C   UNL A   1      47.736  31.418  29.101  1.00  0.00     0.134 A 
ATOM     84  F   UNL A   1      45.989  30.735  25.999  1.00  0.00    -0.206 F 
ATOM     85  C   UNL A   1      47.353  32.542  26.598  1.00  0.00     0.040 A 
ATOM     86  C   UNL A   1      48.324  32.649  28.787  1.00  0.00     0.040 A 
ATOM     87  F   UNL A   1      47.899  30.969  30.354  1.00  0.00    -0.206 F 
ATOM     88  C   UNL A   1      48.118  33.224  27.538  1.00  0.00     0.006 A 
ENDBRANCH  60  81
BRANCH  72  89
ATOM     89  C   UNL A   1      45.295  25.966  31.867  1.00  0.00     0.057 A 
ATOM     90  C   UNL A   1      46.259  25.770  32.866  1.00  0.00     0.134 A 
ATOM     91  C   UNL A   1      44.139  26.666  32.227  1.00  0.00     0.134 A 
ATOM     92  F   UNL A   1      47.425  25.170  32.597  1.00  0.00    -0.206 F 
ATOM     93  C   UNL A   1      46.061  26.220  34.175  1.00  0.00     0.040 A 
ATOM     94  C   UNL A   1      43.943  27.148  33.520  1.00  0.00     0.040 A 
ATOM     95  F   UNL A   1      43.193  26.920  31.309  1.00  0.00    -0.206 F 
ATOM     96  C   UNL A   1      44.902  26.917  34.503  1.00  0.00     0.006 A 
ENDBRANCH  72  89
ENDBRANCH  46  47
ENDBRANCH  38  41
ENDBRANCH  36  37
ENDBRANCH  35  36
ENDBRANCH  34  35
ENDBRANCH   1  34
TORSDOF 17
ENDMDL
MODEL 2
REMARK VINA RESULT:     -12.5      1.728      5.780
REMARK SMILES NS(=O)(=O)c1ccc(-n2nc(C(=O)NCCCCCCNC(=O)c3ccc(-c4c5nc(c(-c6c(F)cccc6F)c6ccc([nH]6)c(-c6c(F)cccc6F)c6nc(c(-c7c(F)cccc7F)c7ccc4[nH]7)C=C6)C=C5)cc3)cc2-c2cc3ccccc3s2)cc1
REMARK SMILES IDX 17 1 16 2 15 3 14 4 12 5 13 6 11 8 9 9 10 10 79 11 78 12
REMARK SMILES IDX 8 13 5 14 6 15 90 16 7 17 89 18 2 19 3 20 4 21 1 22 80 25
REMARK SMILES IDX 81 26 88 27 82 28 87 29 83 30 86 31 84 32 85 33 18 34 19 35
REMARK SMILES IDX 20 36 21 37 22 38 23 40 24 41 25 42 77 43 26 44 76 45 27 46
REMARK SMILES IDX 28 47 29 48 70 49 30 50 75 51 69 52 71 53 31 54 74 55 68 56
REMARK SMILES IDX 67 57 32 59 58 60 41 61 57 62 42 63 45 64 56 65 72 66 43 67
REMARK SMILES IDX 44 68 55 70 73 71 46 72 33 73 34 74 39 75 35 76 36 77 38 78
REMARK SMILES IDX 40 79 37 80 59 81 60 82 65 83 61 84 62 85 64 86 66 87 63 88
REMARK SMILES IDX 47 89 48 90 53 91 49 92 50 93 52 94 54 95 51 96
REMARK H PARENT 14 7 1 23 1 24 21 39 71 58 45 69
REMARK Flexibility Score: inf
ROOT
ATOM      1  C   UNL A   1      32.273  27.332  26.999  1.00  0.00     0.002 C 
ENDROOT
BRANCH   1   2
ATOM      2  C   UNL A   1      30.935  27.571  26.284  1.00  0.00     0.021 C 
BRANCH   2   3
ATOM      3  C   UNL A   1      30.382  26.336  25.565  1.00  0.00     0.116 C 
BRANCH   3   4
ATOM      4  N   UNL A   1      29.809  25.381  26.503  1.00  0.00    -0.351 N 
ATOM      5  C   UNL A   1      29.901  24.004  26.628  1.00  0.00     0.271 C 
ATOM      6  O   UNL A   1      29.366  23.511  27.623  1.00  0.00    -0.267 OA
ATOM      7  H   UNL A   1      29.240  25.799  27.188  1.00  0.00     0.163 HD
BRANCH   5   8
ATOM      8  C   UNL A   1      30.657  23.196  25.650  1.00  0.00     0.151 A 
ATOM      9  N   UNL A   1      32.036  21.696  24.955  1.00  0.00    -0.231 N 
ATOM     10  N   UNL A   1      31.131  21.964  25.937  1.00  0.00    -0.162 NA
ATOM     11  C   UNL A   1      32.119  22.739  24.067  1.00  0.00     0.085 A 
ATOM     12  C   UNL A   1      31.006  23.515  24.328  1.00  0.00     0.066 A 
BRANCH   9  13
ATOM     13  C   UNL A   1      32.535  20.390  24.762  1.00  0.00     0.065 A 
ATOM     14  C   UNL A   1      33.316  17.735  24.531  1.00  0.00     0.082 A 
ATOM     15  C   UNL A   1      32.909  18.442  23.392  1.00  0.00     0.024 A 
ATOM     16  C   UNL A   1      33.337  18.349  25.786  1.00  0.00     0.024 A 
ATOM     17  C   UNL A   1      32.496  19.772  23.509  1.00  0.00     0.030 A 
ATOM     18  C   UNL A   1      32.973  19.690  25.896  1.00  0.00     0.030 A 
BRANCH  14  19
ATOM     19  S   UNL A   1      33.785  16.040  24.351  1.00  0.00     0.238 S 
ATOM     20  O   UNL A   1      34.222  15.829  22.996  1.00  0.00    -0.207 OA
ATOM     21  O   UNL A   1      32.781  15.218  24.992  1.00  0.00    -0.207 OA
BRANCH  19  22
ATOM     22  N   UNL A   1      35.157  15.876  25.311  1.00  0.00    -0.225 NA
ATOM     23  H   UNL A   1      34.925  16.104  26.279  1.00  0.00     0.137 HD
ATOM     24  H   UNL A   1      35.883  16.510  24.978  1.00  0.00     0.137 HD
ENDBRANCH  19  22
ENDBRANCH  14  19
ENDBRANCH   9  13
BRANCH  11  25
ATOM     25  C   UNL A   1      33.129  23.072  23.103  1.00  0.00     0.054 A 
ATOM     26  C   UNL A   1      32.890  23.651  21.864  1.00  0.00     0.031 A 
ATOM     27  S   UNL A   1      34.555  23.858  23.718  1.00  0.00    -0.134 S 
ATOM     28  C   UNL A   1      33.045  25.083  22.056  1.00  0.00    -0.007 A 
ATOM     29  C   UNL A   1      33.877  25.354  23.152  1.00  0.00     0.035 A 
ATOM     30  C   UNL A   1      32.396  26.170  21.428  1.00  0.00     0.009 A 
ATOM     31  C   UNL A   1      34.044  26.647  23.671  1.00  0.00     0.019 A 
ATOM     32  C   UNL A   1      32.504  27.451  21.979  1.00  0.00     0.001 A 
ATOM     33  C   UNL A   1      33.306  27.682  23.093  1.00  0.00     0.001 A 
ENDBRANCH  11  25
ENDBRANCH   5   8
ENDBRANCH   3   4
ENDBRANCH   2   3
ENDBRANCH   1   2
BRANCH   1  34
ATOM     34  C   UNL A   1      33.395  28.342  26.701  1.00  0.00     0.002 C 
BRANCH  34  35
ATOM     35  C   UNL A   1      33.228  29.760  27.264  1.00  0.00     0.021 C 
BRANCH  35  36
ATOM     36  C   UNL A   1      34.501  30.593  27.259  1.00  0.00     0.116 C 
BRANCH  36  37
ATOM     37  N   UNL A   1      34.457  31.704  28.210  1.00  0.00    -0.352 N 
ATOM     38  C   UNL A   1      35.108  31.829  29.422  1.00  0.00     0.251 C 
ATOM     39  H   UNL A   1      33.888  32.465  27.950  1.00  0.00     0.163 HD
ATOM     40  O   UNL A   1      34.688  32.591  30.285  1.00  0.00    -0.269 OA
BRANCH  38  41
ATOM     41  C   UNL A   1      36.334  31.045  29.662  1.00  0.00     0.039 A 
ATOM     42  C   UNL A   1      36.289  29.706  30.063  1.00  0.00     0.014 A 
ATOM     43  C   UNL A   1      37.555  31.693  29.497  1.00  0.00     0.014 A 
ATOM     44  C   UNL A   1      37.489  29.021  30.244  1.00  0.00     0.010 A 
ATOM     45  C   UNL A   1      38.718  30.974  29.486  1.00  0.00     0.010 A 
ATOM     46  C   UNL A   1      38.699  29.666  29.944  1.00  0.00    -0.014 A 
BRANCH  46  47
ATOM     47  C   UNL A   1      39.975  28.966  29.984  1.00  0.00     0.031 A 
ATOM     48  C   UNL A   1      40.528  28.850  31.355  1.00  0.00     0.074 A 
ATOM     49  C   UNL A   1      40.468  28.284  28.925  1.00  0.00     0.049 A 
ATOM     50  N   UNL A   1      41.535  29.487  31.846  1.00  0.00    -0.248 NA
ATOM     51  C   UNL A   1      39.765  28.083  32.356  1.00  0.00     0.031 C 
ATOM     52  C   UNL A   1      39.824  28.066  27.620  1.00  0.00     0.029 A 
ATOM     53  N   UNL A   1      41.614  27.551  28.814  1.00  0.00    -0.354 N 
ATOM     54  C   UNL A   1      41.697  28.987  33.136  1.00  0.00     0.074 A 
ATOM     55  C   UNL A   1      40.463  28.332  33.469  1.00  0.00     0.031 C 
ATOM     56  C   UNL A   1      40.469  27.089  26.945  1.00  0.00     0.029 A 
ATOM     57  C   UNL A   1      41.672  26.742  27.678  1.00  0.00     0.049 A 
ATOM     58  H   UNL A   1      42.339  27.588  29.479  1.00  0.00     0.167 HD
ATOM     59  C   UNL A   1      42.946  28.864  33.663  1.00  0.00     0.037 A 
ATOM     60  C   UNL A   1      42.649  25.861  27.354  1.00  0.00     0.037 A 
ATOM     61  C   UNL A   1      43.902  29.567  32.843  1.00  0.00     0.049 A 
ATOM     62  C   UNL A   1      43.857  26.252  28.110  1.00  0.00     0.074 A 
ATOM     63  C   UNL A   1      44.250  30.878  32.604  1.00  0.00     0.029 A 
ATOM     64  N   UNL A   1      44.370  28.820  31.793  1.00  0.00    -0.354 N 
ATOM     65  N   UNL A   1      44.516  27.352  27.881  1.00  0.00    -0.248 NA
ATOM     66  C   UNL A   1      44.142  25.604  29.386  1.00  0.00     0.031 C 
ATOM     67  C   UNL A   1      44.799  30.909  31.287  1.00  0.00     0.029 A 
ATOM     68  C   UNL A   1      44.823  29.614  30.776  1.00  0.00     0.049 A 
ATOM     69  H   UNL A   1      44.379  27.835  31.774  1.00  0.00     0.167 HD
ATOM     70  C   UNL A   1      44.938  27.758  29.131  1.00  0.00     0.074 A 
ATOM     71  C   UNL A   1      44.848  26.573  29.975  1.00  0.00     0.031 C 
ATOM     72  C   UNL A   1      44.993  29.085  29.443  1.00  0.00     0.037 A 
BRANCH  59  73
ATOM     73  C   UNL A   1      43.410  27.732  34.562  1.00  0.00     0.057 A 
ATOM     74  C   UNL A   1      43.440  26.425  34.038  1.00  0.00     0.134 A 
ATOM     75  C   UNL A   1      43.518  27.808  35.966  1.00  0.00     0.134 A 
ATOM     76  F   UNL A   1      43.337  26.211  32.717  1.00  0.00    -0.206 F 
ATOM     77  C   UNL A   1      43.492  25.286  34.851  1.00  0.00     0.040 A 
ATOM     78  C   UNL A   1      43.619  26.679  36.784  1.00  0.00     0.040 A 
ATOM     79  F   UNL A   1      43.428  28.961  36.637  1.00  0.00    -0.206 F 
ATOM     80  C   UNL A   1      43.572  25.410  36.231  1.00  0.00     0.006 A 
ENDBRANCH  59  73
BRANCH  60  81
ATOM     81  C   UNL A   1      42.599  24.603  26.581  1.00  0.00     0.057 A 
ATOM     82  C   UNL A   1      43.390  24.414  25.437  1.00  0.00     0.134 A 
ATOM     83  C   UNL A   1      42.012  23.450  27.126  1.00  0.00     0.134 A 
ATOM     84  F   UNL A   1      44.015  25.452  24.863  1.00  0.00    -0.206 F 
ATOM     85  C   UNL A   1      43.621  23.144  24.891  1.00  0.00     0.040 A 
ATOM     86  C   UNL A   1      42.235  22.175  26.591  1.00  0.00     0.040 A 
ATOM     87  F   UNL A   1      41.286  23.517  28.251  1.00  0.00    -0.206 F 
ATOM     88  C   UNL A   1      43.057  22.017  25.481  1.00  0.00     0.006 A 
ENDBRANCH  60  81
BRANCH  72  89
ATOM     89  C   UNL A   1      45.080  30.051  28.303  1.00  0.00     0.057 A 
ATOM     90  C   UNL A   1      43.984  30.696  27.714  1.00  0.00     0.134 A 
ATOM     91  C   UNL A   1      46.350  30.392  27.829  1.00  0.00     0.134 A 
ATOM     92  F   UNL A   1      42.736  30.483  28.149  1.00  0.00    -0.206 F 
ATOM     93  C   UNL A   1      44.147  31.615  26.672  1.00  0.00     0.040 A 
ATOM     94  C   UNL A   1      46.529  31.330  26.812  1.00  0.00     0.040 A 
ATOM     95  F   UNL A   1      47.444  29.838  28.374  1.00  0.00    -0.206 F 
ATOM     96  C   UNL A   1      45.424  31.938  26.224  1.00  0.00     0.006 A 
ENDBRANCH  72  89
ENDBRANCH  46  47
ENDBRANCH  38  41
ENDBRANCH  36  37
ENDBRANCH  35  36
ENDBRANCH  34  35
ENDBRANCH   1  34
TORSDOF 17
ENDMDL
MODEL 3
REMARK VINA RESULT:     -12.2      5.957     11.550
REMARK SMILES NS(=O)(=O)c1ccc(-n2nc(C(=O)NCCCCCCNC(=O)c3ccc(-c4c5nc(c(-c6c(F)cccc6F)c6ccc([nH]6)c(-c6c(F)cccc6F)c6nc(c(-c7c(F)cccc7F)c7ccc4[nH]7)C=C6)C=C5)cc3)cc2-c2cc3ccccc3s2)cc1
REMARK SMILES IDX 17 1 16 2 15 3 14 4 12 5 13 6 11 8 9 9 10 10 79 11 78 12
REMARK SMILES IDX 8 13 5 14 6 15 90 16 7 17 89 18 2 19 3 20 4 21 1 22 80 25
REMARK SMILES IDX 81 26 88 27 82 28 87 29 83 30 86 31 84 32 85 33 18 34 19 35
REMARK SMILES IDX 20 36 21 37 22 38 23 40 24 41 25 42 77 43 26 44 76 45 27 46
REMARK SMILES IDX 28 47 29 48 70 49 30 50 75 51 69 52 71 53 31 54 74 55 68 56
REMARK SMILES IDX 67 57 32 59 58 60 41 61 57 62 42 63 45 64 56 65 72 66 43 67
REMARK SMILES IDX 44 68 55 70 73 71 46 72 33 73 34 74 39 75 35 76 36 77 38 78
REMARK SMILES IDX 40 79 37 80 59 81 60 82 65 83 61 84 62 85 64 86 66 87 63 88
REMARK SMILES IDX 47 89 48 90 53 91 49 92 50 93 52 94 54 95 51 96
REMARK H PARENT 14 7 1 23 1 24 21 39 71 58 45 69
REMARK Flexibility Score: inf
ROOT
ATOM      1  C   UNL A   1      43.369  27.963  26.767  1.00  0.00     0.002 C 
ENDROOT
BRANCH   1   2
ATOM      2  C   UNL A   1      44.028  29.348  26.858  1.00  0.00     0.021 C 
BRANCH   2   3
ATOM      3  C   UNL A   1      45.557  29.318  26.768  1.00  0.00     0.116 C 
BRANCH   3   4
ATOM      4  N   UNL A   1      46.011  29.246  25.386  1.00  0.00    -0.351 N 
ATOM      5  C   UNL A   1      46.464  28.206  24.591  1.00  0.00     0.271 C 
ATOM      6  O   UNL A   1      46.670  28.477  23.406  1.00  0.00    -0.267 OA
ATOM      7  H   UNL A   1      45.993  30.114  24.923  1.00  0.00     0.163 HD
BRANCH   5   8
ATOM      8  C   UNL A   1      46.625  26.842  25.133  1.00  0.00     0.151 A 
ATOM      9  N   UNL A   1      46.065  24.827  25.643  1.00  0.00    -0.231 N 
ATOM     10  N   UNL A   1      45.888  25.796  24.702  1.00  0.00    -0.162 NA
ATOM     11  C   UNL A   1      46.905  25.258  26.639  1.00  0.00     0.085 A 
ATOM     12  C   UNL A   1      47.510  26.389  26.126  1.00  0.00     0.066 A 
BRANCH   9  13
ATOM     13  C   UNL A   1      45.672  23.494  25.396  1.00  0.00     0.065 A 
ATOM     14  C   UNL A   1      45.112  20.796  25.049  1.00  0.00     0.082 A 
ATOM     15  C   UNL A   1      44.235  21.598  25.792  1.00  0.00     0.024 A 
ATOM     16  C   UNL A   1      46.266  21.335  24.477  1.00  0.00     0.024 A 
ATOM     17  C   UNL A   1      44.526  22.952  25.986  1.00  0.00     0.030 A 
ATOM     18  C   UNL A   1      46.531  22.696  24.627  1.00  0.00     0.030 A 
BRANCH  14  19
ATOM     19  S   UNL A   1      44.735  19.078  24.867  1.00  0.00     0.238 S 
ATOM     20  O   UNL A   1      45.971  18.340  24.848  1.00  0.00    -0.207 OA
ATOM     21  O   UNL A   1      43.720  18.940  23.844  1.00  0.00    -0.207 OA
BRANCH  19  22
ATOM     22  N   UNL A   1      43.965  18.659  26.302  1.00  0.00    -0.225 NA
ATOM     23  H   UNL A   1      43.310  17.896  26.127  1.00  0.00     0.137 HD
ATOM     24  H   UNL A   1      43.458  19.466  26.664  1.00  0.00     0.137 HD
ENDBRANCH  19  22
ENDBRANCH  14  19
ENDBRANCH   9  13
BRANCH  11  25
ATOM     25  C   UNL A   1      47.118  24.758  27.967  1.00  0.00     0.054 A 
ATOM     26  C   UNL A   1      48.168  25.123  28.798  1.00  0.00     0.031 A 
ATOM     27  S   UNL A   1      45.716  24.675  28.996  1.00  0.00    -0.134 S 
ATOM     28  C   UNL A   1      47.665  26.208  29.624  1.00  0.00    -0.007 A 
ATOM     29  C   UNL A   1      46.268  26.149  29.732  1.00  0.00     0.035 A 
ATOM     30  C   UNL A   1      48.328  27.328  30.173  1.00  0.00     0.009 A 
ATOM     31  C   UNL A   1      45.512  27.178  30.314  1.00  0.00     0.019 A 
ATOM     32  C   UNL A   1      47.579  28.388  30.695  1.00  0.00     0.001 A 
ATOM     33  C   UNL A   1      46.190  28.317  30.752  1.00  0.00     0.001 A 
ENDBRANCH  11  25
ENDBRANCH   5   8
ENDBRANCH   3   4
ENDBRANCH   2   3
ENDBRANCH   1   2
BRANCH   1  34
ATOM     34  C   UNL A   1      42.751  27.591  25.408  1.00  0.00     0.002 C 
BRANCH  34  35
ATOM     35  C   UNL A   1      42.654  26.096  25.070  1.00  0.00     0.021 C 
BRANCH  35  36
ATOM     36  C   UNL A   1      42.012  25.247  26.156  1.00  0.00     0.116 C 
BRANCH  36  37
ATOM     37  N   UNL A   1      40.623  24.895  25.854  1.00  0.00    -0.352 N 
ATOM     38  C   UNL A   1      39.496  25.093  26.629  1.00  0.00     0.251 C 
ATOM     39  H   UNL A   1      40.473  24.461  24.983  1.00  0.00     0.163 HD
ATOM     40  O   UNL A   1      38.490  24.414  26.457  1.00  0.00    -0.269 OA
BRANCH  38  41
ATOM     41  C   UNL A   1      39.507  26.150  27.656  1.00  0.00     0.039 A 
ATOM     42  C   UNL A   1      39.286  25.870  29.008  1.00  0.00     0.014 A 
ATOM     43  C   UNL A   1      39.724  27.458  27.232  1.00  0.00     0.014 A 
ATOM     44  C   UNL A   1      39.340  26.917  29.926  1.00  0.00     0.010 A 
ATOM     45  C   UNL A   1      39.966  28.445  28.146  1.00  0.00     0.010 A 
ATOM     46  C   UNL A   1      39.688  28.202  29.482  1.00  0.00    -0.014 A 
BRANCH  46  47
ATOM     47  C   UNL A   1      39.891  29.308  30.407  1.00  0.00     0.031 A 
ATOM     48  C   UNL A   1      38.671  30.127  30.603  1.00  0.00     0.074 A 
ATOM     49  C   UNL A   1      40.993  29.419  31.184  1.00  0.00     0.049 A 
ATOM     50  N   UNL A   1      38.450  31.317  30.158  1.00  0.00    -0.248 NA
ATOM     51  C   UNL A   1      37.485  29.488  31.201  1.00  0.00     0.031 C 
ATOM     52  C   UNL A   1      42.109  28.467  31.297  1.00  0.00     0.029 A 
ATOM     53  N   UNL A   1      41.312  30.360  32.120  1.00  0.00    -0.354 N 
ATOM     54  C   UNL A   1      37.202  31.675  30.661  1.00  0.00     0.074 A 
ATOM     55  C   UNL A   1      36.569  30.452  31.070  1.00  0.00     0.031 C 
ATOM     56  C   UNL A   1      42.854  28.757  32.387  1.00  0.00     0.029 A 
ATOM     57  C   UNL A   1      42.385  30.013  32.942  1.00  0.00     0.049 A 
ATOM     58  H   UNL A   1      40.826  31.211  32.208  1.00  0.00     0.167 HD
ATOM     59  C   UNL A   1      36.957  32.969  31.007  1.00  0.00     0.037 A 
ATOM     60  C   UNL A   1      42.866  30.719  33.994  1.00  0.00     0.037 A 
ATOM     61  C   UNL A   1      38.006  33.824  30.506  1.00  0.00     0.049 A 
ATOM     62  C   UNL A   1      42.418  32.116  33.824  1.00  0.00     0.074 A 
ATOM     63  C   UNL A   1      38.388  34.336  29.286  1.00  0.00     0.029 A 
ATOM     64  N   UNL A   1      39.089  33.901  31.343  1.00  0.00    -0.354 N 
ATOM     65  N   UNL A   1      42.848  32.891  32.869  1.00  0.00    -0.248 NA
ATOM     66  C   UNL A   1      41.202  32.562  34.495  1.00  0.00     0.031 C 
ATOM     67  C   UNL A   1      39.794  34.569  29.378  1.00  0.00     0.029 A 
ATOM     68  C   UNL A   1      40.224  34.245  30.662  1.00  0.00     0.049 A 
ATOM     69  H   UNL A   1      39.054  33.730  32.312  1.00  0.00     0.167 HD
ATOM     70  C   UNL A   1      41.747  33.651  32.530  1.00  0.00     0.074 A 
ATOM     71  C   UNL A   1      40.838  33.545  33.666  1.00  0.00     0.031 C 
ATOM     72  C   UNL A   1      41.529  34.011  31.233  1.00  0.00     0.037 A 
BRANCH  59  73
ATOM     73  C   UNL A   1      36.120  33.415  32.192  1.00  0.00     0.057 A 
ATOM     74  C   UNL A   1      35.144  34.410  31.990  1.00  0.00     0.134 A 
ATOM     75  C   UNL A   1      36.432  33.159  33.543  1.00  0.00     0.134 A 
ATOM     76  F   UNL A   1      34.761  34.757  30.752  1.00  0.00    -0.206 F 
ATOM     77  C   UNL A   1      34.585  35.144  33.043  1.00  0.00     0.040 A 
ATOM     78  C   UNL A   1      35.843  33.853  34.605  1.00  0.00     0.040 A 
ATOM     79  F   UNL A   1      37.390  32.304  33.916  1.00  0.00    -0.206 F 
ATOM     80  C   UNL A   1      34.940  34.873  34.357  1.00  0.00     0.006 A 
ENDBRANCH  59  73
BRANCH  60  81
ATOM     81  C   UNL A   1      43.538  30.270  35.231  1.00  0.00     0.057 A 
ATOM     82  C   UNL A   1      43.122  29.117  35.914  1.00  0.00     0.134 A 
ATOM     83  C   UNL A   1      44.794  30.785  35.591  1.00  0.00     0.134 A 
ATOM     84  F   UNL A   1      41.950  28.536  35.618  1.00  0.00    -0.206 F 
ATOM     85  C   UNL A   1      43.928  28.485  36.871  1.00  0.00     0.040 A 
ATOM     86  C   UNL A   1      45.609  30.163  36.545  1.00  0.00     0.040 A 
ATOM     87  F   UNL A   1      45.305  31.850  34.957  1.00  0.00    -0.206 F 
ATOM     88  C   UNL A   1      45.185  28.998  37.173  1.00  0.00     0.006 A 
ENDBRANCH  60  81
BRANCH  72  89
ATOM     89  C   UNL A   1      42.714  34.008  30.317  1.00  0.00     0.057 A 
ATOM     90  C   UNL A   1      43.061  32.955  29.460  1.00  0.00     0.134 A 
ATOM     91  C   UNL A   1      43.497  35.164  30.255  1.00  0.00     0.134 A 
ATOM     92  F   UNL A   1      42.328  31.836  29.401  1.00  0.00    -0.206 F 
ATOM     93  C   UNL A   1      44.164  33.039  28.605  1.00  0.00     0.040 A 
ATOM     94  C   UNL A   1      44.581  35.273  29.385  1.00  0.00     0.040 A 
ATOM     95  F   UNL A   1      43.197  36.223  31.023  1.00  0.00    -0.206 F 
ATOM     96  C   UNL A   1      44.924  34.204  28.562  1.00  0.00     0.006 A 
ENDBRANCH  72  89
ENDBRANCH  46  47
ENDBRANCH  38  41
ENDBRANCH  36  37
ENDBRANCH  35  36
ENDBRANCH  34  35
ENDBRANCH   1  34
TORSDOF 17
ENDMDL
