MODEL 1
REMARK VINA RESULT:     -11.8      0.000      0.000
REMARK SMILES C[C@@H](C(=O)NCCCCCCNC(=O)c1ccc(-c2c3nc(c(-c4c(F)cccc4F)c4ccc([nH]4)c(-c4c(F)cccc4F)c4nc(c(-c5c(F)cccc5F)c5ccc2[nH]5)C=C4)C=C3)cc1)c1ccc(Cc2ccoc2)cc1F
REMARK SMILES IDX 8 1 7 2 6 3 5 4 3 5 4 6 2 8 1 9 69 10 70 11 80 12 71 13
REMARK SMILES IDX 79 14 81 15 72 16 73 17 74 18 75 19 78 20 76 21 77 22 9 23
REMARK SMILES IDX 10 24 11 25 12 26 13 27 14 29 15 30 16 31 68 32 17 33 67 34
REMARK SMILES IDX 18 35 19 36 20 37 61 38 21 39 66 40 60 41 62 42 22 43 65 44
REMARK SMILES IDX 59 45 58 46 23 48 49 49 32 50 48 51 33 52 36 53 47 54 63 55
REMARK SMILES IDX 34 56 35 57 46 59 64 60 37 61 24 62 25 63 30 64 26 65 27 66
REMARK SMILES IDX 29 67 31 68 28 69 50 70 51 71 56 72 52 73 53 74 55 75 57 76
REMARK SMILES IDX 54 77 38 78 39 79 44 80 40 81 41 82 43 83 45 84 42 85
REMARK H PARENT 5 7 12 28 62 47 36 58
REMARK Flexibility Score: inf
ROOT
ATOM      1  C   UNL A   1      31.991  29.166  26.901  1.00  0.00     0.002 C 
ENDROOT
BRANCH   1   2
ATOM      2  C   UNL A   1      33.402  28.567  26.979  1.00  0.00     0.021 C 
BRANCH   2   3
ATOM      3  C   UNL A   1      33.631  27.398  26.017  1.00  0.00     0.116 C 
BRANCH   3   4
ATOM      4  N   UNL A   1      34.062  27.895  24.729  1.00  0.00    -0.356 N 
ATOM      5  C   UNL A   1      33.703  27.510  23.473  1.00  0.00     0.227 C 
ATOM      6  O   UNL A   1      34.384  27.955  22.546  1.00  0.00    -0.274 OA
ATOM      7  H   UNL A   1      34.719  28.628  24.765  1.00  0.00     0.163 HD
BRANCH   5   8
ATOM      8  C   UNL A   1      32.481  26.602  23.258  1.00  0.00     0.108 C 
ATOM      9  C   UNL A   1      32.636  25.656  22.060  1.00  0.00     0.023 C 
BRANCH   8  10
ATOM     10  C   UNL A   1      31.211  27.430  23.110  1.00  0.00    -0.000 A 
ATOM     11  C   UNL A   1      31.248  28.723  22.569  1.00  0.00     0.008 A 
ATOM     12  C   UNL A   1      29.977  26.941  23.547  1.00  0.00     0.127 A 
ATOM     13  C   UNL A   1      30.083  29.473  22.427  1.00  0.00     0.004 A 
ATOM     14  C   UNL A   1      28.810  27.700  23.437  1.00  0.00     0.043 A 
ATOM     15  F   UNL A   1      29.895  25.709  24.070  1.00  0.00    -0.207 F 
ATOM     16  C   UNL A   1      28.847  28.983  22.872  1.00  0.00    -0.041 A 
BRANCH  16  17
ATOM     17  C   UNL A   1      27.583  29.788  22.680  1.00  0.00     0.074 C 
BRANCH  17  18
ATOM     18  C   UNL A   1      27.940  31.238  22.622  1.00  0.00    -0.005 A 
ATOM     19  C   UNL A   1      28.620  32.036  23.593  1.00  0.00     0.046 A 
ATOM     20  C   UNL A   1      27.756  32.083  21.543  1.00  0.00     0.198 A 
ATOM     21  C   UNL A   1      28.773  33.288  23.047  1.00  0.00     0.195 A 
ATOM     22  O   UNL A   1      28.255  33.319  21.795  1.00  0.00    -0.472 OA
ENDBRANCH  17  18
ENDBRANCH  16  17
ENDBRANCH   8  10
ENDBRANCH   5   8
ENDBRANCH   3   4
ENDBRANCH   2   3
ENDBRANCH   1   2
BRANCH   1  23
ATOM     23  C   UNL A   1      31.848  30.360  25.950  1.00  0.00     0.002 C 
BRANCH  23  24
ATOM     24  C   UNL A   1      31.543  31.691  26.640  1.00  0.00     0.021 C 
BRANCH  24  25
ATOM     25  C   UNL A   1      32.766  32.385  27.230  1.00  0.00     0.116 C 
BRANCH  25  26
ATOM     26  N   UNL A   1      32.507  33.787  27.523  1.00  0.00    -0.352 N 
ATOM     27  C   UNL A   1      33.087  34.596  28.467  1.00  0.00     0.251 C 
ATOM     28  H   UNL A   1      31.818  34.216  26.965  1.00  0.00     0.163 HD
ATOM     29  O   UNL A   1      32.606  35.697  28.725  1.00  0.00    -0.269 OA
BRANCH  27  30
ATOM     30  C   UNL A   1      34.284  34.125  29.195  1.00  0.00     0.039 A 
ATOM     31  C   UNL A   1      34.117  33.365  30.355  1.00  0.00     0.014 A 
ATOM     32  C   UNL A   1      35.564  34.420  28.720  1.00  0.00     0.014 A 
ATOM     33  C   UNL A   1      35.237  32.831  30.995  1.00  0.00     0.010 A 
ATOM     34  C   UNL A   1      36.673  33.829  29.318  1.00  0.00     0.010 A 
ATOM     35  C   UNL A   1      36.520  33.020  30.455  1.00  0.00    -0.014 A 
BRANCH  35  36
ATOM     36  C   UNL A   1      37.710  32.351  31.039  1.00  0.00     0.031 A 
ATOM     37  C   UNL A   1      38.394  31.237  30.300  1.00  0.00     0.074 A 
ATOM     38  C   UNL A   1      38.117  32.691  32.280  1.00  0.00     0.049 A 
ATOM     39  N   UNL A   1      39.377  30.467  30.693  1.00  0.00    -0.248 NA
ATOM     40  C   UNL A   1      37.894  30.929  28.951  1.00  0.00     0.031 C 
ATOM     41  C   UNL A   1      37.504  33.725  33.117  1.00  0.00     0.029 A 
ATOM     42  N   UNL A   1      39.127  32.187  33.062  1.00  0.00    -0.354 N 
ATOM     43  C   UNL A   1      39.598  29.574  29.652  1.00  0.00     0.074 A 
ATOM     44  C   UNL A   1      38.623  29.871  28.626  1.00  0.00     0.031 C 
ATOM     45  C   UNL A   1      38.155  33.784  34.289  1.00  0.00     0.029 A 
ATOM     46  C   UNL A   1      39.197  32.763  34.308  1.00  0.00     0.049 A 
ATOM     47  H   UNL A   1      39.742  31.482  32.759  1.00  0.00     0.167 HD
ATOM     48  C   UNL A   1      40.538  28.605  29.558  1.00  0.00     0.037 A 
ATOM     49  C   UNL A   1      39.995  32.483  35.358  1.00  0.00     0.037 A 
ATOM     50  C   UNL A   1      41.525  28.335  30.571  1.00  0.00     0.049 A 
ATOM     51  C   UNL A   1      41.016  31.387  35.230  1.00  0.00     0.074 A 
ATOM     52  C   UNL A   1      42.577  27.436  30.527  1.00  0.00     0.029 A 
ATOM     53  N   UNL A   1      41.574  28.948  31.812  1.00  0.00    -0.354 N 
ATOM     54  N   UNL A   1      41.276  30.615  34.203  1.00  0.00    -0.248 NA
ATOM     55  C   UNL A   1      41.856  31.120  36.408  1.00  0.00     0.031 C 
ATOM     56  C   UNL A   1      43.223  27.460  31.766  1.00  0.00     0.029 A 
ATOM     57  C   UNL A   1      42.610  28.415  32.560  1.00  0.00     0.049 A 
ATOM     58  H   UNL A   1      40.963  29.658  32.117  1.00  0.00     0.167 HD
ATOM     59  C   UNL A   1      42.321  29.790  34.601  1.00  0.00     0.074 A 
ATOM     60  C   UNL A   1      42.660  30.167  35.957  1.00  0.00     0.031 C 
ATOM     61  C   UNL A   1      42.940  28.805  33.908  1.00  0.00     0.037 A 
BRANCH  48  62
ATOM     62  C   UNL A   1      40.550  27.753  28.323  1.00  0.00     0.057 A 
ATOM     63  C   UNL A   1      41.275  28.112  27.179  1.00  0.00     0.134 A 
ATOM     64  C   UNL A   1      39.887  26.518  28.305  1.00  0.00     0.134 A 
ATOM     65  F   UNL A   1      41.926  29.284  27.128  1.00  0.00    -0.206 F 
ATOM     66  C   UNL A   1      41.325  27.285  26.057  1.00  0.00     0.040 A 
ATOM     67  C   UNL A   1      39.952  25.669  27.200  1.00  0.00     0.040 A 
ATOM     68  F   UNL A   1      39.181  26.109  29.370  1.00  0.00    -0.206 F 
ATOM     69  C   UNL A   1      40.670  26.054  26.068  1.00  0.00     0.006 A 
ENDBRANCH  48  62
BRANCH  49  70
ATOM     70  C   UNL A   1      39.850  33.237  36.630  1.00  0.00     0.057 A 
ATOM     71  C   UNL A   1      38.922  32.847  37.604  1.00  0.00     0.134 A 
ATOM     72  C   UNL A   1      40.611  34.384  36.889  1.00  0.00     0.134 A 
ATOM     73  F   UNL A   1      38.150  31.770  37.406  1.00  0.00    -0.206 F 
ATOM     74  C   UNL A   1      38.737  33.584  38.775  1.00  0.00     0.040 A 
ATOM     75  C   UNL A   1      40.457  35.113  38.070  1.00  0.00     0.040 A 
ATOM     76  F   UNL A   1      41.522  34.808  36.002  1.00  0.00    -0.206 F 
ATOM     77  C   UNL A   1      39.509  34.720  39.012  1.00  0.00     0.006 A 
ENDBRANCH  49  70
BRANCH  61  78
ATOM     78  C   UNL A   1      44.062  28.077  34.589  1.00  0.00     0.057 A 
ATOM     79  C   UNL A   1      43.851  26.879  35.281  1.00  0.00     0.134 A 
ATOM     80  C   UNL A   1      45.378  28.552  34.503  1.00  0.00     0.134 A 
ATOM     81  F   UNL A   1      42.612  26.378  35.413  1.00  0.00    -0.206 F 
ATOM     82  C   UNL A   1      44.906  26.184  35.874  1.00  0.00     0.040 A 
ATOM     83  C   UNL A   1      46.444  27.851  35.067  1.00  0.00     0.040 A 
ATOM     84  F   UNL A   1      45.650  29.690  33.848  1.00  0.00    -0.206 F 
ATOM     85  C   UNL A   1      46.209  26.665  35.758  1.00  0.00     0.006 A 
ENDBRANCH  61  78
ENDBRANCH  35  36
ENDBRANCH  27  30
ENDBRANCH  25  26
ENDBRANCH  24  25
ENDBRANCH  23  24
ENDBRANCH   1  23
TORSDOF 16
ENDMDL
MODEL 2
REMARK VINA RESULT:     -11.6      6.255     11.081
REMARK SMILES C[C@@H](C(=O)NCCCCCCNC(=O)c1ccc(-c2c3nc(c(-c4c(F)cccc4F)c4ccc([nH]4)c(-c4c(F)cccc4F)c4nc(c(-c5c(F)cccc5F)c5ccc2[nH]5)C=C4)C=C3)cc1)c1ccc(Cc2ccoc2)cc1F
REMARK SMILES IDX 8 1 7 2 6 3 5 4 3 5 4 6 2 8 1 9 69 10 70 11 80 12 71 13
REMARK SMILES IDX 79 14 81 15 72 16 73 17 74 18 75 19 78 20 76 21 77 22 9 23
REMARK SMILES IDX 10 24 11 25 12 26 13 27 14 29 15 30 16 31 68 32 17 33 67 34
REMARK SMILES IDX 18 35 19 36 20 37 61 38 21 39 66 40 60 41 62 42 22 43 65 44
REMARK SMILES IDX 59 45 58 46 23 48 49 49 32 50 48 51 33 52 36 53 47 54 63 55
REMARK SMILES IDX 34 56 35 57 46 59 64 60 37 61 24 62 25 63 30 64 26 65 27 66
REMARK SMILES IDX 29 67 31 68 28 69 50 70 51 71 56 72 52 73 53 74 55 75 57 76
REMARK SMILES IDX 54 77 38 78 39 79 44 80 40 81 41 82 43 83 45 84 42 85
REMARK H PARENT 5 7 12 28 62 47 36 58
REMARK Flexibility Score: inf
ROOT
ATOM      1  C   UNL A   1      36.399  21.889  25.767  1.00  0.00     0.002 C 
ENDROOT
BRANCH   1   2
ATOM      2  C   UNL A   1      36.316  23.412  25.589  1.00  0.00     0.021 C 
BRANCH   2   3
ATOM      3  C   UNL A   1      34.931  23.994  25.885  1.00  0.00     0.116 C 
BRANCH   3   4
ATOM      4  N   UNL A   1      34.337  23.305  27.011  1.00  0.00    -0.356 N 
ATOM      5  C   UNL A   1      33.081  22.803  27.170  1.00  0.00     0.227 C 
ATOM      6  O   UNL A   1      32.769  22.455  28.312  1.00  0.00    -0.274 OA
ATOM      7  H   UNL A   1      34.934  23.180  27.783  1.00  0.00     0.163 HD
BRANCH   5   8
ATOM      8  C   UNL A   1      32.144  22.655  25.960  1.00  0.00     0.108 C 
ATOM      9  C   UNL A   1      30.658  22.740  26.334  1.00  0.00     0.023 C 
BRANCH   8  10
ATOM     10  C   UNL A   1      32.422  21.353  25.218  1.00  0.00    -0.000 A 
ATOM     11  C   UNL A   1      33.040  20.272  25.859  1.00  0.00     0.008 A 
ATOM     12  C   UNL A   1      32.106  21.216  23.864  1.00  0.00     0.127 A 
ATOM     13  C   UNL A   1      33.284  19.080  25.179  1.00  0.00     0.004 A 
ATOM     14  C   UNL A   1      32.377  20.036  23.167  1.00  0.00     0.043 A 
ATOM     15  F   UNL A   1      31.512  22.226  23.211  1.00  0.00    -0.207 F 
ATOM     16  C   UNL A   1      32.972  18.946  23.818  1.00  0.00    -0.041 A 
BRANCH  16  17
ATOM     17  C   UNL A   1      33.206  17.639  23.099  1.00  0.00     0.074 C 
BRANCH  17  18
ATOM     18  C   UNL A   1      33.385  16.556  24.111  1.00  0.00    -0.005 A 
ATOM     19  C   UNL A   1      32.407  15.936  24.949  1.00  0.00     0.046 A 
ATOM     20  C   UNL A   1      34.553  15.862  24.369  1.00  0.00     0.198 A 
ATOM     21  C   UNL A   1      33.050  14.947  25.653  1.00  0.00     0.195 A 
ATOM     22  O   UNL A   1      34.356  14.893  25.298  1.00  0.00    -0.472 OA
ENDBRANCH  17  18
ENDBRANCH  16  17
ENDBRANCH   8  10
ENDBRANCH   5   8
ENDBRANCH   3   4
ENDBRANCH   2   3
ENDBRANCH   1   2
BRANCH   1  23
ATOM     23  C   UNL A   1      36.947  21.126  24.555  1.00  0.00     0.002 C 
BRANCH  23  24
ATOM     24  C   UNL A   1      37.864  19.952  24.902  1.00  0.00     0.021 C 
BRANCH  24  25
ATOM     25  C   UNL A   1      39.109  20.342  25.690  1.00  0.00     0.116 C 
BRANCH  25  26
ATOM     26  N   UNL A   1      40.042  19.232  25.818  1.00  0.00    -0.352 N 
ATOM     27  C   UNL A   1      41.387  19.258  26.086  1.00  0.00     0.251 C 
ATOM     28  H   UNL A   1      39.652  18.336  25.695  1.00  0.00     0.163 HD
ATOM     29  O   UNL A   1      42.068  18.244  25.952  1.00  0.00    -0.269 OA
BRANCH  27  30
ATOM     30  C   UNL A   1      42.022  20.521  26.514  1.00  0.00     0.039 A 
ATOM     31  C   UNL A   1      42.586  21.358  25.548  1.00  0.00     0.014 A 
ATOM     32  C   UNL A   1      42.041  20.884  27.863  1.00  0.00     0.014 A 
ATOM     33  C   UNL A   1      43.099  22.600  25.927  1.00  0.00     0.010 A 
ATOM     34  C   UNL A   1      42.489  22.150  28.229  1.00  0.00     0.010 A 
ATOM     35  C   UNL A   1      43.012  23.024  27.263  1.00  0.00    -0.014 A 
BRANCH  35  36
ATOM     36  C   UNL A   1      43.427  24.392  27.668  1.00  0.00     0.031 A 
ATOM     37  C   UNL A   1      42.395  25.425  28.020  1.00  0.00     0.074 A 
ATOM     38  C   UNL A   1      44.733  24.726  27.628  1.00  0.00     0.049 A 
ATOM     39  N   UNL A   1      42.558  26.695  28.293  1.00  0.00    -0.248 NA
ATOM     40  C   UNL A   1      40.992  24.982  28.044  1.00  0.00     0.031 C 
ATOM     41  C   UNL A   1      45.825  23.823  27.255  1.00  0.00     0.029 A 
ATOM     42  N   UNL A   1      45.362  25.920  27.880  1.00  0.00    -0.354 N 
ATOM     43  C   UNL A   1      41.283  27.204  28.501  1.00  0.00     0.074 A 
ATOM     44  C   UNL A   1      40.352  26.117  28.286  1.00  0.00     0.031 C 
ATOM     45  C   UNL A   1      46.987  24.493  27.313  1.00  0.00     0.029 A 
ATOM     46  C   UNL A   1      46.721  25.881  27.677  1.00  0.00     0.049 A 
ATOM     47  H   UNL A   1      44.885  26.727  28.179  1.00  0.00     0.167 HD
ATOM     48  C   UNL A   1      40.924  28.461  28.854  1.00  0.00     0.037 A 
ATOM     49  C   UNL A   1      47.645  26.858  27.749  1.00  0.00     0.037 A 
ATOM     50  C   UNL A   1      41.857  29.530  29.097  1.00  0.00     0.049 A 
ATOM     51  C   UNL A   1      47.214  28.249  28.124  1.00  0.00     0.074 A 
ATOM     52  C   UNL A   1      41.595  30.811  29.550  1.00  0.00     0.029 A 
ATOM     53  N   UNL A   1      43.225  29.448  28.896  1.00  0.00    -0.354 N 
ATOM     54  N   UNL A   1      46.014  28.692  28.412  1.00  0.00    -0.248 NA
ATOM     55  C   UNL A   1      48.263  29.278  28.183  1.00  0.00     0.031 C 
ATOM     56  C   UNL A   1      42.797  31.524  29.560  1.00  0.00     0.029 A 
ATOM     57  C   UNL A   1      43.816  30.670  29.171  1.00  0.00     0.049 A 
ATOM     58  H   UNL A   1      43.706  28.641  28.601  1.00  0.00     0.167 HD
ATOM     59  C   UNL A   1      46.167  30.041  28.708  1.00  0.00     0.074 A 
ATOM     60  C   UNL A   1      47.578  30.340  28.583  1.00  0.00     0.031 C 
ATOM     61  C   UNL A   1      45.223  30.952  29.048  1.00  0.00     0.037 A 
BRANCH  48  62
ATOM     62  C   UNL A   1      39.460  28.762  28.996  1.00  0.00     0.057 A 
ATOM     63  C   UNL A   1      38.779  28.588  30.208  1.00  0.00     0.134 A 
ATOM     64  C   UNL A   1      38.740  29.305  27.924  1.00  0.00     0.134 A 
ATOM     65  F   UNL A   1      39.408  28.066  31.272  1.00  0.00    -0.206 F 
ATOM     66  C   UNL A   1      37.432  28.925  30.343  1.00  0.00     0.040 A 
ATOM     67  C   UNL A   1      37.400  29.671  28.054  1.00  0.00     0.040 A 
ATOM     68  F   UNL A   1      39.333  29.505  26.737  1.00  0.00    -0.206 F 
ATOM     69  C   UNL A   1      36.741  29.478  29.267  1.00  0.00     0.006 A 
ENDBRANCH  48  62
BRANCH  49  70
ATOM     70  C   UNL A   1      49.070  26.566  27.444  1.00  0.00     0.057 A 
ATOM     71  C   UNL A   1      49.948  26.114  28.437  1.00  0.00     0.134 A 
ATOM     72  C   UNL A   1      49.597  26.762  26.160  1.00  0.00     0.134 A 
ATOM     73  F   UNL A   1      49.509  25.926  29.690  1.00  0.00    -0.206 F 
ATOM     74  C   UNL A   1      51.301  25.894  28.174  1.00  0.00     0.040 A 
ATOM     75  C   UNL A   1      50.941  26.517  25.877  1.00  0.00     0.040 A 
ATOM     76  F   UNL A   1      48.810  27.186  25.162  1.00  0.00    -0.206 F 
ATOM     77  C   UNL A   1      51.800  26.093  26.888  1.00  0.00     0.006 A 
ENDBRANCH  49  70
BRANCH  61  78
ATOM     78  C   UNL A   1      45.682  32.353  29.331  1.00  0.00     0.057 A 
ATOM     79  C   UNL A   1      45.697  33.338  28.337  1.00  0.00     0.134 A 
ATOM     80  C   UNL A   1      46.056  32.733  30.626  1.00  0.00     0.134 A 
ATOM     81  F   UNL A   1      45.365  33.035  27.072  1.00  0.00    -0.206 F 
ATOM     82  C   UNL A   1      46.082  34.650  28.618  1.00  0.00     0.040 A 
ATOM     83  C   UNL A   1      46.414  34.048  30.926  1.00  0.00     0.040 A 
ATOM     84  F   UNL A   1      46.055  31.839  31.626  1.00  0.00    -0.206 F 
ATOM     85  C   UNL A   1      46.432  35.010  29.918  1.00  0.00     0.006 A 
ENDBRANCH  61  78
ENDBRANCH  35  36
ENDBRANCH  27  30
ENDBRANCH  25  26
ENDBRANCH  24  25
ENDBRANCH  23  24
ENDBRANCH   1  23
TORSDOF 16
ENDMDL
MODEL 3
REMARK VINA RESULT:     -11.6      6.204     10.427
REMARK SMILES C[C@@H](C(=O)NCCCCCCNC(=O)c1ccc(-c2c3nc(c(-c4c(F)cccc4F)c4ccc([nH]4)c(-c4c(F)cccc4F)c4nc(c(-c5c(F)cccc5F)c5ccc2[nH]5)C=C4)C=C3)cc1)c1ccc(Cc2ccoc2)cc1F
REMARK SMILES IDX 8 1 7 2 6 3 5 4 3 5 4 6 2 8 1 9 69 10 70 11 80 12 71 13
REMARK SMILES IDX 79 14 81 15 72 16 73 17 74 18 75 19 78 20 76 21 77 22 9 23
REMARK SMILES IDX 10 24 11 25 12 26 13 27 14 29 15 30 16 31 68 32 17 33 67 34
REMARK SMILES IDX 18 35 19 36 20 37 61 38 21 39 66 40 60 41 62 42 22 43 65 44
REMARK SMILES IDX 59 45 58 46 23 48 49 49 32 50 48 51 33 52 36 53 47 54 63 55
REMARK SMILES IDX 34 56 35 57 46 59 64 60 37 61 24 62 25 63 30 64 26 65 27 66
REMARK SMILES IDX 29 67 31 68 28 69 50 70 51 71 56 72 52 73 53 74 55 75 57 76
REMARK SMILES IDX 54 77 38 78 39 79 44 80 40 81 41 82 43 83 45 84 42 85
REMARK H PARENT 5 7 12 28 62 47 36 58
REMARK Flexibility Score: inf
ROOT
ATOM      1  C   UNL A   1      37.209  22.132  25.076  1.00  0.00     0.002 C 
ENDROOT
BRANCH   1   2
ATOM      2  C   UNL A   1      36.655  23.263  24.196  1.00  0.00     0.021 C 
BRANCH   2   3
ATOM      3  C   UNL A   1      35.541  24.074  24.863  1.00  0.00     0.116 C 
BRANCH   3   4
ATOM      4  N   UNL A   1      35.255  23.535  26.175  1.00  0.00    -0.356 N 
ATOM      5  C   UNL A   1      34.068  23.180  26.740  1.00  0.00     0.227 C 
ATOM      6  O   UNL A   1      34.083  22.950  27.952  1.00  0.00    -0.274 OA
ATOM      7  H   UNL A   1      36.043  23.406  26.751  1.00  0.00     0.163 HD
BRANCH   5   8
ATOM      8  C   UNL A   1      32.806  23.041  25.873  1.00  0.00     0.108 C 
ATOM      9  C   UNL A   1      31.508  23.288  26.654  1.00  0.00     0.023 C 
BRANCH   8  10
ATOM     10  C   UNL A   1      32.759  21.674  25.202  1.00  0.00    -0.000 A 
ATOM     11  C   UNL A   1      32.966  20.498  25.936  1.00  0.00     0.008 A 
ATOM     12  C   UNL A   1      32.550  21.556  23.825  1.00  0.00     0.127 A 
ATOM     13  C   UNL A   1      32.913  19.250  25.319  1.00  0.00     0.004 A 
ATOM     14  C   UNL A   1      32.528  20.310  23.194  1.00  0.00     0.043 A 
ATOM     15  F   UNL A   1      32.347  22.655  23.084  1.00  0.00    -0.207 F 
ATOM     16  C   UNL A   1      32.709  19.134  23.937  1.00  0.00    -0.041 A 
BRANCH  16  17
ATOM     17  C   UNL A   1      32.617  17.775  23.283  1.00  0.00     0.074 C 
BRANCH  17  18
ATOM     18  C   UNL A   1      33.459  16.811  24.052  1.00  0.00    -0.005 A 
ATOM     19  C   UNL A   1      34.854  16.879  24.356  1.00  0.00     0.046 A 
ATOM     20  C   UNL A   1      33.013  15.684  24.716  1.00  0.00     0.198 A 
ATOM     21  C   UNL A   1      35.145  15.795  25.148  1.00  0.00     0.195 A 
ATOM     22  O   UNL A   1      34.025  15.068  25.377  1.00  0.00    -0.472 OA
ENDBRANCH  17  18
ENDBRANCH  16  17
ENDBRANCH   8  10
ENDBRANCH   5   8
ENDBRANCH   3   4
ENDBRANCH   2   3
ENDBRANCH   1   2
BRANCH   1  23
ATOM     23  C   UNL A   1      36.849  20.717  24.610  1.00  0.00     0.002 C 
BRANCH  23  24
ATOM     24  C   UNL A   1      37.816  19.627  25.077  1.00  0.00     0.021 C 
BRANCH  24  25
ATOM     25  C   UNL A   1      39.104  20.157  25.697  1.00  0.00     0.116 C 
BRANCH  25  26
ATOM     26  N   UNL A   1      40.085  19.101  25.899  1.00  0.00    -0.352 N 
ATOM     27  C   UNL A   1      41.435  19.203  26.121  1.00  0.00     0.251 C 
ATOM     28  H   UNL A   1      39.730  18.182  25.873  1.00  0.00     0.163 HD
ATOM     29  O   UNL A   1      42.153  18.208  26.061  1.00  0.00    -0.269 OA
BRANCH  27  30
ATOM     30  C   UNL A   1      42.028  20.525  26.408  1.00  0.00     0.039 A 
ATOM     31  C   UNL A   1      42.456  21.322  25.344  1.00  0.00     0.014 A 
ATOM     32  C   UNL A   1      42.143  20.980  27.724  1.00  0.00     0.014 A 
ATOM     33  C   UNL A   1      42.926  22.613  25.596  1.00  0.00     0.010 A 
ATOM     34  C   UNL A   1      42.545  22.290  27.967  1.00  0.00     0.010 A 
ATOM     35  C   UNL A   1      42.930  23.123  26.904  1.00  0.00    -0.014 A 
BRANCH  35  36
ATOM     36  C   UNL A   1      43.297  24.536  27.182  1.00  0.00     0.031 A 
ATOM     37  C   UNL A   1      44.735  24.968  27.145  1.00  0.00     0.074 A 
ATOM     38  C   UNL A   1      42.337  25.406  27.556  1.00  0.00     0.049 A 
ATOM     39  N   UNL A   1      45.256  26.126  27.460  1.00  0.00    -0.248 NA
ATOM     40  C   UNL A   1      45.721  23.961  26.724  1.00  0.00     0.031 C 
ATOM     41  C   UNL A   1      40.911  25.093  27.675  1.00  0.00     0.029 A 
ATOM     42  N   UNL A   1      42.418  26.725  27.929  1.00  0.00    -0.354 N 
ATOM     43  C   UNL A   1      46.627  25.982  27.295  1.00  0.00     0.074 A 
ATOM     44  C   UNL A   1      46.863  24.613  26.889  1.00  0.00     0.031 C 
ATOM     45  C   UNL A   1      40.252  26.189  28.082  1.00  0.00     0.029 A 
ATOM     46  C   UNL A   1      41.211  27.268  28.300  1.00  0.00     0.049 A 
ATOM     47  H   UNL A   1      43.260  27.233  27.929  1.00  0.00     0.167 HD
ATOM     48  C   UNL A   1      47.599  26.911  27.454  1.00  0.00     0.037 A 
ATOM     49  C   UNL A   1      40.913  28.488  28.787  1.00  0.00     0.037 A 
ATOM     50  C   UNL A   1      47.354  28.280  27.829  1.00  0.00     0.049 A 
ATOM     51  C   UNL A   1      42.016  29.493  28.972  1.00  0.00     0.074 A 
ATOM     52  C   UNL A   1      48.264  29.319  27.924  1.00  0.00     0.029 A 
ATOM     53  N   UNL A   1      46.118  28.795  28.182  1.00  0.00    -0.354 N 
ATOM     54  N   UNL A   1      43.296  29.371  28.719  1.00  0.00    -0.248 NA
ATOM     55  C   UNL A   1      41.635  30.807  29.512  1.00  0.00     0.031 C 
ATOM     56  C   UNL A   1      47.588  30.447  28.398  1.00  0.00     0.029 A 
ATOM     57  C   UNL A   1      46.248  30.127  28.540  1.00  0.00     0.049 A 
ATOM     58  H   UNL A   1      45.273  28.290  28.178  1.00  0.00     0.167 HD
ATOM     59  C   UNL A   1      43.868  30.594  29.046  1.00  0.00     0.074 A 
ATOM     60  C   UNL A   1      42.793  31.452  29.497  1.00  0.00     0.031 C 
ATOM     61  C   UNL A   1      45.168  30.971  28.983  1.00  0.00     0.037 A 
BRANCH  48  62
ATOM     62  C   UNL A   1      49.022  26.488  27.232  1.00  0.00     0.057 A 
ATOM     63  C   UNL A   1      49.611  26.498  25.961  1.00  0.00     0.134 A 
ATOM     64  C   UNL A   1      49.836  26.137  28.317  1.00  0.00     0.134 A 
ATOM     65  F   UNL A   1      48.885  26.818  24.879  1.00  0.00    -0.206 F 
ATOM     66  C   UNL A   1      50.951  26.157  25.775  1.00  0.00     0.040 A 
ATOM     67  C   UNL A   1      51.184  25.821  28.148  1.00  0.00     0.040 A 
ATOM     68  F   UNL A   1      49.338  26.114  29.563  1.00  0.00    -0.206 F 
ATOM     69  C   UNL A   1      51.745  25.827  26.872  1.00  0.00     0.006 A 
ENDBRANCH  48  62
BRANCH  49  70
ATOM     70  C   UNL A   1      39.513  28.827  29.153  1.00  0.00     0.057 A 
ATOM     71  C   UNL A   1      39.017  28.575  30.438  1.00  0.00     0.134 A 
ATOM     72  C   UNL A   1      38.627  29.379  28.219  1.00  0.00     0.134 A 
ATOM     73  F   UNL A   1      39.810  28.029  31.371  1.00  0.00    -0.206 F 
ATOM     74  C   UNL A   1      37.687  28.834  30.774  1.00  0.00     0.040 A 
ATOM     75  C   UNL A   1      37.302  29.671  28.550  1.00  0.00     0.040 A 
ATOM     76  F   UNL A   1      39.038  29.651  26.972  1.00  0.00    -0.206 F 
ATOM     77  C   UNL A   1      36.826  29.387  29.828  1.00  0.00     0.006 A 
ENDBRANCH  49  70
BRANCH  61  78
ATOM     78  C   UNL A   1      45.502  32.377  29.388  1.00  0.00     0.057 A 
ATOM     79  C   UNL A   1      45.909  32.691  30.690  1.00  0.00     0.134 A 
ATOM     80  C   UNL A   1      45.472  33.417  28.450  1.00  0.00     0.134 A 
ATOM     81  F   UNL A   1      45.945  31.743  31.640  1.00  0.00    -0.206 F 
ATOM     82  C   UNL A   1      46.262  33.993  31.050  1.00  0.00     0.040 A 
ATOM     83  C   UNL A   1      45.851  34.716  28.790  1.00  0.00     0.040 A 
ATOM     84  F   UNL A   1      45.099  33.182  27.184  1.00  0.00    -0.206 F 
ATOM     85  C   UNL A   1      46.243  35.008  30.094  1.00  0.00     0.006 A 
ENDBRANCH  61  78
ENDBRANCH  35  36
ENDBRANCH  27  30
ENDBRANCH  25  26
ENDBRANCH  24  25
ENDBRANCH  23  24
ENDBRANCH   1  23
TORSDOF 16
ENDMDL
