MODEL 1
REMARK VINA RESULT:     -13.1      0.000      0.000
REMARK SMILES Cc1nccn1C1(C(=O)NCCCCCCNC(=O)c2ccc(-c3c4nc(c(-c5c(F)cccc5F)c5ccc([nH]5)c(-c5c(F)cccc5F)c5nc(c(-c6c(F)cccc6F)c6ccc3[nH]6)C=C5)C=C4)cc2)CCN(C(=O)[C@@H]2C[C@H]2c2ccccc2)CC1
REMARK SMILES IDX 13 1 12 2 11 3 10 4 8 5 9 6 7 8 74 9 89 10 75 11 88 12 76 13
REMARK SMILES IDX 77 14 78 15 6 16 1 17 2 18 3 19 4 20 5 21 79 22 80 23 81 24
REMARK SMILES IDX 82 25 83 26 87 27 84 28 86 29 85 30 14 31 15 32 16 33 17 34
REMARK SMILES IDX 18 35 19 37 20 38 21 39 73 40 22 41 72 42 23 43 24 44 25 45
REMARK SMILES IDX 66 46 26 47 71 48 65 49 67 50 27 51 70 52 64 53 63 54 28 56
REMARK SMILES IDX 54 57 37 58 53 59 38 60 41 61 52 62 68 63 39 64 40 65 51 67
REMARK SMILES IDX 69 68 42 69 29 70 30 71 35 72 31 73 32 74 34 75 36 76 33 77
REMARK SMILES IDX 55 78 56 79 61 80 57 81 58 82 60 83 62 84 59 85 43 86 44 87
REMARK SMILES IDX 49 88 45 89 46 90 48 91 50 92 47 93
REMARK H PARENT 10 7 17 36 67 55 41 66
REMARK Flexibility Score: inf
ROOT
ATOM      1  C   UNL A   1      34.349  23.669  26.365  1.00  0.00     0.002 C 
ENDROOT
BRANCH   1   2
ATOM      2  C   UNL A   1      33.301  24.772  26.151  1.00  0.00     0.021 C 
BRANCH   2   3
ATOM      3  C   UNL A   1      33.865  26.191  26.029  1.00  0.00     0.116 C 
BRANCH   3   4
ATOM      4  N   UNL A   1      32.815  27.189  26.181  1.00  0.00    -0.354 N 
ATOM      5  C   UNL A   1      31.944  27.783  25.306  1.00  0.00     0.246 C 
ATOM      6  O   UNL A   1      31.445  28.818  25.755  1.00  0.00    -0.272 OA
ATOM      7  H   UNL A   1      32.710  27.503  27.108  1.00  0.00     0.163 HD
BRANCH   5   8
ATOM      8  C   UNL A   1      31.644  27.209  23.860  1.00  0.00     0.127 C 
ATOM      9  C   UNL A   1      33.025  27.135  23.158  1.00  0.00     0.061 C 
ATOM     10  C   UNL A   1      30.939  25.848  24.077  1.00  0.00     0.061 C 
ATOM     11  C   UNL A   1      33.366  25.863  22.376  1.00  0.00     0.122 C 
ATOM     12  C   UNL A   1      31.132  24.965  22.877  1.00  0.00     0.122 C 
ATOM     13  N   UNL A   1      32.543  24.693  22.673  1.00  0.00    -0.342 N 
ATOM     14  C   UNL A   1      33.154  23.442  22.505  1.00  0.00     0.226 C 
ATOM     15  O   UNL A   1      34.277  23.365  22.006  1.00  0.00    -0.275 OA
BRANCH   8  16
ATOM     16  N   UNL A   1      30.682  28.064  23.055  1.00  0.00    -0.320 N 
ATOM     17  C   UNL A   1      28.246  27.214  23.638  1.00  0.00     0.087 C 
ATOM     18  C   UNL A   1      29.276  28.101  23.026  1.00  0.00     0.106 A 
ATOM     19  N   UNL A   1      28.850  29.110  22.288  1.00  0.00    -0.242 NA
ATOM     20  C   UNL A   1      29.944  29.745  21.812  1.00  0.00     0.131 A 
ATOM     21  C   UNL A   1      31.075  29.153  22.296  1.00  0.00     0.108 A 
ENDBRANCH   8  16
BRANCH  14  22
ATOM     22  C   UNL A   1      32.574  22.149  22.985  1.00  0.00     0.087 C 
ATOM     23  C   UNL A   1      31.870  22.092  24.322  1.00  0.00     0.023 C 
ATOM     24  C   UNL A   1      33.061  21.221  24.056  1.00  0.00     0.032 C 
BRANCH  24  25
ATOM     25  C   UNL A   1      33.046  19.731  23.968  1.00  0.00    -0.044 A 
ATOM     26  C   UNL A   1      34.070  19.014  24.607  1.00  0.00     0.004 A 
ATOM     27  C   UNL A   1      32.300  19.083  22.972  1.00  0.00     0.004 A 
ATOM     28  C   UNL A   1      34.425  17.739  24.178  1.00  0.00     0.000 A 
ATOM     29  C   UNL A   1      32.649  17.802  22.545  1.00  0.00     0.000 A 
ATOM     30  C   UNL A   1      33.731  17.146  23.127  1.00  0.00     0.000 A 
ENDBRANCH  24  25
ENDBRANCH  14  22
ENDBRANCH   5   8
ENDBRANCH   3   4
ENDBRANCH   2   3
ENDBRANCH   1   2
BRANCH   1  31
ATOM     31  C   UNL A   1      35.596  23.727  25.469  1.00  0.00     0.002 C 
BRANCH  31  32
ATOM     32  C   UNL A   1      36.432  22.443  25.354  1.00  0.00     0.021 C 
BRANCH  32  33
ATOM     33  C   UNL A   1      37.911  22.686  25.102  1.00  0.00     0.116 C 
BRANCH  33  34
ATOM     34  N   UNL A   1      38.787  21.776  25.853  1.00  0.00    -0.352 N 
ATOM     35  C   UNL A   1      39.908  22.076  26.619  1.00  0.00     0.251 C 
ATOM     36  H   UNL A   1      38.546  20.823  25.808  1.00  0.00     0.163 HD
ATOM     37  O   UNL A   1      40.741  21.231  26.884  1.00  0.00    -0.269 OA
BRANCH  35  38
ATOM     38  C   UNL A   1      40.051  23.453  27.129  1.00  0.00     0.039 A 
ATOM     39  C   UNL A   1      39.020  24.399  27.121  1.00  0.00     0.014 A 
ATOM     40  C   UNL A   1      41.289  23.769  27.662  1.00  0.00     0.014 A 
ATOM     41  C   UNL A   1      39.268  25.652  27.683  1.00  0.00     0.010 A 
ATOM     42  C   UNL A   1      41.400  24.827  28.501  1.00  0.00     0.010 A 
ATOM     43  C   UNL A   1      40.478  25.849  28.361  1.00  0.00    -0.014 A 
BRANCH  43  44
ATOM     44  C   UNL A   1      40.884  27.095  28.978  1.00  0.00     0.031 A 
ATOM     45  C   UNL A   1      42.045  27.744  28.333  1.00  0.00     0.074 A 
ATOM     46  C   UNL A   1      40.046  27.735  29.828  1.00  0.00     0.049 A 
ATOM     47  N   UNL A   1      43.213  27.937  28.843  1.00  0.00    -0.248 NA
ATOM     48  C   UNL A   1      41.959  28.068  26.899  1.00  0.00     0.031 C 
ATOM     49  C   UNL A   1      38.702  27.327  30.275  1.00  0.00     0.029 A 
ATOM     50  N   UNL A   1      40.167  28.975  30.369  1.00  0.00    -0.354 N 
ATOM     51  C   UNL A   1      43.945  28.607  27.868  1.00  0.00     0.074 A 
ATOM     52  C   UNL A   1      43.212  28.448  26.641  1.00  0.00     0.031 C 
ATOM     53  C   UNL A   1      38.060  28.384  30.818  1.00  0.00     0.029 A 
ATOM     54  C   UNL A   1      38.985  29.495  30.896  1.00  0.00     0.049 A 
ATOM     55  H   UNL A   1      41.019  29.466  30.387  1.00  0.00     0.167 HD
ATOM     56  C   UNL A   1      44.952  29.457  28.212  1.00  0.00     0.037 A 
ATOM     57  C   UNL A   1      38.799  30.773  31.315  1.00  0.00     0.037 A 
ATOM     58  C   UNL A   1      45.295  29.299  29.607  1.00  0.00     0.049 A 
ATOM     59  C   UNL A   1      40.153  31.345  31.556  1.00  0.00     0.074 A 
ATOM     60  C   UNL A   1      45.751  28.245  30.374  1.00  0.00     0.029 A 
ATOM     61  N   UNL A   1      44.778  30.216  30.492  1.00  0.00    -0.354 N 
ATOM     62  N   UNL A   1      40.946  30.929  32.507  1.00  0.00    -0.248 NA
ATOM     63  C   UNL A   1      40.817  31.994  30.433  1.00  0.00     0.031 C 
ATOM     64  C   UNL A   1      45.043  28.359  31.606  1.00  0.00     0.029 A 
ATOM     65  C   UNL A   1      44.271  29.520  31.560  1.00  0.00     0.049 A 
ATOM     66  H   UNL A   1      44.773  31.194  30.380  1.00  0.00     0.167 HD
ATOM     67  C   UNL A   1      42.204  30.863  31.920  1.00  0.00     0.074 A 
ATOM     68  C   UNL A   1      42.074  31.599  30.662  1.00  0.00     0.031 C 
ATOM     69  C   UNL A   1      43.138  29.960  32.344  1.00  0.00     0.037 A 
BRANCH  56  70
ATOM     70  C   UNL A   1      45.369  30.679  27.430  1.00  0.00     0.057 A 
ATOM     71  C   UNL A   1      46.725  30.823  27.079  1.00  0.00     0.134 A 
ATOM     72  C   UNL A   1      44.584  31.835  27.254  1.00  0.00     0.134 A 
ATOM     73  F   UNL A   1      47.579  29.793  27.189  1.00  0.00    -0.206 F 
ATOM     74  C   UNL A   1      47.275  32.047  26.684  1.00  0.00     0.040 A 
ATOM     75  C   UNL A   1      45.113  33.050  26.809  1.00  0.00     0.040 A 
ATOM     76  F   UNL A   1      43.291  31.894  27.591  1.00  0.00    -0.206 F 
ATOM     77  C   UNL A   1      46.469  33.171  26.560  1.00  0.00     0.006 A 
ENDBRANCH  56  70
BRANCH  57  78
ATOM     78  C   UNL A   1      37.569  31.600  31.231  1.00  0.00     0.057 A 
ATOM     79  C   UNL A   1      37.041  32.012  29.998  1.00  0.00     0.134 A 
ATOM     80  C   UNL A   1      36.734  31.797  32.347  1.00  0.00     0.134 A 
ATOM     81  F   UNL A   1      37.738  31.832  28.866  1.00  0.00    -0.206 F 
ATOM     82  C   UNL A   1      35.756  32.566  29.880  1.00  0.00     0.040 A 
ATOM     83  C   UNL A   1      35.454  32.355  32.244  1.00  0.00     0.040 A 
ATOM     84  F   UNL A   1      37.094  31.377  33.568  1.00  0.00    -0.206 F 
ATOM     85  C   UNL A   1      34.954  32.730  31.004  1.00  0.00     0.006 A 
ENDBRANCH  57  78
BRANCH  69  86
ATOM     86  C   UNL A   1      42.854  29.174  33.599  1.00  0.00     0.057 A 
ATOM     87  C   UNL A   1      43.030  29.675  34.899  1.00  0.00     0.134 A 
ATOM     88  C   UNL A   1      42.198  27.944  33.487  1.00  0.00     0.134 A 
ATOM     89  F   UNL A   1      43.552  30.886  35.110  1.00  0.00    -0.206 F 
ATOM     90  C   UNL A   1      42.607  28.972  36.031  1.00  0.00     0.040 A 
ATOM     91  C   UNL A   1      41.739  27.247  34.607  1.00  0.00     0.040 A 
ATOM     92  F   UNL A   1      41.935  27.428  32.277  1.00  0.00    -0.206 F 
ATOM     93  C   UNL A   1      41.950  27.757  35.886  1.00  0.00     0.006 A 
ENDBRANCH  69  86
ENDBRANCH  43  44
ENDBRANCH  35  38
ENDBRANCH  33  34
ENDBRANCH  32  33
ENDBRANCH  31  32
ENDBRANCH   1  31
TORSDOF 16
ENDMDL
MODEL 2
REMARK VINA RESULT:     -13.0      2.341      8.053
REMARK SMILES Cc1nccn1C1(C(=O)NCCCCCCNC(=O)c2ccc(-c3c4nc(c(-c5c(F)cccc5F)c5ccc([nH]5)c(-c5c(F)cccc5F)c5nc(c(-c6c(F)cccc6F)c6ccc3[nH]6)C=C5)C=C4)cc2)CCN(C(=O)[C@@H]2C[C@H]2c2ccccc2)CC1
REMARK SMILES IDX 13 1 12 2 11 3 10 4 8 5 9 6 7 8 74 9 89 10 75 11 88 12 76 13
REMARK SMILES IDX 77 14 78 15 6 16 1 17 2 18 3 19 4 20 5 21 79 22 80 23 81 24
REMARK SMILES IDX 82 25 83 26 87 27 84 28 86 29 85 30 14 31 15 32 16 33 17 34
REMARK SMILES IDX 18 35 19 37 20 38 21 39 73 40 22 41 72 42 23 43 24 44 25 45
REMARK SMILES IDX 66 46 26 47 71 48 65 49 67 50 27 51 70 52 64 53 63 54 28 56
REMARK SMILES IDX 54 57 37 58 53 59 38 60 41 61 52 62 68 63 39 64 40 65 51 67
REMARK SMILES IDX 69 68 42 69 29 70 30 71 35 72 31 73 32 74 34 75 36 76 33 77
REMARK SMILES IDX 55 78 56 79 61 80 57 81 58 82 60 83 62 84 59 85 43 86 44 87
REMARK SMILES IDX 49 88 45 89 46 90 48 91 50 92 47 93
REMARK H PARENT 10 7 17 36 67 55 41 66
REMARK Flexibility Score: inf
ROOT
ATOM      1  C   UNL A   1      33.796  27.450  25.184  1.00  0.00     0.002 C 
ENDROOT
BRANCH   1   2
ATOM      2  C   UNL A   1      34.013  26.028  24.644  1.00  0.00     0.021 C 
BRANCH   2   3
ATOM      3  C   UNL A   1      34.742  25.074  25.596  1.00  0.00     0.116 C 
BRANCH   3   4
ATOM      4  N   UNL A   1      35.206  23.885  24.895  1.00  0.00    -0.354 N 
ATOM      5  C   UNL A   1      34.641  22.664  24.633  1.00  0.00     0.246 C 
ATOM      6  O   UNL A   1      35.473  21.810  24.312  1.00  0.00    -0.272 OA
ATOM      7  H   UNL A   1      36.117  23.978  24.534  1.00  0.00     0.163 HD
BRANCH   5   8
ATOM      8  C   UNL A   1      33.087  22.383  24.764  1.00  0.00     0.127 C 
ATOM      9  C   UNL A   1      32.711  22.841  26.197  1.00  0.00     0.061 C 
ATOM     10  C   UNL A   1      32.411  23.174  23.618  1.00  0.00     0.061 C 
ATOM     11  C   UNL A   1      31.443  23.681  26.373  1.00  0.00     0.122 C 
ATOM     12  C   UNL A   1      30.980  23.473  23.967  1.00  0.00     0.122 C 
ATOM     13  N   UNL A   1      30.914  24.298  25.159  1.00  0.00    -0.342 N 
ATOM     14  C   UNL A   1      30.210  25.499  25.326  1.00  0.00     0.226 C 
ATOM     15  O   UNL A   1      29.955  25.914  26.457  1.00  0.00    -0.275 OA
BRANCH   8  16
ATOM     16  N   UNL A   1      32.714  20.927  24.555  1.00  0.00    -0.320 N 
ATOM     17  C   UNL A   1      32.021  20.681  22.014  1.00  0.00     0.087 C 
ATOM     18  C   UNL A   1      32.342  20.222  23.396  1.00  0.00     0.106 A 
ATOM     19  N   UNL A   1      32.251  18.928  23.645  1.00  0.00    -0.242 NA
ATOM     20  C   UNL A   1      32.546  18.752  24.951  1.00  0.00     0.131 A 
ATOM     21  C   UNL A   1      32.871  19.948  25.522  1.00  0.00     0.108 A 
ENDBRANCH   8  16
BRANCH  14  22
ATOM     22  C   UNL A   1      29.808  26.404  24.204  1.00  0.00     0.087 C 
ATOM     23  C   UNL A   1      30.742  26.606  23.030  1.00  0.00     0.023 C 
ATOM     24  C   UNL A   1      30.301  27.776  23.858  1.00  0.00     0.032 C 
BRANCH  24  25
ATOM     25  C   UNL A   1      29.441  28.900  23.386  1.00  0.00    -0.044 A 
ATOM     26  C   UNL A   1      29.856  30.215  23.649  1.00  0.00     0.004 A 
ATOM     27  C   UNL A   1      28.094  28.679  23.059  1.00  0.00     0.004 A 
ATOM     28  C   UNL A   1      28.935  31.256  23.713  1.00  0.00     0.000 A 
ATOM     29  C   UNL A   1      27.170  29.722  23.117  1.00  0.00     0.000 A 
ATOM     30  C   UNL A   1      27.587  31.002  23.475  1.00  0.00     0.000 A 
ENDBRANCH  24  25
ENDBRANCH  14  22
ENDBRANCH   5   8
ENDBRANCH   3   4
ENDBRANCH   2   3
ENDBRANCH   1   2
BRANCH   1  31
ATOM     31  C   UNL A   1      33.046  27.567  26.521  1.00  0.00     0.002 C 
BRANCH  31  32
ATOM     32  C   UNL A   1      32.949  28.967  27.145  1.00  0.00     0.021 C 
BRANCH  32  33
ATOM     33  C   UNL A   1      34.059  29.914  26.723  1.00  0.00     0.116 C 
BRANCH  33  34
ATOM     34  N   UNL A   1      34.059  31.181  27.467  1.00  0.00    -0.352 N 
ATOM     35  C   UNL A   1      34.818  31.544  28.576  1.00  0.00     0.251 C 
ATOM     36  H   UNL A   1      33.437  31.867  27.136  1.00  0.00     0.163 HD
ATOM     37  O   UNL A   1      34.479  32.455  29.306  1.00  0.00    -0.269 OA
BRANCH  35  38
ATOM     38  C   UNL A   1      36.070  30.807  28.830  1.00  0.00     0.039 A 
ATOM     39  C   UNL A   1      36.167  29.411  28.840  1.00  0.00     0.014 A 
ATOM     40  C   UNL A   1      37.194  31.588  29.037  1.00  0.00     0.014 A 
ATOM     41  C   UNL A   1      37.422  28.836  29.040  1.00  0.00     0.010 A 
ATOM     42  C   UNL A   1      38.423  31.041  28.874  1.00  0.00     0.010 A 
ATOM     43  C   UNL A   1      38.541  29.677  29.067  1.00  0.00    -0.014 A 
BRANCH  43  44
ATOM     44  C   UNL A   1      39.903  29.231  29.284  1.00  0.00     0.031 A 
ATOM     45  C   UNL A   1      40.255  29.015  30.703  1.00  0.00     0.074 A 
ATOM     46  C   UNL A   1      40.627  28.739  28.250  1.00  0.00     0.049 A 
ATOM     47  N   UNL A   1      41.115  29.673  31.401  1.00  0.00    -0.248 NA
ATOM     48  C   UNL A   1      39.442  28.073  31.490  1.00  0.00     0.031 C 
ATOM     49  C   UNL A   1      40.233  28.597  26.837  1.00  0.00     0.029 A 
ATOM     50  N   UNL A   1      41.838  28.124  28.276  1.00  0.00    -0.354 N 
ATOM     51  C   UNL A   1      41.112  29.080  32.660  1.00  0.00     0.074 A 
ATOM     52  C   UNL A   1      39.920  28.279  32.719  1.00  0.00     0.031 C 
ATOM     53  C   UNL A   1      41.076  27.749  26.210  1.00  0.00     0.029 A 
ATOM     54  C   UNL A   1      42.149  27.407  27.121  1.00  0.00     0.049 A 
ATOM     55  H   UNL A   1      42.446  28.181  29.047  1.00  0.00     0.167 HD
ATOM     56  C   UNL A   1      42.227  29.095  33.442  1.00  0.00     0.037 A 
ATOM     57  C   UNL A   1      43.198  26.559  26.973  1.00  0.00     0.037 A 
ATOM     58  C   UNL A   1      43.204  30.020  32.915  1.00  0.00     0.049 A 
ATOM     59  C   UNL A   1      44.178  26.901  28.041  1.00  0.00     0.074 A 
ATOM     60  C   UNL A   1      43.208  31.378  32.663  1.00  0.00     0.029 A 
ATOM     61  N   UNL A   1      44.236  29.495  32.173  1.00  0.00    -0.354 N 
ATOM     62  N   UNL A   1      44.829  28.032  28.079  1.00  0.00    -0.248 NA
ATOM     63  C   UNL A   1      44.035  26.224  29.324  1.00  0.00     0.031 C 
ATOM     64  C   UNL A   1      43.902  31.517  31.426  1.00  0.00     0.029 A 
ATOM     65  C   UNL A   1      44.361  30.257  31.040  1.00  0.00     0.049 A 
ATOM     66  H   UNL A   1      44.785  28.713  32.412  1.00  0.00     0.167 HD
ATOM     67  C   UNL A   1      44.794  28.421  29.413  1.00  0.00     0.074 A 
ATOM     68  C   UNL A   1      44.353  27.232  30.143  1.00  0.00     0.031 C 
ATOM     69  C   UNL A   1      44.814  29.742  29.767  1.00  0.00     0.037 A 
BRANCH  56  70
ATOM     70  C   UNL A   1      42.607  28.029  34.440  1.00  0.00     0.057 A 
ATOM     71  C   UNL A   1      43.037  26.778  33.957  1.00  0.00     0.134 A 
ATOM     72  C   UNL A   1      42.309  28.062  35.816  1.00  0.00     0.134 A 
ATOM     73  F   UNL A   1      43.364  26.612  32.665  1.00  0.00    -0.206 F 
ATOM     74  C   UNL A   1      43.067  25.631  34.757  1.00  0.00     0.040 A 
ATOM     75  C   UNL A   1      42.387  26.934  36.637  1.00  0.00     0.040 A 
ATOM     76  F   UNL A   1      41.833  29.151  36.429  1.00  0.00    -0.206 F 
ATOM     77  C   UNL A   1      42.729  25.704  36.102  1.00  0.00     0.006 A 
ENDBRANCH  56  70
BRANCH  57  78
ATOM     78  C   UNL A   1      43.267  25.308  26.176  1.00  0.00     0.057 A 
ATOM     79  C   UNL A   1      44.292  25.083  25.245  1.00  0.00     0.134 A 
ATOM     80  C   UNL A   1      42.472  24.189  26.489  1.00  0.00     0.134 A 
ATOM     81  F   UNL A   1      45.133  26.071  24.909  1.00  0.00    -0.206 F 
ATOM     82  C   UNL A   1      44.524  23.820  24.676  1.00  0.00     0.040 A 
ATOM     83  C   UNL A   1      42.688  22.926  25.923  1.00  0.00     0.040 A 
ATOM     84  F   UNL A   1      41.510  24.258  27.420  1.00  0.00    -0.206 F 
ATOM     85  C   UNL A   1      43.727  22.734  25.023  1.00  0.00     0.006 A 
ENDBRANCH  57  78
BRANCH  69  86
ATOM     86  C   UNL A   1      45.085  30.765  28.694  1.00  0.00     0.057 A 
ATOM     87  C   UNL A   1      46.366  31.089  28.219  1.00  0.00     0.134 A 
ATOM     88  C   UNL A   1      44.003  31.297  27.985  1.00  0.00     0.134 A 
ATOM     89  F   UNL A   1      47.462  30.551  28.761  1.00  0.00    -0.206 F 
ATOM     90  C   UNL A   1      46.562  31.926  27.116  1.00  0.00     0.040 A 
ATOM     91  C   UNL A   1      44.183  32.107  26.861  1.00  0.00     0.040 A 
ATOM     92  F   UNL A   1      42.747  30.983  28.337  1.00  0.00    -0.206 F 
ATOM     93  C   UNL A   1      45.466  32.431  26.427  1.00  0.00     0.006 A 
ENDBRANCH  69  86
ENDBRANCH  43  44
ENDBRANCH  35  38
ENDBRANCH  33  34
ENDBRANCH  32  33
ENDBRANCH  31  32
ENDBRANCH   1  31
TORSDOF 16
ENDMDL
MODEL 3
REMARK VINA RESULT:     -12.9      2.305      6.856
REMARK SMILES Cc1nccn1C1(C(=O)NCCCCCCNC(=O)c2ccc(-c3c4nc(c(-c5c(F)cccc5F)c5ccc([nH]5)c(-c5c(F)cccc5F)c5nc(c(-c6c(F)cccc6F)c6ccc3[nH]6)C=C5)C=C4)cc2)CCN(C(=O)[C@@H]2C[C@H]2c2ccccc2)CC1
REMARK SMILES IDX 13 1 12 2 11 3 10 4 8 5 9 6 7 8 74 9 89 10 75 11 88 12 76 13
REMARK SMILES IDX 77 14 78 15 6 16 1 17 2 18 3 19 4 20 5 21 79 22 80 23 81 24
REMARK SMILES IDX 82 25 83 26 87 27 84 28 86 29 85 30 14 31 15 32 16 33 17 34
REMARK SMILES IDX 18 35 19 37 20 38 21 39 73 40 22 41 72 42 23 43 24 44 25 45
REMARK SMILES IDX 66 46 26 47 71 48 65 49 67 50 27 51 70 52 64 53 63 54 28 56
REMARK SMILES IDX 54 57 37 58 53 59 38 60 41 61 52 62 68 63 39 64 40 65 51 67
REMARK SMILES IDX 69 68 42 69 29 70 30 71 35 72 31 73 32 74 34 75 36 76 33 77
REMARK SMILES IDX 55 78 56 79 61 80 57 81 58 82 60 83 62 84 59 85 43 86 44 87
REMARK SMILES IDX 49 88 45 89 46 90 48 91 50 92 47 93
REMARK H PARENT 10 7 17 36 67 55 41 66
REMARK Flexibility Score: inf
ROOT
ATOM      1  C   UNL A   1      34.355  29.090  26.857  1.00  0.00     0.002 C 
ENDROOT
BRANCH   1   2
ATOM      2  C   UNL A   1      33.034  28.815  27.591  1.00  0.00     0.021 C 
BRANCH   2   3
ATOM      3  C   UNL A   1      31.803  28.677  26.688  1.00  0.00     0.116 C 
BRANCH   3   4
ATOM      4  N   UNL A   1      31.136  27.400  26.899  1.00  0.00    -0.354 N 
ATOM      5  C   UNL A   1      31.107  26.224  26.196  1.00  0.00     0.246 C 
ATOM      6  O   UNL A   1      30.163  25.497  26.518  1.00  0.00    -0.272 OA
ATOM      7  H   UNL A   1      30.591  27.378  27.718  1.00  0.00     0.163 HD
BRANCH   5   8
ATOM      8  C   UNL A   1      32.161  25.862  25.070  1.00  0.00     0.127 C 
ATOM      9  C   UNL A   1      33.515  25.716  25.813  1.00  0.00     0.061 C 
ATOM     10  C   UNL A   1      31.637  24.574  24.390  1.00  0.00     0.061 C 
ATOM     11  C   UNL A   1      34.399  24.514  25.464  1.00  0.00     0.122 C 
ATOM     12  C   UNL A   1      32.773  23.823  23.754  1.00  0.00     0.122 C 
ATOM     13  N   UNL A   1      33.736  23.418  24.762  1.00  0.00    -0.342 N 
ATOM     14  C   UNL A   1      34.260  22.135  24.973  1.00  0.00     0.226 C 
ATOM     15  O   UNL A   1      35.301  21.990  25.614  1.00  0.00    -0.275 OA
BRANCH   8  16
ATOM     16  N   UNL A   1      32.264  26.909  23.976  1.00  0.00    -0.320 N 
ATOM     17  C   UNL A   1      29.790  27.469  23.230  1.00  0.00     0.087 C 
ATOM     18  C   UNL A   1      31.272  27.616  23.273  1.00  0.00     0.106 A 
ATOM     19  N   UNL A   1      31.814  28.549  22.510  1.00  0.00    -0.242 NA
ATOM     20  C   UNL A   1      33.152  28.474  22.681  1.00  0.00     0.131 A 
ATOM     21  C   UNL A   1      33.453  27.510  23.600  1.00  0.00     0.108 A 
ENDBRANCH   8  16
BRANCH  14  22
ATOM     22  C   UNL A   1      33.585  20.868  24.549  1.00  0.00     0.087 C 
ATOM     23  C   UNL A   1      32.119  20.658  24.859  1.00  0.00     0.023 C 
ATOM     24  C   UNL A   1      33.147  19.696  25.374  1.00  0.00     0.032 C 
BRANCH  24  25
ATOM     25  C   UNL A   1      33.280  18.266  24.966  1.00  0.00    -0.044 A 
ATOM     26  C   UNL A   1      32.475  17.312  25.607  1.00  0.00     0.004 A 
ATOM     27  C   UNL A   1      34.422  17.824  24.281  1.00  0.00     0.004 A 
ATOM     28  C   UNL A   1      32.864  15.977  25.673  1.00  0.00     0.000 A 
ATOM     29  C   UNL A   1      34.810  16.486  24.340  1.00  0.00     0.000 A 
ATOM     30  C   UNL A   1      34.048  15.571  25.064  1.00  0.00     0.000 A 
ENDBRANCH  24  25
ENDBRANCH  14  22
ENDBRANCH   5   8
ENDBRANCH   3   4
ENDBRANCH   2   3
ENDBRANCH   1   2
BRANCH   1  31
ATOM     31  C   UNL A   1      35.202  30.258  27.386  1.00  0.00     0.002 C 
BRANCH  31  32
ATOM     32  C   UNL A   1      34.474  31.585  27.648  1.00  0.00     0.021 C 
BRANCH  32  33
ATOM     33  C   UNL A   1      35.340  32.651  28.298  1.00  0.00     0.116 C 
BRANCH  33  34
ATOM     34  N   UNL A   1      34.983  32.918  29.698  1.00  0.00    -0.352 N 
ATOM     35  C   UNL A   1      35.329  32.203  30.840  1.00  0.00     0.251 C 
ATOM     36  H   UNL A   1      34.422  33.712  29.848  1.00  0.00     0.163 HD
ATOM     37  O   UNL A   1      34.692  32.306  31.871  1.00  0.00    -0.269 OA
BRANCH  35  38
ATOM     38  C   UNL A   1      36.516  31.330  30.778  1.00  0.00     0.039 A 
ATOM     39  C   UNL A   1      36.457  29.946  30.574  1.00  0.00     0.014 A 
ATOM     40  C   UNL A   1      37.737  31.968  30.908  1.00  0.00     0.014 A 
ATOM     41  C   UNL A   1      37.657  29.240  30.482  1.00  0.00     0.010 A 
ATOM     42  C   UNL A   1      38.860  31.349  30.469  1.00  0.00     0.010 A 
ATOM     43  C   UNL A   1      38.854  29.966  30.445  1.00  0.00    -0.014 A 
BRANCH  43  44
ATOM     44  C   UNL A   1      40.175  29.375  30.369  1.00  0.00     0.031 A 
ATOM     45  C   UNL A   1      40.809  29.131  31.682  1.00  0.00     0.074 A 
ATOM     46  C   UNL A   1      40.594  28.798  29.217  1.00  0.00     0.049 A 
ATOM     47  N   UNL A   1      41.868  29.696  32.152  1.00  0.00    -0.248 NA
ATOM     48  C   UNL A   1      40.097  28.291  32.659  1.00  0.00     0.031 C 
ATOM     49  C   UNL A   1      39.882  28.690  27.931  1.00  0.00     0.029 A 
ATOM     50  N   UNL A   1      41.709  28.054  28.995  1.00  0.00    -0.354 N 
ATOM     51  C   UNL A   1      42.083  29.117  33.399  1.00  0.00     0.074 A 
ATOM     52  C   UNL A   1      40.856  28.452  33.745  1.00  0.00     0.031 C 
ATOM     53  C   UNL A   1      40.471  27.750  27.160  1.00  0.00     0.029 A 
ATOM     54  C   UNL A   1      41.677  27.298  27.823  1.00  0.00     0.049 A 
ATOM     55  H   UNL A   1      42.476  28.050  29.611  1.00  0.00     0.167 HD
ATOM     56  C   UNL A   1      43.339  29.015  33.914  1.00  0.00     0.037 A 
ATOM     57  C   UNL A   1      42.572  26.339  27.474  1.00  0.00     0.037 A 
ATOM     58  C   UNL A   1      44.266  29.823  33.156  1.00  0.00     0.049 A 
ATOM     59  C   UNL A   1      43.795  26.580  28.289  1.00  0.00     0.074 A 
ATOM     60  C   UNL A   1      44.357  31.171  32.866  1.00  0.00     0.029 A 
ATOM     61  N   UNL A   1      45.046  29.182  32.221  1.00  0.00    -0.354 N 
ATOM     62  N   UNL A   1      44.554  27.633  28.146  1.00  0.00    -0.248 NA
ATOM     63  C   UNL A   1      43.872  25.932  29.592  1.00  0.00     0.031 C 
ATOM     64  C   UNL A   1      44.768  31.224  31.502  1.00  0.00     0.029 A 
ATOM     65  C   UNL A   1      44.995  29.918  31.065  1.00  0.00     0.049 A 
ATOM     66  H   UNL A   1      45.549  28.347  32.358  1.00  0.00     0.167 HD
ATOM     67  C   UNL A   1      44.858  28.033  29.441  1.00  0.00     0.074 A 
ATOM     68  C   UNL A   1      44.469  26.906  30.288  1.00  0.00     0.031 C 
ATOM     69  C   UNL A   1      45.096  29.346  29.740  1.00  0.00     0.037 A 
BRANCH  56  70
ATOM     70  C   UNL A   1      43.818  27.921  34.837  1.00  0.00     0.057 A 
ATOM     71  C   UNL A   1      44.394  28.284  36.070  1.00  0.00     0.134 A 
ATOM     72  C   UNL A   1      44.003  26.574  34.470  1.00  0.00     0.134 A 
ATOM     73  F   UNL A   1      44.281  29.536  36.542  1.00  0.00    -0.206 F 
ATOM     74  C   UNL A   1      45.178  27.404  36.823  1.00  0.00     0.040 A 
ATOM     75  C   UNL A   1      44.740  25.672  35.242  1.00  0.00     0.040 A 
ATOM     76  F   UNL A   1      43.574  26.073  33.307  1.00  0.00    -0.206 F 
ATOM     77  C   UNL A   1      45.364  26.094  36.403  1.00  0.00     0.006 A 
ENDBRANCH  56  70
BRANCH  57  78
ATOM     78  C   UNL A   1      42.329  25.083  26.722  1.00  0.00     0.057 A 
ATOM     79  C   UNL A   1      43.127  24.712  25.629  1.00  0.00     0.134 A 
ATOM     80  C   UNL A   1      41.466  24.084  27.212  1.00  0.00     0.134 A 
ATOM     81  F   UNL A   1      44.013  25.575  25.111  1.00  0.00    -0.206 F 
ATOM     82  C   UNL A   1      43.084  23.424  25.071  1.00  0.00     0.040 A 
ATOM     83  C   UNL A   1      41.408  22.798  26.661  1.00  0.00     0.040 A 
ATOM     84  F   UNL A   1      40.709  24.291  28.299  1.00  0.00    -0.206 F 
ATOM     85  C   UNL A   1      42.229  22.459  25.594  1.00  0.00     0.006 A 
ENDBRANCH  57  78
BRANCH  69  86
ATOM     86  C   UNL A   1      45.227  30.326  28.602  1.00  0.00     0.057 A 
ATOM     87  C   UNL A   1      46.395  30.500  27.843  1.00  0.00     0.134 A 
ATOM     88  C   UNL A   1      44.078  30.971  28.136  1.00  0.00     0.134 A 
ATOM     89  F   UNL A   1      47.521  29.846  28.144  1.00  0.00    -0.206 F 
ATOM     90  C   UNL A   1      46.427  31.302  26.699  1.00  0.00     0.040 A 
ATOM     91  C   UNL A   1      44.086  31.749  26.975  1.00  0.00     0.040 A 
ATOM     92  F   UNL A   1      42.907  30.804  28.769  1.00  0.00    -0.206 F 
ATOM     93  C   UNL A   1      45.266  31.923  26.256  1.00  0.00     0.006 A 
ENDBRANCH  69  86
ENDBRANCH  43  44
ENDBRANCH  35  38
ENDBRANCH  33  34
ENDBRANCH  32  33
ENDBRANCH  31  32
ENDBRANCH   1  31
TORSDOF 16
ENDMDL
