MODEL 1
REMARK VINA RESULT:     -11.8      0.000      0.000
REMARK SMILES O=C(CCC(=O)N1CCC(c2nnc3ccccn23)CC1)NCCCCCCNC(=O)c1ccc(-c2c3nc(c(-c4c(F)cccc4F)c4ccc([nH]4)c(-c4c(F)cccc4F)c4nc(c(-c5c(F)cccc5F)c5ccc2[nH]5)C=C4)C=C3)cc1
REMARK SMILES IDX 25 1 24 2 23 3 22 4 1 5 2 6 3 8 4 9 5 10 6 11 7 12 8 13
REMARK SMILES IDX 21 14 9 15 20 16 10 17 11 18 12 19 19 20 13 21 14 22 18 23
REMARK SMILES IDX 15 24 17 25 16 26 26 27 27 28 28 29 29 30 30 31 31 33 32 34
REMARK SMILES IDX 33 35 85 36 34 37 84 38 35 39 36 40 37 41 78 42 38 43 83 44
REMARK SMILES IDX 77 45 79 46 39 47 82 48 76 49 75 50 40 52 66 53 49 54 65 55
REMARK SMILES IDX 50 56 53 57 64 58 80 59 51 60 52 61 63 63 81 64 54 65 41 66
REMARK SMILES IDX 42 67 47 68 43 69 44 70 46 71 48 72 45 73 67 74 68 75 73 76
REMARK SMILES IDX 69 77 70 78 72 79 74 80 71 81 55 82 56 83 61 84 57 85 58 86
REMARK SMILES IDX 60 87 62 88 59 89
REMARK H PARENT 22 7 29 32 79 51 53 62
REMARK Flexibility Score: inf
ROOT
ATOM      1  C   UNL A   1      34.354  32.060  28.618  1.00  0.00     0.002 C 
ENDROOT
BRANCH   1   2
ATOM      2  C   UNL A   1      35.523  31.407  27.867  1.00  0.00     0.021 C 
BRANCH   2   3
ATOM      3  C   UNL A   1      35.446  29.902  27.554  1.00  0.00     0.116 C 
BRANCH   3   4
ATOM      4  N   UNL A   1      34.182  29.238  27.852  1.00  0.00    -0.356 N 
ATOM      5  O   UNL A   1      33.329  29.617  25.754  1.00  0.00    -0.275 OA
ATOM      6  C   UNL A   1      33.253  29.033  26.832  1.00  0.00     0.220 C 
ATOM      7  H   UNL A   1      33.985  28.937  28.769  1.00  0.00     0.163 HD
BRANCH   6   8
ATOM      8  C   UNL A   1      32.202  27.936  27.088  1.00  0.00     0.110 C 
BRANCH   8   9
ATOM      9  C   UNL A   1      32.106  26.948  25.901  1.00  0.00     0.110 C 
BRANCH   9  10
ATOM     10  C   UNL A   1      31.489  25.522  25.988  1.00  0.00     0.223 C 
ATOM     11  O   UNL A   1      30.594  25.314  26.814  1.00  0.00    -0.275 OA
ATOM     12  N   UNL A   1      31.804  24.552  25.051  1.00  0.00    -0.343 N 
ATOM     13  C   UNL A   1      30.957  23.375  24.798  1.00  0.00     0.120 C 
ATOM     14  C   UNL A   1      33.085  24.480  24.425  1.00  0.00     0.120 C 
ATOM     15  C   UNL A   1      31.695  22.027  24.999  1.00  0.00     0.033 C 
ATOM     16  C   UNL A   1      33.816  23.278  24.946  1.00  0.00     0.033 C 
ATOM     17  C   UNL A   1      33.104  22.060  24.394  1.00  0.00     0.062 C 
BRANCH  17  18
ATOM     18  C   UNL A   1      33.958  20.865  24.642  1.00  0.00     0.140 A 
ATOM     19  N   UNL A   1      35.176  20.881  25.154  1.00  0.00    -0.134 NA
ATOM     20  N   UNL A   1      33.679  19.597  24.186  1.00  0.00    -0.286 N 
ATOM     21  N   UNL A   1      35.700  19.617  25.076  1.00  0.00    -0.130 NA
ATOM     22  C   UNL A   1      34.791  18.843  24.527  1.00  0.00     0.160 A 
ATOM     23  C   UNL A   1      32.581  19.086  23.499  1.00  0.00     0.095 A 
ATOM     24  C   UNL A   1      34.765  17.461  24.208  1.00  0.00     0.050 A 
ATOM     25  C   UNL A   1      32.566  17.780  23.181  1.00  0.00     0.019 A 
ATOM     26  C   UNL A   1      33.694  16.948  23.569  1.00  0.00     0.005 A 
ENDBRANCH  17  18
ENDBRANCH   9  10
ENDBRANCH   8   9
ENDBRANCH   6   8
ENDBRANCH   3   4
ENDBRANCH   2   3
ENDBRANCH   1   2
BRANCH   1  27
ATOM     27  C   UNL A   1      34.573  33.467  29.188  1.00  0.00     0.002 C 
BRANCH  27  28
ATOM     28  C   UNL A   1      33.456  34.484  28.990  1.00  0.00     0.021 C 
BRANCH  28  29
ATOM     29  C   UNL A   1      33.618  35.812  29.718  1.00  0.00     0.116 C 
BRANCH  29  30
ATOM     30  N   UNL A   1      32.583  36.158  30.688  1.00  0.00    -0.352 N 
ATOM     31  C   UNL A   1      32.641  35.965  32.056  1.00  0.00     0.251 C 
ATOM     32  H   UNL A   1      31.762  36.569  30.332  1.00  0.00     0.163 HD
ATOM     33  O   UNL A   1      31.827  36.425  32.837  1.00  0.00    -0.269 OA
BRANCH  31  34
ATOM     34  C   UNL A   1      33.743  35.167  32.595  1.00  0.00     0.039 A 
ATOM     35  C   UNL A   1      33.534  33.824  32.918  1.00  0.00     0.014 A 
ATOM     36  C   UNL A   1      35.000  35.761  32.682  1.00  0.00     0.014 A 
ATOM     37  C   UNL A   1      34.628  33.044  33.270  1.00  0.00     0.010 A 
ATOM     38  C   UNL A   1      36.095  34.959  32.913  1.00  0.00     0.010 A 
ATOM     39  C   UNL A   1      35.914  33.603  33.227  1.00  0.00    -0.014 A 
BRANCH  39  40
ATOM     40  C   UNL A   1      37.114  32.818  33.563  1.00  0.00     0.031 A 
ATOM     41  C   UNL A   1      37.801  33.101  34.866  1.00  0.00     0.074 A 
ATOM     42  C   UNL A   1      37.617  31.971  32.649  1.00  0.00     0.049 A 
ATOM     43  N   UNL A   1      38.951  32.672  35.306  1.00  0.00    -0.248 NA
ATOM     44  C   UNL A   1      37.125  34.049  35.771  1.00  0.00     0.031 C 
ATOM     45  C   UNL A   1      37.030  31.692  31.335  1.00  0.00     0.029 A 
ATOM     46  N   UNL A   1      38.741  31.194  32.682  1.00  0.00    -0.354 N 
ATOM     47  C   UNL A   1      39.158  33.338  36.508  1.00  0.00     0.074 A 
ATOM     48  C   UNL A   1      38.050  34.245  36.696  1.00  0.00     0.031 C 
ATOM     49  C   UNL A   1      37.776  30.770  30.707  1.00  0.00     0.029 A 
ATOM     50  C   UNL A   1      38.913  30.431  31.552  1.00  0.00     0.049 A 
ATOM     51  H   UNL A   1      39.367  31.181  33.441  1.00  0.00     0.167 HD
ATOM     52  C   UNL A   1      40.176  33.180  37.385  1.00  0.00     0.037 A 
ATOM     53  C   UNL A   1      39.887  29.554  31.253  1.00  0.00     0.037 A 
ATOM     54  C   UNL A   1      41.232  32.227  37.179  1.00  0.00     0.049 A 
ATOM     55  C   UNL A   1      40.977  29.352  32.269  1.00  0.00     0.074 A 
ATOM     56  C   UNL A   1      42.285  31.904  38.011  1.00  0.00     0.029 A 
ATOM     57  N   UNL A   1      41.353  31.432  36.044  1.00  0.00    -0.354 N 
ATOM     58  N   UNL A   1      41.142  29.942  33.432  1.00  0.00    -0.248 NA
ATOM     59  C   UNL A   1      42.008  28.365  31.939  1.00  0.00     0.031 C 
ATOM     60  C   UNL A   1      43.067  30.942  37.361  1.00  0.00     0.029 A 
ATOM     61  C   UNL A   1      42.473  30.628  36.145  1.00  0.00     0.049 A 
ATOM     62  H   UNL A   1      40.732  31.440  35.280  1.00  0.00     0.167 HD
ATOM     63  C   UNL A   1      42.284  29.383  33.985  1.00  0.00     0.074 A 
ATOM     64  C   UNL A   1      42.754  28.390  33.035  1.00  0.00     0.031 C 
ATOM     65  C   UNL A   1      42.898  29.660  35.163  1.00  0.00     0.037 A 
BRANCH  52  66
ATOM     66  C   UNL A   1      40.181  34.062  38.604  1.00  0.00     0.057 A 
ATOM     67  C   UNL A   1      40.856  35.291  38.639  1.00  0.00     0.134 A 
ATOM     68  C   UNL A   1      39.537  33.655  39.780  1.00  0.00     0.134 A 
ATOM     69  F   UNL A   1      41.513  35.738  37.556  1.00  0.00    -0.206 F 
ATOM     70  C   UNL A   1      40.933  36.056  39.805  1.00  0.00     0.040 A 
ATOM     71  C   UNL A   1      39.576  34.427  40.942  1.00  0.00     0.040 A 
ATOM     72  F   UNL A   1      38.872  32.491  39.825  1.00  0.00    -0.206 F 
ATOM     73  C   UNL A   1      40.288  35.625  40.962  1.00  0.00     0.006 A 
ENDBRANCH  52  66
BRANCH  53  74
ATOM     74  C   UNL A   1      39.829  28.771  29.992  1.00  0.00     0.057 A 
ATOM     75  C   UNL A   1      40.462  29.237  28.833  1.00  0.00     0.134 A 
ATOM     76  C   UNL A   1      39.187  27.530  29.915  1.00  0.00     0.134 A 
ATOM     77  F   UNL A   1      41.091  30.423  28.838  1.00  0.00    -0.206 F 
ATOM     78  C   UNL A   1      40.447  28.507  27.643  1.00  0.00     0.040 A 
ATOM     79  C   UNL A   1      39.184  26.777  28.739  1.00  0.00     0.040 A 
ATOM     80  F   UNL A   1      38.575  27.016  30.993  1.00  0.00    -0.206 F 
ATOM     81  C   UNL A   1      39.812  27.268  27.595  1.00  0.00     0.006 A 
ENDBRANCH  53  74
BRANCH  65  82
ATOM     82  C   UNL A   1      44.122  28.855  35.477  1.00  0.00     0.057 A 
ATOM     83  C   UNL A   1      45.401  29.281  35.099  1.00  0.00     0.134 A 
ATOM     84  C   UNL A   1      44.017  27.648  36.179  1.00  0.00     0.134 A 
ATOM     85  F   UNL A   1      45.563  30.422  34.412  1.00  0.00    -0.206 F 
ATOM     86  C   UNL A   1      46.532  28.514  35.376  1.00  0.00     0.040 A 
ATOM     87  C   UNL A   1      45.143  26.890  36.491  1.00  0.00     0.040 A 
ATOM     88  F   UNL A   1      42.820  27.194  36.578  1.00  0.00    -0.206 F 
ATOM     89  C   UNL A   1      46.404  27.318  36.080  1.00  0.00     0.006 A 
ENDBRANCH  65  82
ENDBRANCH  39  40
ENDBRANCH  31  34
ENDBRANCH  29  30
ENDBRANCH  28  29
ENDBRANCH  27  28
ENDBRANCH   1  27
TORSDOF 16
ENDMDL
MODEL 2
REMARK VINA RESULT:     -11.5      1.016      1.859
REMARK SMILES O=C(CCC(=O)N1CCC(c2nnc3ccccn23)CC1)NCCCCCCNC(=O)c1ccc(-c2c3nc(c(-c4c(F)cccc4F)c4ccc([nH]4)c(-c4c(F)cccc4F)c4nc(c(-c5c(F)cccc5F)c5ccc2[nH]5)C=C4)C=C3)cc1
REMARK SMILES IDX 25 1 24 2 23 3 22 4 1 5 2 6 3 8 4 9 5 10 6 11 7 12 8 13
REMARK SMILES IDX 21 14 9 15 20 16 10 17 11 18 12 19 19 20 13 21 14 22 18 23
REMARK SMILES IDX 15 24 17 25 16 26 26 27 27 28 28 29 29 30 30 31 31 33 32 34
REMARK SMILES IDX 33 35 85 36 34 37 84 38 35 39 36 40 37 41 78 42 38 43 83 44
REMARK SMILES IDX 77 45 79 46 39 47 82 48 76 49 75 50 40 52 66 53 49 54 65 55
REMARK SMILES IDX 50 56 53 57 64 58 80 59 51 60 52 61 63 63 81 64 54 65 41 66
REMARK SMILES IDX 42 67 47 68 43 69 44 70 46 71 48 72 45 73 67 74 68 75 73 76
REMARK SMILES IDX 69 77 70 78 72 79 74 80 71 81 55 82 56 83 61 84 57 85 58 86
REMARK SMILES IDX 60 87 62 88 59 89
REMARK H PARENT 22 7 29 32 79 51 53 62
REMARK Flexibility Score: inf
ROOT
ATOM      1  C   UNL A   1      34.454  32.061  28.616  1.00  0.00     0.002 C 
ENDROOT
BRANCH   1   2
ATOM      2  C   UNL A   1      35.385  31.189  27.761  1.00  0.00     0.021 C 
BRANCH   2   3
ATOM      3  C   UNL A   1      35.134  29.671  27.717  1.00  0.00     0.116 C 
BRANCH   3   4
ATOM      4  N   UNL A   1      33.744  29.237  27.791  1.00  0.00    -0.356 N 
ATOM      5  O   UNL A   1      33.426  29.403  25.523  1.00  0.00    -0.275 OA
ATOM      6  C   UNL A   1      33.029  29.006  26.617  1.00  0.00     0.220 C 
ATOM      7  H   UNL A   1      33.311  29.109  28.667  1.00  0.00     0.163 HD
BRANCH   6   8
ATOM      8  C   UNL A   1      31.781  28.113  26.751  1.00  0.00     0.110 C 
BRANCH   8   9
ATOM      9  C   UNL A   1      31.071  27.913  25.390  1.00  0.00     0.110 C 
BRANCH   9  10
ATOM     10  C   UNL A   1      30.559  26.545  24.855  1.00  0.00     0.223 C 
ATOM     11  O   UNL A   1      29.367  26.258  25.011  1.00  0.00    -0.275 OA
ATOM     12  N   UNL A   1      31.367  25.741  24.069  1.00  0.00    -0.343 N 
ATOM     13  C   UNL A   1      30.837  24.696  23.178  1.00  0.00     0.120 C 
ATOM     14  C   UNL A   1      32.784  25.690  24.231  1.00  0.00     0.120 C 
ATOM     15  C   UNL A   1      31.397  23.283  23.482  1.00  0.00     0.033 C 
ATOM     16  C   UNL A   1      33.160  24.363  24.821  1.00  0.00     0.033 C 
ATOM     17  C   UNL A   1      32.907  23.320  23.750  1.00  0.00     0.062 C 
BRANCH  17  18
ATOM     18  C   UNL A   1      33.534  22.041  24.182  1.00  0.00     0.140 A 
ATOM     19  N   UNL A   1      32.893  20.998  24.680  1.00  0.00    -0.134 NA
ATOM     20  N   UNL A   1      34.888  21.839  24.312  1.00  0.00    -0.286 N 
ATOM     21  N   UNL A   1      33.816  20.081  25.110  1.00  0.00    -0.130 NA
ATOM     22  C   UNL A   1      35.009  20.571  24.859  1.00  0.00     0.160 A 
ATOM     23  C   UNL A   1      35.975  22.662  24.025  1.00  0.00     0.095 A 
ATOM     24  C   UNL A   1      36.320  20.074  25.072  1.00  0.00     0.050 A 
ATOM     25  C   UNL A   1      37.217  22.196  24.244  1.00  0.00     0.019 A 
ATOM     26  C   UNL A   1      37.381  20.850  24.770  1.00  0.00     0.005 A 
ENDBRANCH  17  18
ENDBRANCH   9  10
ENDBRANCH   8   9
ENDBRANCH   6   8
ENDBRANCH   3   4
ENDBRANCH   2   3
ENDBRANCH   1   2
BRANCH   1  27
ATOM     27  C   UNL A   1      34.548  33.582  28.445  1.00  0.00     0.002 C 
BRANCH  27  28
ATOM     28  C   UNL A   1      33.319  34.405  28.811  1.00  0.00     0.021 C 
BRANCH  28  29
ATOM     29  C   UNL A   1      33.576  35.683  29.600  1.00  0.00     0.116 C 
BRANCH  29  30
ATOM     30  N   UNL A   1      32.557  36.068  30.571  1.00  0.00    -0.352 N 
ATOM     31  C   UNL A   1      32.636  35.927  31.945  1.00  0.00     0.251 C 
ATOM     32  H   UNL A   1      31.731  36.468  30.213  1.00  0.00     0.163 HD
ATOM     33  O   UNL A   1      31.835  36.420  32.720  1.00  0.00    -0.269 OA
BRANCH  31  34
ATOM     34  C   UNL A   1      33.744  35.148  32.497  1.00  0.00     0.039 A 
ATOM     35  C   UNL A   1      33.534  33.822  32.885  1.00  0.00     0.014 A 
ATOM     36  C   UNL A   1      35.006  35.737  32.532  1.00  0.00     0.014 A 
ATOM     37  C   UNL A   1      34.632  33.052  33.249  1.00  0.00     0.010 A 
ATOM     38  C   UNL A   1      36.102  34.940  32.777  1.00  0.00     0.010 A 
ATOM     39  C   UNL A   1      35.920  33.601  33.155  1.00  0.00    -0.014 A 
BRANCH  39  40
ATOM     40  C   UNL A   1      37.122  32.824  33.502  1.00  0.00     0.031 A 
ATOM     41  C   UNL A   1      37.788  33.103  34.816  1.00  0.00     0.074 A 
ATOM     42  C   UNL A   1      37.645  31.988  32.589  1.00  0.00     0.049 A 
ATOM     43  N   UNL A   1      38.935  32.681  35.269  1.00  0.00    -0.248 NA
ATOM     44  C   UNL A   1      37.091  34.038  35.719  1.00  0.00     0.031 C 
ATOM     45  C   UNL A   1      37.079  31.714  31.264  1.00  0.00     0.029 A 
ATOM     46  N   UNL A   1      38.776  31.221  32.631  1.00  0.00    -0.354 N 
ATOM     47  C   UNL A   1      39.119  33.340  36.480  1.00  0.00     0.074 A 
ATOM     48  C   UNL A   1      38.001  34.235  36.658  1.00  0.00     0.031 C 
ATOM     49  C   UNL A   1      37.842  30.804  30.640  1.00  0.00     0.029 A 
ATOM     50  C   UNL A   1      38.971  30.468  31.498  1.00  0.00     0.049 A 
ATOM     51  H   UNL A   1      39.392  31.208  33.399  1.00  0.00     0.167 HD
ATOM     52  C   UNL A   1      40.126  33.184  37.369  1.00  0.00     0.037 A 
ATOM     53  C   UNL A   1      39.956  29.603  31.206  1.00  0.00     0.037 A 
ATOM     54  C   UNL A   1      41.194  32.243  37.171  1.00  0.00     0.049 A 
ATOM     55  C   UNL A   1      41.034  29.403  32.236  1.00  0.00     0.074 A 
ATOM     56  C   UNL A   1      42.239  31.922  38.015  1.00  0.00     0.029 A 
ATOM     57  N   UNL A   1      41.338  31.457  36.032  1.00  0.00    -0.354 N 
ATOM     58  N   UNL A   1      41.177  29.985  33.405  1.00  0.00    -0.248 NA
ATOM     59  C   UNL A   1      42.079  28.428  31.913  1.00  0.00     0.031 C 
ATOM     60  C   UNL A   1      43.038  30.972  37.368  1.00  0.00     0.029 A 
ATOM     61  C   UNL A   1      42.464  30.663  36.142  1.00  0.00     0.049 A 
ATOM     62  H   UNL A   1      40.727  31.466  35.259  1.00  0.00     0.167 HD
ATOM     63  C   UNL A   1      42.316  29.433  33.970  1.00  0.00     0.074 A 
ATOM     64  C   UNL A   1      42.809  28.451  33.020  1.00  0.00     0.031 C 
ATOM     65  C   UNL A   1      42.911  29.706  35.159  1.00  0.00     0.037 A 
BRANCH  52  66
ATOM     66  C   UNL A   1      40.106  34.056  38.595  1.00  0.00     0.057 A 
ATOM     67  C   UNL A   1      40.788  35.281  38.656  1.00  0.00     0.134 A 
ATOM     68  C   UNL A   1      39.430  33.644  39.750  1.00  0.00     0.134 A 
ATOM     69  F   UNL A   1      41.475  35.732  37.594  1.00  0.00    -0.206 F 
ATOM     70  C   UNL A   1      40.840  36.036  39.830  1.00  0.00     0.040 A 
ATOM     71  C   UNL A   1      39.445  34.408  40.920  1.00  0.00     0.040 A 
ATOM     72  F   UNL A   1      38.757  32.485  39.770  1.00  0.00    -0.206 F 
ATOM     73  C   UNL A   1      40.164  35.601  40.967  1.00  0.00     0.006 A 
ENDBRANCH  52  66
BRANCH  53  74
ATOM     74  C   UNL A   1      39.924  28.830  29.939  1.00  0.00     0.057 A 
ATOM     75  C   UNL A   1      39.240  27.610  29.864  1.00  0.00     0.134 A 
ATOM     76  C   UNL A   1      40.529  29.296  28.766  1.00  0.00     0.134 A 
ATOM     77  F   UNL A   1      38.643  27.103  30.954  1.00  0.00    -0.206 F 
ATOM     78  C   UNL A   1      39.170  26.877  28.678  1.00  0.00     0.040 A 
ATOM     79  C   UNL A   1      40.447  28.587  27.566  1.00  0.00     0.040 A 
ATOM     80  F   UNL A   1      41.186  30.466  28.762  1.00  0.00    -0.206 F 
ATOM     81  C   UNL A   1      39.769  27.369  27.520  1.00  0.00     0.006 A 
ENDBRANCH  53  74
BRANCH  65  82
ATOM     82  C   UNL A   1      44.138  28.910  35.484  1.00  0.00     0.057 A 
ATOM     83  C   UNL A   1      44.069  27.699  36.183  1.00  0.00     0.134 A 
ATOM     84  C   UNL A   1      45.402  29.356  35.076  1.00  0.00     0.134 A 
ATOM     85  F   UNL A   1      42.887  27.228  36.612  1.00  0.00    -0.206 F 
ATOM     86  C   UNL A   1      45.218  26.977  36.499  1.00  0.00     0.040 A 
ATOM     87  C   UNL A   1      46.555  28.627  35.357  1.00  0.00     0.040 A 
ATOM     88  F   UNL A   1      45.531  30.503  34.392  1.00  0.00    -0.206 F 
ATOM     89  C   UNL A   1      46.465  27.438  36.080  1.00  0.00     0.006 A 
ENDBRANCH  65  82
ENDBRANCH  39  40
ENDBRANCH  31  34
ENDBRANCH  29  30
ENDBRANCH  28  29
ENDBRANCH  27  28
ENDBRANCH   1  27
TORSDOF 16
ENDMDL
MODEL 3
REMARK VINA RESULT:     -11.3      3.809      9.223
REMARK SMILES O=C(CCC(=O)N1CCC(c2nnc3ccccn23)CC1)NCCCCCCNC(=O)c1ccc(-c2c3nc(c(-c4c(F)cccc4F)c4ccc([nH]4)c(-c4c(F)cccc4F)c4nc(c(-c5c(F)cccc5F)c5ccc2[nH]5)C=C4)C=C3)cc1
REMARK SMILES IDX 25 1 24 2 23 3 22 4 1 5 2 6 3 8 4 9 5 10 6 11 7 12 8 13
REMARK SMILES IDX 21 14 9 15 20 16 10 17 11 18 12 19 19 20 13 21 14 22 18 23
REMARK SMILES IDX 15 24 17 25 16 26 26 27 27 28 28 29 29 30 30 31 31 33 32 34
REMARK SMILES IDX 33 35 85 36 34 37 84 38 35 39 36 40 37 41 78 42 38 43 83 44
REMARK SMILES IDX 77 45 79 46 39 47 82 48 76 49 75 50 40 52 66 53 49 54 65 55
REMARK SMILES IDX 50 56 53 57 64 58 80 59 51 60 52 61 63 63 81 64 54 65 41 66
REMARK SMILES IDX 42 67 47 68 43 69 44 70 46 71 48 72 45 73 67 74 68 75 73 76
REMARK SMILES IDX 69 77 70 78 72 79 74 80 71 81 55 82 56 83 61 84 57 85 58 86
REMARK SMILES IDX 60 87 62 88 59 89
REMARK H PARENT 22 7 29 32 79 51 53 62
REMARK Flexibility Score: inf
ROOT
ATOM      1  C   UNL A   1      45.566  23.395  25.254  1.00  0.00     0.002 C 
ENDROOT
BRANCH   1   2
ATOM      2  C   UNL A   1      45.683  21.895  25.562  1.00  0.00     0.021 C 
BRANCH   2   3
ATOM      3  C   UNL A   1      44.688  20.928  24.897  1.00  0.00     0.116 C 
BRANCH   3   4
ATOM      4  N   UNL A   1      43.350  20.870  25.476  1.00  0.00    -0.356 N 
ATOM      5  O   UNL A   1      43.207  18.588  25.262  1.00  0.00    -0.275 OA
ATOM      6  C   UNL A   1      42.765  19.631  25.737  1.00  0.00     0.220 C 
ATOM      7  H   UNL A   1      42.862  21.701  25.680  1.00  0.00     0.163 HD
BRANCH   6   8
ATOM      8  C   UNL A   1      41.613  19.632  26.760  1.00  0.00     0.110 C 
BRANCH   8   9
ATOM      9  C   UNL A   1      40.299  20.167  26.143  1.00  0.00     0.110 C 
BRANCH   9  10
ATOM     10  C   UNL A   1      39.641  21.528  26.513  1.00  0.00     0.223 C 
ATOM     11  O   UNL A   1      40.135  22.194  27.428  1.00  0.00    -0.275 OA
ATOM     12  N   UNL A   1      38.635  22.068  25.730  1.00  0.00    -0.343 N 
ATOM     13  C   UNL A   1      38.290  23.499  25.741  1.00  0.00     0.120 C 
ATOM     14  C   UNL A   1      37.693  21.258  25.027  1.00  0.00     0.120 C 
ATOM     15  C   UNL A   1      36.808  23.774  26.107  1.00  0.00     0.033 C 
ATOM     16  C   UNL A   1      36.351  21.391  25.684  1.00  0.00     0.033 C 
ATOM     17  C   UNL A   1      35.861  22.797  25.398  1.00  0.00     0.062 C 
BRANCH  17  18
ATOM     18  C   UNL A   1      34.423  22.879  25.775  1.00  0.00     0.140 A 
ATOM     19  N   UNL A   1      33.906  22.503  26.932  1.00  0.00    -0.134 NA
ATOM     20  N   UNL A   1      33.402  23.171  24.901  1.00  0.00    -0.286 N 
ATOM     21  N   UNL A   1      32.541  22.577  26.845  1.00  0.00    -0.130 NA
ATOM     22  C   UNL A   1      32.242  23.008  25.641  1.00  0.00     0.160 A 
ATOM     23  C   UNL A   1      33.415  23.524  23.553  1.00  0.00     0.095 A 
ATOM     24  C   UNL A   1      31.010  23.284  24.993  1.00  0.00     0.050 A 
ATOM     25  C   UNL A   1      32.246  23.768  22.936  1.00  0.00     0.019 A 
ATOM     26  C   UNL A   1      31.011  23.657  23.697  1.00  0.00     0.005 A 
ENDBRANCH  17  18
ENDBRANCH   9  10
ENDBRANCH   8   9
ENDBRANCH   6   8
ENDBRANCH   3   4
ENDBRANCH   2   3
ENDBRANCH   1   2
BRANCH   1  27
ATOM     27  C   UNL A   1      45.236  24.336  26.419  1.00  0.00     0.002 C 
BRANCH  27  28
ATOM     28  C   UNL A   1      44.478  23.746  27.602  1.00  0.00     0.021 C 
BRANCH  28  29
ATOM     29  C   UNL A   1      42.998  24.095  27.694  1.00  0.00     0.116 C 
BRANCH  29  30
ATOM     30  N   UNL A   1      42.295  24.303  26.431  1.00  0.00    -0.352 N 
ATOM     31  C   UNL A   1      41.457  25.359  26.122  1.00  0.00     0.251 C 
ATOM     32  H   UNL A   1      42.431  23.624  25.731  1.00  0.00     0.163 HD
ATOM     33  O   UNL A   1      41.033  25.577  25.000  1.00  0.00    -0.269 OA
BRANCH  31  34
ATOM     34  C   UNL A   1      41.062  26.266  27.199  1.00  0.00     0.039 A 
ATOM     35  C   UNL A   1      40.091  25.868  28.121  1.00  0.00     0.014 A 
ATOM     36  C   UNL A   1      41.743  27.476  27.320  1.00  0.00     0.014 A 
ATOM     37  C   UNL A   1      39.851  26.673  29.228  1.00  0.00     0.010 A 
ATOM     38  C   UNL A   1      41.590  28.209  28.475  1.00  0.00     0.010 A 
ATOM     39  C   UNL A   1      40.631  27.822  29.425  1.00  0.00    -0.014 A 
BRANCH  39  40
ATOM     40  C   UNL A   1      40.440  28.699  30.592  1.00  0.00     0.031 A 
ATOM     41  C   UNL A   1      39.355  29.733  30.530  1.00  0.00     0.074 A 
ATOM     42  C   UNL A   1      41.311  28.626  31.613  1.00  0.00     0.049 A 
ATOM     43  N   UNL A   1      39.103  30.718  31.345  1.00  0.00    -0.248 NA
ATOM     44  C   UNL A   1      38.471  29.685  29.351  1.00  0.00     0.031 C 
ATOM     45  C   UNL A   1      42.428  27.681  31.711  1.00  0.00     0.029 A 
ATOM     46  N   UNL A   1      41.401  29.365  32.760  1.00  0.00    -0.354 N 
ATOM     47  C   UNL A   1      38.071  31.435  30.750  1.00  0.00     0.074 A 
ATOM     48  C   UNL A   1      37.789  30.811  29.479  1.00  0.00     0.031 C 
ATOM     49  C   UNL A   1      43.062  27.868  32.879  1.00  0.00     0.029 A 
ATOM     50  C   UNL A   1      42.426  28.972  33.586  1.00  0.00     0.049 A 
ATOM     51  H   UNL A   1      40.790  30.106  32.974  1.00  0.00     0.167 HD
ATOM     52  C   UNL A   1      37.406  32.505  31.243  1.00  0.00     0.037 A 
ATOM     53  C   UNL A   1      42.793  29.459  34.784  1.00  0.00     0.037 A 
ATOM     54  C   UNL A   1      37.688  33.062  32.538  1.00  0.00     0.049 A 
ATOM     55  C   UNL A   1      42.001  30.612  35.338  1.00  0.00     0.074 A 
ATOM     56  C   UNL A   1      37.051  34.092  33.199  1.00  0.00     0.029 A 
ATOM     57  N   UNL A   1      38.704  32.609  33.375  1.00  0.00    -0.354 N 
ATOM     58  N   UNL A   1      40.989  31.253  34.799  1.00  0.00    -0.248 NA
ATOM     59  C   UNL A   1      42.394  31.104  36.661  1.00  0.00     0.031 C 
ATOM     60  C   UNL A   1      37.707  34.291  34.419  1.00  0.00     0.029 A 
ATOM     61  C   UNL A   1      38.723  33.351  34.541  1.00  0.00     0.049 A 
ATOM     62  H   UNL A   1      39.319  31.870  33.166  1.00  0.00     0.167 HD
ATOM     63  C   UNL A   1      40.607  32.211  35.725  1.00  0.00     0.074 A 
ATOM     64  C   UNL A   1      41.486  32.047  36.869  1.00  0.00     0.031 C 
ATOM     65  C   UNL A   1      39.627  33.147  35.646  1.00  0.00     0.037 A 
BRANCH  52  66
ATOM     66  C   UNL A   1      36.346  33.121  30.371  1.00  0.00     0.057 A 
ATOM     67  C   UNL A   1      34.980  32.853  30.546  1.00  0.00     0.134 A 
ATOM     68  C   UNL A   1      36.699  33.962  29.308  1.00  0.00     0.134 A 
ATOM     69  F   UNL A   1      34.567  32.039  31.531  1.00  0.00    -0.206 F 
ATOM     70  C   UNL A   1      34.013  33.355  29.672  1.00  0.00     0.040 A 
ATOM     71  C   UNL A   1      35.739  34.500  28.448  1.00  0.00     0.040 A 
ATOM     72  F   UNL A   1      37.985  34.264  29.075  1.00  0.00    -0.206 F 
ATOM     73  C   UNL A   1      34.392  34.185  28.620  1.00  0.00     0.006 A 
ENDBRANCH  52  66
BRANCH  53  74
ATOM     74  C   UNL A   1      43.896  28.822  35.547  1.00  0.00     0.057 A 
ATOM     75  C   UNL A   1      45.218  29.257  35.390  1.00  0.00     0.134 A 
ATOM     76  C   UNL A   1      43.665  27.800  36.476  1.00  0.00     0.134 A 
ATOM     77  F   UNL A   1      45.508  30.228  34.510  1.00  0.00    -0.206 F 
ATOM     78  C   UNL A   1      46.269  28.693  36.116  1.00  0.00     0.040 A 
ATOM     79  C   UNL A   1      44.703  27.244  37.227  1.00  0.00     0.040 A 
ATOM     80  F   UNL A   1      42.420  27.347  36.690  1.00  0.00    -0.206 F 
ATOM     81  C   UNL A   1      46.012  27.687  37.045  1.00  0.00     0.006 A 
ENDBRANCH  53  74
BRANCH  65  82
ATOM     82  C   UNL A   1      39.461  34.034  36.843  1.00  0.00     0.057 A 
ATOM     83  C   UNL A   1      38.753  33.617  37.977  1.00  0.00     0.134 A 
ATOM     84  C   UNL A   1      40.031  35.313  36.863  1.00  0.00     0.134 A 
ATOM     85  F   UNL A   1      38.172  32.408  38.009  1.00  0.00    -0.206 F 
ATOM     86  C   UNL A   1      38.585  34.457  39.076  1.00  0.00     0.040 A 
ATOM     87  C   UNL A   1      39.899  36.149  37.969  1.00  0.00     0.040 A 
ATOM     88  F   UNL A   1      40.732  35.763  35.811  1.00  0.00    -0.206 F 
ATOM     89  C   UNL A   1      39.165  35.725  39.076  1.00  0.00     0.006 A 
ENDBRANCH  65  82
ENDBRANCH  39  40
ENDBRANCH  31  34
ENDBRANCH  29  30
ENDBRANCH  28  29
ENDBRANCH  27  28
ENDBRANCH   1  27
TORSDOF 16
ENDMDL
