MODEL 1
REMARK VINA RESULT:     -11.3      0.000      0.000
REMARK SMILES Cc1nsc(NC(=O)c2ccc(N)cc2)c1C(=O)NCCCCCCNC(=O)c1ccc(-c2c3nc(c(-c4c(F)cccc4F)c4ccc([nH]4)c(-c4c(F)cccc4F)c4nc(c(-c5c(F)cccc5F)c5ccc2[nH]5)C=C4)C=C3)cc1
REMARK SMILES IDX 22 1 21 2 20 3 19 4 17 5 18 6 16 8 1 9 2 10 3 11 4 12 5 13
REMARK SMILES IDX 6 14 7 15 8 17 9 18 10 19 15 20 11 21 14 22 12 23 13 24
REMARK SMILES IDX 23 27 24 28 25 29 26 30 27 31 28 33 29 34 30 35 82 36 31 37
REMARK SMILES IDX 81 38 32 39 33 40 34 41 75 42 35 43 80 44 74 45 76 46 36 47
REMARK SMILES IDX 79 48 73 49 72 50 37 52 63 53 46 54 62 55 47 56 50 57 61 58
REMARK SMILES IDX 77 59 48 60 49 61 60 63 78 64 51 65 38 66 39 67 44 68 40 69
REMARK SMILES IDX 41 70 43 71 45 72 42 73 64 74 65 75 70 76 66 77 67 78 69 79
REMARK SMILES IDX 71 80 68 81 52 82 53 83 58 84 54 85 55 86 57 87 59 88 56 89
REMARK H PARENT 19 7 6 16 13 25 13 26 26 32 76 51 50 62
REMARK Flexibility Score: inf
ROOT
ATOM      1  C   UNL A   1      39.714  22.635  26.377  1.00  0.00     0.002 C 
ENDROOT
BRANCH   1   2
ATOM      2  C   UNL A   1      38.217  22.576  26.106  1.00  0.00     0.021 C 
BRANCH   2   3
ATOM      3  C   UNL A   1      37.759  21.735  24.928  1.00  0.00     0.116 C 
BRANCH   3   4
ATOM      4  N   UNL A   1      37.010  22.407  23.905  1.00  0.00    -0.352 N 
ATOM      5  C   UNL A   1      35.672  22.710  23.824  1.00  0.00     0.256 C 
ATOM      6  O   UNL A   1      35.359  23.411  22.855  1.00  0.00    -0.269 OA
ATOM      7  H   UNL A   1      37.544  22.700  23.131  1.00  0.00     0.163 HD
BRANCH   5   8
ATOM      8  C   UNL A   1      34.634  22.161  24.715  1.00  0.00     0.097 A 
ATOM      9  C   UNL A   1      34.669  19.462  24.683  1.00  0.00     0.069 C 
ATOM     10  C   UNL A   1      34.129  20.816  25.011  1.00  0.00     0.066 A 
ATOM     11  N   UNL A   1      32.997  20.763  25.717  1.00  0.00    -0.195 NA
ATOM     12  S   UNL A   1      32.582  22.273  26.183  1.00  0.00    -0.017 S 
ATOM     13  C   UNL A   1      33.990  23.029  25.608  1.00  0.00     0.129 A 
BRANCH  13  14
ATOM     14  N   UNL A   1      34.308  24.347  25.911  1.00  0.00    -0.312 N 
ATOM     15  C   UNL A   1      33.629  25.520  25.645  1.00  0.00     0.256 C 
ATOM     16  H   UNL A   1      35.156  24.464  26.396  1.00  0.00     0.171 HD
ATOM     17  O   UNL A   1      34.156  26.613  25.843  1.00  0.00    -0.269 OA
BRANCH  15  18
ATOM     18  C   UNL A   1      32.231  25.495  25.176  1.00  0.00     0.040 A 
ATOM     19  C   UNL A   1      31.939  25.402  23.811  1.00  0.00     0.016 A 
ATOM     20  C   UNL A   1      31.209  25.661  26.111  1.00  0.00     0.016 A 
ATOM     21  C   UNL A   1      30.631  25.623  23.376  1.00  0.00     0.026 A 
ATOM     22  C   UNL A   1      29.903  25.872  25.662  1.00  0.00     0.026 A 
ATOM     23  C   UNL A   1      29.618  25.926  24.293  1.00  0.00     0.031 A 
BRANCH  23  24
ATOM     24  N   UNL A   1      28.326  26.166  23.854  1.00  0.00    -0.399 N 
ATOM     25  H   UNL A   1      27.565  26.027  24.463  1.00  0.00     0.156 HD
ATOM     26  H   UNL A   1      28.168  26.477  22.933  1.00  0.00     0.156 HD
ENDBRANCH  23  24
ENDBRANCH  15  18
ENDBRANCH  13  14
ENDBRANCH   5   8
ENDBRANCH   3   4
ENDBRANCH   2   3
ENDBRANCH   1   2
BRANCH   1  27
ATOM     27  C   UNL A   1      40.347  21.444  27.111  1.00  0.00     0.002 C 
BRANCH  27  28
ATOM     28  C   UNL A   1      41.041  20.356  26.277  1.00  0.00     0.021 C 
BRANCH  28  29
ATOM     29  C   UNL A   1      42.303  19.778  26.889  1.00  0.00     0.116 C 
BRANCH  29  30
ATOM     30  N   UNL A   1      43.392  19.616  25.928  1.00  0.00    -0.352 N 
ATOM     31  C   UNL A   1      44.021  20.582  25.160  1.00  0.00     0.251 C 
ATOM     32  H   UNL A   1      43.725  18.697  25.812  1.00  0.00     0.163 HD
ATOM     33  O   UNL A   1      44.649  20.278  24.161  1.00  0.00    -0.269 OA
BRANCH  31  34
ATOM     34  C   UNL A   1      43.916  21.994  25.574  1.00  0.00     0.039 A 
ATOM     35  C   UNL A   1      43.143  22.916  24.864  1.00  0.00     0.014 A 
ATOM     36  C   UNL A   1      44.603  22.385  26.718  1.00  0.00     0.014 A 
ATOM     37  C   UNL A   1      43.024  24.210  25.366  1.00  0.00     0.010 A 
ATOM     38  C   UNL A   1      44.302  23.570  27.326  1.00  0.00     0.010 A 
ATOM     39  C   UNL A   1      43.596  24.521  26.613  1.00  0.00    -0.014 A 
BRANCH  39  40
ATOM     40  C   UNL A   1      43.417  25.826  27.227  1.00  0.00     0.031 A 
ATOM     41  C   UNL A   1      44.445  26.822  26.852  1.00  0.00     0.074 A 
ATOM     42  C   UNL A   1      42.323  26.175  27.938  1.00  0.00     0.049 A 
ATOM     43  N   UNL A   1      45.423  27.237  27.582  1.00  0.00    -0.248 NA
ATOM     44  C   UNL A   1      44.496  27.291  25.460  1.00  0.00     0.031 C 
ATOM     45  C   UNL A   1      41.069  25.440  28.145  1.00  0.00     0.029 A 
ATOM     46  N   UNL A   1      42.087  27.345  28.590  1.00  0.00    -0.354 N 
ATOM     47  C   UNL A   1      46.090  28.191  26.823  1.00  0.00     0.074 A 
ATOM     48  C   UNL A   1      45.603  28.038  25.477  1.00  0.00     0.031 C 
ATOM     49  C   UNL A   1      40.138  26.262  28.679  1.00  0.00     0.029 A 
ATOM     50  C   UNL A   1      40.779  27.517  29.026  1.00  0.00     0.049 A 
ATOM     51  H   UNL A   1      42.788  28.019  28.741  1.00  0.00     0.167 HD
ATOM     52  C   UNL A   1      46.797  29.184  27.428  1.00  0.00     0.037 A 
ATOM     53  C   UNL A   1      40.270  28.618  29.629  1.00  0.00     0.037 A 
ATOM     54  C   UNL A   1      47.035  28.870  28.820  1.00  0.00     0.049 A 
ATOM     55  C   UNL A   1      41.415  29.376  30.190  1.00  0.00     0.074 A 
ATOM     56  C   UNL A   1      47.659  27.833  29.488  1.00  0.00     0.029 A 
ATOM     57  N   UNL A   1      46.241  29.487  29.757  1.00  0.00    -0.354 N 
ATOM     58  N   UNL A   1      42.145  28.953  31.184  1.00  0.00    -0.248 NA
ATOM     59  C   UNL A   1      42.038  30.379  29.340  1.00  0.00     0.031 C 
ATOM     60  C   UNL A   1      46.831  27.578  30.625  1.00  0.00     0.029 A 
ATOM     61  C   UNL A   1      45.802  28.521  30.626  1.00  0.00     0.049 A 
ATOM     62  H   UNL A   1      46.026  30.447  29.798  1.00  0.00     0.167 HD
ATOM     63  C   UNL A   1      43.445  29.286  30.832  1.00  0.00     0.074 A 
ATOM     64  C   UNL A   1      43.307  30.240  29.733  1.00  0.00     0.031 C 
ATOM     65  C   UNL A   1      44.506  28.544  31.266  1.00  0.00     0.037 A 
BRANCH  52  66
ATOM     66  C   UNL A   1      46.921  30.593  26.897  1.00  0.00     0.057 A 
ATOM     67  C   UNL A   1      48.179  31.224  26.940  1.00  0.00     0.134 A 
ATOM     68  C   UNL A   1      45.834  31.451  26.636  1.00  0.00     0.134 A 
ATOM     69  F   UNL A   1      49.296  30.520  27.178  1.00  0.00    -0.206 F 
ATOM     70  C   UNL A   1      48.329  32.612  26.832  1.00  0.00     0.040 A 
ATOM     71  C   UNL A   1      45.979  32.831  26.475  1.00  0.00     0.040 A 
ATOM     72  F   UNL A   1      44.565  31.028  26.620  1.00  0.00    -0.206 F 
ATOM     73  C   UNL A   1      47.223  33.422  26.611  1.00  0.00     0.006 A 
ENDBRANCH  52  66
BRANCH  53  74
ATOM     74  C   UNL A   1      38.921  29.211  29.501  1.00  0.00     0.057 A 
ATOM     75  C   UNL A   1      38.421  29.609  28.253  1.00  0.00     0.134 A 
ATOM     76  C   UNL A   1      37.980  29.118  30.542  1.00  0.00     0.134 A 
ATOM     77  F   UNL A   1      39.236  29.694  27.190  1.00  0.00    -0.206 F 
ATOM     78  C   UNL A   1      37.059  29.859  28.039  1.00  0.00     0.040 A 
ATOM     79  C   UNL A   1      36.618  29.368  30.343  1.00  0.00     0.040 A 
ATOM     80  F   UNL A   1      38.339  28.688  31.761  1.00  0.00    -0.206 F 
ATOM     81  C   UNL A   1      36.150  29.723  29.083  1.00  0.00     0.006 A 
ENDBRANCH  53  74
BRANCH  65  82
ATOM     82  C   UNL A   1      44.257  27.514  32.337  1.00  0.00     0.057 A 
ATOM     83  C   UNL A   1      44.029  26.151  32.092  1.00  0.00     0.134 A 
ATOM     84  C   UNL A   1      44.392  27.897  33.676  1.00  0.00     0.134 A 
ATOM     85  F   UNL A   1      43.979  25.668  30.845  1.00  0.00    -0.206 F 
ATOM     86  C   UNL A   1      43.901  25.223  33.131  1.00  0.00     0.040 A 
ATOM     87  C   UNL A   1      44.300  26.975  34.722  1.00  0.00     0.040 A 
ATOM     88  F   UNL A   1      44.664  29.173  33.989  1.00  0.00    -0.206 F 
ATOM     89  C   UNL A   1      44.042  25.634  34.452  1.00  0.00     0.006 A 
ENDBRANCH  65  82
ENDBRANCH  39  40
ENDBRANCH  31  34
ENDBRANCH  29  30
ENDBRANCH  28  29
ENDBRANCH  27  28
ENDBRANCH   1  27
TORSDOF 16
ENDMDL
MODEL 2
REMARK VINA RESULT:     -11.2      2.552      7.259
REMARK SMILES Cc1nsc(NC(=O)c2ccc(N)cc2)c1C(=O)NCCCCCCNC(=O)c1ccc(-c2c3nc(c(-c4c(F)cccc4F)c4ccc([nH]4)c(-c4c(F)cccc4F)c4nc(c(-c5c(F)cccc5F)c5ccc2[nH]5)C=C4)C=C3)cc1
REMARK SMILES IDX 22 1 21 2 20 3 19 4 17 5 18 6 16 8 1 9 2 10 3 11 4 12 5 13
REMARK SMILES IDX 6 14 7 15 8 17 9 18 10 19 15 20 11 21 14 22 12 23 13 24
REMARK SMILES IDX 23 27 24 28 25 29 26 30 27 31 28 33 29 34 30 35 82 36 31 37
REMARK SMILES IDX 81 38 32 39 33 40 34 41 75 42 35 43 80 44 74 45 76 46 36 47
REMARK SMILES IDX 79 48 73 49 72 50 37 52 63 53 46 54 62 55 47 56 50 57 61 58
REMARK SMILES IDX 77 59 48 60 49 61 60 63 78 64 51 65 38 66 39 67 44 68 40 69
REMARK SMILES IDX 41 70 43 71 45 72 42 73 64 74 65 75 70 76 66 77 67 78 69 79
REMARK SMILES IDX 71 80 68 81 52 82 53 83 58 84 54 85 55 86 57 87 59 88 56 89
REMARK H PARENT 19 7 6 16 13 25 13 26 26 32 76 51 50 62
REMARK Flexibility Score: inf
ROOT
ATOM      1  C   UNL A   1      33.640  26.963  25.212  1.00  0.00     0.002 C 
ENDROOT
BRANCH   1   2
ATOM      2  C   UNL A   1      33.629  26.318  23.832  1.00  0.00     0.021 C 
BRANCH   2   3
ATOM      3  C   UNL A   1      32.294  26.243  23.113  1.00  0.00     0.116 C 
BRANCH   3   4
ATOM      4  N   UNL A   1      31.839  24.939  22.727  1.00  0.00    -0.352 N 
ATOM      5  C   UNL A   1      31.330  23.907  23.477  1.00  0.00     0.256 C 
ATOM      6  O   UNL A   1      30.913  22.947  22.820  1.00  0.00    -0.269 OA
ATOM      7  H   UNL A   1      31.901  24.752  21.762  1.00  0.00     0.163 HD
BRANCH   5   8
ATOM      8  C   UNL A   1      31.377  23.839  24.949  1.00  0.00     0.097 A 
ATOM      9  C   UNL A   1      30.162  25.984  26.049  1.00  0.00     0.069 C 
ATOM     10  C   UNL A   1      30.989  24.740  26.040  1.00  0.00     0.066 A 
ATOM     11  N   UNL A   1      31.422  24.399  27.256  1.00  0.00    -0.195 NA
ATOM     12  S   UNL A   1      32.156  22.941  27.177  1.00  0.00    -0.017 S 
ATOM     13  C   UNL A   1      31.769  22.635  25.552  1.00  0.00     0.129 A 
BRANCH  13  14
ATOM     14  N   UNL A   1      31.968  21.396  24.957  1.00  0.00    -0.312 N 
ATOM     15  C   UNL A   1      33.088  20.859  24.353  1.00  0.00     0.256 C 
ATOM     16  H   UNL A   1      31.182  20.804  24.968  1.00  0.00     0.171 HD
ATOM     17  O   UNL A   1      33.021  19.804  23.726  1.00  0.00    -0.269 OA
BRANCH  15  18
ATOM     18  C   UNL A   1      34.407  21.503  24.496  1.00  0.00     0.040 A 
ATOM     19  C   UNL A   1      35.291  21.096  25.501  1.00  0.00     0.016 A 
ATOM     20  C   UNL A   1      34.715  22.586  23.674  1.00  0.00     0.016 A 
ATOM     21  C   UNL A   1      36.420  21.873  25.771  1.00  0.00     0.026 A 
ATOM     22  C   UNL A   1      35.853  23.349  23.950  1.00  0.00     0.026 A 
ATOM     23  C   UNL A   1      36.672  23.040  25.042  1.00  0.00     0.031 A 
BRANCH  23  24
ATOM     24  N   UNL A   1      37.781  23.819  25.329  1.00  0.00    -0.399 N 
ATOM     25  H   UNL A   1      38.533  23.438  25.838  1.00  0.00     0.156 HD
ATOM     26  H   UNL A   1      37.818  24.755  25.024  1.00  0.00     0.156 HD
ENDBRANCH  23  24
ENDBRANCH  15  18
ENDBRANCH  13  14
ENDBRANCH   5   8
ENDBRANCH   3   4
ENDBRANCH   2   3
ENDBRANCH   1   2
BRANCH   1  27
ATOM     27  C   UNL A   1      33.858  28.481  25.281  1.00  0.00     0.002 C 
BRANCH  27  28
ATOM     28  C   UNL A   1      33.992  29.139  26.663  1.00  0.00     0.021 C 
BRANCH  28  29
ATOM     29  C   UNL A   1      35.341  28.963  27.335  1.00  0.00     0.116 C 
BRANCH  29  30
ATOM     30  N   UNL A   1      35.409  29.566  28.664  1.00  0.00    -0.352 N 
ATOM     31  C   UNL A   1      36.411  29.460  29.615  1.00  0.00     0.251 C 
ATOM     32  H   UNL A   1      34.638  30.125  28.919  1.00  0.00     0.163 HD
ATOM     33  O   UNL A   1      36.191  29.706  30.788  1.00  0.00    -0.269 OA
BRANCH  31  34
ATOM     34  C   UNL A   1      37.757  29.041  29.179  1.00  0.00     0.039 A 
ATOM     35  C   UNL A   1      38.389  29.620  28.077  1.00  0.00     0.014 A 
ATOM     36  C   UNL A   1      38.394  28.049  29.916  1.00  0.00     0.014 A 
ATOM     37  C   UNL A   1      39.694  29.232  27.780  1.00  0.00     0.010 A 
ATOM     38  C   UNL A   1      39.735  27.842  29.767  1.00  0.00     0.010 A 
ATOM     39  C   UNL A   1      40.366  28.352  28.647  1.00  0.00    -0.014 A 
BRANCH  39  40
ATOM     40  C   UNL A   1      41.758  27.993  28.437  1.00  0.00     0.031 A 
ATOM     41  C   UNL A   1      41.956  26.750  27.657  1.00  0.00     0.074 A 
ATOM     42  C   UNL A   1      42.795  28.795  28.760  1.00  0.00     0.049 A 
ATOM     43  N   UNL A   1      42.314  25.598  28.114  1.00  0.00    -0.248 NA
ATOM     44  C   UNL A   1      41.557  26.736  26.242  1.00  0.00     0.031 C 
ATOM     45  C   UNL A   1      42.788  30.183  29.240  1.00  0.00     0.029 A 
ATOM     46  N   UNL A   1      44.124  28.530  28.650  1.00  0.00    -0.354 N 
ATOM     47  C   UNL A   1      42.403  24.760  27.010  1.00  0.00     0.074 A 
ATOM     48  C   UNL A   1      41.745  25.450  25.932  1.00  0.00     0.031 C 
ATOM     49  C   UNL A   1      44.037  30.698  29.169  1.00  0.00     0.029 A 
ATOM     50  C   UNL A   1      44.955  29.630  28.824  1.00  0.00     0.049 A 
ATOM     51  H   UNL A   1      44.471  27.629  28.461  1.00  0.00     0.167 HD
ATOM     52  C   UNL A   1      43.236  23.683  27.028  1.00  0.00     0.037 A 
ATOM     53  C   UNL A   1      46.303  29.649  28.691  1.00  0.00     0.037 A 
ATOM     54  C   UNL A   1      43.649  23.376  28.379  1.00  0.00     0.049 A 
ATOM     55  C   UNL A   1      46.774  28.249  28.833  1.00  0.00     0.074 A 
ATOM     56  C   UNL A   1      42.986  23.054  29.548  1.00  0.00     0.029 A 
ATOM     57  N   UNL A   1      44.905  23.778  28.767  1.00  0.00    -0.354 N 
ATOM     58  N   UNL A   1      46.717  27.575  29.947  1.00  0.00    -0.248 NA
ATOM     59  C   UNL A   1      46.871  27.447  27.623  1.00  0.00     0.031 C 
ATOM     60  C   UNL A   1      43.690  23.754  30.575  1.00  0.00     0.029 A 
ATOM     61  C   UNL A   1      44.782  24.393  29.987  1.00  0.00     0.049 A 
ATOM     62  H   UNL A   1      45.741  23.648  28.263  1.00  0.00     0.167 HD
ATOM     63  C   UNL A   1      46.322  26.301  29.569  1.00  0.00     0.074 A 
ATOM     64  C   UNL A   1      46.519  26.258  28.120  1.00  0.00     0.031 C 
ATOM     65  C   UNL A   1      45.604  25.504  30.413  1.00  0.00     0.037 A 
BRANCH  52  66
ATOM     66  C   UNL A   1      43.991  23.164  25.826  1.00  0.00     0.057 A 
ATOM     67  C   UNL A   1      43.984  21.780  25.569  1.00  0.00     0.134 A 
ATOM     68  C   UNL A   1      44.952  23.899  25.104  1.00  0.00     0.134 A 
ATOM     69  F   UNL A   1      43.117  20.967  26.190  1.00  0.00    -0.206 F 
ATOM     70  C   UNL A   1      44.927  21.165  24.736  1.00  0.00     0.040 A 
ATOM     71  C   UNL A   1      45.864  23.301  24.231  1.00  0.00     0.040 A 
ATOM     72  F   UNL A   1      45.135  25.213  25.271  1.00  0.00    -0.206 F 
ATOM     73  C   UNL A   1      45.880  21.926  24.073  1.00  0.00     0.006 A 
ENDBRANCH  52  66
BRANCH  53  74
ATOM     74  C   UNL A   1      47.173  30.721  28.162  1.00  0.00     0.057 A 
ATOM     75  C   UNL A   1      46.851  31.393  26.974  1.00  0.00     0.134 A 
ATOM     76  C   UNL A   1      48.165  31.319  28.960  1.00  0.00     0.134 A 
ATOM     77  F   UNL A   1      45.893  30.918  26.163  1.00  0.00    -0.206 F 
ATOM     78  C   UNL A   1      47.448  32.610  26.619  1.00  0.00     0.040 A 
ATOM     79  C   UNL A   1      48.771  32.531  28.615  1.00  0.00     0.040 A 
ATOM     80  F   UNL A   1      48.506  30.793  30.146  1.00  0.00    -0.206 F 
ATOM     81  C   UNL A   1      48.400  33.191  27.450  1.00  0.00     0.006 A 
ENDBRANCH  53  74
BRANCH  65  82
ATOM     82  C   UNL A   1      45.471  25.937  31.850  1.00  0.00     0.057 A 
ATOM     83  C   UNL A   1      46.459  25.755  32.830  1.00  0.00     0.134 A 
ATOM     84  C   UNL A   1      44.353  26.693  32.219  1.00  0.00     0.134 A 
ATOM     85  F   UNL A   1      47.608  25.129  32.551  1.00  0.00    -0.206 F 
ATOM     86  C   UNL A   1      46.320  26.265  34.126  1.00  0.00     0.040 A 
ATOM     87  C   UNL A   1      44.217  27.236  33.499  1.00  0.00     0.040 A 
ATOM     88  F   UNL A   1      43.390  26.955  31.322  1.00  0.00    -0.206 F 
ATOM     89  C   UNL A   1      45.197  27.014  34.461  1.00  0.00     0.006 A 
ENDBRANCH  65  82
ENDBRANCH  39  40
ENDBRANCH  31  34
ENDBRANCH  29  30
ENDBRANCH  28  29
ENDBRANCH  27  28
ENDBRANCH   1  27
TORSDOF 16
ENDMDL
MODEL 3
REMARK VINA RESULT:     -11.1      2.543      7.914
REMARK SMILES Cc1nsc(NC(=O)c2ccc(N)cc2)c1C(=O)NCCCCCCNC(=O)c1ccc(-c2c3nc(c(-c4c(F)cccc4F)c4ccc([nH]4)c(-c4c(F)cccc4F)c4nc(c(-c5c(F)cccc5F)c5ccc2[nH]5)C=C4)C=C3)cc1
REMARK SMILES IDX 22 1 21 2 20 3 19 4 17 5 18 6 16 8 1 9 2 10 3 11 4 12 5 13
REMARK SMILES IDX 6 14 7 15 8 17 9 18 10 19 15 20 11 21 14 22 12 23 13 24
REMARK SMILES IDX 23 27 24 28 25 29 26 30 27 31 28 33 29 34 30 35 82 36 31 37
REMARK SMILES IDX 81 38 32 39 33 40 34 41 75 42 35 43 80 44 74 45 76 46 36 47
REMARK SMILES IDX 79 48 73 49 72 50 37 52 63 53 46 54 62 55 47 56 50 57 61 58
REMARK SMILES IDX 77 59 48 60 49 61 60 63 78 64 51 65 38 66 39 67 44 68 40 69
REMARK SMILES IDX 41 70 43 71 45 72 42 73 64 74 65 75 70 76 66 77 67 78 69 79
REMARK SMILES IDX 71 80 68 81 52 82 53 83 58 84 54 85 55 86 57 87 59 88 56 89
REMARK H PARENT 19 7 6 16 13 25 13 26 26 32 76 51 50 62
REMARK Flexibility Score: inf
ROOT
ATOM      1  C   UNL A   1      33.825  28.128  26.501  1.00  0.00     0.002 C 
ENDROOT
BRANCH   1   2
ATOM      2  C   UNL A   1      33.653  28.072  24.989  1.00  0.00     0.021 C 
BRANCH   2   3
ATOM      3  C   UNL A   1      34.036  26.777  24.296  1.00  0.00     0.116 C 
BRANCH   3   4
ATOM      4  N   UNL A   1      33.095  26.243  23.354  1.00  0.00    -0.352 N 
ATOM      5  C   UNL A   1      31.952  25.505  23.545  1.00  0.00     0.256 C 
ATOM      6  O   UNL A   1      31.291  25.301  22.521  1.00  0.00    -0.269 OA
ATOM      7  H   UNL A   1      33.304  26.438  22.411  1.00  0.00     0.163 HD
BRANCH   5   8
ATOM      8  C   UNL A   1      31.569  24.870  24.820  1.00  0.00     0.097 A 
ATOM      9  C   UNL A   1      30.624  26.703  26.561  1.00  0.00     0.069 C 
ATOM     10  C   UNL A   1      31.111  25.360  26.124  1.00  0.00     0.066 A 
ATOM     11  N   UNL A   1      31.096  24.460  27.110  1.00  0.00    -0.195 NA
ATOM     12  S   UNL A   1      31.467  22.989  26.502  1.00  0.00    -0.017 S 
ATOM     13  C   UNL A   1      31.489  23.471  24.874  1.00  0.00     0.129 A 
BRANCH  13  14
ATOM     14  N   UNL A   1      31.556  22.561  23.826  1.00  0.00    -0.312 N 
ATOM     15  C   UNL A   1      32.646  21.977  23.211  1.00  0.00     0.256 C 
ATOM     16  H   UNL A   1      30.683  22.288  23.463  1.00  0.00     0.171 HD
ATOM     17  O   UNL A   1      32.511  21.322  22.180  1.00  0.00    -0.269 OA
BRANCH  15  18
ATOM     18  C   UNL A   1      33.990  22.068  23.809  1.00  0.00     0.040 A 
ATOM     19  C   UNL A   1      34.897  23.042  23.377  1.00  0.00     0.016 A 
ATOM     20  C   UNL A   1      34.374  21.106  24.744  1.00  0.00     0.016 A 
ATOM     21  C   UNL A   1      36.232  22.958  23.778  1.00  0.00     0.026 A 
ATOM     22  C   UNL A   1      35.711  21.040  25.143  1.00  0.00     0.026 A 
ATOM     23  C   UNL A   1      36.661  21.918  24.609  1.00  0.00     0.031 A 
BRANCH  23  24
ATOM     24  N   UNL A   1      37.991  21.826  24.985  1.00  0.00    -0.399 N 
ATOM     25  H   UNL A   1      38.389  20.946  25.180  1.00  0.00     0.156 HD
ATOM     26  H   UNL A   1      38.540  22.640  25.059  1.00  0.00     0.156 HD
ENDBRANCH  23  24
ENDBRANCH  15  18
ENDBRANCH  13  14
ENDBRANCH   5   8
ENDBRANCH   3   4
ENDBRANCH   2   3
ENDBRANCH   1   2
BRANCH   1  27
ATOM     27  C   UNL A   1      34.741  29.222  27.067  1.00  0.00     0.002 C 
BRANCH  27  28
ATOM     28  C   UNL A   1      34.158  30.629  27.275  1.00  0.00     0.021 C 
BRANCH  28  29
ATOM     29  C   UNL A   1      35.169  31.703  27.633  1.00  0.00     0.116 C 
BRANCH  29  30
ATOM     30  N   UNL A   1      34.882  32.368  28.902  1.00  0.00    -0.352 N 
ATOM     31  C   UNL A   1      35.290  32.017  30.178  1.00  0.00     0.251 C 
ATOM     32  H   UNL A   1      34.323  33.177  28.842  1.00  0.00     0.163 HD
ATOM     33  O   UNL A   1      34.703  32.431  31.161  1.00  0.00    -0.269 OA
BRANCH  31  34
ATOM     34  C   UNL A   1      36.456  31.124  30.326  1.00  0.00     0.039 A 
ATOM     35  C   UNL A   1      36.314  29.740  30.444  1.00  0.00     0.014 A 
ATOM     36  C   UNL A   1      37.718  31.706  30.328  1.00  0.00     0.014 A 
ATOM     37  C   UNL A   1      37.466  28.957  30.494  1.00  0.00     0.010 A 
ATOM     38  C   UNL A   1      38.828  30.932  30.144  1.00  0.00     0.010 A 
ATOM     39  C   UNL A   1      38.722  29.565  30.324  1.00  0.00    -0.014 A 
BRANCH  39  40
ATOM     40  C   UNL A   1      39.945  28.782  30.268  1.00  0.00     0.031 A 
ATOM     41  C   UNL A   1      40.621  28.615  31.574  1.00  0.00     0.074 A 
ATOM     42  C   UNL A   1      40.354  28.109  29.171  1.00  0.00     0.049 A 
ATOM     43  N   UNL A   1      41.690  29.215  31.974  1.00  0.00    -0.248 NA
ATOM     44  C   UNL A   1      39.953  27.821  32.615  1.00  0.00     0.031 C 
ATOM     45  C   UNL A   1      39.661  27.895  27.894  1.00  0.00     0.029 A 
ATOM     46  N   UNL A   1      41.500  27.397  29.005  1.00  0.00    -0.354 N 
ATOM     47  C   UNL A   1      41.961  28.708  33.240  1.00  0.00     0.074 A 
ATOM     48  C   UNL A   1      40.770  28.016  33.655  1.00  0.00     0.031 C 
ATOM     49  C   UNL A   1      40.298  26.937  27.183  1.00  0.00     0.029 A 
ATOM     50  C   UNL A   1      41.538  26.610  27.860  1.00  0.00     0.049 A 
ATOM     51  H   UNL A   1      42.245  27.434  29.647  1.00  0.00     0.167 HD
ATOM     52  C   UNL A   1      43.236  28.695  33.718  1.00  0.00     0.037 A 
ATOM     53  C   UNL A   1      42.526  25.754  27.505  1.00  0.00     0.037 A 
ATOM     54  C   UNL A   1      44.086  29.567  32.938  1.00  0.00     0.049 A 
ATOM     55  C   UNL A   1      43.745  26.164  28.245  1.00  0.00     0.074 A 
ATOM     56  C   UNL A   1      44.072  30.913  32.626  1.00  0.00     0.029 A 
ATOM     57  N   UNL A   1      44.915  28.982  32.010  1.00  0.00    -0.354 N 
ATOM     58  N   UNL A   1      44.387  27.275  28.022  1.00  0.00    -0.248 NA
ATOM     59  C   UNL A   1      43.972  25.562  29.550  1.00  0.00     0.031 C 
ATOM     60  C   UNL A   1      44.471  30.977  31.255  1.00  0.00     0.029 A 
ATOM     61  C   UNL A   1      44.780  29.682  30.838  1.00  0.00     0.049 A 
ATOM     62  H   UNL A   1      45.500  28.204  32.158  1.00  0.00     0.167 HD
ATOM     63  C   UNL A   1      44.732  27.742  29.282  1.00  0.00     0.074 A 
ATOM     64  C   UNL A   1      44.530  26.603  30.176  1.00  0.00     0.031 C 
ATOM     65  C   UNL A   1      44.870  29.078  29.527  1.00  0.00     0.037 A 
BRANCH  52  66
ATOM     66  C   UNL A   1      43.804  27.618  34.611  1.00  0.00     0.057 A 
ATOM     67  C   UNL A   1      44.462  27.998  35.796  1.00  0.00     0.134 A 
ATOM     68  C   UNL A   1      44.003  26.277  34.224  1.00  0.00     0.134 A 
ATOM     69  F   UNL A   1      44.354  29.246  36.276  1.00  0.00    -0.206 F 
ATOM     70  C   UNL A   1      45.330  27.140  36.483  1.00  0.00     0.040 A 
ATOM     71  C   UNL A   1      44.826  25.398  34.931  1.00  0.00     0.040 A 
ATOM     72  F   UNL A   1      43.500  25.767  33.094  1.00  0.00    -0.206 F 
ATOM     73  C   UNL A   1      45.524  25.838  36.043  1.00  0.00     0.006 A 
ENDBRANCH  52  66
BRANCH  53  74
ATOM     74  C   UNL A   1      42.425  24.448  26.817  1.00  0.00     0.057 A 
ATOM     75  C   UNL A   1      43.005  24.249  25.556  1.00  0.00     0.134 A 
ATOM     76  C   UNL A   1      42.031  23.288  27.506  1.00  0.00     0.134 A 
ATOM     77  F   UNL A   1      43.444  25.293  24.837  1.00  0.00    -0.206 F 
ATOM     78  C   UNL A   1      43.221  22.969  25.027  1.00  0.00     0.040 A 
ATOM     79  C   UNL A   1      42.237  22.005  26.988  1.00  0.00     0.040 A 
ATOM     80  F   UNL A   1      41.522  23.359  28.745  1.00  0.00    -0.206 F 
ATOM     81  C   UNL A   1      42.851  21.841  25.752  1.00  0.00     0.006 A 
ENDBRANCH  53  74
BRANCH  65  82
ATOM     82  C   UNL A   1      44.890  30.014  28.347  1.00  0.00     0.057 A 
ATOM     83  C   UNL A   1      43.754  30.631  27.800  1.00  0.00     0.134 A 
ATOM     84  C   UNL A   1      46.129  30.414  27.833  1.00  0.00     0.134 A 
ATOM     85  F   UNL A   1      42.530  30.388  28.286  1.00  0.00    -0.206 F 
ATOM     86  C   UNL A   1      43.845  31.567  26.765  1.00  0.00     0.040 A 
ATOM     87  C   UNL A   1      46.236  31.373  26.823  1.00  0.00     0.040 A 
ATOM     88  F   UNL A   1      47.264  29.909  28.340  1.00  0.00    -0.206 F 
ATOM     89  C   UNL A   1      45.091  31.945  26.277  1.00  0.00     0.006 A 
ENDBRANCH  65  82
ENDBRANCH  39  40
ENDBRANCH  31  34
ENDBRANCH  29  30
ENDBRANCH  28  29
ENDBRANCH  27  28
ENDBRANCH   1  27
TORSDOF 16
ENDMDL
