MODEL 1
REMARK VINA RESULT:     -12.9      0.000      0.000
REMARK SMILES O=C(NCCCCCCNC(=O)[C@H]1[C@@H]2C[C@H]3C[C@@H](C2)C[C@]1(n1ncc(N2CCN(c4ccc(F)cc4)CC2)c(Cl)c1=O)C3)c1ccc(-c2c3nc(c(-c4c(F)cccc4F)c4ccc([nH]4)c(-c4c(F)cccc4F)c4nc(c(-c5c(F)cccc5F)c5ccc2[nH]5)C=C4)C=C3)cc1
REMARK SMILES IDX 7 1 6 2 5 3 4 4 3 5 1 6 2 7 44 9 45 10 97 11 46 12 96 13
REMARK SMILES IDX 47 14 48 15 49 16 90 17 50 18 95 19 89 20 91 21 51 22 94 23
REMARK SMILES IDX 88 24 87 25 52 27 78 28 61 29 77 30 62 31 65 32 76 33 92 34
REMARK SMILES IDX 63 35 64 36 75 38 93 39 66 40 53 41 54 42 59 43 55 44 56 45
REMARK SMILES IDX 58 46 60 47 57 48 79 49 80 50 85 51 81 52 82 53 84 54 86 55
REMARK SMILES IDX 83 56 67 57 68 58 73 59 69 60 70 61 72 62 74 63 71 64 8 65
REMARK SMILES IDX 9 66 10 67 11 68 12 70 13 71 14 72 21 73 19 74 15 75 43 76
REMARK SMILES IDX 20 77 18 78 16 79 17 80 22 81 23 82 41 83 24 84 39 85 42 86
REMARK SMILES IDX 25 87 40 88 26 89 27 90 38 91 28 92 37 93 29 94 30 95 31 96
REMARK SMILES IDX 36 97 32 98 35 99 33 100 34 101
REMARK H PARENT 3 8 91 26 65 37 10 69
REMARK Flexibility Score: inf
ROOT
ATOM      1  C   UNL A   1      35.126  23.020  25.861  1.00  0.00     0.002 C 
ENDROOT
BRANCH   1   2
ATOM      2  C   UNL A   1      34.812  21.678  25.189  1.00  0.00     0.002 C 
BRANCH   2   3
ATOM      3  C   UNL A   1      35.964  20.684  25.011  1.00  0.00     0.021 C 
BRANCH   3   4
ATOM      4  C   UNL A   1      37.376  21.257  24.943  1.00  0.00     0.116 C 
BRANCH   4   5
ATOM      5  N   UNL A   1      38.376  20.302  25.382  1.00  0.00    -0.352 N 
ATOM      6  O   UNL A   1      40.350  19.511  26.076  1.00  0.00    -0.269 OA
ATOM      7  C   UNL A   1      39.582  20.475  26.004  1.00  0.00     0.251 C 
ATOM      8  H   UNL A   1      38.146  19.362  25.201  1.00  0.00     0.163 HD
BRANCH   7   9
ATOM      9  C   UNL A   1      40.000  21.766  26.604  1.00  0.00     0.039 A 
ATOM     10  C   UNL A   1      39.434  22.942  26.093  1.00  0.00     0.014 A 
ATOM     11  C   UNL A   1      41.021  21.861  27.554  1.00  0.00     0.014 A 
ATOM     12  C   UNL A   1      39.895  24.193  26.515  1.00  0.00     0.010 A 
ATOM     13  C   UNL A   1      41.427  23.109  28.034  1.00  0.00     0.010 A 
ATOM     14  C   UNL A   1      40.905  24.289  27.483  1.00  0.00    -0.014 A 
BRANCH  14  15
ATOM     15  C   UNL A   1      41.502  25.609  27.823  1.00  0.00     0.031 A 
ATOM     16  C   UNL A   1      42.871  25.967  27.300  1.00  0.00     0.074 A 
ATOM     17  C   UNL A   1      40.823  26.496  28.577  1.00  0.00     0.049 A 
ATOM     18  N   UNL A   1      43.571  27.060  27.480  1.00  0.00    -0.248 NA
ATOM     19  C   UNL A   1      43.554  24.949  26.486  1.00  0.00     0.031 C 
ATOM     20  C   UNL A   1      39.505  26.271  29.171  1.00  0.00     0.029 A 
ATOM     21  N   UNL A   1      41.152  27.770  28.967  1.00  0.00    -0.354 N 
ATOM     22  C   UNL A   1      44.772  26.856  26.808  1.00  0.00     0.074 A 
ATOM     23  C   UNL A   1      44.736  25.510  26.279  1.00  0.00     0.031 C 
ATOM     24  C   UNL A   1      39.125  27.380  29.826  1.00  0.00     0.029 A 
ATOM     25  C   UNL A   1      40.179  28.384  29.717  1.00  0.00     0.049 A 
ATOM     26  H   UNL A   1      42.004  28.203  28.731  1.00  0.00     0.167 HD
ATOM     27  C   UNL A   1      45.799  27.717  26.611  1.00  0.00     0.037 A 
ATOM     28  C   UNL A   1      40.141  29.622  30.247  1.00  0.00     0.037 A 
ATOM     29  C   UNL A   1      45.836  29.065  27.112  1.00  0.00     0.049 A 
ATOM     30  C   UNL A   1      41.291  30.562  30.012  1.00  0.00     0.074 A 
ATOM     31  C   UNL A   1      46.827  30.019  26.965  1.00  0.00     0.029 A 
ATOM     32  N   UNL A   1      44.821  29.654  27.851  1.00  0.00    -0.354 N 
ATOM     33  N   UNL A   1      42.405  30.363  29.351  1.00  0.00    -0.248 NA
ATOM     34  C   UNL A   1      41.168  31.910  30.587  1.00  0.00     0.031 C 
ATOM     35  C   UNL A   1      46.419  31.182  27.631  1.00  0.00     0.029 A 
ATOM     36  C   UNL A   1      45.160  30.960  28.165  1.00  0.00     0.049 A 
ATOM     37  H   UNL A   1      43.982  29.209  28.114  1.00  0.00     0.167 HD
ATOM     38  C   UNL A   1      43.102  31.563  29.408  1.00  0.00     0.074 A 
ATOM     39  C   UNL A   1      42.275  32.492  30.149  1.00  0.00     0.031 C 
ATOM     40  C   UNL A   1      44.320  31.870  28.899  1.00  0.00     0.037 A 
BRANCH  27  41
ATOM     41  C   UNL A   1      46.960  27.216  25.801  1.00  0.00     0.057 A 
ATOM     42  C   UNL A   1      47.053  27.484  24.429  1.00  0.00     0.134 A 
ATOM     43  C   UNL A   1      47.996  26.474  26.385  1.00  0.00     0.134 A 
ATOM     44  F   UNL A   1      46.095  28.185  23.805  1.00  0.00    -0.206 F 
ATOM     45  C   UNL A   1      48.139  27.039  23.672  1.00  0.00     0.040 A 
ATOM     46  C   UNL A   1      49.100  26.048  25.643  1.00  0.00     0.040 A 
ATOM     47  F   UNL A   1      47.976  26.197  27.698  1.00  0.00    -0.206 F 
ATOM     48  C   UNL A   1      49.171  26.328  24.281  1.00  0.00     0.006 A 
ENDBRANCH  27  41
BRANCH  28  49
ATOM     49  C   UNL A   1      38.959  30.064  31.030  1.00  0.00     0.057 A 
ATOM     50  C   UNL A   1      37.908  30.765  30.431  1.00  0.00     0.134 A 
ATOM     51  C   UNL A   1      38.838  29.758  32.391  1.00  0.00     0.134 A 
ATOM     52  F   UNL A   1      37.965  31.093  29.132  1.00  0.00    -0.206 F 
ATOM     53  C   UNL A   1      36.775  31.143  31.155  1.00  0.00     0.040 A 
ATOM     54  C   UNL A   1      37.701  30.107  33.121  1.00  0.00     0.040 A 
ATOM     55  F   UNL A   1      39.804  29.068  33.015  1.00  0.00    -0.206 F 
ATOM     56  C   UNL A   1      36.666  30.804  32.503  1.00  0.00     0.006 A 
ENDBRANCH  28  49
BRANCH  40  57
ATOM     57  C   UNL A   1      44.803  33.276  29.101  1.00  0.00     0.057 A 
ATOM     58  C   UNL A   1      44.454  34.288  28.199  1.00  0.00     0.134 A 
ATOM     59  C   UNL A   1      45.611  33.629  30.190  1.00  0.00     0.134 A 
ATOM     60  F   UNL A   1      43.690  34.014  27.130  1.00  0.00    -0.206 F 
ATOM     61  C   UNL A   1      44.880  35.604  28.379  1.00  0.00     0.040 A 
ATOM     62  C   UNL A   1      46.021  34.947  30.395  1.00  0.00     0.040 A 
ATOM     63  F   UNL A   1      45.969  32.709  31.098  1.00  0.00    -0.206 F 
ATOM     64  C   UNL A   1      45.657  35.939  29.486  1.00  0.00     0.006 A 
ENDBRANCH  40  57
ENDBRANCH  14  15
ENDBRANCH   7   9
ENDBRANCH   4   5
ENDBRANCH   3   4
ENDBRANCH   2   3
ENDBRANCH   1   2
BRANCH   1  65
ATOM     65  C   UNL A   1      35.257  24.251  24.949  1.00  0.00     0.021 C 
BRANCH  65  66
ATOM     66  C   UNL A   1      34.680  24.067  23.536  1.00  0.00     0.116 C 
BRANCH  66  67
ATOM     67  N   UNL A   1      34.344  25.310  22.846  1.00  0.00    -0.356 N 
ATOM     68  C   UNL A   1      33.428  26.303  22.962  1.00  0.00     0.225 C 
ATOM     69  H   UNL A   1      34.949  25.470  22.085  1.00  0.00     0.163 HD
ATOM     70  O   UNL A   1      33.730  27.345  22.353  1.00  0.00    -0.275 OA
BRANCH  68  71
ATOM     71  C   UNL A   1      32.041  26.240  23.620  1.00  0.00     0.109 C 
ATOM     72  C   UNL A   1      31.221  24.936  23.438  1.00  0.00     0.004 C 
ATOM     73  C   UNL A   1      31.785  26.835  25.053  1.00  0.00     0.079 C 
ATOM     74  C   UNL A   1      31.461  23.917  24.562  1.00  0.00     0.008 C 
ATOM     75  C   UNL A   1      29.717  25.273  23.502  1.00  0.00     0.008 C 
ATOM     76  C   UNL A   1      30.220  27.113  25.105  1.00  0.00     0.035 C 
ATOM     77  C   UNL A   1      32.077  25.749  26.124  1.00  0.00     0.035 C 
ATOM     78  C   UNL A   1      31.188  24.512  25.938  1.00  0.00    -0.008 C 
ATOM     79  C   UNL A   1      29.377  25.862  24.878  1.00  0.00    -0.008 C 
ATOM     80  C   UNL A   1      29.706  24.877  26.005  1.00  0.00     0.007 C 
BRANCH  73  81
ATOM     81  N   UNL A   1      32.494  28.108  25.437  1.00  0.00    -0.222 N 
ATOM     82  N   UNL A   1      31.692  29.234  25.414  1.00  0.00    -0.175 NA
ATOM     83  C   UNL A   1      33.761  28.123  26.032  1.00  0.00     0.288 A 
ATOM     84  C   UNL A   1      32.056  30.269  26.085  1.00  0.00     0.161 A 
ATOM     85  C   UNL A   1      34.153  29.407  26.711  1.00  0.00     0.132 A 
ATOM     86  O   UNL A   1      34.481  27.129  26.121  1.00  0.00    -0.266 OA
ATOM     87  C   UNL A   1      33.291  30.422  26.875  1.00  0.00     0.082 A 
ATOM     88  Cl  UNL A   1      35.712  29.445  27.471  1.00  0.00    -0.076 Cl
BRANCH  87  89
ATOM     89  N   UNL A   1      33.433  31.594  27.622  1.00  0.00    -0.365 N 
ATOM     90  C   UNL A   1      34.296  31.638  28.835  1.00  0.00     0.138 C 
ATOM     91  C   UNL A   1      32.357  32.612  27.630  1.00  0.00     0.138 C 
ATOM     92  C   UNL A   1      34.845  33.062  29.111  1.00  0.00     0.138 C 
ATOM     93  C   UNL A   1      32.925  34.021  27.879  1.00  0.00     0.138 C 
ATOM     94  N   UNL A   1      33.736  34.023  29.108  1.00  0.00    -0.368 N 
BRANCH  94  95
ATOM     95  C   UNL A   1      33.699  35.129  29.928  1.00  0.00     0.037 A 
ATOM     96  C   UNL A   1      34.064  34.995  31.279  1.00  0.00     0.029 A 
ATOM     97  C   UNL A   1      33.317  36.398  29.477  1.00  0.00     0.029 A 
ATOM     98  C   UNL A   1      34.042  36.082  32.154  1.00  0.00     0.041 A 
ATOM     99  C   UNL A   1      33.276  37.490  30.353  1.00  0.00     0.041 A 
ATOM    100  C   UNL A   1      33.640  37.320  31.682  1.00  0.00     0.123 A 
ATOM    101  F   UNL A   1      33.603  38.365  32.519  1.00  0.00    -0.207 F 
ENDBRANCH  94  95
ENDBRANCH  87  89
ENDBRANCH  73  81
ENDBRANCH  68  71
ENDBRANCH  66  67
ENDBRANCH  65  66
ENDBRANCH   1  65
TORSDOF 16
ENDMDL
MODEL 2
REMARK VINA RESULT:     -12.7      4.758     11.757
REMARK SMILES O=C(NCCCCCCNC(=O)[C@H]1[C@@H]2C[C@H]3C[C@@H](C2)C[C@]1(n1ncc(N2CCN(c4ccc(F)cc4)CC2)c(Cl)c1=O)C3)c1ccc(-c2c3nc(c(-c4c(F)cccc4F)c4ccc([nH]4)c(-c4c(F)cccc4F)c4nc(c(-c5c(F)cccc5F)c5ccc2[nH]5)C=C4)C=C3)cc1
REMARK SMILES IDX 7 1 6 2 5 3 4 4 3 5 1 6 2 7 44 9 45 10 97 11 46 12 96 13
REMARK SMILES IDX 47 14 48 15 49 16 90 17 50 18 95 19 89 20 91 21 51 22 94 23
REMARK SMILES IDX 88 24 87 25 52 27 78 28 61 29 77 30 62 31 65 32 76 33 92 34
REMARK SMILES IDX 63 35 64 36 75 38 93 39 66 40 53 41 54 42 59 43 55 44 56 45
REMARK SMILES IDX 58 46 60 47 57 48 79 49 80 50 85 51 81 52 82 53 84 54 86 55
REMARK SMILES IDX 83 56 67 57 68 58 73 59 69 60 70 61 72 62 74 63 71 64 8 65
REMARK SMILES IDX 9 66 10 67 11 68 12 70 13 71 14 72 21 73 19 74 15 75 43 76
REMARK SMILES IDX 20 77 18 78 16 79 17 80 22 81 23 82 41 83 24 84 39 85 42 86
REMARK SMILES IDX 25 87 40 88 26 89 27 90 38 91 28 92 37 93 29 94 30 95 31 96
REMARK SMILES IDX 36 97 32 98 35 99 33 100 34 101
REMARK H PARENT 3 8 91 26 65 37 10 69
REMARK Flexibility Score: inf
ROOT
ATOM      1  C   UNL A   1      37.471  32.380  32.164  1.00  0.00     0.002 C 
ENDROOT
BRANCH   1   2
ATOM      2  C   UNL A   1      36.651  33.553  31.613  1.00  0.00     0.002 C 
BRANCH   2   3
ATOM      3  C   UNL A   1      35.316  33.231  30.932  1.00  0.00     0.021 C 
BRANCH   3   4
ATOM      4  C   UNL A   1      35.322  33.102  29.412  1.00  0.00     0.116 C 
BRANCH   4   5
ATOM      5  N   UNL A   1      34.419  32.066  28.948  1.00  0.00    -0.352 N 
ATOM      6  O   UNL A   1      33.711  30.232  27.881  1.00  0.00    -0.269 OA
ATOM      7  C   UNL A   1      34.657  30.838  28.394  1.00  0.00     0.251 C 
ATOM      8  H   UNL A   1      33.465  32.285  29.050  1.00  0.00     0.163 HD
BRANCH   7   9
ATOM      9  C   UNL A   1      35.997  30.201  28.396  1.00  0.00     0.039 A 
ATOM     10  C   UNL A   1      36.450  29.626  29.590  1.00  0.00     0.014 A 
ATOM     11  C   UNL A   1      36.866  30.272  27.303  1.00  0.00     0.014 A 
ATOM     12  C   UNL A   1      37.758  29.144  29.694  1.00  0.00     0.010 A 
ATOM     13  C   UNL A   1      38.148  29.719  27.383  1.00  0.00     0.010 A 
ATOM     14  C   UNL A   1      38.624  29.195  28.593  1.00  0.00    -0.014 A 
BRANCH  14  15
ATOM     15  C   UNL A   1      40.059  28.824  28.742  1.00  0.00     0.031 A 
ATOM     16  C   UNL A   1      41.026  29.808  29.354  1.00  0.00     0.074 A 
ATOM     17  C   UNL A   1      40.497  27.611  28.354  1.00  0.00     0.049 A 
ATOM     18  N   UNL A   1      42.312  29.685  29.572  1.00  0.00    -0.248 NA
ATOM     19  C   UNL A   1      40.476  31.114  29.751  1.00  0.00     0.031 C 
ATOM     20  C   UNL A   1      39.679  26.575  27.723  1.00  0.00     0.029 A 
ATOM     21  N   UNL A   1      41.745  27.045  28.441  1.00  0.00    -0.354 N 
ATOM     22  C   UNL A   1      42.720  30.894  30.124  1.00  0.00     0.074 A 
ATOM     23  C   UNL A   1      41.563  31.762  30.140  1.00  0.00     0.031 C 
ATOM     24  C   UNL A   1      40.440  25.489  27.505  1.00  0.00     0.029 A 
ATOM     25  C   UNL A   1      41.800  25.760  27.961  1.00  0.00     0.049 A 
ATOM     26  H   UNL A   1      42.525  27.516  28.812  1.00  0.00     0.167 HD
ATOM     27  C   UNL A   1      43.935  31.245  30.609  1.00  0.00     0.037 A 
ATOM     28  C   UNL A   1      42.831  24.895  27.904  1.00  0.00     0.037 A 
ATOM     29  C   UNL A   1      45.086  30.382  30.620  1.00  0.00     0.049 A 
ATOM     30  C   UNL A   1      44.170  25.306  28.454  1.00  0.00     0.074 A 
ATOM     31  C   UNL A   1      46.360  30.641  31.093  1.00  0.00     0.029 A 
ATOM     32  N   UNL A   1      45.093  29.082  30.141  1.00  0.00    -0.354 N 
ATOM     33  N   UNL A   1      44.531  26.442  28.998  1.00  0.00    -0.248 NA
ATOM     34  C   UNL A   1      45.242  24.301  28.396  1.00  0.00     0.031 C 
ATOM     35  C   UNL A   1      47.145  29.500  30.884  1.00  0.00     0.029 A 
ATOM     36  C   UNL A   1      46.349  28.522  30.310  1.00  0.00     0.049 A 
ATOM     37  H   UNL A   1      44.320  28.623  29.740  1.00  0.00     0.167 HD
ATOM     38  C   UNL A   1      45.860  26.282  29.368  1.00  0.00     0.074 A 
ATOM     39  C   UNL A   1      46.234  24.931  29.008  1.00  0.00     0.031 C 
ATOM     40  C   UNL A   1      46.700  27.173  29.950  1.00  0.00     0.037 A 
BRANCH  27  41
ATOM     41  C   UNL A   1      44.062  32.627  31.186  1.00  0.00     0.057 A 
ATOM     42  C   UNL A   1      44.211  33.745  30.357  1.00  0.00     0.134 A 
ATOM     43  C   UNL A   1      44.027  32.849  32.570  1.00  0.00     0.134 A 
ATOM     44  F   UNL A   1      44.257  33.604  29.024  1.00  0.00    -0.206 F 
ATOM     45  C   UNL A   1      44.310  35.034  30.883  1.00  0.00     0.040 A 
ATOM     46  C   UNL A   1      44.097  34.136  33.106  1.00  0.00     0.040 A 
ATOM     47  F   UNL A   1      43.870  31.822  33.419  1.00  0.00    -0.206 F 
ATOM     48  C   UNL A   1      44.243  35.233  32.261  1.00  0.00     0.006 A 
ENDBRANCH  27  41
BRANCH  28  49
ATOM     49  C   UNL A   1      42.640  23.538  27.333  1.00  0.00     0.057 A 
ATOM     50  C   UNL A   1      42.827  23.288  25.970  1.00  0.00     0.134 A 
ATOM     51  C   UNL A   1      42.306  22.451  28.149  1.00  0.00     0.134 A 
ATOM     52  F   UNL A   1      43.145  24.288  25.134  1.00  0.00    -0.206 F 
ATOM     53  C   UNL A   1      42.693  22.004  25.437  1.00  0.00     0.040 A 
ATOM     54  C   UNL A   1      42.192  21.158  27.635  1.00  0.00     0.040 A 
ATOM     55  F   UNL A   1      42.136  22.624  29.468  1.00  0.00    -0.206 F 
ATOM     56  C   UNL A   1      42.385  20.933  26.274  1.00  0.00     0.006 A 
ENDBRANCH  28  49
BRANCH  40  57
ATOM     57  C   UNL A   1      48.088  26.694  30.257  1.00  0.00     0.057 A 
ATOM     58  C   UNL A   1      48.370  26.057  31.472  1.00  0.00     0.134 A 
ATOM     59  C   UNL A   1      49.144  26.858  29.352  1.00  0.00     0.134 A 
ATOM     60  F   UNL A   1      47.405  25.876  32.387  1.00  0.00    -0.206 F 
ATOM     61  C   UNL A   1      49.650  25.590  31.770  1.00  0.00     0.040 A 
ATOM     62  C   UNL A   1      50.423  26.371  29.627  1.00  0.00     0.040 A 
ATOM     63  F   UNL A   1      48.935  27.447  28.164  1.00  0.00    -0.206 F 
ATOM     64  C   UNL A   1      50.679  25.737  30.842  1.00  0.00     0.006 A 
ENDBRANCH  40  57
ENDBRANCH  14  15
ENDBRANCH   7   9
ENDBRANCH   4   5
ENDBRANCH   3   4
ENDBRANCH   2   3
ENDBRANCH   1   2
BRANCH   1  65
ATOM     65  C   UNL A   1      36.698  31.231  32.832  1.00  0.00     0.021 C 
BRANCH  65  66
ATOM     66  C   UNL A   1      37.556  30.012  33.207  1.00  0.00     0.116 C 
BRANCH  66  67
ATOM     67  N   UNL A   1      37.874  29.901  34.628  1.00  0.00    -0.356 N 
ATOM     68  C   UNL A   1      38.256  30.725  35.635  1.00  0.00     0.225 C 
ATOM     69  H   UNL A   1      37.788  28.971  34.942  1.00  0.00     0.163 HD
ATOM     70  O   UNL A   1      38.084  30.250  36.771  1.00  0.00    -0.275 OA
BRANCH  68  71
ATOM     71  C   UNL A   1      38.984  32.075  35.531  1.00  0.00     0.109 C 
ATOM     72  C   UNL A   1      38.222  33.337  36.008  1.00  0.00     0.004 C 
ATOM     73  C   UNL A   1      40.512  32.210  35.879  1.00  0.00     0.079 C 
ATOM     74  C   UNL A   1      38.474  33.665  37.488  1.00  0.00     0.008 C 
ATOM     75  C   UNL A   1      38.735  34.563  35.223  1.00  0.00     0.008 C 
ATOM     76  C   UNL A   1      40.992  33.513  35.104  1.00  0.00     0.035 C 
ATOM     77  C   UNL A   1      40.674  32.512  37.394  1.00  0.00     0.035 C 
ATOM     78  C   UNL A   1      39.959  33.809  37.795  1.00  0.00    -0.008 C 
ATOM     79  C   UNL A   1      40.229  34.771  35.508  1.00  0.00    -0.008 C 
ATOM     80  C   UNL A   1      40.487  35.003  37.001  1.00  0.00     0.007 C 
BRANCH  73  81
ATOM     81  N   UNL A   1      41.435  31.081  35.501  1.00  0.00    -0.222 N 
ATOM     82  N   UNL A   1      42.112  30.518  36.568  1.00  0.00    -0.175 NA
ATOM     83  C   UNL A   1      41.409  30.466  34.243  1.00  0.00     0.288 A 
ATOM     84  C   UNL A   1      42.597  29.334  36.440  1.00  0.00     0.161 A 
ATOM     85  C   UNL A   1      42.088  29.126  34.153  1.00  0.00     0.132 A 
ATOM     86  O   UNL A   1      40.775  30.906  33.286  1.00  0.00    -0.266 OA
ATOM     87  C   UNL A   1      42.553  28.485  35.236  1.00  0.00     0.082 A 
ATOM     88  Cl  UNL A   1      42.054  28.336  32.609  1.00  0.00    -0.076 Cl
BRANCH  87  89
ATOM     89  N   UNL A   1      43.043  27.182  35.353  1.00  0.00    -0.365 N 
ATOM     90  C   UNL A   1      42.367  26.176  36.220  1.00  0.00     0.138 C 
ATOM     91  C   UNL A   1      44.481  26.901  35.141  1.00  0.00     0.138 C 
ATOM     92  C   UNL A   1      42.609  24.725  35.729  1.00  0.00     0.138 C 
ATOM     93  C   UNL A   1      44.699  25.465  34.629  1.00  0.00     0.138 C 
ATOM     94  N   UNL A   1      44.048  24.507  35.538  1.00  0.00    -0.368 N 
BRANCH  94  95
ATOM     95  C   UNL A   1      44.662  23.299  35.785  1.00  0.00     0.037 A 
ATOM     96  C   UNL A   1      44.564  22.271  34.833  1.00  0.00     0.029 A 
ATOM     97  C   UNL A   1      45.396  23.043  36.950  1.00  0.00     0.029 A 
ATOM     98  C   UNL A   1      45.165  21.027  35.034  1.00  0.00     0.041 A 
ATOM     99  C   UNL A   1      45.988  21.793  37.168  1.00  0.00     0.041 A 
ATOM    100  C   UNL A   1      45.866  20.798  36.206  1.00  0.00     0.123 A 
ATOM    101  F   UNL A   1      46.434  19.603  36.412  1.00  0.00    -0.207 F 
ENDBRANCH  94  95
ENDBRANCH  87  89
ENDBRANCH  73  81
ENDBRANCH  68  71
ENDBRANCH  66  67
ENDBRANCH  65  66
ENDBRANCH   1  65
TORSDOF 16
ENDMDL
MODEL 3
REMARK VINA RESULT:     -12.6      0.572      5.658
REMARK SMILES O=C(NCCCCCCNC(=O)[C@H]1[C@@H]2C[C@H]3C[C@@H](C2)C[C@]1(n1ncc(N2CCN(c4ccc(F)cc4)CC2)c(Cl)c1=O)C3)c1ccc(-c2c3nc(c(-c4c(F)cccc4F)c4ccc([nH]4)c(-c4c(F)cccc4F)c4nc(c(-c5c(F)cccc5F)c5ccc2[nH]5)C=C4)C=C3)cc1
REMARK SMILES IDX 7 1 6 2 5 3 4 4 3 5 1 6 2 7 44 9 45 10 97 11 46 12 96 13
REMARK SMILES IDX 47 14 48 15 49 16 90 17 50 18 95 19 89 20 91 21 51 22 94 23
REMARK SMILES IDX 88 24 87 25 52 27 78 28 61 29 77 30 62 31 65 32 76 33 92 34
REMARK SMILES IDX 63 35 64 36 75 38 93 39 66 40 53 41 54 42 59 43 55 44 56 45
REMARK SMILES IDX 58 46 60 47 57 48 79 49 80 50 85 51 81 52 82 53 84 54 86 55
REMARK SMILES IDX 83 56 67 57 68 58 73 59 69 60 70 61 72 62 74 63 71 64 8 65
REMARK SMILES IDX 9 66 10 67 11 68 12 70 13 71 14 72 21 73 19 74 15 75 43 76
REMARK SMILES IDX 20 77 18 78 16 79 17 80 22 81 23 82 41 83 24 84 39 85 42 86
REMARK SMILES IDX 25 87 40 88 26 89 27 90 38 91 28 92 37 93 29 94 30 95 31 96
REMARK SMILES IDX 36 97 32 98 35 99 33 100 34 101
REMARK H PARENT 3 8 91 26 65 37 10 69
REMARK Flexibility Score: inf
ROOT
ATOM      1  C   UNL A   1      35.000  23.059  25.872  1.00  0.00     0.002 C 
ENDROOT
BRANCH   1   2
ATOM      2  C   UNL A   1      34.580  21.728  25.237  1.00  0.00     0.002 C 
BRANCH   2   3
ATOM      3  C   UNL A   1      35.657  20.653  25.058  1.00  0.00     0.021 C 
BRANCH   3   4
ATOM      4  C   UNL A   1      37.095  21.128  24.880  1.00  0.00     0.116 C 
BRANCH   4   5
ATOM      5  N   UNL A   1      38.058  20.103  25.236  1.00  0.00    -0.352 N 
ATOM      6  O   UNL A   1      40.021  19.171  25.764  1.00  0.00    -0.269 OA
ATOM      7  C   UNL A   1      39.321  20.188  25.754  1.00  0.00     0.251 C 
ATOM      8  H   UNL A   1      37.747  19.183  25.077  1.00  0.00     0.163 HD
BRANCH   7   9
ATOM      9  C   UNL A   1      39.877  21.444  26.315  1.00  0.00     0.039 A 
ATOM     10  C   UNL A   1      39.196  22.640  26.053  1.00  0.00     0.014 A 
ATOM     11  C   UNL A   1      41.111  21.495  26.972  1.00  0.00     0.014 A 
ATOM     12  C   UNL A   1      39.748  23.868  26.427  1.00  0.00     0.010 A 
ATOM     13  C   UNL A   1      41.625  22.717  27.416  1.00  0.00     0.010 A 
ATOM     14  C   UNL A   1      40.975  23.919  27.104  1.00  0.00    -0.014 A 
BRANCH  14  15
ATOM     15  C   UNL A   1      41.638  25.226  27.370  1.00  0.00     0.031 A 
ATOM     16  C   UNL A   1      40.950  26.251  28.236  1.00  0.00     0.074 A 
ATOM     17  C   UNL A   1      42.855  25.493  26.860  1.00  0.00     0.049 A 
ATOM     18  N   UNL A   1      41.351  27.448  28.588  1.00  0.00    -0.248 NA
ATOM     19  C   UNL A   1      39.620  25.891  28.756  1.00  0.00     0.031 C 
ATOM     20  C   UNL A   1      43.622  24.606  25.984  1.00  0.00     0.029 A 
ATOM     21  N   UNL A   1      43.664  26.592  27.011  1.00  0.00    -0.354 N 
ATOM     22  C   UNL A   1      40.325  27.979  29.363  1.00  0.00     0.074 A 
ATOM     23  C   UNL A   1      39.254  27.006  29.369  1.00  0.00     0.031 C 
ATOM     24  C   UNL A   1      44.801  25.184  25.699  1.00  0.00     0.029 A 
ATOM     25  C   UNL A   1      44.864  26.487  26.353  1.00  0.00     0.049 A 
ATOM     26  H   UNL A   1      43.407  27.381  27.542  1.00  0.00     0.167 HD
ATOM     27  C   UNL A   1      40.284  29.152  30.040  1.00  0.00     0.037 A 
ATOM     28  C   UNL A   1      45.902  27.344  26.293  1.00  0.00     0.037 A 
ATOM     29  C   UNL A   1      41.352  30.115  30.060  1.00  0.00     0.049 A 
ATOM     30  C   UNL A   1      45.836  28.638  27.058  1.00  0.00     0.074 A 
ATOM     31  C   UNL A   1      41.412  31.330  30.719  1.00  0.00     0.029 A 
ATOM     32  N   UNL A   1      42.559  29.961  29.395  1.00  0.00    -0.354 N 
ATOM     33  N   UNL A   1      44.871  29.111  27.807  1.00  0.00    -0.248 NA
ATOM     34  C   UNL A   1      47.018  29.510  26.980  1.00  0.00     0.031 C 
ATOM     35  C   UNL A   1      42.650  31.921  30.437  1.00  0.00     0.029 A 
ATOM     36  C   UNL A   1      43.372  31.057  29.630  1.00  0.00     0.049 A 
ATOM     37  H   UNL A   1      42.802  29.186  28.838  1.00  0.00     0.167 HD
ATOM     38  C   UNL A   1      45.336  30.321  28.308  1.00  0.00     0.074 A 
ATOM     39  C   UNL A   1      46.678  30.497  27.796  1.00  0.00     0.031 C 
ATOM     40  C   UNL A   1      44.708  31.211  29.115  1.00  0.00     0.037 A 
BRANCH  27  41
ATOM     41  C   UNL A   1      39.039  29.437  30.830  1.00  0.00     0.057 A 
ATOM     42  C   UNL A   1      38.023  30.247  30.308  1.00  0.00     0.134 A 
ATOM     43  C   UNL A   1      38.843  28.897  32.109  1.00  0.00     0.134 A 
ATOM     44  F   UNL A   1      38.147  30.799  29.093  1.00  0.00    -0.206 F 
ATOM     45  C   UNL A   1      36.852  30.501  31.028  1.00  0.00     0.040 A 
ATOM     46  C   UNL A   1      37.665  29.122  32.826  1.00  0.00     0.040 A 
ATOM     47  F   UNL A   1      39.771  28.099  32.659  1.00  0.00    -0.206 F 
ATOM     48  C   UNL A   1      36.667  29.930  32.285  1.00  0.00     0.006 A 
ENDBRANCH  27  41
BRANCH  28  49
ATOM     49  C   UNL A   1      47.112  27.001  25.504  1.00  0.00     0.057 A 
ATOM     50  C   UNL A   1      47.274  27.444  24.188  1.00  0.00     0.134 A 
ATOM     51  C   UNL A   1      48.153  26.254  26.067  1.00  0.00     0.134 A 
ATOM     52  F   UNL A   1      46.311  28.161  23.590  1.00  0.00    -0.206 F 
ATOM     53  C   UNL A   1      48.431  27.161  23.459  1.00  0.00     0.040 A 
ATOM     54  C   UNL A   1      49.326  25.984  25.359  1.00  0.00     0.040 A 
ATOM     55  F   UNL A   1      48.065  25.820  27.333  1.00  0.00    -0.206 F 
ATOM     56  C   UNL A   1      49.466  26.437  24.049  1.00  0.00     0.006 A 
ENDBRANCH  28  49
BRANCH  40  57
ATOM     57  C   UNL A   1      45.487  32.429  29.514  1.00  0.00     0.057 A 
ATOM     58  C   UNL A   1      46.287  32.420  30.663  1.00  0.00     0.134 A 
ATOM     59  C   UNL A   1      45.449  33.609  28.761  1.00  0.00     0.134 A 
ATOM     60  F   UNL A   1      46.361  31.324  31.434  1.00  0.00    -0.206 F 
ATOM     61  C   UNL A   1      47.032  33.537  31.042  1.00  0.00     0.040 A 
ATOM     62  C   UNL A   1      46.210  34.725  29.115  1.00  0.00     0.040 A 
ATOM     63  F   UNL A   1      44.713  33.678  27.642  1.00  0.00    -0.206 F 
ATOM     64  C   UNL A   1      47.002  34.691  30.261  1.00  0.00     0.006 A 
ENDBRANCH  40  57
ENDBRANCH  14  15
ENDBRANCH   7   9
ENDBRANCH   4   5
ENDBRANCH   3   4
ENDBRANCH   2   3
ENDBRANCH   1   2
BRANCH   1  65
ATOM     65  C   UNL A   1      35.269  24.239  24.924  1.00  0.00     0.021 C 
BRANCH  65  66
ATOM     66  C   UNL A   1      34.696  24.068  23.508  1.00  0.00     0.116 C 
BRANCH  66  67
ATOM     67  N   UNL A   1      34.359  25.317  22.829  1.00  0.00    -0.356 N 
ATOM     68  C   UNL A   1      33.446  26.311  22.958  1.00  0.00     0.225 C 
ATOM     69  H   UNL A   1      34.961  25.483  22.068  1.00  0.00     0.163 HD
ATOM     70  O   UNL A   1      33.747  27.357  22.356  1.00  0.00    -0.275 OA
BRANCH  68  71
ATOM     71  C   UNL A   1      32.060  26.245  23.620  1.00  0.00     0.109 C 
ATOM     72  C   UNL A   1      31.238  24.944  23.431  1.00  0.00     0.004 C 
ATOM     73  C   UNL A   1      31.811  26.828  25.059  1.00  0.00     0.079 C 
ATOM     74  C   UNL A   1      31.480  23.916  24.546  1.00  0.00     0.008 C 
ATOM     75  C   UNL A   1      29.735  25.282  23.504  1.00  0.00     0.008 C 
ATOM     76  C   UNL A   1      30.247  27.109  25.120  1.00  0.00     0.035 C 
ATOM     77  C   UNL A   1      32.106  25.734  26.121  1.00  0.00     0.035 C 
ATOM     78  C   UNL A   1      31.215  24.500  25.928  1.00  0.00    -0.008 C 
ATOM     79  C   UNL A   1      29.401  25.861  24.885  1.00  0.00    -0.008 C 
ATOM     80  C   UNL A   1      29.733  24.867  26.003  1.00  0.00     0.007 C 
BRANCH  73  81
ATOM     81  N   UNL A   1      32.523  28.098  25.450  1.00  0.00    -0.222 N 
ATOM     82  N   UNL A   1      31.730  29.230  25.412  1.00  0.00    -0.175 NA
ATOM     83  C   UNL A   1      33.781  28.105  26.065  1.00  0.00     0.288 A 
ATOM     84  C   UNL A   1      32.092  30.264  26.085  1.00  0.00     0.161 A 
ATOM     85  C   UNL A   1      34.172  29.388  26.747  1.00  0.00     0.132 A 
ATOM     86  O   UNL A   1      34.492  27.106  26.168  1.00  0.00    -0.266 OA
ATOM     87  C   UNL A   1      33.315  30.410  26.894  1.00  0.00     0.082 A 
ATOM     88  Cl  UNL A   1      35.719  29.417  27.531  1.00  0.00    -0.076 Cl
BRANCH  87  89
ATOM     89  N   UNL A   1      33.454  31.583  27.639  1.00  0.00    -0.365 N 
ATOM     90  C   UNL A   1      34.324  31.633  28.848  1.00  0.00     0.138 C 
ATOM     91  C   UNL A   1      32.372  32.594  27.655  1.00  0.00     0.138 C 
ATOM     92  C   UNL A   1      34.866  33.061  29.119  1.00  0.00     0.138 C 
ATOM     93  C   UNL A   1      32.932  34.007  27.899  1.00  0.00     0.138 C 
ATOM     94  N   UNL A   1      33.751  34.015  29.123  1.00  0.00    -0.368 N 
BRANCH  94  95
ATOM     95  C   UNL A   1      33.712  35.120  29.944  1.00  0.00     0.037 A 
ATOM     96  C   UNL A   1      34.053  34.982  31.299  1.00  0.00     0.029 A 
ATOM     97  C   UNL A   1      33.351  36.394  29.487  1.00  0.00     0.029 A 
ATOM     98  C   UNL A   1      34.027  36.069  32.175  1.00  0.00     0.041 A 
ATOM     99  C   UNL A   1      33.306  37.486  30.362  1.00  0.00     0.041 A 
ATOM    100  C   UNL A   1      33.646  37.312  31.697  1.00  0.00     0.123 A 
ATOM    101  F   UNL A   1      33.606  38.356  32.535  1.00  0.00    -0.207 F 
ENDBRANCH  94  95
ENDBRANCH  87  89
ENDBRANCH  73  81
ENDBRANCH  68  71
ENDBRANCH  66  67
ENDBRANCH  65  66
ENDBRANCH   1  65
TORSDOF 16
ENDMDL
