MODEL 1
REMARK VINA RESULT:     -11.6      0.000      0.000
REMARK SMILES Nc1nc(N2CCOC[C@H]2C(=O)NCCCCCCNC(=O)c2ccc(-c3c4nc(c(-c5c(F)cccc5F)c5ccc([nH]5)c(-c5c(F)cccc5F)c5nc(c(-c6c(F)cccc6F)c6ccc3[nH]6)C=C5)C=C4)cc2)ccc1[N+](=O)[O-]
REMARK SMILES IDX 16 1 15 2 14 3 13 4 11 5 12 6 10 8 5 9 6 10 7 11 9 12 8 13
REMARK SMILES IDX 4 14 2 15 3 16 79 17 78 18 77 19 1 20 80 23 81 24 82 25
REMARK SMILES IDX 17 26 18 27 19 28 20 29 21 30 22 32 23 33 24 34 76 35 25 36
REMARK SMILES IDX 75 37 26 38 27 39 28 40 69 41 29 42 74 43 68 44 70 45 30 46
REMARK SMILES IDX 73 47 67 48 66 49 31 51 57 52 40 53 56 54 41 55 44 56 55 57
REMARK SMILES IDX 71 58 42 59 43 60 54 62 72 63 45 64 32 65 33 66 38 67 34 68
REMARK SMILES IDX 35 69 37 70 39 71 36 72 58 73 59 74 64 75 60 76 61 77 63 78
REMARK SMILES IDX 65 79 62 80 46 81 47 82 52 83 48 84 49 85 51 86 53 87 50 88
REMARK H PARENT 13 7 1 21 1 22 20 31 70 50 44 61
REMARK Flexibility Score: inf
ROOT
ATOM      1  C   UNL A   1      32.309  29.824  27.227  1.00  0.00     0.002 C 
ENDROOT
BRANCH   1   2
ATOM      2  C   UNL A   1      33.458  29.062  26.560  1.00  0.00     0.021 C 
BRANCH   2   3
ATOM      3  C   UNL A   1      33.424  29.114  25.032  1.00  0.00     0.116 C 
BRANCH   3   4
ATOM      4  N   UNL A   1      33.963  27.905  24.451  1.00  0.00    -0.354 N 
ATOM      5  C   UNL A   1      33.510  26.624  24.396  1.00  0.00     0.245 C 
ATOM      6  O   UNL A   1      34.243  25.841  23.769  1.00  0.00    -0.273 OA
ATOM      7  H   UNL A   1      34.833  28.035  24.008  1.00  0.00     0.163 HD
BRANCH   5   8
ATOM      8  C   UNL A   1      32.154  26.126  24.947  1.00  0.00     0.199 C 
ATOM      9  N   UNL A   1      31.065  25.905  23.967  1.00  0.00    -0.340 N 
ATOM     10  C   UNL A   1      30.859  24.561  23.444  1.00  0.00     0.147 C 
ATOM     11  C   UNL A   1      30.913  23.536  24.578  1.00  0.00     0.181 C 
ATOM     12  C   UNL A   1      32.287  24.931  25.919  1.00  0.00     0.195 C 
ATOM     13  O   UNL A   1      32.133  23.631  25.322  1.00  0.00    -0.377 OA
BRANCH   9  14
ATOM     14  C   UNL A   1      30.292  26.963  23.546  1.00  0.00     0.132 A 
ATOM     15  C   UNL A   1      30.134  29.024  22.432  1.00  0.00     0.204 A 
ATOM     16  N   UNL A   1      30.883  28.002  22.921  1.00  0.00    -0.207 NA
ATOM     17  C   UNL A   1      28.750  29.039  22.579  1.00  0.00     0.311 A 
ATOM     18  C   UNL A   1      28.131  28.009  23.283  1.00  0.00     0.093 A 
ATOM     19  C   UNL A   1      28.915  26.970  23.769  1.00  0.00     0.054 A 
BRANCH  15  20
ATOM     20  N   UNL A   1      30.852  29.952  21.707  1.00  0.00    -0.378 N 
ATOM     21  H   UNL A   1      31.653  29.674  21.208  1.00  0.00     0.158 HD
ATOM     22  H   UNL A   1      30.563  30.893  21.688  1.00  0.00     0.158 HD
ENDBRANCH  15  20
BRANCH  17  23
ATOM     23  N   UNL A   1      27.926  30.100  22.022  1.00  0.00     0.066 N 
ATOM     24  O   UNL A   1      27.973  30.268  20.793  1.00  0.00    -0.258 OA
ATOM     25  O   UNL A   1      27.198  30.749  22.789  1.00  0.00    -0.258 OA
ENDBRANCH  17  23
ENDBRANCH   9  14
ENDBRANCH   5   8
ENDBRANCH   3   4
ENDBRANCH   2   3
ENDBRANCH   1   2
BRANCH   1  26
ATOM     26  C   UNL A   1      31.511  30.744  26.293  1.00  0.00     0.002 C 
BRANCH  26  27
ATOM     27  C   UNL A   1      31.374  32.199  26.751  1.00  0.00     0.021 C 
BRANCH  27  28
ATOM     28  C   UNL A   1      32.688  32.968  26.858  1.00  0.00     0.116 C 
BRANCH  28  29
ATOM     29  N   UNL A   1      32.541  34.199  27.619  1.00  0.00    -0.352 N 
ATOM     30  C   UNL A   1      33.176  34.602  28.767  1.00  0.00     0.251 C 
ATOM     31  H   UNL A   1      31.889  34.839  27.255  1.00  0.00     0.163 HD
ATOM     32  O   UNL A   1      32.773  35.585  29.379  1.00  0.00    -0.269 OA
BRANCH  30  33
ATOM     33  C   UNL A   1      34.339  33.847  29.276  1.00  0.00     0.039 A 
ATOM     34  C   UNL A   1      35.625  34.264  28.919  1.00  0.00     0.014 A 
ATOM     35  C   UNL A   1      34.165  32.711  30.072  1.00  0.00     0.014 A 
ATOM     36  C   UNL A   1      36.737  33.573  29.403  1.00  0.00     0.010 A 
ATOM     37  C   UNL A   1      35.275  32.064  30.608  1.00  0.00     0.010 A 
ATOM     38  C   UNL A   1      36.571  32.484  30.272  1.00  0.00    -0.014 A 
BRANCH  38  39
ATOM     39  C   UNL A   1      37.739  31.759  30.829  1.00  0.00     0.031 A 
ATOM     40  C   UNL A   1      38.250  32.092  32.202  1.00  0.00     0.074 A 
ATOM     41  C   UNL A   1      38.376  30.844  30.075  1.00  0.00     0.049 A 
ATOM     42  N   UNL A   1      39.289  31.614  32.838  1.00  0.00    -0.248 NA
ATOM     43  C   UNL A   1      37.507  33.119  32.949  1.00  0.00     0.031 C 
ATOM     44  C   UNL A   1      37.998  30.456  28.715  1.00  0.00     0.029 A 
ATOM     45  N   UNL A   1      39.479  30.076  30.347  1.00  0.00    -0.354 N 
ATOM     46  C   UNL A   1      39.333  32.289  34.051  1.00  0.00     0.074 A 
ATOM     47  C   UNL A   1      38.250  33.251  34.037  1.00  0.00     0.031 C 
ATOM     48  C   UNL A   1      38.835  29.498  28.284  1.00  0.00     0.029 A 
ATOM     49  C   UNL A   1      39.828  29.232  29.320  1.00  0.00     0.049 A 
ATOM     50  H   UNL A   1      39.974  30.123  31.196  1.00  0.00     0.167 HD
ATOM     51  C   UNL A   1      40.181  32.110  35.091  1.00  0.00     0.037 A 
ATOM     52  C   UNL A   1      40.834  28.344  29.227  1.00  0.00     0.037 A 
ATOM     53  C   UNL A   1      41.245  31.141  35.109  1.00  0.00     0.049 A 
ATOM     54  C   UNL A   1      41.779  28.179  30.383  1.00  0.00     0.074 A 
ATOM     55  C   UNL A   1      42.128  30.844  36.132  1.00  0.00     0.029 A 
ATOM     56  N   UNL A   1      41.573  30.312  34.046  1.00  0.00    -0.354 N 
ATOM     57  N   UNL A   1      41.778  28.786  31.545  1.00  0.00    -0.248 NA
ATOM     58  C   UNL A   1      42.866  27.206  30.213  1.00  0.00     0.031 C 
ATOM     59  C   UNL A   1      43.016  29.863  35.674  1.00  0.00     0.029 A 
ATOM     60  C   UNL A   1      42.659  29.518  34.380  1.00  0.00     0.049 A 
ATOM     61  H   UNL A   1      41.103  30.290  33.181  1.00  0.00     0.167 HD
ATOM     62  C   UNL A   1      42.841  28.247  32.257  1.00  0.00     0.074 A 
ATOM     63  C   UNL A   1      43.462  27.260  31.397  1.00  0.00     0.031 C 
ATOM     64  C   UNL A   1      43.263  28.540  33.511  1.00  0.00     0.037 A 
BRANCH  51  65
ATOM     65  C   UNL A   1      39.984  32.990  36.292  1.00  0.00     0.057 A 
ATOM     66  C   UNL A   1      39.052  32.679  37.291  1.00  0.00     0.134 A 
ATOM     67  C   UNL A   1      40.729  34.166  36.450  1.00  0.00     0.134 A 
ATOM     68  F   UNL A   1      38.296  31.574  37.196  1.00  0.00    -0.206 F 
ATOM     69  C   UNL A   1      38.838  33.524  38.381  1.00  0.00     0.040 A 
ATOM     70  C   UNL A   1      40.545  35.004  37.550  1.00  0.00     0.040 A 
ATOM     71  F   UNL A   1      41.643  34.521  35.535  1.00  0.00    -0.206 F 
ATOM     72  C   UNL A   1      39.589  34.690  38.514  1.00  0.00     0.006 A 
ENDBRANCH  51  65
BRANCH  52  73
ATOM     73  C   UNL A   1      40.968  27.507  28.010  1.00  0.00     0.057 A 
ATOM     74  C   UNL A   1      41.736  27.945  26.925  1.00  0.00     0.134 A 
ATOM     75  C   UNL A   1      40.353  26.255  27.904  1.00  0.00     0.134 A 
ATOM     76  F   UNL A   1      42.334  29.145  26.963  1.00  0.00    -0.206 F 
ATOM     77  C   UNL A   1      41.881  27.172  25.772  1.00  0.00     0.040 A 
ATOM     78  C   UNL A   1      40.507  25.461  26.765  1.00  0.00     0.040 A 
ATOM     79  F   UNL A   1      39.610  25.776  28.913  1.00  0.00    -0.206 F 
ATOM     80  C   UNL A   1      41.271  25.922  25.694  1.00  0.00     0.006 A 
ENDBRANCH  52  73
BRANCH  64  81
ATOM     81  C   UNL A   1      44.432  27.760  34.039  1.00  0.00     0.057 A 
ATOM     82  C   UNL A   1      45.746  28.228  33.919  1.00  0.00     0.134 A 
ATOM     83  C   UNL A   1      44.234  26.545  34.705  1.00  0.00     0.134 A 
ATOM     84  F   UNL A   1      46.003  29.379  33.279  1.00  0.00    -0.206 F 
ATOM     85  C   UNL A   1      46.826  27.502  34.425  1.00  0.00     0.040 A 
ATOM     86  C   UNL A   1      45.303  25.822  35.236  1.00  0.00     0.040 A 
ATOM     87  F   UNL A   1      42.999  26.045  34.859  1.00  0.00    -0.206 F 
ATOM     88  C   UNL A   1      46.605  26.298  35.091  1.00  0.00     0.006 A 
ENDBRANCH  64  81
ENDBRANCH  38  39
ENDBRANCH  30  33
ENDBRANCH  28  29
ENDBRANCH  27  28
ENDBRANCH  26  27
ENDBRANCH   1  26
TORSDOF 16
ENDMDL
MODEL 2
REMARK VINA RESULT:     -11.6      0.814      6.134
REMARK SMILES Nc1nc(N2CCOC[C@H]2C(=O)NCCCCCCNC(=O)c2ccc(-c3c4nc(c(-c5c(F)cccc5F)c5ccc([nH]5)c(-c5c(F)cccc5F)c5nc(c(-c6c(F)cccc6F)c6ccc3[nH]6)C=C5)C=C4)cc2)ccc1[N+](=O)[O-]
REMARK SMILES IDX 16 1 15 2 14 3 13 4 11 5 12 6 10 8 5 9 6 10 7 11 9 12 8 13
REMARK SMILES IDX 4 14 2 15 3 16 79 17 78 18 77 19 1 20 80 23 81 24 82 25
REMARK SMILES IDX 17 26 18 27 19 28 20 29 21 30 22 32 23 33 24 34 76 35 25 36
REMARK SMILES IDX 75 37 26 38 27 39 28 40 69 41 29 42 74 43 68 44 70 45 30 46
REMARK SMILES IDX 73 47 67 48 66 49 31 51 57 52 40 53 56 54 41 55 44 56 55 57
REMARK SMILES IDX 71 58 42 59 43 60 54 62 72 63 45 64 32 65 33 66 38 67 34 68
REMARK SMILES IDX 35 69 37 70 39 71 36 72 58 73 59 74 64 75 60 76 61 77 63 78
REMARK SMILES IDX 65 79 62 80 46 81 47 82 52 83 48 84 49 85 51 86 53 87 50 88
REMARK H PARENT 13 7 1 21 1 22 20 31 70 50 44 61
REMARK Flexibility Score: inf
ROOT
ATOM      1  C   UNL A   1      32.251  29.893  26.357  1.00  0.00     0.002 C 
ENDROOT
BRANCH   1   2
ATOM      2  C   UNL A   1      31.672  28.865  27.335  1.00  0.00     0.021 C 
BRANCH   2   3
ATOM      3  C   UNL A   1      31.520  27.465  26.736  1.00  0.00     0.116 C 
BRANCH   3   4
ATOM      4  N   UNL A   1      32.805  26.885  26.419  1.00  0.00    -0.354 N 
ATOM      5  C   UNL A   1      33.190  25.906  25.556  1.00  0.00     0.245 C 
ATOM      6  O   UNL A   1      34.413  25.693  25.528  1.00  0.00    -0.273 OA
ATOM      7  H   UNL A   1      33.550  27.276  26.930  1.00  0.00     0.163 HD
BRANCH   5   8
ATOM      8  C   UNL A   1      32.258  25.152  24.579  1.00  0.00     0.199 C 
ATOM      9  N   UNL A   1      32.006  25.781  23.263  1.00  0.00    -0.340 N 
ATOM     10  C   UNL A   1      32.820  25.373  22.126  1.00  0.00     0.147 C 
ATOM     11  C   UNL A   1      32.952  23.850  22.089  1.00  0.00     0.181 C 
ATOM     12  C   UNL A   1      32.609  23.654  24.429  1.00  0.00     0.195 C 
ATOM     13  O   UNL A   1      33.468  23.331  23.320  1.00  0.00    -0.377 OA
BRANCH   9  14
ATOM     14  C   UNL A   1      31.039  26.754  23.138  1.00  0.00     0.132 A 
ATOM     15  C   UNL A   1      30.409  28.880  22.368  1.00  0.00     0.204 A 
ATOM     16  N   UNL A   1      31.361  27.933  22.568  1.00  0.00    -0.207 NA
ATOM     17  C   UNL A   1      29.091  28.672  22.761  1.00  0.00     0.311 A 
ATOM     18  C   UNL A   1      28.755  27.489  23.414  1.00  0.00     0.093 A 
ATOM     19  C   UNL A   1      29.743  26.530  23.602  1.00  0.00     0.054 A 
BRANCH  15  20
ATOM     20  N   UNL A   1      30.849  29.981  21.662  1.00  0.00    -0.378 N 
ATOM     21  H   UNL A   1      31.686  29.934  21.148  1.00  0.00     0.158 HD
ATOM     22  H   UNL A   1      30.325  30.815  21.674  1.00  0.00     0.158 HD
ENDBRANCH  15  20
BRANCH  17  23
ATOM     23  N   UNL A   1      28.047  29.655  22.514  1.00  0.00     0.066 N 
ATOM     24  O   UNL A   1      27.268  29.901  23.449  1.00  0.00    -0.258 OA
ATOM     25  O   UNL A   1      28.011  30.216  21.409  1.00  0.00    -0.258 OA
ENDBRANCH  17  23
ENDBRANCH   9  14
ENDBRANCH   5   8
ENDBRANCH   3   4
ENDBRANCH   2   3
ENDBRANCH   1   2
BRANCH   1  26
ATOM     26  C   UNL A   1      31.236  30.898  25.796  1.00  0.00     0.002 C 
BRANCH  26  27
ATOM     27  C   UNL A   1      31.239  32.282  26.453  1.00  0.00     0.021 C 
BRANCH  27  28
ATOM     28  C   UNL A   1      32.547  32.667  27.140  1.00  0.00     0.116 C 
BRANCH  28  29
ATOM     29  N   UNL A   1      32.530  34.040  27.619  1.00  0.00    -0.352 N 
ATOM     30  C   UNL A   1      33.276  34.635  28.605  1.00  0.00     0.251 C 
ATOM     31  H   UNL A   1      31.887  34.632  27.167  1.00  0.00     0.163 HD
ATOM     32  O   UNL A   1      32.980  35.754  29.011  1.00  0.00    -0.269 OA
BRANCH  30  33
ATOM     33  C   UNL A   1      34.433  33.926  29.190  1.00  0.00     0.039 A 
ATOM     34  C   UNL A   1      35.720  34.264  28.761  1.00  0.00     0.014 A 
ATOM     35  C   UNL A   1      34.251  32.907  30.130  1.00  0.00     0.014 A 
ATOM     36  C   UNL A   1      36.827  33.617  29.313  1.00  0.00     0.010 A 
ATOM     37  C   UNL A   1      35.357  32.310  30.727  1.00  0.00     0.010 A 
ATOM     38  C   UNL A   1      36.655  32.653  30.319  1.00  0.00    -0.014 A 
BRANCH  38  39
ATOM     39  C   UNL A   1      37.818  31.981  30.947  1.00  0.00     0.031 A 
ATOM     40  C   UNL A   1      38.548  30.892  30.213  1.00  0.00     0.074 A 
ATOM     41  C   UNL A   1      38.181  32.310  32.201  1.00  0.00     0.049 A 
ATOM     42  N   UNL A   1      39.547  30.148  30.614  1.00  0.00    -0.248 NA
ATOM     43  C   UNL A   1      38.072  30.581  28.856  1.00  0.00     0.031 C 
ATOM     44  C   UNL A   1      37.533  33.328  33.030  1.00  0.00     0.029 A 
ATOM     45  N   UNL A   1      39.184  31.820  32.997  1.00  0.00    -0.354 N 
ATOM     46  C   UNL A   1      39.810  29.274  29.567  1.00  0.00     0.074 A 
ATOM     47  C   UNL A   1      38.829  29.542  28.537  1.00  0.00     0.031 C 
ATOM     48  C   UNL A   1      38.176  33.409  34.206  1.00  0.00     0.029 A 
ATOM     49  C   UNL A   1      39.255  32.427  34.228  1.00  0.00     0.049 A 
ATOM     50  H   UNL A   1      39.796  31.102  32.715  1.00  0.00     0.167 HD
ATOM     51  C   UNL A   1      40.794  28.349  29.462  1.00  0.00     0.037 A 
ATOM     52  C   UNL A   1      40.098  32.215  35.255  1.00  0.00     0.037 A 
ATOM     53  C   UNL A   1      41.778  28.096  30.480  1.00  0.00     0.049 A 
ATOM     54  C   UNL A   1      41.165  31.166  35.127  1.00  0.00     0.074 A 
ATOM     55  C   UNL A   1      42.847  27.218  30.452  1.00  0.00     0.029 A 
ATOM     56  N   UNL A   1      41.811  28.725  31.717  1.00  0.00    -0.354 N 
ATOM     57  N   UNL A   1      41.438  30.383  34.112  1.00  0.00    -0.248 NA
ATOM     58  C   UNL A   1      42.042  30.971  36.290  1.00  0.00     0.031 C 
ATOM     59  C   UNL A   1      43.502  27.285  31.688  1.00  0.00     0.029 A 
ATOM     60  C   UNL A   1      42.868  28.237  32.470  1.00  0.00     0.049 A 
ATOM     61  H   UNL A   1      41.177  29.415  32.017  1.00  0.00     0.167 HD
ATOM     62  C   UNL A   1      42.535  29.626  34.499  1.00  0.00     0.074 A 
ATOM     63  C   UNL A   1      42.881  30.047  35.841  1.00  0.00     0.031 C 
ATOM     64  C   UNL A   1      43.199  28.670  33.804  1.00  0.00     0.037 A 
BRANCH  51  65
ATOM     65  C   UNL A   1      40.840  27.543  28.195  1.00  0.00     0.057 A 
ATOM     66  C   UNL A   1      40.167  26.320  28.072  1.00  0.00     0.134 A 
ATOM     67  C   UNL A   1      41.573  27.989  27.088  1.00  0.00     0.134 A 
ATOM     68  F   UNL A   1      39.457  25.828  29.099  1.00  0.00    -0.206 F 
ATOM     69  C   UNL A   1      40.253  25.551  26.910  1.00  0.00     0.040 A 
ATOM     70  C   UNL A   1      41.643  27.243  25.911  1.00  0.00     0.040 A 
ATOM     71  F   UNL A   1      42.237  29.154  27.134  1.00  0.00    -0.206 F 
ATOM     72  C   UNL A   1      40.991  26.015  25.823  1.00  0.00     0.006 A 
ENDBRANCH  51  65
BRANCH  52  73
ATOM     73  C   UNL A   1      39.994  33.049  36.477  1.00  0.00     0.057 A 
ATOM     74  C   UNL A   1      40.799  34.183  36.638  1.00  0.00     0.134 A 
ATOM     75  C   UNL A   1      39.086  32.750  37.500  1.00  0.00     0.134 A 
ATOM     76  F   UNL A   1      41.699  34.508  35.699  1.00  0.00    -0.206 F 
ATOM     77  C   UNL A   1      40.713  34.985  37.776  1.00  0.00     0.040 A 
ATOM     78  C   UNL A   1      38.974  33.556  38.635  1.00  0.00     0.040 A 
ATOM     79  F   UNL A   1      38.282  31.681  37.401  1.00  0.00    -0.206 F 
ATOM     80  C   UNL A   1      39.793  34.676  38.776  1.00  0.00     0.006 A 
ENDBRANCH  52  73
BRANCH  64  81
ATOM     81  C   UNL A   1      44.386  28.039  34.471  1.00  0.00     0.057 A 
ATOM     82  C   UNL A   1      45.669  28.593  34.374  1.00  0.00     0.134 A 
ATOM     83  C   UNL A   1      44.235  26.884  35.249  1.00  0.00     0.134 A 
ATOM     84  F   UNL A   1      45.881  29.691  33.633  1.00  0.00    -0.206 F 
ATOM     85  C   UNL A   1      46.764  28.006  35.009  1.00  0.00     0.040 A 
ATOM     86  C   UNL A   1      45.318  26.302  35.908  1.00  0.00     0.040 A 
ATOM     87  F   UNL A   1      43.031  26.309  35.387  1.00  0.00    -0.206 F 
ATOM     88  C   UNL A   1      46.589  26.861  35.784  1.00  0.00     0.006 A 
ENDBRANCH  64  81
ENDBRANCH  38  39
ENDBRANCH  30  33
ENDBRANCH  28  29
ENDBRANCH  27  28
ENDBRANCH  26  27
ENDBRANCH   1  26
TORSDOF 16
ENDMDL
MODEL 3
REMARK VINA RESULT:     -11.6      0.754      1.385
REMARK SMILES Nc1nc(N2CCOC[C@H]2C(=O)NCCCCCCNC(=O)c2ccc(-c3c4nc(c(-c5c(F)cccc5F)c5ccc([nH]5)c(-c5c(F)cccc5F)c5nc(c(-c6c(F)cccc6F)c6ccc3[nH]6)C=C5)C=C4)cc2)ccc1[N+](=O)[O-]
REMARK SMILES IDX 16 1 15 2 14 3 13 4 11 5 12 6 10 8 5 9 6 10 7 11 9 12 8 13
REMARK SMILES IDX 4 14 2 15 3 16 79 17 78 18 77 19 1 20 80 23 81 24 82 25
REMARK SMILES IDX 17 26 18 27 19 28 20 29 21 30 22 32 23 33 24 34 76 35 25 36
REMARK SMILES IDX 75 37 26 38 27 39 28 40 69 41 29 42 74 43 68 44 70 45 30 46
REMARK SMILES IDX 73 47 67 48 66 49 31 51 57 52 40 53 56 54 41 55 44 56 55 57
REMARK SMILES IDX 71 58 42 59 43 60 54 62 72 63 45 64 32 65 33 66 38 67 34 68
REMARK SMILES IDX 35 69 37 70 39 71 36 72 58 73 59 74 64 75 60 76 61 77 63 78
REMARK SMILES IDX 65 79 62 80 46 81 47 82 52 83 48 84 49 85 51 86 53 87 50 88
REMARK H PARENT 13 7 1 21 1 22 20 31 70 50 44 61
REMARK Flexibility Score: inf
ROOT
ATOM      1  C   UNL A   1      32.360  30.026  26.495  1.00  0.00     0.002 C 
ENDROOT
BRANCH   1   2
ATOM      2  C   UNL A   1      31.878  28.901  27.416  1.00  0.00     0.021 C 
BRANCH   2   3
ATOM      3  C   UNL A   1      31.655  27.570  26.695  1.00  0.00     0.116 C 
BRANCH   3   4
ATOM      4  N   UNL A   1      32.908  26.917  26.396  1.00  0.00    -0.354 N 
ATOM      5  C   UNL A   1      33.234  25.858  25.606  1.00  0.00     0.245 C 
ATOM      6  O   UNL A   1      34.447  25.595  25.567  1.00  0.00    -0.273 OA
ATOM      7  H   UNL A   1      33.681  27.317  26.857  1.00  0.00     0.163 HD
BRANCH   5   8
ATOM      8  C   UNL A   1      32.250  25.067  24.714  1.00  0.00     0.199 C 
ATOM      9  N   UNL A   1      31.979  25.606  23.362  1.00  0.00    -0.340 N 
ATOM     10  C   UNL A   1      32.745  25.088  22.236  1.00  0.00     0.147 C 
ATOM     11  C   UNL A   1      32.827  23.562  22.309  1.00  0.00     0.181 C 
ATOM     12  C   UNL A   1      32.548  23.551  24.665  1.00  0.00     0.195 C 
ATOM     13  O   UNL A   1      33.362  23.118  23.561  1.00  0.00    -0.377 OA
BRANCH   9  14
ATOM     14  C   UNL A   1      31.040  26.600  23.191  1.00  0.00     0.132 A 
ATOM     15  C   UNL A   1      30.497  28.743  22.405  1.00  0.00     0.204 A 
ATOM     16  N   UNL A   1      31.418  27.776  22.649  1.00  0.00    -0.207 NA
ATOM     17  C   UNL A   1      29.155  28.561  22.723  1.00  0.00     0.311 A 
ATOM     18  C   UNL A   1      28.760  27.381  23.348  1.00  0.00     0.093 A 
ATOM     19  C   UNL A   1      29.716  26.400  23.583  1.00  0.00     0.054 A 
BRANCH  15  20
ATOM     20  N   UNL A   1      30.998  29.840  21.732  1.00  0.00    -0.378 N 
ATOM     21  H   UNL A   1      30.536  30.179  20.932  1.00  0.00     0.158 HD
ATOM     22  H   UNL A   1      31.817  30.282  22.052  1.00  0.00     0.158 HD
ENDBRANCH  15  20
BRANCH  17  23
ATOM     23  N   UNL A   1      28.147  29.567  22.427  1.00  0.00     0.066 N 
ATOM     24  O   UNL A   1      27.440  29.955  23.370  1.00  0.00    -0.258 OA
ATOM     25  O   UNL A   1      28.071  30.007  21.270  1.00  0.00    -0.258 OA
ENDBRANCH  17  23
ENDBRANCH   9  14
ENDBRANCH   5   8
ENDBRANCH   3   4
ENDBRANCH   2   3
ENDBRANCH   1   2
BRANCH   1  26
ATOM     26  C   UNL A   1      31.253  30.941  25.953  1.00  0.00     0.002 C 
BRANCH  26  27
ATOM     27  C   UNL A   1      31.248  32.373  26.498  1.00  0.00     0.021 C 
BRANCH  27  28
ATOM     28  C   UNL A   1      32.576  32.844  27.086  1.00  0.00     0.116 C 
BRANCH  28  29
ATOM     29  N   UNL A   1      32.480  34.179  27.655  1.00  0.00    -0.352 N 
ATOM     30  C   UNL A   1      33.158  34.734  28.711  1.00  0.00     0.251 C 
ATOM     31  H   UNL A   1      31.831  34.774  27.216  1.00  0.00     0.163 HD
ATOM     32  O   UNL A   1      32.797  35.809  29.177  1.00  0.00    -0.269 OA
BRANCH  30  33
ATOM     33  C   UNL A   1      34.320  34.034  29.297  1.00  0.00     0.039 A 
ATOM     34  C   UNL A   1      34.099  33.067  30.283  1.00  0.00     0.014 A 
ATOM     35  C   UNL A   1      35.623  34.354  28.906  1.00  0.00     0.014 A 
ATOM     36  C   UNL A   1      35.183  32.384  30.837  1.00  0.00     0.010 A 
ATOM     37  C   UNL A   1      36.696  33.626  29.411  1.00  0.00     0.010 A 
ATOM     38  C   UNL A   1      36.488  32.640  30.387  1.00  0.00    -0.014 A 
BRANCH  38  39
ATOM     39  C   UNL A   1      37.649  31.898  30.934  1.00  0.00     0.031 A 
ATOM     40  C   UNL A   1      38.171  32.219  32.306  1.00  0.00     0.074 A 
ATOM     41  C   UNL A   1      38.270  30.978  30.174  1.00  0.00     0.049 A 
ATOM     42  N   UNL A   1      39.207  31.725  32.936  1.00  0.00    -0.248 NA
ATOM     43  C   UNL A   1      37.446  33.253  33.061  1.00  0.00     0.031 C 
ATOM     44  C   UNL A   1      37.880  30.599  28.815  1.00  0.00     0.029 A 
ATOM     45  N   UNL A   1      39.365  30.194  30.438  1.00  0.00    -0.354 N 
ATOM     46  C   UNL A   1      39.266  32.395  34.150  1.00  0.00     0.074 A 
ATOM     47  C   UNL A   1      38.197  33.371  34.145  1.00  0.00     0.031 C 
ATOM     48  C   UNL A   1      38.702  29.632  28.376  1.00  0.00     0.029 A 
ATOM     49  C   UNL A   1      39.697  29.350  29.406  1.00  0.00     0.049 A 
ATOM     50  H   UNL A   1      39.865  30.232  31.285  1.00  0.00     0.167 HD
ATOM     51  C   UNL A   1      40.117  32.201  35.185  1.00  0.00     0.037 A 
ATOM     52  C   UNL A   1      40.691  28.448  29.305  1.00  0.00     0.037 A 
ATOM     53  C   UNL A   1      41.168  31.218  35.194  1.00  0.00     0.049 A 
ATOM     54  C   UNL A   1      41.640  28.267  30.455  1.00  0.00     0.074 A 
ATOM     55  C   UNL A   1      42.053  30.906  36.212  1.00  0.00     0.029 A 
ATOM     56  N   UNL A   1      41.480  30.388  34.126  1.00  0.00    -0.354 N 
ATOM     57  N   UNL A   1      41.652  28.869  31.619  1.00  0.00    -0.248 NA
ATOM     58  C   UNL A   1      42.713  27.280  30.276  1.00  0.00     0.031 C 
ATOM     59  C   UNL A   1      42.925  29.915  35.745  1.00  0.00     0.029 A 
ATOM     60  C   UNL A   1      42.557  29.580  34.452  1.00  0.00     0.049 A 
ATOM     61  H   UNL A   1      41.006  30.376  33.264  1.00  0.00     0.167 HD
ATOM     62  C   UNL A   1      42.712  28.313  32.324  1.00  0.00     0.074 A 
ATOM     63  C   UNL A   1      43.316  27.322  31.457  1.00  0.00     0.031 C 
ATOM     64  C   UNL A   1      43.144  28.596  33.577  1.00  0.00     0.037 A 
BRANCH  51  65
ATOM     65  C   UNL A   1      39.938  33.079  36.391  1.00  0.00     0.057 A 
ATOM     66  C   UNL A   1      40.698  34.241  36.578  1.00  0.00     0.134 A 
ATOM     67  C   UNL A   1      39.001  32.756  37.381  1.00  0.00     0.134 A 
ATOM     68  F   UNL A   1      41.623  34.601  35.675  1.00  0.00    -0.206 F 
ATOM     69  C   UNL A   1      40.562  35.028  37.723  1.00  0.00     0.040 A 
ATOM     70  C   UNL A   1      38.836  33.550  38.516  1.00  0.00     0.040 A 
ATOM     71  F   UNL A   1      38.235  31.661  37.263  1.00  0.00    -0.206 F 
ATOM     72  C   UNL A   1      39.626  34.684  38.695  1.00  0.00     0.006 A 
ENDBRANCH  51  65
BRANCH  52  73
ATOM     73  C   UNL A   1      40.808  27.614  28.083  1.00  0.00     0.057 A 
ATOM     74  C   UNL A   1      41.557  28.056  26.987  1.00  0.00     0.134 A 
ATOM     75  C   UNL A   1      40.195  26.360  27.985  1.00  0.00     0.134 A 
ATOM     76  F   UNL A   1      42.151  29.258  27.018  1.00  0.00    -0.206 F 
ATOM     77  C   UNL A   1      41.685  27.286  25.831  1.00  0.00     0.040 A 
ATOM     78  C   UNL A   1      40.333  25.569  26.843  1.00  0.00     0.040 A 
ATOM     79  F   UNL A   1      39.470  25.877  29.005  1.00  0.00    -0.206 F 
ATOM     80  C   UNL A   1      41.077  26.034  25.760  1.00  0.00     0.006 A 
ENDBRANCH  52  73
BRANCH  64  81
ATOM     81  C   UNL A   1      44.305  27.800  34.096  1.00  0.00     0.057 A 
ATOM     82  C   UNL A   1      45.622  28.269  34.006  1.00  0.00     0.134 A 
ATOM     83  C   UNL A   1      44.098  26.565  34.723  1.00  0.00     0.134 A 
ATOM     84  F   UNL A   1      45.888  29.438  33.405  1.00  0.00    -0.206 F 
ATOM     85  C   UNL A   1      46.693  27.526  34.504  1.00  0.00     0.040 A 
ATOM     86  C   UNL A   1      45.159  25.825  35.245  1.00  0.00     0.040 A 
ATOM     87  F   UNL A   1      42.860  26.063  34.846  1.00  0.00    -0.206 F 
ATOM     88  C   UNL A   1      46.463  26.303  35.131  1.00  0.00     0.006 A 
ENDBRANCH  64  81
ENDBRANCH  38  39
ENDBRANCH  30  33
ENDBRANCH  28  29
ENDBRANCH  27  28
ENDBRANCH  26  27
ENDBRANCH   1  26
TORSDOF 16
ENDMDL
