MODEL 1
REMARK VINA RESULT:     -12.1      0.000      0.000
REMARK SMILES NS(=O)(=O)c1ccc(N2N=C(C(=O)NCCCCCCNC(=O)c3ccc(-c4c5nc(c(-c6c(F)cccc6F)c6ccc([nH]6)c(-c6c(F)cccc6F)c6nc(c(-c7c(F)cccc7F)c7ccc4[nH]7)C=C6)C=C5)cc3)C[C@H]2c2ccco2)cc1
REMARK SMILES IDX 17 1 16 2 15 3 14 4 12 5 13 6 11 8 9 9 10 10 79 11 78 12
REMARK SMILES IDX 8 13 5 14 6 15 86 16 7 17 85 18 2 19 3 20 4 21 1 22 80 25
REMARK SMILES IDX 81 26 84 27 82 28 83 29 18 30 19 31 20 32 21 33 22 34 23 36
REMARK SMILES IDX 24 37 25 38 77 39 26 40 76 41 27 42 28 43 29 44 70 45 30 46
REMARK SMILES IDX 75 47 69 48 71 49 31 50 74 51 68 52 67 53 32 55 58 56 41 57
REMARK SMILES IDX 57 58 42 59 45 60 56 61 72 62 43 63 44 64 55 66 73 67 46 68
REMARK SMILES IDX 33 69 34 70 39 71 35 72 36 73 38 74 40 75 37 76 59 77 60 78
REMARK SMILES IDX 65 79 61 80 62 81 64 82 66 83 63 84 47 85 48 86 53 87 49 88
REMARK SMILES IDX 50 89 52 90 54 91 51 92
REMARK H PARENT 14 7 1 23 1 24 21 35 71 54 45 65
REMARK Flexibility Score: inf
ROOT
ATOM      1  C   UNL A   1      32.729  29.787  25.787  1.00  0.00     0.002 C 
ENDROOT
BRANCH   1   2
ATOM      2  C   UNL A   1      33.218  29.128  24.494  1.00  0.00     0.021 C 
BRANCH   2   3
ATOM      3  C   UNL A   1      33.434  27.620  24.591  1.00  0.00     0.116 C 
BRANCH   3   4
ATOM      4  N   UNL A   1      33.352  26.995  23.288  1.00  0.00    -0.351 N 
ATOM      5  C   UNL A   1      33.650  25.749  22.804  1.00  0.00     0.267 C 
ATOM      6  O   UNL A   1      33.542  25.574  21.592  1.00  0.00    -0.268 OA
ATOM      7  H   UNL A   1      33.005  27.602  22.594  1.00  0.00     0.163 HD
BRANCH   5   8
ATOM      8  C   UNL A   1      34.062  24.568  23.672  1.00  0.00     0.128 C 
ATOM      9  N   UNL A   1      35.320  23.014  24.425  1.00  0.00    -0.254 N 
ATOM     10  N   UNL A   1      35.297  24.168  23.702  1.00  0.00    -0.171 NA
ATOM     11  C   UNL A   1      34.046  22.699  25.073  1.00  0.00     0.180 C 
ATOM     12  C   UNL A   1      33.118  23.787  24.521  1.00  0.00     0.099 C 
BRANCH   9  13
ATOM     13  C   UNL A   1      36.532  22.502  24.871  1.00  0.00     0.060 A 
ATOM     14  C   UNL A   1      38.973  21.479  25.818  1.00  0.00     0.082 A 
ATOM     15  C   UNL A   1      38.130  20.665  25.060  1.00  0.00     0.024 A 
ATOM     16  C   UNL A   1      38.613  22.794  26.109  1.00  0.00     0.024 A 
ATOM     17  C   UNL A   1      36.912  21.177  24.602  1.00  0.00     0.029 A 
ATOM     18  C   UNL A   1      37.397  23.292  25.641  1.00  0.00     0.029 A 
BRANCH  14  19
ATOM     19  S   UNL A   1      40.507  20.859  26.431  1.00  0.00     0.238 S 
ATOM     20  O   UNL A   1      40.491  20.917  27.871  1.00  0.00    -0.207 OA
ATOM     21  O   UNL A   1      41.585  21.408  25.637  1.00  0.00    -0.207 OA
BRANCH  19  22
ATOM     22  N   UNL A   1      40.467  19.228  26.027  1.00  0.00    -0.225 NA
ATOM     23  H   UNL A   1      40.780  18.672  26.824  1.00  0.00     0.137 HD
ATOM     24  H   UNL A   1      41.084  19.058  25.233  1.00  0.00     0.137 HD
ENDBRANCH  19  22
ENDBRANCH  14  19
ENDBRANCH   9  13
BRANCH  11  25
ATOM     25  C   UNL A   1      33.487  21.318  24.892  1.00  0.00     0.128 A 
ATOM     26  C   UNL A   1      32.908  20.679  23.811  1.00  0.00     0.048 A 
ATOM     27  O   UNL A   1      33.530  20.460  25.954  1.00  0.00    -0.467 OA
ATOM     28  C   UNL A   1      32.567  19.376  24.244  1.00  0.00     0.042 A 
ATOM     29  C   UNL A   1      32.980  19.288  25.551  1.00  0.00     0.195 A 
ENDBRANCH  11  25
ENDBRANCH   5   8
ENDBRANCH   3   4
ENDBRANCH   2   3
ENDBRANCH   1   2
BRANCH   1  30
ATOM     30  C   UNL A   1      31.384  30.514  25.686  1.00  0.00     0.002 C 
BRANCH  30  31
ATOM     31  C   UNL A   1      31.284  31.829  26.463  1.00  0.00     0.021 C 
BRANCH  31  32
ATOM     32  C   UNL A   1      32.614  32.407  26.935  1.00  0.00     0.116 C 
BRANCH  32  33
ATOM     33  N   UNL A   1      32.483  33.768  27.425  1.00  0.00    -0.352 N 
ATOM     34  C   UNL A   1      33.174  34.407  28.422  1.00  0.00     0.251 C 
ATOM     35  H   UNL A   1      31.798  34.311  26.973  1.00  0.00     0.163 HD
ATOM     36  O   UNL A   1      32.807  35.511  28.812  1.00  0.00    -0.269 OA
BRANCH  34  37
ATOM     37  C   UNL A   1      34.351  33.763  29.046  1.00  0.00     0.039 A 
ATOM     38  C   UNL A   1      34.141  32.713  29.944  1.00  0.00     0.014 A 
ATOM     39  C   UNL A   1      35.651  34.201  28.771  1.00  0.00     0.014 A 
ATOM     40  C   UNL A   1      35.235  32.070  30.528  1.00  0.00     0.010 A 
ATOM     41  C   UNL A   1      36.741  33.515  29.301  1.00  0.00     0.010 A 
ATOM     42  C   UNL A   1      36.545  32.446  30.188  1.00  0.00    -0.014 A 
BRANCH  42  43
ATOM     43  C   UNL A   1      37.714  31.731  30.757  1.00  0.00     0.031 A 
ATOM     44  C   UNL A   1      38.184  32.029  32.153  1.00  0.00     0.074 A 
ATOM     45  C   UNL A   1      38.385  30.845  29.995  1.00  0.00     0.049 A 
ATOM     46  N   UNL A   1      39.206  31.534  32.805  1.00  0.00    -0.248 NA
ATOM     47  C   UNL A   1      37.422  33.035  32.908  1.00  0.00     0.031 C 
ATOM     48  C   UNL A   1      38.058  30.504  28.609  1.00  0.00     0.029 A 
ATOM     49  N   UNL A   1      39.483  30.073  30.277  1.00  0.00    -0.354 N 
ATOM     50  C   UNL A   1      39.215  32.173  34.038  1.00  0.00     0.074 A 
ATOM     51  C   UNL A   1      38.130  33.130  34.025  1.00  0.00     0.031 C 
ATOM     52  C   UNL A   1      38.922  29.574  28.171  1.00  0.00     0.029 A 
ATOM     53  C   UNL A   1      39.880  29.277  29.230  1.00  0.00     0.049 A 
ATOM     54  H   UNL A   1      39.944  30.089  31.147  1.00  0.00     0.167 HD
ATOM     55  C   UNL A   1      40.037  31.966  35.095  1.00  0.00     0.037 A 
ATOM     56  C   UNL A   1      40.902  28.406  29.136  1.00  0.00     0.037 A 
ATOM     57  C   UNL A   1      41.102  30.996  35.115  1.00  0.00     0.049 A 
ATOM     58  C   UNL A   1      41.798  28.191  30.323  1.00  0.00     0.074 A 
ATOM     59  C   UNL A   1      41.951  30.670  36.158  1.00  0.00     0.029 A 
ATOM     60  N   UNL A   1      41.462  30.197  34.041  1.00  0.00    -0.354 N 
ATOM     61  N   UNL A   1      41.752  28.755  31.506  1.00  0.00    -0.248 NA
ATOM     62  C   UNL A   1      42.882  27.212  30.164  1.00  0.00     0.031 C 
ATOM     63  C   UNL A   1      42.853  29.702  35.701  1.00  0.00     0.029 A 
ATOM     64  C   UNL A   1      42.536  29.392  34.389  1.00  0.00     0.049 A 
ATOM     65  H   UNL A   1      41.021  30.201  33.160  1.00  0.00     0.167 HD
ATOM     66  C   UNL A   1      42.783  28.182  32.239  1.00  0.00     0.074 A 
ATOM     67  C   UNL A   1      43.425  27.215  31.373  1.00  0.00     0.031 C 
ATOM     68  C   UNL A   1      43.164  28.434  33.515  1.00  0.00     0.037 A 
BRANCH  55  69
ATOM     69  C   UNL A   1      39.814  32.804  36.319  1.00  0.00     0.057 A 
ATOM     70  C   UNL A   1      40.544  33.977  36.555  1.00  0.00     0.134 A 
ATOM     71  C   UNL A   1      38.836  32.454  37.258  1.00  0.00     0.134 A 
ATOM     72  F   UNL A   1      41.504  34.363  35.701  1.00  0.00    -0.206 F 
ATOM     73  C   UNL A   1      40.329  34.755  37.694  1.00  0.00     0.040 A 
ATOM     74  C   UNL A   1      38.593  33.239  38.387  1.00  0.00     0.040 A 
ATOM     75  F   UNL A   1      38.097  31.347  37.092  1.00  0.00    -0.206 F 
ATOM     76  C   UNL A   1      39.346  34.389  38.610  1.00  0.00     0.006 A 
ENDBRANCH  55  69
BRANCH  56  77
ATOM     77  C   UNL A   1      41.115  27.648  27.877  1.00  0.00     0.057 A 
ATOM     78  C   UNL A   1      41.879  28.185  26.833  1.00  0.00     0.134 A 
ATOM     79  C   UNL A   1      40.560  26.378  27.684  1.00  0.00     0.134 A 
ATOM     80  F   UNL A   1      42.421  29.406  26.953  1.00  0.00    -0.206 F 
ATOM     81  C   UNL A   1      42.066  27.494  25.636  1.00  0.00     0.040 A 
ATOM     82  C   UNL A   1      40.760  25.666  26.500  1.00  0.00     0.040 A 
ATOM     83  F   UNL A   1      39.826  25.807  28.650  1.00  0.00    -0.206 F 
ATOM     84  C   UNL A   1      41.510  26.228  25.470  1.00  0.00     0.006 A 
ENDBRANCH  56  77
BRANCH  68  85
ATOM     85  C   UNL A   1      44.310  27.632  34.057  1.00  0.00     0.057 A 
ATOM     86  C   UNL A   1      44.120  26.377  34.649  1.00  0.00     0.134 A 
ATOM     87  C   UNL A   1      45.623  28.112  33.964  1.00  0.00     0.134 A 
ATOM     88  F   UNL A   1      42.885  25.868  34.781  1.00  0.00    -0.206 F 
ATOM     89  C   UNL A   1      45.192  25.639  35.151  1.00  0.00     0.040 A 
ATOM     90  C   UNL A   1      46.705  27.371  34.439  1.00  0.00     0.040 A 
ATOM     91  F   UNL A   1      45.875  29.303  33.402  1.00  0.00    -0.206 F 
ATOM     92  C   UNL A   1      46.491  26.133  35.042  1.00  0.00     0.006 A 
ENDBRANCH  68  85
ENDBRANCH  42  43
ENDBRANCH  34  37
ENDBRANCH  32  33
ENDBRANCH  31  32
ENDBRANCH  30  31
ENDBRANCH   1  30
TORSDOF 17
ENDMDL
MODEL 2
REMARK VINA RESULT:     -12.0      4.937     10.041
REMARK SMILES NS(=O)(=O)c1ccc(N2N=C(C(=O)NCCCCCCNC(=O)c3ccc(-c4c5nc(c(-c6c(F)cccc6F)c6ccc([nH]6)c(-c6c(F)cccc6F)c6nc(c(-c7c(F)cccc7F)c7ccc4[nH]7)C=C6)C=C5)cc3)C[C@H]2c2ccco2)cc1
REMARK SMILES IDX 17 1 16 2 15 3 14 4 12 5 13 6 11 8 9 9 10 10 79 11 78 12
REMARK SMILES IDX 8 13 5 14 6 15 86 16 7 17 85 18 2 19 3 20 4 21 1 22 80 25
REMARK SMILES IDX 81 26 84 27 82 28 83 29 18 30 19 31 20 32 21 33 22 34 23 36
REMARK SMILES IDX 24 37 25 38 77 39 26 40 76 41 27 42 28 43 29 44 70 45 30 46
REMARK SMILES IDX 75 47 69 48 71 49 31 50 74 51 68 52 67 53 32 55 58 56 41 57
REMARK SMILES IDX 57 58 42 59 45 60 56 61 72 62 43 63 44 64 55 66 73 67 46 68
REMARK SMILES IDX 33 69 34 70 39 71 35 72 36 73 38 74 40 75 37 76 59 77 60 78
REMARK SMILES IDX 65 79 61 80 62 81 64 82 66 83 63 84 47 85 48 86 53 87 49 88
REMARK SMILES IDX 50 89 52 90 54 91 51 92
REMARK H PARENT 14 7 1 23 1 24 21 35 71 54 45 65
REMARK Flexibility Score: inf
ROOT
ATOM      1  C   UNL A   1      37.283  21.930  24.526  1.00  0.00     0.002 C 
ENDROOT
BRANCH   1   2
ATOM      2  C   UNL A   1      36.441  22.680  23.491  1.00  0.00     0.021 C 
BRANCH   2   3
ATOM      3  C   UNL A   1      35.239  23.424  24.066  1.00  0.00     0.116 C 
BRANCH   3   4
ATOM      4  N   UNL A   1      33.999  22.762  23.721  1.00  0.00    -0.351 N 
ATOM      5  C   UNL A   1      32.674  23.083  23.850  1.00  0.00     0.267 C 
ATOM      6  O   UNL A   1      31.852  22.229  23.523  1.00  0.00    -0.268 OA
ATOM      7  H   UNL A   1      34.140  21.883  23.298  1.00  0.00     0.163 HD
BRANCH   5   8
ATOM      8  C   UNL A   1      32.163  24.434  24.330  1.00  0.00     0.128 C 
ATOM      9  N   UNL A   1      31.469  26.449  24.182  1.00  0.00    -0.254 N 
ATOM     10  N   UNL A   1      31.685  25.299  23.487  1.00  0.00    -0.171 NA
ATOM     11  C   UNL A   1      31.650  26.306  25.628  1.00  0.00     0.180 C 
ATOM     12  C   UNL A   1      32.178  24.874  25.754  1.00  0.00     0.099 C 
BRANCH   9  13
ATOM     13  C   UNL A   1      30.700  27.462  23.622  1.00  0.00     0.060 A 
ATOM     14  C   UNL A   1      29.121  29.514  22.528  1.00  0.00     0.082 A 
ATOM     15  C   UNL A   1      30.513  29.607  22.470  1.00  0.00     0.024 A 
ATOM     16  C   UNL A   1      28.509  28.413  23.126  1.00  0.00     0.024 A 
ATOM     17  C   UNL A   1      31.292  28.587  23.026  1.00  0.00     0.029 A 
ATOM     18  C   UNL A   1      29.300  27.402  23.672  1.00  0.00     0.029 A 
BRANCH  14  19
ATOM     19  S   UNL A   1      28.107  30.792  21.857  1.00  0.00     0.238 S 
ATOM     20  O   UNL A   1      27.118  31.167  22.837  1.00  0.00    -0.207 OA
ATOM     21  O   UNL A   1      27.768  30.453  20.492  1.00  0.00    -0.207 OA
BRANCH  19  22
ATOM     22  N   UNL A   1      29.153  32.102  21.723  1.00  0.00    -0.225 NA
ATOM     23  H   UNL A   1      28.612  32.963  21.637  1.00  0.00     0.137 HD
ATOM     24  H   UNL A   1      29.739  31.986  20.896  1.00  0.00     0.137 HD
ENDBRANCH  19  22
ENDBRANCH  14  19
ENDBRANCH   9  13
BRANCH  11  25
ATOM     25  C   UNL A   1      32.521  27.306  26.330  1.00  0.00     0.128 A 
ATOM     26  C   UNL A   1      32.275  28.203  27.355  1.00  0.00     0.048 A 
ATOM     27  O   UNL A   1      33.829  27.405  25.948  1.00  0.00    -0.467 OA
ATOM     28  C   UNL A   1      33.489  28.890  27.592  1.00  0.00     0.042 A 
ATOM     29  C   UNL A   1      34.407  28.358  26.720  1.00  0.00     0.195 A 
ENDBRANCH  11  25
ENDBRANCH   5   8
ENDBRANCH   3   4
ENDBRANCH   2   3
ENDBRANCH   1   2
BRANCH   1  30
ATOM     30  C   UNL A   1      36.842  20.491  24.813  1.00  0.00     0.002 C 
BRANCH  30  31
ATOM     31  C   UNL A   1      37.973  19.477  25.001  1.00  0.00     0.021 C 
BRANCH  31  32
ATOM     32  C   UNL A   1      39.194  20.000  25.751  1.00  0.00     0.116 C 
BRANCH  32  33
ATOM     33  N   UNL A   1      40.235  18.996  25.882  1.00  0.00    -0.352 N 
ATOM     34  C   UNL A   1      41.580  19.155  26.099  1.00  0.00     0.251 C 
ATOM     35  H   UNL A   1      39.929  18.064  25.804  1.00  0.00     0.163 HD
ATOM     36  O   UNL A   1      42.333  18.191  26.010  1.00  0.00    -0.269 OA
BRANCH  34  37
ATOM     37  C   UNL A   1      42.131  20.490  26.420  1.00  0.00     0.039 A 
ATOM     38  C   UNL A   1      42.595  21.291  25.374  1.00  0.00     0.014 A 
ATOM     39  C   UNL A   1      42.214  20.944  27.740  1.00  0.00     0.014 A 
ATOM     40  C   UNL A   1      43.097  22.566  25.645  1.00  0.00     0.010 A 
ATOM     41  C   UNL A   1      42.652  22.240  28.003  1.00  0.00     0.010 A 
ATOM     42  C   UNL A   1      43.102  23.062  26.959  1.00  0.00    -0.014 A 
BRANCH  42  43
ATOM     43  C   UNL A   1      43.577  24.438  27.251  1.00  0.00     0.031 A 
ATOM     44  C   UNL A   1      42.611  25.498  27.698  1.00  0.00     0.074 A 
ATOM     45  C   UNL A   1      44.876  24.744  27.066  1.00  0.00     0.049 A 
ATOM     46  N   UNL A   1      42.834  26.761  27.964  1.00  0.00    -0.248 NA
ATOM     47  C   UNL A   1      41.204  25.095  27.842  1.00  0.00     0.031 C 
ATOM     48  C   UNL A   1      45.904  23.817  26.589  1.00  0.00     0.029 A 
ATOM     49  N   UNL A   1      45.553  25.922  27.252  1.00  0.00    -0.354 N 
ATOM     50  C   UNL A   1      41.598  27.303  28.294  1.00  0.00     0.074 A 
ATOM     51  C   UNL A   1      40.621  26.246  28.145  1.00  0.00     0.031 C 
ATOM     52  C   UNL A   1      47.084  24.456  26.544  1.00  0.00     0.029 A 
ATOM     53  C   UNL A   1      46.892  25.841  26.957  1.00  0.00     0.049 A 
ATOM     54  H   UNL A   1      45.119  26.749  27.567  1.00  0.00     0.167 HD
ATOM     55  C   UNL A   1      41.307  28.560  28.708  1.00  0.00     0.037 A 
ATOM     56  C   UNL A   1      47.855  26.780  27.012  1.00  0.00     0.037 A 
ATOM     57  C   UNL A   1      42.284  29.603  28.879  1.00  0.00     0.049 A 
ATOM     58  C   UNL A   1      47.507  28.166  27.477  1.00  0.00     0.074 A 
ATOM     59  C   UNL A   1      42.096  30.891  29.349  1.00  0.00     0.029 A 
ATOM     60  N   UNL A   1      43.633  29.478  28.585  1.00  0.00    -0.354 N 
ATOM     61  N   UNL A   1      46.345  28.645  27.851  1.00  0.00    -0.248 NA
ATOM     62  C   UNL A   1      48.606  29.139  27.536  1.00  0.00     0.031 C 
ATOM     63  C   UNL A   1      43.326  31.558  29.301  1.00  0.00     0.029 A 
ATOM     64  C   UNL A   1      44.287  30.672  28.843  1.00  0.00     0.049 A 
ATOM     65  H   UNL A   1      44.063  28.661  28.242  1.00  0.00     0.167 HD
ATOM     66  C   UNL A   1      46.578  29.966  28.213  1.00  0.00     0.074 A 
ATOM     67  C   UNL A   1      47.995  30.206  28.029  1.00  0.00     0.031 C 
ATOM     68  C   UNL A   1      45.698  30.896  28.657  1.00  0.00     0.037 A 
BRANCH  55  69
ATOM     69  C   UNL A   1      39.870  28.872  29.007  1.00  0.00     0.057 A 
ATOM     70  C   UNL A   1      38.979  29.285  28.006  1.00  0.00     0.134 A 
ATOM     71  C   UNL A   1      39.361  28.730  30.303  1.00  0.00     0.134 A 
ATOM     72  F   UNL A   1      39.406  29.453  26.744  1.00  0.00    -0.206 F 
ATOM     73  C   UNL A   1      37.643  29.571  28.288  1.00  0.00     0.040 A 
ATOM     74  C   UNL A   1      38.019  28.987  30.594  1.00  0.00     0.040 A 
ATOM     75  F   UNL A   1      40.156  28.334  31.308  1.00  0.00    -0.206 F 
ATOM     76  C   UNL A   1      37.158  29.415  29.586  1.00  0.00     0.006 A 
ENDBRANCH  55  69
BRANCH  56  77
ATOM     77  C   UNL A   1      49.251  26.431  26.644  1.00  0.00     0.057 A 
ATOM     78  C   UNL A   1      50.131  25.889  27.588  1.00  0.00     0.134 A 
ATOM     79  C   UNL A   1      49.739  26.635  25.348  1.00  0.00     0.134 A 
ATOM     80  F   UNL A   1      49.726  25.689  28.851  1.00  0.00    -0.206 F 
ATOM     81  C   UNL A   1      51.452  25.581  27.262  1.00  0.00     0.040 A 
ATOM     82  C   UNL A   1      51.051  26.307  25.002  1.00  0.00     0.040 A 
ATOM     83  F   UNL A   1      48.941  27.143  24.396  1.00  0.00    -0.206 F 
ATOM     84  C   UNL A   1      51.913  25.785  25.963  1.00  0.00     0.006 A 
ENDBRANCH  56  77
BRANCH  68  85
ATOM     85  C   UNL A   1      46.248  32.248  29.000  1.00  0.00     0.057 A 
ATOM     86  C   UNL A   1      46.307  33.283  28.057  1.00  0.00     0.134 A 
ATOM     87  C   UNL A   1      46.702  32.526  30.296  1.00  0.00     0.134 A 
ATOM     88  F   UNL A   1      45.900  33.077  26.796  1.00  0.00    -0.206 F 
ATOM     89  C   UNL A   1      46.822  34.538  28.386  1.00  0.00     0.040 A 
ATOM     90  C   UNL A   1      47.194  33.784  30.642  1.00  0.00     0.040 A 
ATOM     91  F   UNL A   1      46.666  31.581  31.247  1.00  0.00    -0.206 F 
ATOM     92  C   UNL A   1      47.262  34.793  29.683  1.00  0.00     0.006 A 
ENDBRANCH  68  85
ENDBRANCH  42  43
ENDBRANCH  34  37
ENDBRANCH  32  33
ENDBRANCH  31  32
ENDBRANCH  30  31
ENDBRANCH   1  30
TORSDOF 17
ENDMDL
MODEL 3
REMARK VINA RESULT:     -11.9      4.756     10.604
REMARK SMILES NS(=O)(=O)c1ccc(N2N=C(C(=O)NCCCCCCNC(=O)c3ccc(-c4c5nc(c(-c6c(F)cccc6F)c6ccc([nH]6)c(-c6c(F)cccc6F)c6nc(c(-c7c(F)cccc7F)c7ccc4[nH]7)C=C6)C=C5)cc3)C[C@H]2c2ccco2)cc1
REMARK SMILES IDX 17 1 16 2 15 3 14 4 12 5 13 6 11 8 9 9 10 10 79 11 78 12
REMARK SMILES IDX 8 13 5 14 6 15 86 16 7 17 85 18 2 19 3 20 4 21 1 22 80 25
REMARK SMILES IDX 81 26 84 27 82 28 83 29 18 30 19 31 20 32 21 33 22 34 23 36
REMARK SMILES IDX 24 37 25 38 77 39 26 40 76 41 27 42 28 43 29 44 70 45 30 46
REMARK SMILES IDX 75 47 69 48 71 49 31 50 74 51 68 52 67 53 32 55 58 56 41 57
REMARK SMILES IDX 57 58 42 59 45 60 56 61 72 62 43 63 44 64 55 66 73 67 46 68
REMARK SMILES IDX 33 69 34 70 39 71 35 72 36 73 38 74 40 75 37 76 59 77 60 78
REMARK SMILES IDX 65 79 61 80 62 81 64 82 66 83 63 84 47 85 48 86 53 87 49 88
REMARK SMILES IDX 50 89 52 90 54 91 51 92
REMARK H PARENT 14 7 1 23 1 24 21 35 71 54 45 65
REMARK Flexibility Score: inf
ROOT
ATOM      1  C   UNL A   1      36.960  21.827  24.260  1.00  0.00     0.002 C 
ENDROOT
BRANCH   1   2
ATOM      2  C   UNL A   1      36.092  22.975  24.783  1.00  0.00     0.021 C 
BRANCH   2   3
ATOM      3  C   UNL A   1      35.108  23.544  23.764  1.00  0.00     0.116 C 
BRANCH   3   4
ATOM      4  N   UNL A   1      33.848  22.833  23.799  1.00  0.00    -0.351 N 
ATOM      5  C   UNL A   1      32.585  23.145  24.228  1.00  0.00     0.267 C 
ATOM      6  O   UNL A   1      31.741  22.251  24.192  1.00  0.00    -0.268 OA
ATOM      7  H   UNL A   1      33.914  21.922  23.431  1.00  0.00     0.163 HD
BRANCH   5   8
ATOM      8  C   UNL A   1      32.157  24.526  24.703  1.00  0.00     0.128 C 
ATOM      9  N   UNL A   1      31.486  26.548  24.548  1.00  0.00    -0.254 N 
ATOM     10  N   UNL A   1      31.600  25.365  23.884  1.00  0.00    -0.171 NA
ATOM     11  C   UNL A   1      31.833  26.463  25.967  1.00  0.00     0.180 C 
ATOM     12  C   UNL A   1      32.348  25.025  26.095  1.00  0.00     0.099 C 
BRANCH   9  13
ATOM     13  C   UNL A   1      30.675  27.554  24.036  1.00  0.00     0.060 A 
ATOM     14  C   UNL A   1      29.069  29.602  22.975  1.00  0.00     0.082 A 
ATOM     15  C   UNL A   1      28.598  28.287  22.982  1.00  0.00     0.024 A 
ATOM     16  C   UNL A   1      30.329  29.905  23.488  1.00  0.00     0.024 A 
ATOM     17  C   UNL A   1      29.408  27.272  23.502  1.00  0.00     0.029 A 
ATOM     18  C   UNL A   1      31.122  28.882  24.007  1.00  0.00     0.029 A 
BRANCH  14  19
ATOM     19  S   UNL A   1      28.084  30.904  22.307  1.00  0.00     0.238 S 
ATOM     20  O   UNL A   1      27.171  31.366  23.322  1.00  0.00    -0.207 OA
ATOM     21  O   UNL A   1      27.653  30.531  20.977  1.00  0.00    -0.207 OA
BRANCH  19  22
ATOM     22  N   UNL A   1      29.184  32.152  22.064  1.00  0.00    -0.225 NA
ATOM     23  H   UNL A   1      28.684  33.040  22.005  1.00  0.00     0.137 HD
ATOM     24  H   UNL A   1      29.694  31.992  21.195  1.00  0.00     0.137 HD
ENDBRANCH  19  22
ENDBRANCH  14  19
ENDBRANCH   9  13
BRANCH  11  25
ATOM     25  C   UNL A   1      32.798  27.472  26.518  1.00  0.00     0.128 A 
ATOM     26  C   UNL A   1      32.751  28.305  27.620  1.00  0.00     0.048 A 
ATOM     27  O   UNL A   1      33.985  27.655  25.864  1.00  0.00    -0.467 OA
ATOM     28  C   UNL A   1      33.959  29.042  27.625  1.00  0.00     0.042 A 
ATOM     29  C   UNL A   1      34.681  28.599  26.544  1.00  0.00     0.195 A 
ENDBRANCH  11  25
ENDBRANCH   5   8
ENDBRANCH   3   4
ENDBRANCH   2   3
ENDBRANCH   1   2
BRANCH   1  30
ATOM     30  C   UNL A   1      36.713  20.465  24.916  1.00  0.00     0.002 C 
BRANCH  30  31
ATOM     31  C   UNL A   1      37.922  19.526  24.966  1.00  0.00     0.021 C 
BRANCH  31  32
ATOM     32  C   UNL A   1      39.069  19.994  25.858  1.00  0.00     0.116 C 
BRANCH  32  33
ATOM     33  N   UNL A   1      40.174  19.052  25.874  1.00  0.00    -0.352 N 
ATOM     34  C   UNL A   1      41.517  19.285  26.029  1.00  0.00     0.251 C 
ATOM     35  H   UNL A   1      39.922  18.108  25.759  1.00  0.00     0.163 HD
ATOM     36  O   UNL A   1      42.322  18.377  25.845  1.00  0.00    -0.269 OA
BRANCH  34  37
ATOM     37  C   UNL A   1      42.002  20.633  26.397  1.00  0.00     0.039 A 
ATOM     38  C   UNL A   1      42.291  21.542  25.376  1.00  0.00     0.014 A 
ATOM     39  C   UNL A   1      42.197  20.996  27.733  1.00  0.00     0.014 A 
ATOM     40  C   UNL A   1      42.727  22.829  25.695  1.00  0.00     0.010 A 
ATOM     41  C   UNL A   1      42.567  22.301  28.052  1.00  0.00     0.010 A 
ATOM     42  C   UNL A   1      42.840  23.229  27.037  1.00  0.00    -0.014 A 
BRANCH  42  43
ATOM     43  C   UNL A   1      43.245  24.613  27.388  1.00  0.00     0.031 A 
ATOM     44  C   UNL A   1      44.688  25.026  27.314  1.00  0.00     0.074 A 
ATOM     45  C   UNL A   1      42.316  25.487  27.822  1.00  0.00     0.049 A 
ATOM     46  N   UNL A   1      45.236  26.177  27.616  1.00  0.00    -0.248 NA
ATOM     47  C   UNL A   1      45.648  24.005  26.866  1.00  0.00     0.031 C 
ATOM     48  C   UNL A   1      40.890  25.193  27.985  1.00  0.00     0.029 A 
ATOM     49  N   UNL A   1      42.431  26.796  28.211  1.00  0.00    -0.354 N 
ATOM     50  C   UNL A   1      46.599  26.015  27.405  1.00  0.00     0.074 A 
ATOM     51  C   UNL A   1      46.803  24.641  27.000  1.00  0.00     0.031 C 
ATOM     52  C   UNL A   1      40.261  26.298  28.416  1.00  0.00     0.029 A 
ATOM     53  C   UNL A   1      41.240  27.366  28.590  1.00  0.00     0.049 A 
ATOM     54  H   UNL A   1      43.288  27.283  28.218  1.00  0.00     0.167 HD
ATOM     55  C   UNL A   1      47.589  26.934  27.515  1.00  0.00     0.037 A 
ATOM     56  C   UNL A   1      40.969  28.609  29.030  1.00  0.00     0.037 A 
ATOM     57  C   UNL A   1      47.381  28.307  27.895  1.00  0.00     0.049 A 
ATOM     58  C   UNL A   1      42.083  29.611  29.140  1.00  0.00     0.074 A 
ATOM     59  C   UNL A   1      48.311  29.329  27.977  1.00  0.00     0.029 A 
ATOM     60  N   UNL A   1      46.158  28.850  28.256  1.00  0.00    -0.354 N 
ATOM     61  N   UNL A   1      43.358  29.462  28.872  1.00  0.00    -0.248 NA
ATOM     62  C   UNL A   1      41.720  30.956  29.605  1.00  0.00     0.031 C 
ATOM     63  C   UNL A   1      47.656  30.481  28.428  1.00  0.00     0.029 A 
ATOM     64  C   UNL A   1      46.311  30.188  28.583  1.00  0.00     0.049 A 
ATOM     65  H   UNL A   1      45.305  28.357  28.278  1.00  0.00     0.167 HD
ATOM     66  C   UNL A   1      43.943  30.698  29.112  1.00  0.00     0.074 A 
ATOM     67  C   UNL A   1      42.881  31.589  29.530  1.00  0.00     0.031 C 
ATOM     68  C   UNL A   1      45.244  31.063  28.996  1.00  0.00     0.037 A 
BRANCH  55  69
ATOM     69  C   UNL A   1      48.988  26.481  27.217  1.00  0.00     0.057 A 
ATOM     70  C   UNL A   1      49.840  26.002  28.223  1.00  0.00     0.134 A 
ATOM     71  C   UNL A   1      49.481  26.492  25.907  1.00  0.00     0.134 A 
ATOM     72  F   UNL A   1      49.433  25.976  29.502  1.00  0.00    -0.206 F 
ATOM     73  C   UNL A   1      51.139  25.578  27.939  1.00  0.00     0.040 A 
ATOM     74  C   UNL A   1      50.769  26.045  25.607  1.00  0.00     0.040 A 
ATOM     75  F   UNL A   1      48.718  26.933  24.895  1.00  0.00    -0.206 F 
ATOM     76  C   UNL A   1      51.604  25.593  26.626  1.00  0.00     0.006 A 
ENDBRANCH  55  69
BRANCH  56  77
ATOM     77  C   UNL A   1      39.573  28.986  29.371  1.00  0.00     0.057 A 
ATOM     78  C   UNL A   1      38.712  29.515  28.402  1.00  0.00     0.134 A 
ATOM     79  C   UNL A   1      39.071  28.832  30.668  1.00  0.00     0.134 A 
ATOM     80  F   UNL A   1      39.144  29.702  27.146  1.00  0.00    -0.206 F 
ATOM     81  C   UNL A   1      37.408  29.896  28.715  1.00  0.00     0.040 A 
ATOM     82  C   UNL A   1      37.759  29.187  30.989  1.00  0.00     0.040 A 
ATOM     83  F   UNL A   1      39.844  28.323  31.639  1.00  0.00    -0.206 F 
ATOM     84  C   UNL A   1      36.926  29.727  30.012  1.00  0.00     0.006 A 
ENDBRANCH  56  77
BRANCH  68  85
ATOM     85  C   UNL A   1      45.582  32.492  29.300  1.00  0.00     0.057 A 
ATOM     86  C   UNL A   1      45.984  32.900  30.579  1.00  0.00     0.134 A 
ATOM     87  C   UNL A   1      45.528  33.467  28.296  1.00  0.00     0.134 A 
ATOM     88  F   UNL A   1      46.044  32.018  31.587  1.00  0.00    -0.206 F 
ATOM     89  C   UNL A   1      46.296  34.233  30.852  1.00  0.00     0.040 A 
ATOM     90  C   UNL A   1      45.863  34.797  28.552  1.00  0.00     0.040 A 
ATOM     91  F   UNL A   1      45.158  33.141  27.049  1.00  0.00    -0.206 F 
ATOM     92  C   UNL A   1      46.241  35.185  29.836  1.00  0.00     0.006 A 
ENDBRANCH  68  85
ENDBRANCH  42  43
ENDBRANCH  34  37
ENDBRANCH  32  33
ENDBRANCH  31  32
ENDBRANCH  30  31
ENDBRANCH   1  30
TORSDOF 17
ENDMDL
