MODEL 1
REMARK VINA RESULT:     -11.0      0.000      0.000
REMARK SMILES CN(C(=O)N1CCC(C(=O)NCCCCCCNC(=O)c2ccc(-c3c4nc(c(-c5c(F)cccc5F)c5ccc([nH]5)c(-c5c(F)cccc5F)c5nc(c(-c6c(F)cccc6F)c6ccc3[nH]6)C=C5)C=C4)cc2)CC1)[C@H]1CCSC1
REMARK SMILES IDX 14 1 13 2 12 3 11 4 9 5 10 6 8 8 3 9 4 10 5 11 6 12 76 13
REMARK SMILES IDX 7 14 75 15 2 16 1 17 77 18 78 19 81 20 79 21 80 22 15 23
REMARK SMILES IDX 16 24 17 25 18 26 19 27 20 29 21 30 22 31 74 32 23 33 73 34
REMARK SMILES IDX 24 35 25 36 26 37 67 38 27 39 72 40 66 41 68 42 28 43 71 44
REMARK SMILES IDX 65 45 64 46 29 48 55 49 38 50 54 51 39 52 42 53 53 54 69 55
REMARK SMILES IDX 40 56 41 57 52 59 70 60 43 61 30 62 31 63 36 64 32 65 33 66
REMARK SMILES IDX 35 67 37 68 34 69 56 70 57 71 62 72 58 73 59 74 61 75 63 76
REMARK SMILES IDX 60 77 44 78 45 79 50 80 46 81 47 82 49 83 51 84 48 85
REMARK H PARENT 11 7 18 28 68 47 42 58
REMARK Flexibility Score: inf
ROOT
ATOM      1  C   UNL A   1      35.495  20.014  24.717  1.00  0.00     0.002 C 
ENDROOT
BRANCH   1   2
ATOM      2  C   UNL A   1      34.270  19.097  24.641  1.00  0.00     0.021 C 
BRANCH   2   3
ATOM      3  C   UNL A   1      33.054  19.615  25.404  1.00  0.00     0.116 C 
BRANCH   3   4
ATOM      4  N   UNL A   1      33.447  20.306  26.618  1.00  0.00    -0.356 N 
ATOM      5  C   UNL A   1      33.383  21.616  26.964  1.00  0.00     0.223 C 
ATOM      6  O   UNL A   1      33.831  21.939  28.067  1.00  0.00    -0.275 OA
ATOM      7  H   UNL A   1      33.827  19.720  27.314  1.00  0.00     0.163 HD
BRANCH   5   8
ATOM      8  C   UNL A   1      32.771  22.667  26.051  1.00  0.00     0.082 C 
ATOM      9  C   UNL A   1      31.305  26.486  25.927  1.00  0.00     0.320 C 
ATOM     10  O   UNL A   1      30.493  26.533  26.855  1.00  0.00    -0.248 OA
ATOM     11  N   UNL A   1      31.714  25.268  25.425  1.00  0.00    -0.325 N 
ATOM     12  C   UNL A   1      30.806  24.134  25.547  1.00  0.00     0.122 C 
ATOM     13  C   UNL A   1      33.070  24.955  24.975  1.00  0.00     0.122 C 
ATOM     14  C   UNL A   1      31.360  23.072  26.481  1.00  0.00     0.035 C 
ATOM     15  C   UNL A   1      33.712  23.857  25.822  1.00  0.00     0.035 C 
BRANCH   9  16
ATOM     16  N   UNL A   1      31.792  27.649  25.337  1.00  0.00    -0.324 N 
ATOM     17  C   UNL A   1      31.396  28.080  24.000  1.00  0.00     0.149 C 
BRANCH  16  18
ATOM     18  C   UNL A   1      32.304  28.678  26.266  1.00  0.00     0.097 C 
ATOM     19  C   UNL A   1      33.836  28.783  26.249  1.00  0.00     0.037 C 
ATOM     20  C   UNL A   1      31.832  30.125  26.051  1.00  0.00     0.094 C 
ATOM     21  C   UNL A   1      34.184  29.827  27.298  1.00  0.00     0.072 C 
ATOM     22  S   UNL A   1      32.959  31.145  27.052  1.00  0.00    -0.160 SA
ENDBRANCH  16  18
ENDBRANCH   9  16
ENDBRANCH   5   8
ENDBRANCH   3   4
ENDBRANCH   2   3
ENDBRANCH   1   2
BRANCH   1  23
ATOM     23  C   UNL A   1      36.820  19.303  25.009  1.00  0.00     0.002 C 
BRANCH  23  24
ATOM     24  C   UNL A   1      38.077  20.103  24.655  1.00  0.00     0.021 C 
BRANCH  24  25
ATOM     25  C   UNL A   1      39.052  20.294  25.811  1.00  0.00     0.116 C 
BRANCH  25  26
ATOM     26  N   UNL A   1      40.031  19.221  25.882  1.00  0.00    -0.352 N 
ATOM     27  C   UNL A   1      41.388  19.291  26.073  1.00  0.00     0.251 C 
ATOM     28  H   UNL A   1      39.668  18.313  25.779  1.00  0.00     0.163 HD
ATOM     29  O   UNL A   1      42.089  18.301  25.904  1.00  0.00    -0.269 OA
BRANCH  27  30
ATOM     30  C   UNL A   1      42.007  20.576  26.464  1.00  0.00     0.039 A 
ATOM     31  C   UNL A   1      42.445  21.445  25.463  1.00  0.00     0.014 A 
ATOM     32  C   UNL A   1      42.155  20.920  27.811  1.00  0.00     0.014 A 
ATOM     33  C   UNL A   1      42.972  22.690  25.811  1.00  0.00     0.010 A 
ATOM     34  C   UNL A   1      42.609  22.190  28.154  1.00  0.00     0.010 A 
ATOM     35  C   UNL A   1      43.021  23.088  27.158  1.00  0.00    -0.014 A 
BRANCH  35  36
ATOM     36  C   UNL A   1      43.478  24.447  27.540  1.00  0.00     0.031 A 
ATOM     37  C   UNL A   1      42.488  25.490  27.972  1.00  0.00     0.074 A 
ATOM     38  C   UNL A   1      44.784  24.760  27.431  1.00  0.00     0.049 A 
ATOM     39  N   UNL A   1      42.691  26.746  28.283  1.00  0.00    -0.248 NA
ATOM     40  C   UNL A   1      41.078  25.076  28.042  1.00  0.00     0.031 C 
ATOM     41  C   UNL A   1      45.837  23.849  26.979  1.00  0.00     0.029 A 
ATOM     42  N   UNL A   1      45.447  25.936  27.680  1.00  0.00    -0.354 N 
ATOM     43  C   UNL A   1      41.439  27.272  28.573  1.00  0.00     0.074 A 
ATOM     44  C   UNL A   1      40.476  26.215  28.347  1.00  0.00     0.031 C 
ATOM     45  C   UNL A   1      47.016  24.490  27.009  1.00  0.00     0.029 A 
ATOM     46  C   UNL A   1      46.797  25.867  27.437  1.00  0.00     0.049 A 
ATOM     47  H   UNL A   1      44.998  26.750  28.003  1.00  0.00     0.167 HD
ATOM     48  C   UNL A   1      41.123  28.515  29.007  1.00  0.00     0.037 A 
ATOM     49  C   UNL A   1      47.751  26.813  27.535  1.00  0.00     0.037 A 
ATOM     50  C   UNL A   1      42.087  29.560  29.238  1.00  0.00     0.049 A 
ATOM     51  C   UNL A   1      47.371  28.194  27.991  1.00  0.00     0.074 A 
ATOM     52  C   UNL A   1      41.874  30.835  29.733  1.00  0.00     0.029 A 
ATOM     53  N   UNL A   1      43.446  29.455  28.976  1.00  0.00    -0.354 N 
ATOM     54  N   UNL A   1      46.194  28.657  28.333  1.00  0.00    -0.248 NA
ATOM     55  C   UNL A   1      48.454  29.183  28.076  1.00  0.00     0.031 C 
ATOM     56  C   UNL A   1      43.095  31.519  29.717  1.00  0.00     0.029 A 
ATOM     57  C   UNL A   1      44.078  30.653  29.269  1.00  0.00     0.049 A 
ATOM     58  H   UNL A   1      43.894  28.648  28.634  1.00  0.00     0.167 HD
ATOM     59  C   UNL A   1      46.396  29.982  28.698  1.00  0.00     0.074 A 
ATOM     60  C   UNL A   1      47.814  30.241  28.551  1.00  0.00     0.031 C 
ATOM     61  C   UNL A   1      45.491  30.900  29.115  1.00  0.00     0.037 A 
BRANCH  48  62
ATOM     62  C   UNL A   1      39.670  28.813  29.254  1.00  0.00     0.057 A 
ATOM     63  C   UNL A   1      39.084  28.649  30.516  1.00  0.00     0.134 A 
ATOM     64  C   UNL A   1      38.854  29.293  28.222  1.00  0.00     0.134 A 
ATOM     65  F   UNL A   1      39.805  28.184  31.547  1.00  0.00    -0.206 F 
ATOM     66  C   UNL A   1      37.731  28.918  30.735  1.00  0.00     0.040 A 
ATOM     67  C   UNL A   1      37.507  29.594  28.435  1.00  0.00     0.040 A 
ATOM     68  F   UNL A   1      39.350  29.481  26.990  1.00  0.00    -0.206 F 
ATOM     69  C   UNL A   1      36.940  29.398  29.693  1.00  0.00     0.006 A 
ENDBRANCH  48  62
BRANCH  49  70
ATOM     70  C   UNL A   1      49.161  26.478  27.211  1.00  0.00     0.057 A 
ATOM     71  C   UNL A   1      49.654  26.618  25.908  1.00  0.00     0.134 A 
ATOM     72  C   UNL A   1      50.048  26.014  28.188  1.00  0.00     0.134 A 
ATOM     73  F   UNL A   1      48.847  27.041  24.923  1.00  0.00    -0.206 F 
ATOM     74  C   UNL A   1      50.972  26.294  25.586  1.00  0.00     0.040 A 
ATOM     75  C   UNL A   1      51.378  25.711  27.886  1.00  0.00     0.040 A 
ATOM     76  F   UNL A   1      49.641  25.867  29.458  1.00  0.00    -0.206 F 
ATOM     77  C   UNL A   1      51.840  25.844  26.579  1.00  0.00     0.006 A 
ENDBRANCH  49  70
BRANCH  61  78
ATOM     78  C   UNL A   1      46.009  32.264  29.471  1.00  0.00     0.057 A 
ATOM     79  C   UNL A   1      46.407  32.589  30.774  1.00  0.00     0.134 A 
ATOM     80  C   UNL A   1      46.143  33.255  28.489  1.00  0.00     0.134 A 
ATOM     81  F   UNL A   1      46.292  31.691  31.764  1.00  0.00    -0.206 F 
ATOM     82  C   UNL A   1      46.894  33.857  31.094  1.00  0.00     0.040 A 
ATOM     83  C   UNL A   1      46.657  34.517  28.791  1.00  0.00     0.040 A 
ATOM     84  F   UNL A   1      45.789  33.009  27.219  1.00  0.00    -0.206 F 
ATOM     85  C   UNL A   1      47.027  34.823  30.098  1.00  0.00     0.006 A 
ENDBRANCH  61  78
ENDBRANCH  35  36
ENDBRANCH  27  30
ENDBRANCH  25  26
ENDBRANCH  24  25
ENDBRANCH  23  24
ENDBRANCH   1  23
TORSDOF 15
ENDMDL
MODEL 2
REMARK VINA RESULT:     -11.0      4.872      9.694
REMARK SMILES CN(C(=O)N1CCC(C(=O)NCCCCCCNC(=O)c2ccc(-c3c4nc(c(-c5c(F)cccc5F)c5ccc([nH]5)c(-c5c(F)cccc5F)c5nc(c(-c6c(F)cccc6F)c6ccc3[nH]6)C=C5)C=C4)cc2)CC1)[C@H]1CCSC1
REMARK SMILES IDX 14 1 13 2 12 3 11 4 9 5 10 6 8 8 3 9 4 10 5 11 6 12 76 13
REMARK SMILES IDX 7 14 75 15 2 16 1 17 77 18 78 19 81 20 79 21 80 22 15 23
REMARK SMILES IDX 16 24 17 25 18 26 19 27 20 29 21 30 22 31 74 32 23 33 73 34
REMARK SMILES IDX 24 35 25 36 26 37 67 38 27 39 72 40 66 41 68 42 28 43 71 44
REMARK SMILES IDX 65 45 64 46 29 48 55 49 38 50 54 51 39 52 42 53 53 54 69 55
REMARK SMILES IDX 40 56 41 57 52 59 70 60 43 61 30 62 31 63 36 64 32 65 33 66
REMARK SMILES IDX 35 67 37 68 34 69 56 70 57 71 62 72 58 73 59 74 61 75 63 76
REMARK SMILES IDX 60 77 44 78 45 79 50 80 46 81 47 82 49 83 51 84 48 85
REMARK H PARENT 11 7 18 28 68 47 42 58
REMARK Flexibility Score: inf
ROOT
ATOM      1  C   UNL A   1      32.670  30.014  26.095  1.00  0.00     0.002 C 
ENDROOT
BRANCH   1   2
ATOM      2  C   UNL A   1      32.521  29.569  24.636  1.00  0.00     0.021 C 
BRANCH   2   3
ATOM      3  C   UNL A   1      31.080  29.295  24.212  1.00  0.00     0.116 C 
BRANCH   3   4
ATOM      4  N   UNL A   1      31.029  28.510  22.993  1.00  0.00    -0.356 N 
ATOM      5  C   UNL A   1      31.114  27.172  22.784  1.00  0.00     0.223 C 
ATOM      6  O   UNL A   1      31.077  26.772  21.617  1.00  0.00    -0.275 OA
ATOM      7  H   UNL A   1      30.911  29.042  22.172  1.00  0.00     0.163 HD
BRANCH   5   8
ATOM      8  C   UNL A   1      31.234  26.179  23.929  1.00  0.00     0.082 C 
ATOM      9  C   UNL A   1      32.860  22.588  25.029  1.00  0.00     0.320 C 
ATOM     10  O   UNL A   1      32.528  21.813  24.128  1.00  0.00    -0.248 OA
ATOM     11  N   UNL A   1      32.188  23.780  25.199  1.00  0.00    -0.325 N 
ATOM     12  C   UNL A   1      30.800  23.857  24.758  1.00  0.00     0.122 C 
ATOM     13  C   UNL A   1      32.807  25.049  25.581  1.00  0.00     0.122 C 
ATOM     14  C   UNL A   1      30.636  24.812  23.588  1.00  0.00     0.035 C 
ATOM     15  C   UNL A   1      32.661  26.107  24.488  1.00  0.00     0.035 C 
BRANCH   9  16
ATOM     16  N   UNL A   1      33.881  22.264  25.919  1.00  0.00    -0.324 N 
ATOM     17  C   UNL A   1      33.655  21.463  27.118  1.00  0.00     0.149 C 
BRANCH  16  18
ATOM     18  C   UNL A   1      35.252  22.310  25.372  1.00  0.00     0.097 C 
ATOM     19  C   UNL A   1      36.158  23.297  26.122  1.00  0.00     0.037 C 
ATOM     20  C   UNL A   1      36.057  21.001  25.365  1.00  0.00     0.094 C 
ATOM     21  C   UNL A   1      37.490  23.263  25.391  1.00  0.00     0.072 C 
ATOM     22  S   UNL A   1      37.777  21.503  25.049  1.00  0.00    -0.160 SA
ENDBRANCH  16  18
ENDBRANCH   9  16
ENDBRANCH   5   8
ENDBRANCH   3   4
ENDBRANCH   2   3
ENDBRANCH   1   2
BRANCH   1  23
ATOM     23  C   UNL A   1      31.411  30.626  26.717  1.00  0.00     0.002 C 
BRANCH  23  24
ATOM     24  C   UNL A   1      31.367  32.157  26.719  1.00  0.00     0.021 C 
BRANCH  24  25
ATOM     25  C   UNL A   1      32.653  32.827  27.189  1.00  0.00     0.116 C 
BRANCH  25  26
ATOM     26  N   UNL A   1      32.427  34.194  27.626  1.00  0.00    -0.352 N 
ATOM     27  C   UNL A   1      33.025  34.893  28.645  1.00  0.00     0.251 C 
ATOM     28  H   UNL A   1      31.747  34.692  27.119  1.00  0.00     0.163 HD
ATOM     29  O   UNL A   1      32.570  35.972  29.006  1.00  0.00    -0.269 OA
BRANCH  27  30
ATOM     30  C   UNL A   1      34.211  34.328  29.323  1.00  0.00     0.039 A 
ATOM     31  C   UNL A   1      34.029  33.585  30.492  1.00  0.00     0.014 A 
ATOM     32  C   UNL A   1      35.494  34.531  28.809  1.00  0.00     0.014 A 
ATOM     33  C   UNL A   1      35.130  32.989  31.109  1.00  0.00     0.010 A 
ATOM     34  C   UNL A   1      36.580  33.875  29.382  1.00  0.00     0.010 A 
ATOM     35  C   UNL A   1      36.409  33.096  30.536  1.00  0.00    -0.014 A 
BRANCH  35  36
ATOM     36  C   UNL A   1      37.572  32.382  31.119  1.00  0.00     0.031 A 
ATOM     37  C   UNL A   1      38.218  32.882  32.380  1.00  0.00     0.074 A 
ATOM     38  C   UNL A   1      38.088  31.319  30.471  1.00  0.00     0.049 A 
ATOM     39  N   UNL A   1      39.277  32.429  33.002  1.00  0.00    -0.248 NA
ATOM     40  C   UNL A   1      37.610  34.063  33.012  1.00  0.00     0.031 C 
ATOM     41  C   UNL A   1      37.579  30.766  29.215  1.00  0.00     0.029 A 
ATOM     42  N   UNL A   1      39.164  30.522  30.774  1.00  0.00    -0.354 N 
ATOM     43  C   UNL A   1      39.466  33.272  34.090  1.00  0.00     0.074 A 
ATOM     44  C   UNL A   1      38.447  34.297  34.010  1.00  0.00     0.031 C 
ATOM     45  C   UNL A   1      38.324  29.704  28.869  1.00  0.00     0.029 A 
ATOM     46  C   UNL A   1      39.389  29.530  29.851  1.00  0.00     0.049 A 
ATOM     47  H   UNL A   1      39.720  30.649  31.575  1.00  0.00     0.167 HD
ATOM     48  C   UNL A   1      40.392  33.188  35.075  1.00  0.00     0.037 A 
ATOM     49  C   UNL A   1      40.353  28.592  29.795  1.00  0.00     0.037 A 
ATOM     50  C   UNL A   1      41.398  32.161  35.153  1.00  0.00     0.049 A 
ATOM     51  C   UNL A   1      41.387  28.537  30.885  1.00  0.00     0.074 A 
ATOM     52  C   UNL A   1      42.344  31.954  36.142  1.00  0.00     0.029 A 
ATOM     53  N   UNL A   1      41.598  31.174  34.197  1.00  0.00    -0.354 N 
ATOM     54  N   UNL A   1      41.511  29.295  31.947  1.00  0.00    -0.248 NA
ATOM     55  C   UNL A   1      42.415  27.494  30.768  1.00  0.00     0.031 C 
ATOM     56  C   UNL A   1      43.152  30.879  35.756  1.00  0.00     0.029 A 
ATOM     57  C   UNL A   1      42.673  30.378  34.557  1.00  0.00     0.049 A 
ATOM     58  H   UNL A   1      41.056  31.058  33.384  1.00  0.00     0.167 HD
ATOM     59  C   UNL A   1      42.612  28.807  32.638  1.00  0.00     0.074 A 
ATOM     60  C   UNL A   1      43.109  27.676  31.882  1.00  0.00     0.031 C 
ATOM     61  C   UNL A   1      43.162  29.255  33.793  1.00  0.00     0.037 A 
BRANCH  48  62
ATOM     62  C   UNL A   1      40.360  34.243  36.145  1.00  0.00     0.057 A 
ATOM     63  C   UNL A   1      41.119  35.417  36.051  1.00  0.00     0.134 A 
ATOM     64  C   UNL A   1      39.542  34.093  37.272  1.00  0.00     0.134 A 
ATOM     65  F   UNL A   1      41.931  35.621  35.003  1.00  0.00    -0.206 F 
ATOM     66  C   UNL A   1      41.092  36.388  37.054  1.00  0.00     0.040 A 
ATOM     67  C   UNL A   1      39.483  35.071  38.268  1.00  0.00     0.040 A 
ATOM     68  F   UNL A   1      38.783  32.998  37.424  1.00  0.00    -0.206 F 
ATOM     69  C   UNL A   1      40.267  36.218  38.164  1.00  0.00     0.006 A 
ENDBRANCH  48  62
BRANCH  49  70
ATOM     70  C   UNL A   1      40.374  27.618  28.675  1.00  0.00     0.057 A 
ATOM     71  C   UNL A   1      39.639  26.428  28.740  1.00  0.00     0.134 A 
ATOM     72  C   UNL A   1      41.124  27.850  27.516  1.00  0.00     0.134 A 
ATOM     73  F   UNL A   1      38.916  26.141  29.833  1.00  0.00    -0.206 F 
ATOM     74  C   UNL A   1      39.661  25.497  27.700  1.00  0.00     0.040 A 
ATOM     75  C   UNL A   1      41.133  26.939  26.456  1.00  0.00     0.040 A 
ATOM     76  F   UNL A   1      41.842  28.975  27.386  1.00  0.00    -0.206 F 
ATOM     77  C   UNL A   1      40.406  25.756  26.552  1.00  0.00     0.006 A 
ENDBRANCH  49  70
BRANCH  61  78
ATOM     78  C   UNL A   1      44.348  28.504  34.327  1.00  0.00     0.057 A 
ATOM     79  C   UNL A   1      44.204  27.372  35.138  1.00  0.00     0.134 A 
ATOM     80  C   UNL A   1      45.651  28.901  33.996  1.00  0.00     0.134 A 
ATOM     81  F   UNL A   1      42.985  26.947  35.504  1.00  0.00    -0.206 F 
ATOM     82  C   UNL A   1      45.312  26.676  35.624  1.00  0.00     0.040 A 
ATOM     83  C   UNL A   1      46.766  28.195  34.451  1.00  0.00     0.040 A 
ATOM     84  F   UNL A   1      45.861  29.971  33.216  1.00  0.00    -0.206 F 
ATOM     85  C   UNL A   1      46.598  27.084  35.274  1.00  0.00     0.006 A 
ENDBRANCH  61  78
ENDBRANCH  35  36
ENDBRANCH  27  30
ENDBRANCH  25  26
ENDBRANCH  24  25
ENDBRANCH  23  24
ENDBRANCH   1  23
TORSDOF 15
ENDMDL
MODEL 3
REMARK VINA RESULT:     -10.9      4.397      9.671
REMARK SMILES CN(C(=O)N1CCC(C(=O)NCCCCCCNC(=O)c2ccc(-c3c4nc(c(-c5c(F)cccc5F)c5ccc([nH]5)c(-c5c(F)cccc5F)c5nc(c(-c6c(F)cccc6F)c6ccc3[nH]6)C=C5)C=C4)cc2)CC1)[C@H]1CCSC1
REMARK SMILES IDX 14 1 13 2 12 3 11 4 9 5 10 6 8 8 3 9 4 10 5 11 6 12 76 13
REMARK SMILES IDX 7 14 75 15 2 16 1 17 77 18 78 19 81 20 79 21 80 22 15 23
REMARK SMILES IDX 16 24 17 25 18 26 19 27 20 29 21 30 22 31 74 32 23 33 73 34
REMARK SMILES IDX 24 35 25 36 26 37 67 38 27 39 72 40 66 41 68 42 28 43 71 44
REMARK SMILES IDX 65 45 64 46 29 48 55 49 38 50 54 51 39 52 42 53 53 54 69 55
REMARK SMILES IDX 40 56 41 57 52 59 70 60 43 61 30 62 31 63 36 64 32 65 33 66
REMARK SMILES IDX 35 67 37 68 34 69 56 70 57 71 62 72 58 73 59 74 61 75 63 76
REMARK SMILES IDX 60 77 44 78 45 79 50 80 46 81 47 82 49 83 51 84 48 85
REMARK H PARENT 11 7 18 28 68 47 42 58
REMARK Flexibility Score: inf
ROOT
ATOM      1  C   UNL A   1      31.780  28.928  25.620  1.00  0.00     0.002 C 
ENDROOT
BRANCH   1   2
ATOM      2  C   UNL A   1      31.265  29.584  24.335  1.00  0.00     0.021 C 
BRANCH   2   3
ATOM      3  C   UNL A   1      30.129  28.822  23.658  1.00  0.00     0.116 C 
BRANCH   3   4
ATOM      4  N   UNL A   1      30.605  28.075  22.509  1.00  0.00    -0.356 N 
ATOM      5  C   UNL A   1      31.121  26.824  22.405  1.00  0.00     0.223 C 
ATOM      6  O   UNL A   1      31.487  26.447  21.289  1.00  0.00    -0.275 OA
ATOM      7  H   UNL A   1      30.542  28.560  21.654  1.00  0.00     0.163 HD
BRANCH   5   8
ATOM      8  C   UNL A   1      31.241  25.895  23.603  1.00  0.00     0.082 C 
ATOM      9  C   UNL A   1      32.872  22.372  24.899  1.00  0.00     0.320 C 
ATOM     10  O   UNL A   1      32.543  21.548  24.040  1.00  0.00    -0.248 OA
ATOM     11  N   UNL A   1      32.197  23.570  25.003  1.00  0.00    -0.325 N 
ATOM     12  C   UNL A   1      30.810  23.620  24.555  1.00  0.00     0.122 C 
ATOM     13  C   UNL A   1      32.813  24.859  25.317  1.00  0.00     0.122 C 
ATOM     14  C   UNL A   1      30.647  24.510  23.335  1.00  0.00     0.035 C 
ATOM     15  C   UNL A   1      32.667  25.856  24.167  1.00  0.00     0.035 C 
BRANCH   9  16
ATOM     16  N   UNL A   1      33.891  22.098  25.807  1.00  0.00    -0.324 N 
ATOM     17  C   UNL A   1      33.637  21.549  27.135  1.00  0.00     0.149 C 
BRANCH  16  18
ATOM     18  C   UNL A   1      35.235  21.897  25.226  1.00  0.00     0.097 C 
ATOM     19  C   UNL A   1      36.342  22.585  26.038  1.00  0.00     0.037 C 
ATOM     20  C   UNL A   1      35.732  20.451  25.074  1.00  0.00     0.094 C 
ATOM     21  C   UNL A   1      37.628  22.332  25.268  1.00  0.00     0.072 C 
ATOM     22  S   UNL A   1      37.518  20.594  24.756  1.00  0.00    -0.160 SA
ENDBRANCH  16  18
ENDBRANCH   9  16
ENDBRANCH   5   8
ENDBRANCH   3   4
ENDBRANCH   2   3
ENDBRANCH   1   2
BRANCH   1  23
ATOM     23  C   UNL A   1      31.739  29.821  26.865  1.00  0.00     0.002 C 
BRANCH  23  24
ATOM     24  C   UNL A   1      31.623  31.322  26.582  1.00  0.00     0.021 C 
BRANCH  24  25
ATOM     25  C   UNL A   1      32.854  32.135  26.967  1.00  0.00     0.116 C 
BRANCH  25  26
ATOM     26  N   UNL A   1      32.502  33.460  27.451  1.00  0.00    -0.352 N 
ATOM     27  C   UNL A   1      33.097  34.217  28.429  1.00  0.00     0.251 C 
ATOM     28  H   UNL A   1      31.725  33.875  27.013  1.00  0.00     0.163 HD
ATOM     29  O   UNL A   1      32.548  35.227  28.851  1.00  0.00    -0.269 OA
BRANCH  27  30
ATOM     30  C   UNL A   1      34.398  33.795  28.992  1.00  0.00     0.039 A 
ATOM     31  C   UNL A   1      34.409  32.994  30.137  1.00  0.00     0.014 A 
ATOM     32  C   UNL A   1      35.598  34.186  28.393  1.00  0.00     0.014 A 
ATOM     33  C   UNL A   1      35.625  32.532  30.643  1.00  0.00     0.010 A 
ATOM     34  C   UNL A   1      36.803  33.664  28.854  1.00  0.00     0.010 A 
ATOM     35  C   UNL A   1      36.829  32.831  29.982  1.00  0.00    -0.014 A 
BRANCH  35  36
ATOM     36  C   UNL A   1      38.119  32.261  30.445  1.00  0.00     0.031 A 
ATOM     37  C   UNL A   1      38.634  30.974  29.866  1.00  0.00     0.074 A 
ATOM     38  C   UNL A   1      38.793  32.873  31.438  1.00  0.00     0.049 A 
ATOM     39  N   UNL A   1      39.705  30.293  30.188  1.00  0.00    -0.248 NA
ATOM     40  C   UNL A   1      37.826  30.356  28.804  1.00  0.00     0.031 C 
ATOM     41  C   UNL A   1      38.374  34.103  32.112  1.00  0.00     0.029 A 
ATOM     42  N   UNL A   1      39.969  32.537  32.061  1.00  0.00    -0.354 N 
ATOM     43  C   UNL A   1      39.694  29.165  29.377  1.00  0.00     0.074 A 
ATOM     44  C   UNL A   1      38.481  29.225  28.589  1.00  0.00     0.031 C 
ATOM     45  C   UNL A   1      39.291  34.433  33.035  1.00  0.00     0.029 A 
ATOM     46  C   UNL A   1      40.337  33.416  33.051  1.00  0.00     0.049 A 
ATOM     47  H   UNL A   1      40.498  31.742  31.822  1.00  0.00     0.167 HD
ATOM     48  C   UNL A   1      40.620  28.182  29.283  1.00  0.00     0.037 A 
ATOM     49  C   UNL A   1      41.393  33.397  33.887  1.00  0.00     0.037 A 
ATOM     50  C   UNL A   1      41.829  28.132  30.063  1.00  0.00     0.049 A 
ATOM     51  C   UNL A   1      42.391  32.278  33.783  1.00  0.00     0.074 A 
ATOM     52  C   UNL A   1      42.858  27.209  30.000  1.00  0.00     0.029 A 
ATOM     53  N   UNL A   1      42.166  29.038  31.059  1.00  0.00    -0.354 N 
ATOM     54  N   UNL A   1      42.407  31.257  32.961  1.00  0.00    -0.248 NA
ATOM     55  C   UNL A   1      43.519  32.311  34.723  1.00  0.00     0.031 C 
ATOM     56  C   UNL A   1      43.789  27.524  30.997  1.00  0.00     0.029 A 
ATOM     57  C   UNL A   1      43.370  28.677  31.640  1.00  0.00     0.049 A 
ATOM     58  H   UNL A   1      41.628  29.822  31.314  1.00  0.00     0.167 HD
ATOM     59  C   UNL A   1      43.556  30.541  33.266  1.00  0.00     0.074 A 
ATOM     60  C   UNL A   1      44.221  31.255  34.337  1.00  0.00     0.031 C 
ATOM     61  C   UNL A   1      44.020  29.394  32.710  1.00  0.00     0.037 A 
BRANCH  48  62
ATOM     62  C   UNL A   1      40.354  27.073  28.303  1.00  0.00     0.057 A 
ATOM     63  C   UNL A   1      40.918  27.066  27.020  1.00  0.00     0.134 A 
ATOM     64  C   UNL A   1      39.542  25.987  28.655  1.00  0.00     0.134 A 
ATOM     65  F   UNL A   1      41.697  28.080  26.613  1.00  0.00    -0.206 F 
ATOM     66  C   UNL A   1      40.657  26.038  26.111  1.00  0.00     0.040 A 
ATOM     67  C   UNL A   1      39.299  24.938  27.767  1.00  0.00     0.040 A 
ATOM     68  F   UNL A   1      38.976  25.924  29.869  1.00  0.00    -0.206 F 
ATOM     69  C   UNL A   1      39.850  24.967  26.487  1.00  0.00     0.006 A 
ENDBRANCH  48  62
BRANCH  49  70
ATOM     70  C   UNL A   1      41.567  34.484  34.883  1.00  0.00     0.057 A 
ATOM     71  C   UNL A   1      42.213  35.678  34.542  1.00  0.00     0.134 A 
ATOM     72  C   UNL A   1      41.092  34.361  36.193  1.00  0.00     0.134 A 
ATOM     73  F   UNL A   1      42.707  35.849  33.306  1.00  0.00    -0.206 F 
ATOM     74  C   UNL A   1      42.397  36.703  35.472  1.00  0.00     0.040 A 
ATOM     75  C   UNL A   1      41.244  35.388  37.127  1.00  0.00     0.040 A 
ATOM     76  F   UNL A   1      40.454  33.246  36.582  1.00  0.00    -0.206 F 
ATOM     77  C   UNL A   1      41.905  36.560  36.768  1.00  0.00     0.006 A 
ENDBRANCH  49  70
BRANCH  61  78
ATOM     78  C   UNL A   1      45.322  28.856  33.231  1.00  0.00     0.057 A 
ATOM     79  C   UNL A   1      46.554  29.256  32.699  1.00  0.00     0.134 A 
ATOM     80  C   UNL A   1      45.342  27.948  34.298  1.00  0.00     0.134 A 
ATOM     81  F   UNL A   1      46.606  30.111  31.667  1.00  0.00    -0.206 F 
ATOM     82  C   UNL A   1      47.760  28.755  33.194  1.00  0.00     0.040 A 
ATOM     83  C   UNL A   1      46.543  27.464  34.822  1.00  0.00     0.040 A 
ATOM     84  F   UNL A   1      44.199  27.529  34.859  1.00  0.00    -0.206 F 
ATOM     85  C   UNL A   1      47.755  27.861  34.263  1.00  0.00     0.006 A 
ENDBRANCH  61  78
ENDBRANCH  35  36
ENDBRANCH  27  30
ENDBRANCH  25  26
ENDBRANCH  24  25
ENDBRANCH  23  24
ENDBRANCH   1  23
TORSDOF 15
ENDMDL
