MODEL 1
REMARK VINA RESULT:     -11.5      0.000      0.000
REMARK SMILES Cc1ccc(-n2cnnn2)cc1OCC(=O)NCCCCCCNC(=O)c1ccc(-c2c3nc(c(-c4c(F)cccc4F)c4ccc([nH]4)c(-c4c(F)cccc4F)c4nc(c(-c5c(F)cccc5F)c5ccc2[nH]5)C=C4)C=C3)cc1
REMARK SMILES IDX 20 1 19 2 18 3 17 4 15 5 16 6 14 8 13 9 12 10 1 11 2 12 3 13
REMARK SMILES IDX 4 14 11 15 5 16 6 17 7 18 10 19 8 20 9 21 21 22 22 23 23 24
REMARK SMILES IDX 24 25 25 26 26 28 27 29 28 30 80 31 29 32 79 33 30 34 31 35
REMARK SMILES IDX 32 36 73 37 33 38 78 39 72 40 74 41 34 42 77 43 71 44 70 45
REMARK SMILES IDX 35 47 61 48 44 49 60 50 45 51 48 52 59 53 75 54 46 55 47 56
REMARK SMILES IDX 58 58 76 59 49 60 36 61 37 62 42 63 38 64 39 65 41 66 43 67
REMARK SMILES IDX 40 68 62 69 63 70 68 71 64 72 65 73 67 74 69 75 66 76 50 77
REMARK SMILES IDX 51 78 56 79 52 80 53 81 55 82 57 83 54 84
REMARK H PARENT 17 7 24 27 74 46 48 57
REMARK Flexibility Score: inf
ROOT
ATOM      1  C   UNL A   1      35.024  33.294  27.915  1.00  0.00     0.002 C 
ENDROOT
BRANCH   1   2
ATOM      2  C   UNL A   1      34.729  31.822  28.239  1.00  0.00     0.021 C 
BRANCH   2   3
ATOM      3  C   UNL A   1      33.497  31.198  27.588  1.00  0.00     0.116 C 
BRANCH   3   4
ATOM      4  N   UNL A   1      33.482  29.755  27.658  1.00  0.00    -0.353 N 
ATOM      5  C   UNL A   1      33.031  28.873  26.722  1.00  0.00     0.257 C 
ATOM      6  O   UNL A   1      33.374  27.692  26.826  1.00  0.00    -0.271 OA
ATOM      7  H   UNL A   1      33.841  29.361  28.485  1.00  0.00     0.163 HD
BRANCH   5   8
ATOM      8  C   UNL A   1      32.182  29.358  25.539  1.00  0.00     0.329 C 
BRANCH   8   9
ATOM      9  O   UNL A   1      31.765  28.475  24.521  1.00  0.00    -0.483 OA
BRANCH   9  10
ATOM     10  C   UNL A   1      30.522  28.499  23.962  1.00  0.00     0.125 A 
ATOM     11  C   UNL A   1      29.871  25.990  23.860  1.00  0.00     0.048 C 
ATOM     12  C   UNL A   1      29.619  27.460  23.700  1.00  0.00    -0.009 A 
ATOM     13  C   UNL A   1      28.331  27.794  23.225  1.00  0.00     0.009 A 
ATOM     14  C   UNL A   1      27.973  29.104  22.911  1.00  0.00     0.029 A 
ATOM     15  C   UNL A   1      30.173  29.814  23.585  1.00  0.00     0.075 A 
ATOM     16  C   UNL A   1      28.918  30.117  23.043  1.00  0.00     0.072 A 
BRANCH  16  17
ATOM     17  N   UNL A   1      28.601  31.426  22.611  1.00  0.00    -0.200 N 
ATOM     18  C   UNL A   1      28.090  31.846  21.408  1.00  0.00     0.252 A 
ATOM     19  N   UNL A   1      28.729  32.512  23.407  1.00  0.00    -0.040 NA
ATOM     20  N   UNL A   1      27.940  33.150  21.430  1.00  0.00    -0.117 NA
ATOM     21  N   UNL A   1      28.349  33.549  22.675  1.00  0.00    -0.024 NA
ENDBRANCH  16  17
ENDBRANCH   9  10
ENDBRANCH   8   9
ENDBRANCH   5   8
ENDBRANCH   3   4
ENDBRANCH   2   3
ENDBRANCH   1   2
BRANCH   1  22
ATOM     22  C   UNL A   1      33.890  34.317  28.083  1.00  0.00     0.002 C 
BRANCH  22  23
ATOM     23  C   UNL A   1      34.006  35.317  29.235  1.00  0.00     0.021 C 
BRANCH  23  24
ATOM     24  C   UNL A   1      33.586  34.784  30.599  1.00  0.00     0.116 C 
BRANCH  24  25
ATOM     25  N   UNL A   1      34.389  35.268  31.713  1.00  0.00    -0.352 N 
ATOM     26  C   UNL A   1      35.602  34.795  32.197  1.00  0.00     0.251 C 
ATOM     27  H   UNL A   1      34.019  36.043  32.194  1.00  0.00     0.163 HD
ATOM     28  O   UNL A   1      36.124  35.321  33.157  1.00  0.00    -0.269 OA
BRANCH  26  29
ATOM     29  C   UNL A   1      36.324  33.733  31.440  1.00  0.00     0.039 A 
ATOM     30  C   UNL A   1      36.313  32.439  31.975  1.00  0.00     0.014 A 
ATOM     31  C   UNL A   1      37.160  34.037  30.371  1.00  0.00     0.014 A 
ATOM     32  C   UNL A   1      37.328  31.551  31.629  1.00  0.00     0.010 A 
ATOM     33  C   UNL A   1      38.222  33.199  30.095  1.00  0.00     0.010 A 
ATOM     34  C   UNL A   1      38.346  31.990  30.783  1.00  0.00    -0.014 A 
BRANCH  34  35
ATOM     35  C   UNL A   1      39.642  31.328  30.699  1.00  0.00     0.031 A 
ATOM     36  C   UNL A   1      39.825  30.111  29.888  1.00  0.00     0.074 A 
ATOM     37  C   UNL A   1      40.701  31.883  31.328  1.00  0.00     0.049 A 
ATOM     38  N   UNL A   1      40.700  29.199  30.151  1.00  0.00    -0.248 NA
ATOM     39  C   UNL A   1      39.011  29.814  28.714  1.00  0.00     0.031 C 
ATOM     40  C   UNL A   1      42.108  31.517  31.192  1.00  0.00     0.029 A 
ATOM     41  N   UNL A   1      40.679  32.790  32.397  1.00  0.00    -0.354 N 
ATOM     42  C   UNL A   1      40.754  28.357  29.066  1.00  0.00     0.074 A 
ATOM     43  C   UNL A   1      39.644  28.743  28.226  1.00  0.00     0.031 C 
ATOM     44  C   UNL A   1      42.772  31.942  32.278  1.00  0.00     0.029 A 
ATOM     45  C   UNL A   1      41.791  32.477  33.206  1.00  0.00     0.049 A 
ATOM     46  H   UNL A   1      40.018  33.503  32.551  1.00  0.00     0.167 HD
ATOM     47  C   UNL A   1      41.810  27.509  28.913  1.00  0.00     0.037 A 
ATOM     48  C   UNL A   1      41.627  32.067  34.498  1.00  0.00     0.037 A 
ATOM     49  C   UNL A   1      42.765  27.627  30.008  1.00  0.00     0.049 A 
ATOM     50  C   UNL A   1      42.136  30.669  34.766  1.00  0.00     0.074 A 
ATOM     51  C   UNL A   1      43.933  28.359  30.149  1.00  0.00     0.029 A 
ATOM     52  N   UNL A   1      42.402  27.216  31.285  1.00  0.00    -0.354 N 
ATOM     53  N   UNL A   1      42.441  29.813  33.831  1.00  0.00    -0.248 NA
ATOM     54  C   UNL A   1      42.299  30.108  36.106  1.00  0.00     0.031 C 
ATOM     55  C   UNL A   1      44.231  28.450  31.530  1.00  0.00     0.029 A 
ATOM     56  C   UNL A   1      43.260  27.755  32.226  1.00  0.00     0.049 A 
ATOM     57  H   UNL A   1      41.642  26.625  31.490  1.00  0.00     0.167 HD
ATOM     58  C   UNL A   1      42.774  28.613  34.399  1.00  0.00     0.074 A 
ATOM     59  C   UNL A   1      42.702  28.856  35.827  1.00  0.00     0.031 C 
ATOM     60  C   UNL A   1      43.058  27.510  33.645  1.00  0.00     0.037 A 
BRANCH  47  61
ATOM     61  C   UNL A   1      42.087  26.823  27.602  1.00  0.00     0.057 A 
ATOM     62  C   UNL A   1      41.962  25.430  27.460  1.00  0.00     0.134 A 
ATOM     63  C   UNL A   1      42.539  27.497  26.456  1.00  0.00     0.134 A 
ATOM     64  F   UNL A   1      41.468  24.662  28.439  1.00  0.00    -0.206 F 
ATOM     65  C   UNL A   1      42.360  24.748  26.304  1.00  0.00     0.040 A 
ATOM     66  C   UNL A   1      42.986  26.826  25.310  1.00  0.00     0.040 A 
ATOM     67  F   UNL A   1      42.557  28.839  26.406  1.00  0.00    -0.206 F 
ATOM     68  C   UNL A   1      42.911  25.441  25.236  1.00  0.00     0.006 A 
ENDBRANCH  47  61
BRANCH  48  69
ATOM     69  C   UNL A   1      40.461  32.699  35.167  1.00  0.00     0.057 A 
ATOM     70  C   UNL A   1      40.598  34.012  35.652  1.00  0.00     0.134 A 
ATOM     71  C   UNL A   1      39.161  32.215  35.003  1.00  0.00     0.134 A 
ATOM     72  F   UNL A   1      41.820  34.538  35.834  1.00  0.00    -0.206 F 
ATOM     73  C   UNL A   1      39.495  34.847  35.850  1.00  0.00     0.040 A 
ATOM     74  C   UNL A   1      38.047  33.038  35.210  1.00  0.00     0.040 A 
ATOM     75  F   UNL A   1      38.947  30.979  34.527  1.00  0.00    -0.206 F 
ATOM     76  C   UNL A   1      38.214  34.368  35.594  1.00  0.00     0.006 A 
ENDBRANCH  48  69
BRANCH  60  77
ATOM     77  C   UNL A   1      43.242  26.114  34.174  1.00  0.00     0.057 A 
ATOM     78  C   UNL A   1      42.241  25.389  34.833  1.00  0.00     0.134 A 
ATOM     79  C   UNL A   1      44.423  25.396  33.886  1.00  0.00     0.134 A 
ATOM     80  F   UNL A   1      41.037  25.923  35.078  1.00  0.00    -0.206 F 
ATOM     81  C   UNL A   1      42.419  24.055  35.223  1.00  0.00     0.040 A 
ATOM     82  C   UNL A   1      44.592  24.051  34.225  1.00  0.00     0.040 A 
ATOM     83  F   UNL A   1      45.452  25.966  33.241  1.00  0.00    -0.206 F 
ATOM     84  C   UNL A   1      43.592  23.378  34.909  1.00  0.00     0.006 A 
ENDBRANCH  60  77
ENDBRANCH  34  35
ENDBRANCH  26  29
ENDBRANCH  24  25
ENDBRANCH  23  24
ENDBRANCH  22  23
ENDBRANCH   1  22
TORSDOF 16
ENDMDL
MODEL 2
REMARK VINA RESULT:     -11.4      2.450      3.040
REMARK SMILES Cc1ccc(-n2cnnn2)cc1OCC(=O)NCCCCCCNC(=O)c1ccc(-c2c3nc(c(-c4c(F)cccc4F)c4ccc([nH]4)c(-c4c(F)cccc4F)c4nc(c(-c5c(F)cccc5F)c5ccc2[nH]5)C=C4)C=C3)cc1
REMARK SMILES IDX 20 1 19 2 18 3 17 4 15 5 16 6 14 8 13 9 12 10 1 11 2 12 3 13
REMARK SMILES IDX 4 14 11 15 5 16 6 17 7 18 10 19 8 20 9 21 21 22 22 23 23 24
REMARK SMILES IDX 24 25 25 26 26 28 27 29 28 30 80 31 29 32 79 33 30 34 31 35
REMARK SMILES IDX 32 36 73 37 33 38 78 39 72 40 74 41 34 42 77 43 71 44 70 45
REMARK SMILES IDX 35 47 61 48 44 49 60 50 45 51 48 52 59 53 75 54 46 55 47 56
REMARK SMILES IDX 58 58 76 59 49 60 36 61 37 62 42 63 38 64 39 65 41 66 43 67
REMARK SMILES IDX 40 68 62 69 63 70 68 71 64 72 65 73 67 74 69 75 66 76 50 77
REMARK SMILES IDX 51 78 56 79 52 80 53 81 55 82 57 83 54 84
REMARK H PARENT 17 7 24 27 74 46 48 57
REMARK Flexibility Score: inf
ROOT
ATOM      1  C   UNL A   1      34.193  35.631  28.389  1.00  0.00     0.002 C 
ENDROOT
BRANCH   1   2
ATOM      2  C   UNL A   1      34.741  34.247  28.016  1.00  0.00     0.021 C 
BRANCH   2   3
ATOM      3  C   UNL A   1      33.756  33.080  28.027  1.00  0.00     0.116 C 
BRANCH   3   4
ATOM      4  N   UNL A   1      34.400  31.787  28.049  1.00  0.00    -0.353 N 
ATOM      5  C   UNL A   1      34.092  30.681  27.316  1.00  0.00     0.257 C 
ATOM      6  O   UNL A   1      34.930  29.778  27.246  1.00  0.00    -0.271 OA
ATOM      7  H   UNL A   1      35.156  31.694  28.673  1.00  0.00     0.163 HD
BRANCH   5   8
ATOM      8  C   UNL A   1      32.767  30.603  26.545  1.00  0.00     0.329 C 
BRANCH   8   9
ATOM      9  O   UNL A   1      32.628  29.791  25.399  1.00  0.00    -0.483 OA
BRANCH   9  10
ATOM     10  C   UNL A   1      32.276  28.475  25.444  1.00  0.00     0.125 A 
ATOM     11  C   UNL A   1      31.446  28.168  27.883  1.00  0.00     0.048 C 
ATOM     12  C   UNL A   1      31.702  27.719  26.474  1.00  0.00    -0.009 A 
ATOM     13  C   UNL A   1      31.319  26.387  26.197  1.00  0.00     0.009 A 
ATOM     14  C   UNL A   1      31.593  25.777  24.974  1.00  0.00     0.029 A 
ATOM     15  C   UNL A   1      32.603  27.833  24.231  1.00  0.00     0.075 A 
ATOM     16  C   UNL A   1      32.286  26.488  23.999  1.00  0.00     0.072 A 
BRANCH  16  17
ATOM     17  N   UNL A   1      32.674  25.837  22.805  1.00  0.00    -0.200 N 
ATOM     18  C   UNL A   1      32.825  24.496  22.554  1.00  0.00     0.252 A 
ATOM     19  N   UNL A   1      32.921  26.503  21.654  1.00  0.00    -0.040 NA
ATOM     20  N   UNL A   1      33.192  24.324  21.306  1.00  0.00    -0.117 NA
ATOM     21  N   UNL A   1      33.256  25.581  20.763  1.00  0.00    -0.024 NA
ENDBRANCH  16  17
ENDBRANCH   9  10
ENDBRANCH   8   9
ENDBRANCH   5   8
ENDBRANCH   3   4
ENDBRANCH   2   3
ENDBRANCH   1   2
BRANCH   1  22
ATOM     22  C   UNL A   1      32.923  35.702  29.251  1.00  0.00     0.002 C 
BRANCH  22  23
ATOM     23  C   UNL A   1      33.034  36.383  30.617  1.00  0.00     0.021 C 
BRANCH  23  24
ATOM     24  C   UNL A   1      32.647  35.515  31.807  1.00  0.00     0.116 C 
BRANCH  24  25
ATOM     25  N   UNL A   1      33.415  35.767  33.017  1.00  0.00    -0.352 N 
ATOM     26  C   UNL A   1      34.522  35.090  33.515  1.00  0.00     0.251 C 
ATOM     27  H   UNL A   1      33.106  36.525  33.564  1.00  0.00     0.163 HD
ATOM     28  O   UNL A   1      35.030  35.436  34.561  1.00  0.00    -0.269 OA
BRANCH  26  29
ATOM     29  C   UNL A   1      35.166  34.035  32.684  1.00  0.00     0.039 A 
ATOM     30  C   UNL A   1      35.304  32.762  33.250  1.00  0.00     0.014 A 
ATOM     31  C   UNL A   1      35.805  34.336  31.485  1.00  0.00     0.014 A 
ATOM     32  C   UNL A   1      36.293  31.907  32.772  1.00  0.00     0.010 A 
ATOM     33  C   UNL A   1      36.850  33.536  31.067  1.00  0.00     0.010 A 
ATOM     34  C   UNL A   1      37.141  32.360  31.761  1.00  0.00    -0.014 A 
BRANCH  34  35
ATOM     35  C   UNL A   1      38.437  31.752  31.488  1.00  0.00     0.031 A 
ATOM     36  C   UNL A   1      38.551  30.525  30.679  1.00  0.00     0.074 A 
ATOM     37  C   UNL A   1      39.554  32.368  31.937  1.00  0.00     0.049 A 
ATOM     38  N   UNL A   1      39.497  29.659  30.819  1.00  0.00    -0.248 NA
ATOM     39  C   UNL A   1      37.581  30.166  29.651  1.00  0.00     0.031 C 
ATOM     40  C   UNL A   1      40.939  32.060  31.591  1.00  0.00     0.029 A 
ATOM     41  N   UNL A   1      39.654  33.298  32.981  1.00  0.00    -0.354 N 
ATOM     42  C   UNL A   1      39.424  28.794  29.754  1.00  0.00     0.074 A 
ATOM     43  C   UNL A   1      38.180  29.112  29.088  1.00  0.00     0.031 C 
ATOM     44  C   UNL A   1      41.741  32.539  32.555  1.00  0.00     0.029 A 
ATOM     45  C   UNL A   1      40.890  33.053  33.615  1.00  0.00     0.049 A 
ATOM     46  H   UNL A   1      38.992  33.985  33.224  1.00  0.00     0.167 HD
ATOM     47  C   UNL A   1      40.482  27.990  29.453  1.00  0.00     0.037 A 
ATOM     48  C   UNL A   1      40.946  32.666  34.922  1.00  0.00     0.037 A 
ATOM     49  C   UNL A   1      41.586  28.175  30.385  1.00  0.00     0.049 A 
ATOM     50  C   UNL A   1      41.555  31.299  35.132  1.00  0.00     0.074 A 
ATOM     51  C   UNL A   1      42.727  28.960  30.333  1.00  0.00     0.029 A 
ATOM     52  N   UNL A   1      41.443  27.779  31.710  1.00  0.00    -0.354 N 
ATOM     53  N   UNL A   1      41.751  30.435  34.175  1.00  0.00    -0.248 NA
ATOM     54  C   UNL A   1      41.947  30.777  36.440  1.00  0.00     0.031 C 
ATOM     55  C   UNL A   1      43.229  29.097  31.649  1.00  0.00     0.029 A 
ATOM     56  C   UNL A   1      42.409  28.377  32.499  1.00  0.00     0.049 A 
ATOM     57  H   UNL A   1      40.752  27.161  32.040  1.00  0.00     0.167 HD
ATOM     58  C   UNL A   1      42.223  29.264  34.705  1.00  0.00     0.074 A 
ATOM     59  C   UNL A   1      42.360  29.537  36.123  1.00  0.00     0.031 C 
ATOM     60  C   UNL A   1      42.439  28.157  33.936  1.00  0.00     0.037 A 
BRANCH  47  61
ATOM     61  C   UNL A   1      40.585  27.286  28.127  1.00  0.00     0.057 A 
ATOM     62  C   UNL A   1      40.030  26.010  27.926  1.00  0.00     0.134 A 
ATOM     63  C   UNL A   1      41.281  27.809  27.025  1.00  0.00     0.134 A 
ATOM     64  F   UNL A   1      39.273  25.415  28.856  1.00  0.00    -0.206 F 
ATOM     65  C   UNL A   1      40.243  25.266  26.759  1.00  0.00     0.040 A 
ATOM     66  C   UNL A   1      41.543  27.060  25.870  1.00  0.00     0.040 A 
ATOM     67  F   UNL A   1      41.728  29.075  27.028  1.00  0.00    -0.206 F 
ATOM     68  C   UNL A   1      41.034  25.774  25.739  1.00  0.00     0.006 A 
ENDBRANCH  47  61
BRANCH  48  69
ATOM     69  C   UNL A   1      39.868  33.263  35.753  1.00  0.00     0.057 A 
ATOM     70  C   UNL A   1      38.714  32.498  36.002  1.00  0.00     0.134 A 
ATOM     71  C   UNL A   1      40.099  34.356  36.591  1.00  0.00     0.134 A 
ATOM     72  F   UNL A   1      38.433  31.434  35.233  1.00  0.00    -0.206 F 
ATOM     73  C   UNL A   1      37.891  32.737  37.106  1.00  0.00     0.040 A 
ATOM     74  C   UNL A   1      39.274  34.613  37.693  1.00  0.00     0.040 A 
ATOM     75  F   UNL A   1      41.187  35.122  36.430  1.00  0.00    -0.206 F 
ATOM     76  C   UNL A   1      38.193  33.779  37.977  1.00  0.00     0.006 A 
ENDBRANCH  48  69
BRANCH  60  77
ATOM     77  C   UNL A   1      42.767  26.784  34.452  1.00  0.00     0.057 A 
ATOM     78  C   UNL A   1      41.818  25.900  34.983  1.00  0.00     0.134 A 
ATOM     79  C   UNL A   1      44.063  26.251  34.281  1.00  0.00     0.134 A 
ATOM     80  F   UNL A   1      40.530  26.249  35.105  1.00  0.00    -0.206 F 
ATOM     81  C   UNL A   1      42.145  24.592  35.363  1.00  0.00     0.040 A 
ATOM     82  C   UNL A   1      44.388  24.933  34.610  1.00  0.00     0.040 A 
ATOM     83  F   UNL A   1      45.061  26.984  33.765  1.00  0.00    -0.206 F 
ATOM     84  C   UNL A   1      43.430  24.100  35.166  1.00  0.00     0.006 A 
ENDBRANCH  60  77
ENDBRANCH  34  35
ENDBRANCH  26  29
ENDBRANCH  24  25
ENDBRANCH  23  24
ENDBRANCH  22  23
ENDBRANCH   1  22
TORSDOF 16
ENDMDL
MODEL 3
REMARK VINA RESULT:     -11.4      2.475      4.019
REMARK SMILES Cc1ccc(-n2cnnn2)cc1OCC(=O)NCCCCCCNC(=O)c1ccc(-c2c3nc(c(-c4c(F)cccc4F)c4ccc([nH]4)c(-c4c(F)cccc4F)c4nc(c(-c5c(F)cccc5F)c5ccc2[nH]5)C=C4)C=C3)cc1
REMARK SMILES IDX 20 1 19 2 18 3 17 4 15 5 16 6 14 8 13 9 12 10 1 11 2 12 3 13
REMARK SMILES IDX 4 14 11 15 5 16 6 17 7 18 10 19 8 20 9 21 21 22 22 23 23 24
REMARK SMILES IDX 24 25 25 26 26 28 27 29 28 30 80 31 29 32 79 33 30 34 31 35
REMARK SMILES IDX 32 36 73 37 33 38 78 39 72 40 74 41 34 42 77 43 71 44 70 45
REMARK SMILES IDX 35 47 61 48 44 49 60 50 45 51 48 52 59 53 75 54 46 55 47 56
REMARK SMILES IDX 58 58 76 59 49 60 36 61 37 62 42 63 38 64 39 65 41 66 43 67
REMARK SMILES IDX 40 68 62 69 63 70 68 71 64 72 65 73 67 74 69 75 66 76 50 77
REMARK SMILES IDX 51 78 56 79 52 80 53 81 55 82 57 83 54 84
REMARK H PARENT 17 7 24 27 74 46 48 57
REMARK Flexibility Score: inf
ROOT
ATOM      1  C   UNL A   1      31.453  28.287  27.250  1.00  0.00     0.002 C 
ENDROOT
BRANCH   1   2
ATOM      2  C   UNL A   1      32.021  26.924  26.832  1.00  0.00     0.021 C 
BRANCH   2   3
ATOM      3  C   UNL A   1      31.017  25.817  26.516  1.00  0.00     0.116 C 
BRANCH   3   4
ATOM      4  N   UNL A   1      31.554  24.488  26.698  1.00  0.00    -0.353 N 
ATOM      5  C   UNL A   1      31.652  23.487  25.778  1.00  0.00     0.257 C 
ATOM      6  O   UNL A   1      32.405  22.542  26.027  1.00  0.00    -0.271 OA
ATOM      7  H   UNL A   1      31.890  24.280  27.599  1.00  0.00     0.163 HD
BRANCH   5   8
ATOM      8  C   UNL A   1      30.897  23.580  24.445  1.00  0.00     0.329 C 
BRANCH   8   9
ATOM      9  O   UNL A   1      31.489  24.161  23.303  1.00  0.00    -0.483 OA
BRANCH   9  10
ATOM     10  C   UNL A   1      31.929  25.451  23.253  1.00  0.00     0.125 A 
ATOM     11  C   UNL A   1      34.375  25.274  24.102  1.00  0.00     0.048 C 
ATOM     12  C   UNL A   1      33.189  25.996  23.531  1.00  0.00    -0.009 A 
ATOM     13  C   UNL A   1      33.400  27.368  23.267  1.00  0.00     0.009 A 
ATOM     14  C   UNL A   1      32.371  28.208  22.846  1.00  0.00     0.029 A 
ATOM     15  C   UNL A   1      30.879  26.319  22.884  1.00  0.00     0.075 A 
ATOM     16  C   UNL A   1      31.087  27.692  22.702  1.00  0.00     0.072 A 
BRANCH  16  17
ATOM     17  N   UNL A   1      30.016  28.562  22.394  1.00  0.00    -0.200 N 
ATOM     18  C   UNL A   1      28.740  28.586  22.901  1.00  0.00     0.252 A 
ATOM     19  N   UNL A   1      30.134  29.591  21.524  1.00  0.00    -0.040 NA
ATOM     20  N   UNL A   1      28.068  29.566  22.343  1.00  0.00    -0.117 NA
ATOM     21  N   UNL A   1      28.945  30.175  21.485  1.00  0.00    -0.024 NA
ENDBRANCH  16  17
ENDBRANCH   9  10
ENDBRANCH   8   9
ENDBRANCH   5   8
ENDBRANCH   3   4
ENDBRANCH   2   3
ENDBRANCH   1   2
BRANCH   1  22
ATOM     22  C   UNL A   1      31.728  29.498  26.347  1.00  0.00     0.002 C 
BRANCH  22  23
ATOM     23  C   UNL A   1      32.431  30.703  26.976  1.00  0.00     0.021 C 
BRANCH  23  24
ATOM     24  C   UNL A   1      33.902  30.492  27.309  1.00  0.00     0.116 C 
BRANCH  24  25
ATOM     25  N   UNL A   1      34.433  31.401  28.315  1.00  0.00    -0.352 N 
ATOM     26  C   UNL A   1      35.558  31.265  29.119  1.00  0.00     0.251 C 
ATOM     27  H   UNL A   1      33.921  32.231  28.446  1.00  0.00     0.163 HD
ATOM     28  O   UNL A   1      35.842  32.129  29.922  1.00  0.00    -0.269 OA
BRANCH  26  29
ATOM     29  C   UNL A   1      36.488  30.125  28.885  1.00  0.00     0.039 A 
ATOM     30  C   UNL A   1      36.785  29.300  29.976  1.00  0.00     0.014 A 
ATOM     31  C   UNL A   1      37.211  30.002  27.703  1.00  0.00     0.014 A 
ATOM     32  C   UNL A   1      37.969  28.567  29.974  1.00  0.00     0.010 A 
ATOM     33  C   UNL A   1      38.431  29.356  27.731  1.00  0.00     0.010 A 
ATOM     34  C   UNL A   1      38.842  28.705  28.895  1.00  0.00    -0.014 A 
BRANCH  34  35
ATOM     35  C   UNL A   1      40.253  28.347  28.973  1.00  0.00     0.031 A 
ATOM     36  C   UNL A   1      40.742  27.055  28.458  1.00  0.00     0.074 A 
ATOM     37  C   UNL A   1      41.129  29.249  29.469  1.00  0.00     0.049 A 
ATOM     38  N   UNL A   1      41.777  26.442  28.927  1.00  0.00    -0.248 NA
ATOM     39  C   UNL A   1      40.081  26.335  27.376  1.00  0.00     0.031 C 
ATOM     40  C   UNL A   1      42.587  29.186  29.430  1.00  0.00     0.029 A 
ATOM     41  N   UNL A   1      40.849  30.338  30.306  1.00  0.00    -0.354 N 
ATOM     42  C   UNL A   1      42.075  25.418  28.061  1.00  0.00     0.074 A 
ATOM     43  C   UNL A   1      40.958  25.353  27.146  1.00  0.00     0.031 C 
ATOM     44  C   UNL A   1      43.079  29.975  30.398  1.00  0.00     0.029 A 
ATOM     45  C   UNL A   1      41.954  30.466  31.174  1.00  0.00     0.049 A 
ATOM     46  H   UNL A   1      40.042  30.901  30.290  1.00  0.00     0.167 HD
ATOM     47  C   UNL A   1      43.296  24.815  28.111  1.00  0.00     0.037 A 
ATOM     48  C   UNL A   1      41.808  30.321  32.523  1.00  0.00     0.037 A 
ATOM     49  C   UNL A   1      44.137  25.379  29.158  1.00  0.00     0.049 A 
ATOM     50  C   UNL A   1      42.591  29.165  33.104  1.00  0.00     0.074 A 
ATOM     51  C   UNL A   1      45.109  26.366  29.141  1.00  0.00     0.029 A 
ATOM     52  N   UNL A   1      43.798  25.186  30.493  1.00  0.00    -0.354 N 
ATOM     53  N   UNL A   1      43.126  28.217  32.388  1.00  0.00    -0.248 NA
ATOM     54  C   UNL A   1      42.793  28.961  34.537  1.00  0.00     0.031 C 
ATOM     55  C   UNL A   1      45.300  26.821  30.468  1.00  0.00     0.029 A 
ATOM     56  C   UNL A   1      44.463  26.095  31.295  1.00  0.00     0.049 A 
ATOM     57  H   UNL A   1      43.174  24.500  30.820  1.00  0.00     0.167 HD
ATOM     58  C   UNL A   1      43.678  27.275  33.214  1.00  0.00     0.074 A 
ATOM     59  C   UNL A   1      43.472  27.800  34.550  1.00  0.00     0.031 C 
ATOM     60  C   UNL A   1      44.237  26.127  32.731  1.00  0.00     0.037 A 
BRANCH  47  61
ATOM     61  C   UNL A   1      43.790  23.940  26.991  1.00  0.00     0.057 A 
ATOM     62  C   UNL A   1      44.509  24.470  25.905  1.00  0.00     0.134 A 
ATOM     63  C   UNL A   1      43.528  22.562  26.911  1.00  0.00     0.134 A 
ATOM     64  F   UNL A   1      44.902  25.750  25.876  1.00  0.00    -0.206 F 
ATOM     65  C   UNL A   1      44.844  23.712  24.776  1.00  0.00     0.040 A 
ATOM     66  C   UNL A   1      43.815  21.801  25.770  1.00  0.00     0.040 A 
ATOM     67  F   UNL A   1      42.986  21.902  27.947  1.00  0.00    -0.206 F 
ATOM     68  C   UNL A   1      44.464  22.381  24.688  1.00  0.00     0.006 A 
ENDBRANCH  47  61
BRANCH  48  69
ATOM     69  C   UNL A   1      40.495  30.806  33.024  1.00  0.00     0.057 A 
ATOM     70  C   UNL A   1      39.488  29.860  33.288  1.00  0.00     0.134 A 
ATOM     71  C   UNL A   1      40.343  32.073  33.593  1.00  0.00     0.134 A 
ATOM     72  F   UNL A   1      39.574  28.624  32.771  1.00  0.00    -0.206 F 
ATOM     73  C   UNL A   1      38.440  30.123  34.174  1.00  0.00     0.040 A 
ATOM     74  C   UNL A   1      39.289  32.352  34.472  1.00  0.00     0.040 A 
ATOM     75  F   UNL A   1      41.269  33.023  33.403  1.00  0.00    -0.206 F 
ATOM     76  C   UNL A   1      38.360  31.364  34.796  1.00  0.00     0.006 A 
ENDBRANCH  48  69
BRANCH  60  77
ATOM     77  C   UNL A   1      44.688  24.957  33.562  1.00  0.00     0.057 A 
ATOM     78  C   UNL A   1      46.021  24.536  33.663  1.00  0.00     0.134 A 
ATOM     79  C   UNL A   1      43.779  24.304  34.422  1.00  0.00     0.134 A 
ATOM     80  F   UNL A   1      46.998  25.141  32.973  1.00  0.00    -0.206 F 
ATOM     81  C   UNL A   1      46.416  23.505  34.524  1.00  0.00     0.040 A 
ATOM     82  C   UNL A   1      44.170  23.309  35.321  1.00  0.00     0.040 A 
ATOM     83  F   UNL A   1      42.476  24.625  34.441  1.00  0.00    -0.206 F 
ATOM     84  C   UNL A   1      45.492  22.895  35.365  1.00  0.00     0.006 A 
ENDBRANCH  60  77
ENDBRANCH  34  35
ENDBRANCH  26  29
ENDBRANCH  24  25
ENDBRANCH  23  24
ENDBRANCH  22  23
ENDBRANCH   1  22
TORSDOF 16
ENDMDL
